MODEL 1
REMARK VINA RESULT:     -11.5      0.000      0.000
REMARK SMILES COc1ccc(N2/C(=[NH+]/C(=O)CCCC(=O)OCCOCCOC(=O)c3ccc(-c4c5nc(c(-c6c(F)c(F)c(F)c(F)c6F)c6ccc([nH]6)c(-c6c(F)c(F)c(F)c(F)c6F)c6nc(c(-c7c(F)c(F)c(F)c(F)c7F)c7ccc4[nH]7)C=C6)C=C5)cc3)S[C@@H]3CS(=O)(=O)C[C@H]32)cc1Cl
REMARK SMILES IDX 18 1 17 2 15 3 16 4 14 5 13 6 12 7 10 8 7 9 8 10 96 11 9 12
REMARK SMILES IDX 89 13 90 14 95 15 91 17 92 18 11 19 93 20 94 21 6 22 3 23
REMARK SMILES IDX 4 24 98 25 5 26 97 27 99 28 2 29 1 30 19 31 20 32 21 33
REMARK SMILES IDX 22 34 23 35 24 36 25 37 26 38 27 39 88 40 28 41 87 42 29 43
REMARK SMILES IDX 30 44 31 45 81 46 32 47 86 48 80 49 82 50 33 51 85 52 79 53
REMARK SMILES IDX 78 54 34 56 66 57 46 58 65 59 47 60 50 61 64 62 83 63 48 64
REMARK SMILES IDX 49 65 63 67 84 68 51 69 35 70 36 71 44 72 37 73 38 74 42 75
REMARK SMILES IDX 45 76 39 77 40 78 43 79 41 80 67 81 68 82 76 83 69 84 70 85
REMARK SMILES IDX 74 86 77 87 71 88 72 89 75 90 73 91 52 92 53 93 61 94 54 95
REMARK SMILES IDX 55 96 59 97 62 98 56 99 57 100 60 101 58 102
REMARK H PARENT 9 16 82 55 50 66
REMARK Flexibility Score: inf
ROOT
ATOM      1  C   UNL A   1      33.712  34.146  29.970  1.00  0.00     0.261 C 
ENDROOT
BRANCH   1   2
ATOM      2  O   UNL A   1      34.296  34.276  28.666  1.00  0.00    -0.463 OA
BRANCH   2   3
ATOM      3  C   UNL A   1      35.527  33.735  28.505  1.00  0.00     0.305 C 
ATOM      4  O   UNL A   1      36.550  34.174  29.013  1.00  0.00    -0.252 OA
BRANCH   3   5
ATOM      5  C   UNL A   1      35.522  32.500  27.626  1.00  0.00     0.123 C 
BRANCH   5   6
ATOM      6  C   UNL A   1      34.619  31.320  27.991  1.00  0.00     0.024 C 
BRANCH   6   7
ATOM      7  C   UNL A   1      33.539  30.865  27.011  1.00  0.00     0.128 C 
BRANCH   7   8
ATOM      8  C   UNL A   1      33.404  29.373  26.760  1.00  0.00     0.307 C 
ATOM      9  N   UNL A   1      31.932  27.457  24.022  1.00  0.00    -0.217 N 
ATOM     10  C   UNL A   1      32.766  27.955  25.029  1.00  0.00     0.319 C 
ATOM     11  C   UNL A   1      32.457  26.260  23.366  1.00  0.00     0.212 C 
ATOM     12  N   UNL A   1      32.582  29.033  25.716  1.00  0.00    -0.204 N 
ATOM     13  S   UNL A   1      34.149  26.827  25.232  1.00  0.00    -0.029 SA
ATOM     14  C   UNL A   1      33.171  25.509  24.495  1.00  0.00     0.120 C 
ATOM     15  C   UNL A   1      31.509  25.232  22.796  1.00  0.00     0.188 C 
ATOM     16  H   UNL A   1      31.833  29.627  25.483  1.00  0.00     0.316 HD
ATOM     17  C   UNL A   1      33.823  24.307  23.869  1.00  0.00     0.156 C 
ATOM     18  S   UNL A   1      32.556  23.771  22.707  1.00  0.00     0.155 S 
ATOM     19  O   UNL A   1      33.862  28.585  27.585  1.00  0.00    -0.247 OA
ATOM     20  O   UNL A   1      31.831  22.659  23.288  1.00  0.00    -0.229 OA
ATOM     21  O   UNL A   1      33.146  23.713  21.390  1.00  0.00    -0.229 OA
BRANCH   9  22
ATOM     22  C   UNL A   1      30.900  28.168  23.403  1.00  0.00     0.130 A 
ATOM     23  C   UNL A   1      28.819  29.633  22.118  1.00  0.00     0.137 A 
ATOM     24  C   UNL A   1      30.171  29.886  21.846  1.00  0.00     0.052 A 
ATOM     25  C   UNL A   1      28.513  28.649  23.065  1.00  0.00     0.087 A 
ATOM     26  C   UNL A   1      31.194  29.173  22.480  1.00  0.00     0.056 A 
ATOM     27  C   UNL A   1      29.552  27.933  23.697  1.00  0.00     0.076 A 
ATOM     28  Cl  UNL A   1      26.913  28.198  23.535  1.00  0.00    -0.080 Cl
BRANCH  23  29
ATOM     29  O   UNL A   1      27.998  30.398  21.338  1.00  0.00    -0.495 OA
ATOM     30  C   UNL A   1      28.439  31.667  20.886  1.00  0.00     0.278 C 
ENDBRANCH  23  29
ENDBRANCH   9  22
ENDBRANCH   7   8
ENDBRANCH   6   7
ENDBRANCH   5   6
ENDBRANCH   3   5
ENDBRANCH   2   3
ENDBRANCH   1   2
BRANCH   1  31
ATOM     31  C   UNL A   1      33.931  35.412  30.805  1.00  0.00     0.202 C 
BRANCH  31  32
ATOM     32  O   UNL A   1      34.580  35.261  32.065  1.00  0.00    -0.374 OA
BRANCH  32  33
ATOM     33  C   UNL A   1      33.866  34.603  33.109  1.00  0.00     0.202 C 
BRANCH  33  34
ATOM     34  C   UNL A   1      34.291  33.174  33.463  1.00  0.00     0.261 C 
BRANCH  34  35
ATOM     35  O   UNL A   1      35.366  32.701  32.634  1.00  0.00    -0.460 OA
BRANCH  35  36
ATOM     36  C   UNL A   1      36.453  32.277  33.321  1.00  0.00     0.338 C 
ATOM     37  O   UNL A   1      36.638  32.346  34.524  1.00  0.00    -0.246 OA
BRANCH  36  38
ATOM     38  C   UNL A   1      37.361  31.530  32.432  1.00  0.00     0.060 A 
ATOM     39  C   UNL A   1      38.383  30.788  33.037  1.00  0.00     0.016 A 
ATOM     40  C   UNL A   1      37.275  31.618  31.041  1.00  0.00     0.016 A 
ATOM     41  C   UNL A   1      39.365  30.184  32.256  1.00  0.00     0.010 A 
ATOM     42  C   UNL A   1      38.265  31.014  30.258  1.00  0.00     0.010 A 
ATOM     43  C   UNL A   1      39.336  30.331  30.864  1.00  0.00    -0.014 A 
BRANCH  43  44
ATOM     44  C   UNL A   1      40.504  29.893  30.059  1.00  0.00     0.031 A 
ATOM     45  C   UNL A   1      41.609  30.875  29.779  1.00  0.00     0.074 A 
ATOM     46  C   UNL A   1      40.596  28.629  29.611  1.00  0.00     0.049 A 
ATOM     47  N   UNL A   1      42.696  30.724  29.064  1.00  0.00    -0.248 NA
ATOM     48  C   UNL A   1      41.469  32.209  30.384  1.00  0.00     0.031 C 
ATOM     49  C   UNL A   1      39.613  27.577  29.855  1.00  0.00     0.029 A 
ATOM     50  N   UNL A   1      41.562  28.021  28.849  1.00  0.00    -0.354 N 
ATOM     51  C   UNL A   1      43.359  31.943  29.124  1.00  0.00     0.074 A 
ATOM     52  C   UNL A   1      42.540  32.833  29.917  1.00  0.00     0.031 C 
ATOM     53  C   UNL A   1      40.021  26.451  29.245  1.00  0.00     0.029 A 
ATOM     54  C   UNL A   1      41.271  26.716  28.535  1.00  0.00     0.049 A 
ATOM     55  H   UNL A   1      42.383  28.475  28.556  1.00  0.00     0.167 HD
ATOM     56  C   UNL A   1      44.550  32.285  28.574  1.00  0.00     0.037 A 
ATOM     57  C   UNL A   1      41.926  25.845  27.742  1.00  0.00     0.037 A 
ATOM     58  C   UNL A   1      45.363  31.392  27.788  1.00  0.00     0.049 A 
ATOM     59  C   UNL A   1      43.209  26.275  27.076  1.00  0.00     0.074 A 
ATOM     60  C   UNL A   1      46.594  31.636  27.205  1.00  0.00     0.029 A 
ATOM     61  N   UNL A   1      45.020  30.087  27.466  1.00  0.00    -0.354 N 
ATOM     62  N   UNL A   1      43.843  27.418  27.158  1.00  0.00    -0.248 NA
ATOM     63  C   UNL A   1      43.869  25.287  26.209  1.00  0.00     0.031 C 
ATOM     64  C   UNL A   1      46.965  30.502  26.477  1.00  0.00     0.029 A 
ATOM     65  C   UNL A   1      46.002  29.524  26.667  1.00  0.00     0.049 A 
ATOM     66  H   UNL A   1      44.200  29.629  27.761  1.00  0.00     0.167 HD
ATOM     67  C   UNL A   1      44.993  27.276  26.390  1.00  0.00     0.074 A 
ATOM     68  C   UNL A   1      44.972  25.931  25.855  1.00  0.00     0.031 C 
ATOM     69  C   UNL A   1      45.979  28.176  26.156  1.00  0.00     0.037 A 
BRANCH  56  70
ATOM     70  C   UNL A   1      45.034  33.692  28.774  1.00  0.00     0.064 A 
ATOM     71  C   UNL A   1      44.616  34.746  27.947  1.00  0.00     0.173 A 
ATOM     72  C   UNL A   1      45.897  33.998  29.838  1.00  0.00     0.173 A 
ATOM     73  F   UNL A   1      43.799  34.509  26.911  1.00  0.00    -0.203 F 
ATOM     74  C   UNL A   1      45.066  36.047  28.161  1.00  0.00     0.198 A 
ATOM     75  C   UNL A   1      46.318  35.305  30.069  1.00  0.00     0.198 A 
ATOM     76  F   UNL A   1      46.324  33.031  30.664  1.00  0.00    -0.203 F 
ATOM     77  F   UNL A   1      44.692  37.029  27.329  1.00  0.00    -0.200 F 
ATOM     78  C   UNL A   1      45.908  36.327  29.227  1.00  0.00     0.200 A 
ATOM     79  F   UNL A   1      47.118  35.576  31.110  1.00  0.00    -0.200 F 
ATOM     80  F   UNL A   1      46.331  37.581  29.438  1.00  0.00    -0.200 F 
ENDBRANCH  56  70
BRANCH  57  81
ATOM     81  C   UNL A   1      41.374  24.483  27.520  1.00  0.00     0.064 A 
ATOM     82  C   UNL A   1      41.965  23.356  28.109  1.00  0.00     0.173 A 
ATOM     83  C   UNL A   1      40.251  24.276  26.702  1.00  0.00     0.173 A 
ATOM     84  F   UNL A   1      43.053  23.499  28.880  1.00  0.00    -0.203 F 
ATOM     85  C   UNL A   1      41.472  22.076  27.869  1.00  0.00     0.198 A 
ATOM     86  C   UNL A   1      39.738  22.999  26.493  1.00  0.00     0.198 A 
ATOM     87  F   UNL A   1      39.645  25.319  26.116  1.00  0.00    -0.203 F 
ATOM     88  F   UNL A   1      42.088  21.012  28.402  1.00  0.00    -0.200 F 
ATOM     89  C   UNL A   1      40.354  21.898  27.068  1.00  0.00     0.200 A 
ATOM     90  F   UNL A   1      38.647  22.836  25.732  1.00  0.00    -0.200 F 
ATOM     91  F   UNL A   1      39.876  20.667  26.844  1.00  0.00    -0.200 F 
ENDBRANCH  57  81
BRANCH  69  92
ATOM     92  C   UNL A   1      47.154  27.727  25.334  1.00  0.00     0.064 A 
ATOM     93  C   UNL A   1      48.248  27.058  25.901  1.00  0.00     0.173 A 
ATOM     94  C   UNL A   1      47.156  27.921  23.942  1.00  0.00     0.173 A 
ATOM     95  F   UNL A   1      48.305  26.859  27.226  1.00  0.00    -0.203 F 
ATOM     96  C   UNL A   1      49.307  26.618  25.110  1.00  0.00     0.198 A 
ATOM     97  C   UNL A   1      48.199  27.449  23.151  1.00  0.00     0.198 A 
ATOM     98  F   UNL A   1      46.130  28.548  23.346  1.00  0.00    -0.203 F 
ATOM     99  F   UNL A   1      50.364  26.020  25.680  1.00  0.00    -0.200 F 
ATOM    100  C   UNL A   1      49.278  26.805  23.736  1.00  0.00     0.200 A 
ATOM    101  F   UNL A   1      48.157  27.615  21.822  1.00  0.00    -0.200 F 
ATOM    102  F   UNL A   1      50.291  26.368  22.976  1.00  0.00    -0.200 F 
ENDBRANCH  69  92
ENDBRANCH  43  44
ENDBRANCH  36  38
ENDBRANCH  35  36
ENDBRANCH  34  35
ENDBRANCH  33  34
ENDBRANCH  32  33
ENDBRANCH  31  32
ENDBRANCH   1  31
TORSDOF 19
ENDMDL
MODEL 2
REMARK VINA RESULT:     -11.2      5.802     11.457
REMARK SMILES COc1ccc(N2/C(=[NH+]/C(=O)CCCC(=O)OCCOCCOC(=O)c3ccc(-c4c5nc(c(-c6c(F)c(F)c(F)c(F)c6F)c6ccc([nH]6)c(-c6c(F)c(F)c(F)c(F)c6F)c6nc(c(-c7c(F)c(F)c(F)c(F)c7F)c7ccc4[nH]7)C=C6)C=C5)cc3)S[C@@H]3CS(=O)(=O)C[C@H]32)cc1Cl
REMARK SMILES IDX 18 1 17 2 15 3 16 4 14 5 13 6 12 7 10 8 7 9 8 10 96 11 9 12
REMARK SMILES IDX 89 13 90 14 95 15 91 17 92 18 11 19 93 20 94 21 6 22 3 23
REMARK SMILES IDX 4 24 98 25 5 26 97 27 99 28 2 29 1 30 19 31 20 32 21 33
REMARK SMILES IDX 22 34 23 35 24 36 25 37 26 38 27 39 88 40 28 41 87 42 29 43
REMARK SMILES IDX 30 44 31 45 81 46 32 47 86 48 80 49 82 50 33 51 85 52 79 53
REMARK SMILES IDX 78 54 34 56 66 57 46 58 65 59 47 60 50 61 64 62 83 63 48 64
REMARK SMILES IDX 49 65 63 67 84 68 51 69 35 70 36 71 44 72 37 73 38 74 42 75
REMARK SMILES IDX 45 76 39 77 40 78 43 79 41 80 67 81 68 82 76 83 69 84 70 85
REMARK SMILES IDX 74 86 77 87 71 88 72 89 75 90 73 91 52 92 53 93 61 94 54 95
REMARK SMILES IDX 55 96 59 97 62 98 56 99 57 100 60 101 58 102
REMARK H PARENT 9 16 82 55 50 66
REMARK Flexibility Score: inf
ROOT
ATOM      1  C   UNL A   1      42.385  19.594  25.994  1.00  0.00     0.261 C 
ENDROOT
BRANCH   1   2
ATOM      2  O   UNL A   1      41.916  19.856  27.325  1.00  0.00    -0.463 OA
BRANCH   2   3
ATOM      3  C   UNL A   1      41.751  21.157  27.657  1.00  0.00     0.305 C 
ATOM      4  O   UNL A   1      42.654  21.902  28.017  1.00  0.00    -0.252 OA
BRANCH   3   5
ATOM      5  C   UNL A   1      40.315  21.626  27.528  1.00  0.00     0.123 C 
BRANCH   5   6
ATOM      6  C   UNL A   1      39.764  21.990  26.148  1.00  0.00     0.024 C 
BRANCH   6   7
ATOM      7  C   UNL A   1      38.454  21.365  25.670  1.00  0.00     0.128 C 
BRANCH   7   8
ATOM      8  C   UNL A   1      37.328  22.308  25.282  1.00  0.00     0.307 C 
ATOM      9  N   UNL A   1      33.695  21.943  25.286  1.00  0.00    -0.217 N 
ATOM     10  C   UNL A   1      35.009  22.400  25.439  1.00  0.00     0.319 C 
ATOM     11  C   UNL A   1      32.685  22.910  25.717  1.00  0.00     0.212 C 
ATOM     12  N   UNL A   1      36.087  21.729  25.206  1.00  0.00    -0.204 N 
ATOM     13  S   UNL A   1      34.957  24.104  26.004  1.00  0.00    -0.029 SA
ATOM     14  C   UNL A   1      33.294  24.264  25.338  1.00  0.00     0.120 C 
ATOM     15  C   UNL A   1      31.327  22.930  25.057  1.00  0.00     0.188 C 
ATOM     16  H   UNL A   1      36.017  20.776  24.969  1.00  0.00     0.316 HD
ATOM     17  C   UNL A   1      32.346  25.319  25.843  1.00  0.00     0.156 C 
ATOM     18  S   UNL A   1      30.748  24.588  25.452  1.00  0.00     0.155 S 
ATOM     19  O   UNL A   1      37.607  23.439  24.887  1.00  0.00    -0.247 OA
ATOM     20  O   UNL A   1      30.244  25.192  24.236  1.00  0.00    -0.229 OA
ATOM     21  O   UNL A   1      29.972  24.521  26.669  1.00  0.00    -0.229 OA
BRANCH   9  22
ATOM     22  C   UNL A   1      33.319  20.608  25.109  1.00  0.00     0.130 A 
ATOM     23  C   UNL A   1      32.550  17.883  24.783  1.00  0.00     0.137 A 
ATOM     24  C   UNL A   1      32.868  18.410  26.043  1.00  0.00     0.052 A 
ATOM     25  C   UNL A   1      32.644  18.731  23.674  1.00  0.00     0.087 A 
ATOM     26  C   UNL A   1      33.252  19.746  26.204  1.00  0.00     0.056 A 
ATOM     27  C   UNL A   1      33.029  20.077  23.847  1.00  0.00     0.076 A 
ATOM     28  Cl  UNL A   1      32.297  18.265  22.046  1.00  0.00    -0.080 Cl
BRANCH  23  29
ATOM     29  O   UNL A   1      32.141  16.583  24.873  1.00  0.00    -0.495 OA
ATOM     30  C   UNL A   1      33.020  15.601  25.396  1.00  0.00     0.278 C 
ENDBRANCH  23  29
ENDBRANCH   9  22
ENDBRANCH   7   8
ENDBRANCH   6   7
ENDBRANCH   5   6
ENDBRANCH   3   5
ENDBRANCH   2   3
ENDBRANCH   1   2
BRANCH   1  31
ATOM     31  C   UNL A   1      43.079  20.822  25.398  1.00  0.00     0.202 C 
BRANCH  31  32
ATOM     32  O   UNL A   1      44.492  20.755  25.221  1.00  0.00    -0.374 OA
BRANCH  32  33
ATOM     33  C   UNL A   1      45.208  21.981  25.092  1.00  0.00     0.202 C 
BRANCH  33  34
ATOM     34  C   UNL A   1      44.726  22.972  24.028  1.00  0.00     0.261 C 
BRANCH  34  35
ATOM     35  O   UNL A   1      43.877  23.995  24.578  1.00  0.00    -0.460 OA
BRANCH  35  36
ATOM     36  C   UNL A   1      44.545  25.063  25.076  1.00  0.00     0.338 C 
ATOM     37  O   UNL A   1      45.614  25.509  24.694  1.00  0.00    -0.246 OA
BRANCH  36  38
ATOM     38  C   UNL A   1      43.714  25.768  26.069  1.00  0.00     0.060 A 
ATOM     39  C   UNL A   1      43.894  27.151  26.188  1.00  0.00     0.016 A 
ATOM     40  C   UNL A   1      42.845  25.088  26.925  1.00  0.00     0.016 A 
ATOM     41  C   UNL A   1      43.257  27.854  27.206  1.00  0.00     0.010 A 
ATOM     42  C   UNL A   1      42.208  25.795  27.950  1.00  0.00     0.010 A 
ATOM     43  C   UNL A   1      42.445  27.172  28.121  1.00  0.00    -0.014 A 
BRANCH  43  44
ATOM     44  C   UNL A   1      41.962  27.875  29.336  1.00  0.00     0.031 A 
ATOM     45  C   UNL A   1      40.676  28.653  29.269  1.00  0.00     0.074 A 
ATOM     46  C   UNL A   1      42.641  27.793  30.494  1.00  0.00     0.049 A 
ATOM     47  N   UNL A   1      40.091  29.376  30.191  1.00  0.00    -0.248 NA
ATOM     48  C   UNL A   1      39.952  28.614  27.989  1.00  0.00     0.031 C 
ATOM     49  C   UNL A   1      43.872  27.034  30.695  1.00  0.00     0.029 A 
ATOM     50  N   UNL A   1      42.390  28.364  31.717  1.00  0.00    -0.354 N 
ATOM     51  C   UNL A   1      38.942  29.886  29.599  1.00  0.00     0.074 A 
ATOM     52  C   UNL A   1      38.927  29.416  28.231  1.00  0.00     0.031 C 
ATOM     53  C   UNL A   1      44.278  27.193  31.966  1.00  0.00     0.029 A 
ATOM     54  C   UNL A   1      43.358  28.097  32.654  1.00  0.00     0.049 A 
ATOM     55  H   UNL A   1      41.595  28.911  31.904  1.00  0.00     0.167 HD
ATOM     56  C   UNL A   1      37.983  30.667  30.152  1.00  0.00     0.037 A 
ATOM     57  C   UNL A   1      43.498  28.554  33.914  1.00  0.00     0.037 A 
ATOM     58  C   UNL A   1      38.002  31.128  31.516  1.00  0.00     0.049 A 
ATOM     59  C   UNL A   1      42.458  29.487  34.481  1.00  0.00     0.074 A 
ATOM     60  C   UNL A   1      37.067  31.905  32.177  1.00  0.00     0.029 A 
ATOM     61  N   UNL A   1      39.015  30.862  32.426  1.00  0.00    -0.354 N 
ATOM     62  N   UNL A   1      41.362  29.943  33.926  1.00  0.00    -0.248 NA
ATOM     63  C   UNL A   1      42.673  29.965  35.854  1.00  0.00     0.031 C 
ATOM     64  C   UNL A   1      37.545  32.164  33.464  1.00  0.00     0.029 A 
ATOM     65  C   UNL A   1      38.742  31.486  33.633  1.00  0.00     0.049 A 
ATOM     66  H   UNL A   1      39.810  30.312  32.242  1.00  0.00     0.167 HD
ATOM     67  C   UNL A   1      40.738  30.725  34.890  1.00  0.00     0.074 A 
ATOM     68  C   UNL A   1      41.576  30.677  36.070  1.00  0.00     0.031 C 
ATOM     69  C   UNL A   1      39.574  31.415  34.807  1.00  0.00     0.037 A 
BRANCH  56  70
ATOM     70  C   UNL A   1      36.844  31.101  29.274  1.00  0.00     0.064 A 
ATOM     71  C   UNL A   1      35.815  30.221  28.904  1.00  0.00     0.173 A 
ATOM     72  C   UNL A   1      36.758  32.430  28.831  1.00  0.00     0.173 A 
ATOM     73  F   UNL A   1      35.851  28.937  29.291  1.00  0.00    -0.203 F 
ATOM     74  C   UNL A   1      34.759  30.649  28.102  1.00  0.00     0.198 A 
ATOM     75  C   UNL A   1      35.684  32.863  28.058  1.00  0.00     0.198 A 
ATOM     76  F   UNL A   1      37.711  33.316  29.160  1.00  0.00    -0.203 F 
ATOM     77  F   UNL A   1      33.813  29.779  27.721  1.00  0.00    -0.200 F 
ATOM     78  C   UNL A   1      34.690  31.970  27.688  1.00  0.00     0.200 A 
ATOM     79  F   UNL A   1      35.610  34.145  27.674  1.00  0.00    -0.200 F 
ATOM     80  F   UNL A   1      33.667  32.383  26.926  1.00  0.00    -0.200 F 
ENDBRANCH  56  70
BRANCH  57  81
ATOM     81  C   UNL A   1      44.677  28.149  34.724  1.00  0.00     0.064 A 
ATOM     82  C   UNL A   1      45.819  28.960  34.798  1.00  0.00     0.173 A 
ATOM     83  C   UNL A   1      44.694  26.936  35.429  1.00  0.00     0.173 A 
ATOM     84  F   UNL A   1      45.861  30.119  34.124  1.00  0.00    -0.203 F 
ATOM     85  C   UNL A   1      46.939  28.563  35.525  1.00  0.00     0.198 A 
ATOM     86  C   UNL A   1      45.801  26.556  36.184  1.00  0.00     0.198 A 
ATOM     87  F   UNL A   1      43.629  26.123  35.394  1.00  0.00    -0.203 F 
ATOM     88  F   UNL A   1      48.035  29.332  35.536  1.00  0.00    -0.200 F 
ATOM     89  C   UNL A   1      46.926  27.364  36.224  1.00  0.00     0.200 A 
ATOM     90  F   UNL A   1      45.776  25.406  36.871  1.00  0.00    -0.200 F 
ATOM     91  F   UNL A   1      48.002  26.986  36.929  1.00  0.00    -0.200 F 
ENDBRANCH  57  81
BRANCH  69  92
ATOM     92  C   UNL A   1      39.096  32.129  36.040  1.00  0.00     0.064 A 
ATOM     93  C   UNL A   1      39.431  33.465  36.304  1.00  0.00     0.173 A 
ATOM     94  C   UNL A   1      38.238  31.479  36.942  1.00  0.00     0.173 A 
ATOM     95  F   UNL A   1      40.258  34.129  35.483  1.00  0.00    -0.203 F 
ATOM     96  C   UNL A   1      38.943  34.115  37.435  1.00  0.00     0.198 A 
ATOM     97  C   UNL A   1      37.724  32.143  38.052  1.00  0.00     0.198 A 
ATOM     98  F   UNL A   1      37.878  30.203  36.733  1.00  0.00    -0.203 F 
ATOM     99  F   UNL A   1      39.313  35.379  37.691  1.00  0.00    -0.200 F 
ATOM    100  C   UNL A   1      38.083  33.458  38.302  1.00  0.00     0.200 A 
ATOM    101  F   UNL A   1      36.878  31.511  38.877  1.00  0.00    -0.200 F 
ATOM    102  F   UNL A   1      37.603  34.091  39.381  1.00  0.00    -0.200 F 
ENDBRANCH  69  92
ENDBRANCH  43  44
ENDBRANCH  36  38
ENDBRANCH  35  36
ENDBRANCH  34  35
ENDBRANCH  33  34
ENDBRANCH  32  33
ENDBRANCH  31  32
ENDBRANCH   1  31
TORSDOF 19
ENDMDL
MODEL 3
REMARK VINA RESULT:     -10.3      6.072     10.804
REMARK SMILES COc1ccc(N2/C(=[NH+]/C(=O)CCCC(=O)OCCOCCOC(=O)c3ccc(-c4c5nc(c(-c6c(F)c(F)c(F)c(F)c6F)c6ccc([nH]6)c(-c6c(F)c(F)c(F)c(F)c6F)c6nc(c(-c7c(F)c(F)c(F)c(F)c7F)c7ccc4[nH]7)C=C6)C=C5)cc3)S[C@@H]3CS(=O)(=O)C[C@H]32)cc1Cl
REMARK SMILES IDX 18 1 17 2 15 3 16 4 14 5 13 6 12 7 10 8 7 9 8 10 96 11 9 12
REMARK SMILES IDX 89 13 90 14 95 15 91 17 92 18 11 19 93 20 94 21 6 22 3 23
REMARK SMILES IDX 4 24 98 25 5 26 97 27 99 28 2 29 1 30 19 31 20 32 21 33
REMARK SMILES IDX 22 34 23 35 24 36 25 37 26 38 27 39 88 40 28 41 87 42 29 43
REMARK SMILES IDX 30 44 31 45 81 46 32 47 86 48 80 49 82 50 33 51 85 52 79 53
REMARK SMILES IDX 78 54 34 56 66 57 46 58 65 59 47 60 50 61 64 62 83 63 48 64
REMARK SMILES IDX 49 65 63 67 84 68 51 69 35 70 36 71 44 72 37 73 38 74 42 75
REMARK SMILES IDX 45 76 39 77 40 78 43 79 41 80 67 81 68 82 76 83 69 84 70 85
REMARK SMILES IDX 74 86 77 87 71 88 72 89 75 90 73 91 52 92 53 93 61 94 54 95
REMARK SMILES IDX 55 96 59 97 62 98 56 99 57 100 60 101 58 102
REMARK H PARENT 9 16 82 55 50 66
REMARK Flexibility Score: inf
ROOT
ATOM      1  C   UNL A   1      43.776  26.918  26.167  1.00  0.00     0.261 C 
ENDROOT
BRANCH   1   2
ATOM      2  O   UNL A   1      42.761  26.219  25.433  1.00  0.00    -0.463 OA
BRANCH   2   3
ATOM      3  C   UNL A   1      42.343  25.044  25.960  1.00  0.00     0.305 C 
ATOM      4  O   UNL A   1      42.507  23.950  25.435  1.00  0.00    -0.252 OA
BRANCH   3   5
ATOM      5  C   UNL A   1      41.647  25.207  27.296  1.00  0.00     0.123 C 
BRANCH   5   6
ATOM      6  C   UNL A   1      40.120  25.130  27.363  1.00  0.00     0.024 C 
BRANCH   6   7
ATOM      7  C   UNL A   1      39.332  24.704  26.126  1.00  0.00     0.128 C 
BRANCH   7   8
ATOM      8  C   UNL A   1      38.380  23.529  26.273  1.00  0.00     0.307 C 
ATOM      9  N   UNL A   1      34.951  22.979  25.145  1.00  0.00    -0.217 N 
ATOM     10  C   UNL A   1      36.312  22.857  25.445  1.00  0.00     0.319 C 
ATOM     11  C   UNL A   1      34.371  21.773  24.552  1.00  0.00     0.212 C 
ATOM     12  N   UNL A   1      37.083  23.784  25.905  1.00  0.00    -0.204 N 
ATOM     13  S   UNL A   1      36.821  21.170  25.100  1.00  0.00    -0.029 SA
ATOM     14  C   UNL A   1      35.112  20.631  25.255  1.00  0.00     0.120 C 
ATOM     15  C   UNL A   1      32.913  21.446  24.775  1.00  0.00     0.188 C 
ATOM     16  H   UNL A   1      36.731  24.699  25.994  1.00  0.00     0.316 HD
ATOM     17  C   UNL A   1      34.633  19.353  24.622  1.00  0.00     0.156 C 
ATOM     18  S   UNL A   1      32.874  19.680  24.428  1.00  0.00     0.155 S 
ATOM     19  O   UNL A   1      38.761  22.522  26.866  1.00  0.00    -0.247 OA
ATOM     20  O   UNL A   1      32.156  19.026  25.503  1.00  0.00    -0.229 OA
ATOM     21  O   UNL A   1      32.530  19.498  23.037  1.00  0.00    -0.229 OA
BRANCH   9  22
ATOM     22  C   UNL A   1      34.252  24.185  25.039  1.00  0.00     0.130 A 
ATOM     23  C   UNL A   1      32.821  26.645  24.860  1.00  0.00     0.137 A 
ATOM     24  C   UNL A   1      32.847  25.895  26.045  1.00  0.00     0.052 A 
ATOM     25  C   UNL A   1      33.503  26.138  23.748  1.00  0.00     0.087 A 
ATOM     26  C   UNL A   1      33.543  24.684  26.133  1.00  0.00     0.056 A 
ATOM     27  C   UNL A   1      34.205  24.918  23.848  1.00  0.00     0.076 A 
ATOM     28  Cl  UNL A   1      33.583  26.913  22.205  1.00  0.00    -0.080 Cl
BRANCH  23  29
ATOM     29  O   UNL A   1      32.139  27.817  25.024  1.00  0.00    -0.495 OA
ATOM     30  C   UNL A   1      31.994  28.373  26.320  1.00  0.00     0.278 C 
ENDBRANCH  23  29
ENDBRANCH   9  22
ENDBRANCH   7   8
ENDBRANCH   6   7
ENDBRANCH   5   6
ENDBRANCH   3   5
ENDBRANCH   2   3
ENDBRANCH   1   2
BRANCH   1  31
ATOM     31  C   UNL A   1      45.072  27.025  25.358  1.00  0.00     0.202 C 
BRANCH  31  32
ATOM     32  O   UNL A   1      45.489  25.871  24.633  1.00  0.00    -0.374 OA
BRANCH  32  33
ATOM     33  C   UNL A   1      46.629  25.159  25.110  1.00  0.00     0.202 C 
BRANCH  33  34
ATOM     34  C   UNL A   1      46.387  23.795  25.764  1.00  0.00     0.261 C 
BRANCH  34  35
ATOM     35  O   UNL A   1      46.447  23.857  27.199  1.00  0.00    -0.460 OA
BRANCH  35  36
ATOM     36  C   UNL A   1      45.275  23.575  27.817  1.00  0.00     0.338 C 
ATOM     37  O   UNL A   1      44.571  22.593  27.652  1.00  0.00    -0.246 OA
BRANCH  36  38
ATOM     38  C   UNL A   1      45.015  24.550  28.892  1.00  0.00     0.060 A 
ATOM     39  C   UNL A   1      44.120  24.170  29.899  1.00  0.00     0.016 A 
ATOM     40  C   UNL A   1      45.561  25.835  28.875  1.00  0.00     0.016 A 
ATOM     41  C   UNL A   1      43.713  25.094  30.858  1.00  0.00     0.010 A 
ATOM     42  C   UNL A   1      45.148  26.764  29.837  1.00  0.00     0.010 A 
ATOM     43  C   UNL A   1      44.190  26.409  30.806  1.00  0.00    -0.014 A 
BRANCH  43  44
ATOM     44  C   UNL A   1      43.578  27.445  31.675  1.00  0.00     0.031 A 
ATOM     45  C   UNL A   1      44.169  27.702  33.034  1.00  0.00     0.074 A 
ATOM     46  C   UNL A   1      42.531  28.171  31.247  1.00  0.00     0.049 A 
ATOM     47  N   UNL A   1      43.772  28.524  33.973  1.00  0.00    -0.248 NA
ATOM     48  C   UNL A   1      45.369  26.926  33.384  1.00  0.00     0.031 C 
ATOM     49  C   UNL A   1      41.899  28.045  29.935  1.00  0.00     0.029 A 
ATOM     50  N   UNL A   1      41.810  29.154  31.877  1.00  0.00    -0.354 N 
ATOM     51  C   UNL A   1      44.663  28.355  35.025  1.00  0.00     0.074 A 
ATOM     52  C   UNL A   1      45.603  27.330  34.624  1.00  0.00     0.031 C 
ATOM     53  C   UNL A   1      40.876  28.913  29.861  1.00  0.00     0.029 A 
ATOM     54  C   UNL A   1      40.756  29.624  31.132  1.00  0.00     0.049 A 
ATOM     55  H   UNL A   1      42.026  29.490  32.776  1.00  0.00     0.167 HD
ATOM     56  C   UNL A   1      44.699  29.003  36.214  1.00  0.00     0.037 A 
ATOM     57  C   UNL A   1      39.789  30.506  31.453  1.00  0.00     0.037 A 
ATOM     58  C   UNL A   1      43.762  30.025  36.606  1.00  0.00     0.049 A 
ATOM     59  C   UNL A   1      39.804  31.156  32.814  1.00  0.00     0.074 A 
ATOM     60  C   UNL A   1      43.727  30.756  37.780  1.00  0.00     0.029 A 
ATOM     61  N   UNL A   1      42.690  30.452  35.837  1.00  0.00    -0.354 N 
ATOM     62  N   UNL A   1      40.663  31.011  33.792  1.00  0.00    -0.248 NA
ATOM     63  C   UNL A   1      38.715  32.097  33.111  1.00  0.00     0.031 C 
ATOM     64  C   UNL A   1      42.596  31.578  37.749  1.00  0.00     0.029 A 
ATOM     65  C   UNL A   1      41.969  31.415  36.524  1.00  0.00     0.049 A 
ATOM     66  H   UNL A   1      42.474  30.120  34.936  1.00  0.00     0.167 HD
ATOM     67  C   UNL A   1      40.245  31.868  34.803  1.00  0.00     0.074 A 
ATOM     68  C   UNL A   1      39.056  32.536  34.315  1.00  0.00     0.031 C 
ATOM     69  C   UNL A   1      40.798  32.087  36.020  1.00  0.00     0.037 A 
BRANCH  56  70
ATOM     70  C   UNL A   1      45.766  28.607  37.194  1.00  0.00     0.064 A 
ATOM     71  C   UNL A   1      47.006  29.263  37.247  1.00  0.00     0.173 A 
ATOM     72  C   UNL A   1      45.528  27.584  38.125  1.00  0.00     0.173 A 
ATOM     73  F   UNL A   1      47.290  30.242  36.375  1.00  0.00    -0.203 F 
ATOM     74  C   UNL A   1      47.976  28.890  38.175  1.00  0.00     0.198 A 
ATOM     75  C   UNL A   1      46.487  27.236  39.073  1.00  0.00     0.198 A 
ATOM     76  F   UNL A   1      44.358  26.927  38.124  1.00  0.00    -0.203 F 
ATOM     77  F   UNL A   1      49.171  29.497  38.174  1.00  0.00    -0.200 F 
ATOM     78  C   UNL A   1      47.712  27.884  39.092  1.00  0.00     0.200 A 
ATOM     79  F   UNL A   1      46.223  26.275  39.970  1.00  0.00    -0.200 F 
ATOM     80  F   UNL A   1      48.642  27.534  39.992  1.00  0.00    -0.200 F 
ENDBRANCH  56  70
BRANCH  57  81
ATOM     81  C   UNL A   1      38.715  30.818  30.474  1.00  0.00     0.064 A 
ATOM     82  C   UNL A   1      38.703  32.033  29.773  1.00  0.00     0.173 A 
ATOM     83  C   UNL A   1      37.668  29.915  30.229  1.00  0.00     0.173 A 
ATOM     84  F   UNL A   1      39.669  32.938  29.988  1.00  0.00    -0.203 F 
ATOM     85  C   UNL A   1      37.675  32.342  28.885  1.00  0.00     0.198 A 
ATOM     86  C   UNL A   1      36.660  30.211  29.315  1.00  0.00     0.198 A 
ATOM     87  F   UNL A   1      37.630  28.739  30.871  1.00  0.00    -0.203 F 
ATOM     88  F   UNL A   1      37.662  33.531  28.268  1.00  0.00    -0.200 F 
ATOM     89  C   UNL A   1      36.658  31.428  28.650  1.00  0.00     0.200 A 
ATOM     90  F   UNL A   1      35.690  29.317  29.079  1.00  0.00    -0.200 F 
ATOM     91  F   UNL A   1      35.674  31.724  27.791  1.00  0.00    -0.200 F 
ENDBRANCH  57  81
BRANCH  69  92
ATOM     92  C   UNL A   1      40.168  33.133  36.897  1.00  0.00     0.064 A 
ATOM     93  C   UNL A   1      39.087  32.844  37.742  1.00  0.00     0.173 A 
ATOM     94  C   UNL A   1      40.697  34.433  36.933  1.00  0.00     0.173 A 
ATOM     95  F   UNL A   1      38.534  31.621  37.737  1.00  0.00    -0.203 F 
ATOM     96  C   UNL A   1      38.546  33.821  38.573  1.00  0.00     0.198 A 
ATOM     97  C   UNL A   1      40.176  35.398  37.790  1.00  0.00     0.198 A 
ATOM     98  F   UNL A   1      41.737  34.762  36.151  1.00  0.00    -0.203 F 
ATOM     99  F   UNL A   1      37.483  33.535  39.339  1.00  0.00    -0.200 F 
ATOM    100  C   UNL A   1      39.096  35.094  38.604  1.00  0.00     0.200 A 
ATOM    101  F   UNL A   1      40.723  36.621  37.831  1.00  0.00    -0.200 F 
ATOM    102  F   UNL A   1      38.583  36.029  39.415  1.00  0.00    -0.200 F 
ENDBRANCH  69  92
ENDBRANCH  43  44
ENDBRANCH  36  38
ENDBRANCH  35  36
ENDBRANCH  34  35
ENDBRANCH  33  34
ENDBRANCH  32  33
ENDBRANCH  31  32
ENDBRANCH   1  31
TORSDOF 19
ENDMDL
