MODEL 1
REMARK VINA RESULT:     -12.0      0.000      0.000
REMARK SMILES CC1(C)[C@@H](CCc2ccccc2)CC[C@]1(C)C(=O)OCCOCCOC(=O)c1ccc(-c2c3nc(c(-c4c(F)c(F)c(F)c(F)c4F)c4ccc([nH]4)c(-c4c(F)c(F)c(F)c(F)c4F)c4nc(c(-c5c(F)c(F)c(F)c(F)c5F)c5ccc2[nH]5)C=C4)C=C3)cc1
REMARK SMILES IDX 21 1 20 2 19 3 17 4 18 5 15 6 1 7 2 8 3 9 4 10 13 11 14 12
REMARK SMILES IDX 16 13 5 14 6 15 7 16 8 17 12 18 9 19 11 20 10 21 22 22 23 23
REMARK SMILES IDX 24 24 25 25 26 26 27 27 28 28 29 29 90 30 30 31 89 32 31 33
REMARK SMILES IDX 32 34 33 35 83 36 34 37 88 38 82 39 84 40 35 41 87 42 81 43
REMARK SMILES IDX 80 44 36 46 68 47 48 48 67 49 49 50 52 51 66 52 85 53 50 54
REMARK SMILES IDX 51 55 65 57 86 58 53 59 37 60 38 61 46 62 39 63 40 64 44 65
REMARK SMILES IDX 47 66 41 67 42 68 45 69 43 70 69 71 70 72 78 73 71 74 72 75
REMARK SMILES IDX 76 76 79 77 73 78 74 79 77 80 75 81 54 82 55 83 63 84 56 85
REMARK SMILES IDX 57 86 61 87 64 88 58 89 59 90 62 91 60 92
REMARK H PARENT 84 45 52 56
REMARK Flexibility Score: inf
ROOT
ATOM      1  C   UNL A   1      31.832  29.027  27.156  1.00  0.00     0.202 C 
ENDROOT
BRANCH   1   2
ATOM      2  C   UNL A   1      31.841  28.229  25.849  1.00  0.00     0.261 C 
BRANCH   2   3
ATOM      3  O   UNL A   1      31.675  26.812  26.053  1.00  0.00    -0.463 OA
BRANCH   3   4
ATOM      4  C   UNL A   1      31.305  26.091  24.966  1.00  0.00     0.312 C 
ATOM      5  O   UNL A   1      30.500  26.486  24.128  1.00  0.00    -0.252 OA
BRANCH   4   6
ATOM      6  C   UNL A   1      31.927  24.683  24.918  1.00  0.00     0.071 C 
ATOM      7  C   UNL A   1      34.459  24.812  25.317  1.00  0.00     0.012 C 
ATOM      8  C   UNL A   1      33.364  24.504  24.288  1.00  0.00    -0.017 C 
ATOM      9  C   UNL A   1      33.674  25.418  23.077  1.00  0.00     0.012 C 
ATOM     10  C   UNL A   1      33.346  23.053  23.677  1.00  0.00    -0.004 C 
ATOM     11  C   UNL A   1      31.898  22.910  23.174  1.00  0.00     0.005 C 
ATOM     12  C   UNL A   1      31.013  23.786  24.048  1.00  0.00     0.019 C 
ATOM     13  C   UNL A   1      31.836  24.198  26.386  1.00  0.00     0.024 C 
BRANCH  10  14
ATOM     14  C   UNL A   1      33.785  21.859  24.551  1.00  0.00     0.009 C 
BRANCH  14  15
ATOM     15  C   UNL A   1      32.693  20.776  24.708  1.00  0.00     0.036 C 
BRANCH  15  16
ATOM     16  C   UNL A   1      33.113  19.399  24.255  1.00  0.00    -0.048 A 
ATOM     17  C   UNL A   1      32.385  18.718  23.268  1.00  0.00     0.004 A 
ATOM     18  C   UNL A   1      34.286  18.817  24.757  1.00  0.00     0.004 A 
ATOM     19  C   UNL A   1      32.853  17.507  22.752  1.00  0.00     0.000 A 
ATOM     20  C   UNL A   1      34.753  17.609  24.237  1.00  0.00     0.000 A 
ATOM     21  C   UNL A   1      34.044  16.961  23.225  1.00  0.00     0.000 A 
ENDBRANCH  15  16
ENDBRANCH  14  15
ENDBRANCH  10  14
ENDBRANCH   4   6
ENDBRANCH   3   4
ENDBRANCH   2   3
ENDBRANCH   1   2
BRANCH   1  22
ATOM     22  O   UNL A   1      32.414  30.329  27.130  1.00  0.00    -0.374 OA
BRANCH  22  23
ATOM     23  C   UNL A   1      31.662  31.366  26.504  1.00  0.00     0.202 C 
BRANCH  23  24
ATOM     24  C   UNL A   1      31.693  32.738  27.197  1.00  0.00     0.261 C 
BRANCH  24  25
ATOM     25  O   UNL A   1      32.991  33.363  27.113  1.00  0.00    -0.460 OA
BRANCH  25  26
ATOM     26  C   UNL A   1      33.567  33.645  28.304  1.00  0.00     0.338 C 
ATOM     27  O   UNL A   1      33.063  34.237  29.243  1.00  0.00    -0.246 OA
BRANCH  26  28
ATOM     28  C   UNL A   1      34.878  32.972  28.429  1.00  0.00     0.060 A 
ATOM     29  C   UNL A   1      34.851  31.605  28.728  1.00  0.00     0.016 A 
ATOM     30  C   UNL A   1      36.094  33.660  28.386  1.00  0.00     0.016 A 
ATOM     31  C   UNL A   1      36.021  30.942  29.085  1.00  0.00     0.010 A 
ATOM     32  C   UNL A   1      37.274  32.988  28.745  1.00  0.00     0.010 A 
ATOM     33  C   UNL A   1      37.233  31.642  29.157  1.00  0.00    -0.014 A 
BRANCH  33  34
ATOM     34  C   UNL A   1      38.375  31.001  29.866  1.00  0.00     0.031 A 
ATOM     35  C   UNL A   1      38.593  31.310  31.328  1.00  0.00     0.074 A 
ATOM     36  C   UNL A   1      39.135  30.064  29.267  1.00  0.00     0.049 A 
ATOM     37  N   UNL A   1      39.470  30.813  32.164  1.00  0.00    -0.248 NA
ATOM     38  C   UNL A   1      37.692  32.307  31.928  1.00  0.00     0.031 C 
ATOM     39  C   UNL A   1      38.997  29.627  27.881  1.00  0.00     0.029 A 
ATOM     40  N   UNL A   1      40.164  29.300  29.762  1.00  0.00    -0.354 N 
ATOM     41  C   UNL A   1      39.223  31.431  33.384  1.00  0.00     0.074 A 
ATOM     42  C   UNL A   1      38.146  32.373  33.171  1.00  0.00     0.031 C 
ATOM     43  C   UNL A   1      39.902  28.662  27.637  1.00  0.00     0.029 A 
ATOM     44  C   UNL A   1      40.700  28.433  28.842  1.00  0.00     0.049 A 
ATOM     45  H   UNL A   1      40.486  29.366  30.690  1.00  0.00     0.167 HD
ATOM     46  C   UNL A   1      39.823  31.223  34.581  1.00  0.00     0.037 A 
ATOM     47  C   UNL A   1      41.722  27.561  28.955  1.00  0.00     0.037 A 
ATOM     48  C   UNL A   1      40.892  30.284  34.806  1.00  0.00     0.049 A 
ATOM     49  C   UNL A   1      42.430  27.410  30.279  1.00  0.00     0.074 A 
ATOM     50  C   UNL A   1      41.564  30.009  35.984  1.00  0.00     0.029 A 
ATOM     51  N   UNL A   1      41.443  29.468  33.832  1.00  0.00    -0.354 N 
ATOM     52  N   UNL A   1      42.178  27.989  31.428  1.00  0.00    -0.248 NA
ATOM     53  C   UNL A   1      43.563  26.473  30.321  1.00  0.00     0.031 C 
ATOM     54  C   UNL A   1      42.557  29.063  35.712  1.00  0.00     0.029 A 
ATOM     55  C   UNL A   1      42.462  28.703  34.378  1.00  0.00     0.049 A 
ATOM     56  H   UNL A   1      41.154  29.435  32.891  1.00  0.00     0.167 HD
ATOM     57  C   UNL A   1      43.089  27.457  32.333  1.00  0.00     0.074 A 
ATOM     58  C   UNL A   1      43.893  26.500  31.604  1.00  0.00     0.031 C 
ATOM     59  C   UNL A   1      43.243  27.735  33.651  1.00  0.00     0.037 A 
BRANCH  46  60
ATOM     60  C   UNL A   1      39.348  32.041  35.747  1.00  0.00     0.064 A 
ATOM     61  C   UNL A   1      38.367  31.565  36.630  1.00  0.00     0.173 A 
ATOM     62  C   UNL A   1      39.917  33.296  36.013  1.00  0.00     0.173 A 
ATOM     63  F   UNL A   1      37.782  30.377  36.414  1.00  0.00    -0.203 F 
ATOM     64  C   UNL A   1      37.955  32.327  37.722  1.00  0.00     0.198 A 
ATOM     65  C   UNL A   1      39.525  34.040  37.122  1.00  0.00     0.198 A 
ATOM     66  F   UNL A   1      40.864  33.794  35.204  1.00  0.00    -0.203 F 
ATOM     67  F   UNL A   1      36.985  31.872  38.526  1.00  0.00    -0.200 F 
ATOM     68  C   UNL A   1      38.541  33.558  37.971  1.00  0.00     0.200 A 
ATOM     69  F   UNL A   1      40.102  35.224  37.370  1.00  0.00    -0.200 F 
ATOM     70  F   UNL A   1      38.152  34.285  39.028  1.00  0.00    -0.200 F 
ENDBRANCH  46  60
BRANCH  47  71
ATOM     71  C   UNL A   1      42.154  26.755  27.781  1.00  0.00     0.064 A 
ATOM     72  C   UNL A   1      41.634  25.475  27.544  1.00  0.00     0.173 A 
ATOM     73  C   UNL A   1      43.139  27.229  26.901  1.00  0.00     0.173 A 
ATOM     74  F   UNL A   1      40.710  24.964  28.373  1.00  0.00    -0.203 F 
ATOM     75  C   UNL A   1      42.102  24.689  26.492  1.00  0.00     0.198 A 
ATOM     76  C   UNL A   1      43.583  26.456  25.831  1.00  0.00     0.198 A 
ATOM     77  F   UNL A   1      43.674  28.445  27.084  1.00  0.00    -0.203 F 
ATOM     78  F   UNL A   1      41.633  23.444  26.329  1.00  0.00    -0.200 F 
ATOM     79  C   UNL A   1      43.073  25.182  25.634  1.00  0.00     0.200 A 
ATOM     80  F   UNL A   1      44.514  26.941  24.999  1.00  0.00    -0.200 F 
ATOM     81  F   UNL A   1      43.528  24.424  24.627  1.00  0.00    -0.200 F 
ENDBRANCH  47  71
BRANCH  59  82
ATOM     82  C   UNL A   1      44.278  26.955  34.412  1.00  0.00     0.064 A 
ATOM     83  C   UNL A   1      44.004  25.692  34.958  1.00  0.00     0.173 A 
ATOM     84  C   UNL A   1      45.576  27.467  34.569  1.00  0.00     0.173 A 
ATOM     85  F   UNL A   1      42.778  25.160  34.848  1.00  0.00    -0.203 F 
ATOM     86  C   UNL A   1      44.982  24.986  35.658  1.00  0.00     0.198 A 
ATOM     87  C   UNL A   1      46.559  26.745  35.240  1.00  0.00     0.198 A 
ATOM     88  F   UNL A   1      45.896  28.666  34.059  1.00  0.00    -0.203 F 
ATOM     89  F   UNL A   1      44.681  23.805  36.217  1.00  0.00    -0.200 F 
ATOM     90  C   UNL A   1      46.258  25.509  35.792  1.00  0.00     0.200 A 
ATOM     91  F   UNL A   1      47.797  27.246  35.354  1.00  0.00    -0.200 F 
ATOM     92  F   UNL A   1      47.198  24.827  36.461  1.00  0.00    -0.200 F 
ENDBRANCH  59  82
ENDBRANCH  33  34
ENDBRANCH  26  28
ENDBRANCH  25  26
ENDBRANCH  24  25
ENDBRANCH  23  24
ENDBRANCH  22  23
ENDBRANCH   1  22
TORSDOF 17
ENDMDL
MODEL 2
REMARK VINA RESULT:     -12.0      1.146      2.275
REMARK SMILES CC1(C)[C@@H](CCc2ccccc2)CC[C@]1(C)C(=O)OCCOCCOC(=O)c1ccc(-c2c3nc(c(-c4c(F)c(F)c(F)c(F)c4F)c4ccc([nH]4)c(-c4c(F)c(F)c(F)c(F)c4F)c4nc(c(-c5c(F)c(F)c(F)c(F)c5F)c5ccc2[nH]5)C=C4)C=C3)cc1
REMARK SMILES IDX 21 1 20 2 19 3 17 4 18 5 15 6 1 7 2 8 3 9 4 10 13 11 14 12
REMARK SMILES IDX 16 13 5 14 6 15 7 16 8 17 12 18 9 19 11 20 10 21 22 22 23 23
REMARK SMILES IDX 24 24 25 25 26 26 27 27 28 28 29 29 90 30 30 31 89 32 31 33
REMARK SMILES IDX 32 34 33 35 83 36 34 37 88 38 82 39 84 40 35 41 87 42 81 43
REMARK SMILES IDX 80 44 36 46 68 47 48 48 67 49 49 50 52 51 66 52 85 53 50 54
REMARK SMILES IDX 51 55 65 57 86 58 53 59 37 60 38 61 46 62 39 63 40 64 44 65
REMARK SMILES IDX 47 66 41 67 42 68 45 69 43 70 69 71 70 72 78 73 71 74 72 75
REMARK SMILES IDX 76 76 79 77 73 78 74 79 77 80 75 81 54 82 55 83 63 84 56 85
REMARK SMILES IDX 57 86 61 87 64 88 58 89 59 90 62 91 60 92
REMARK H PARENT 84 45 52 56
REMARK Flexibility Score: inf
ROOT
ATOM      1  C   UNL A   1      30.969  28.919  23.243  1.00  0.00     0.202 C 
ENDROOT
BRANCH   1   2
ATOM      2  C   UNL A   1      32.228  28.066  23.059  1.00  0.00     0.261 C 
BRANCH   2   3
ATOM      3  O   UNL A   1      31.947  26.655  22.993  1.00  0.00    -0.463 OA
BRANCH   3   4
ATOM      4  C   UNL A   1      32.979  25.857  22.619  1.00  0.00     0.312 C 
ATOM      5  O   UNL A   1      33.673  26.061  21.628  1.00  0.00    -0.252 OA
BRANCH   4   6
ATOM      6  C   UNL A   1      33.152  24.613  23.510  1.00  0.00     0.071 C 
ATOM      7  C   UNL A   1      31.882  24.915  25.719  1.00  0.00     0.012 C 
ATOM      8  C   UNL A   1      33.268  24.804  25.074  1.00  0.00    -0.017 C 
ATOM      9  C   UNL A   1      34.034  26.070  25.530  1.00  0.00     0.012 C 
ATOM     10  C   UNL A   1      34.183  23.613  25.545  1.00  0.00    -0.004 C 
ATOM     11  C   UNL A   1      35.175  23.457  24.379  1.00  0.00     0.005 C 
ATOM     12  C   UNL A   1      34.476  23.918  23.109  1.00  0.00     0.019 C 
ATOM     13  C   UNL A   1      31.973  23.702  23.089  1.00  0.00     0.024 C 
BRANCH  10  14
ATOM     14  C   UNL A   1      33.532  22.271  25.947  1.00  0.00     0.009 C 
BRANCH  14  15
ATOM     15  C   UNL A   1      34.440  21.046  25.691  1.00  0.00     0.036 C 
BRANCH  15  16
ATOM     16  C   UNL A   1      33.874  20.047  24.713  1.00  0.00    -0.048 A 
ATOM     17  C   UNL A   1      34.390  18.744  24.641  1.00  0.00     0.004 A 
ATOM     18  C   UNL A   1      32.767  20.382  23.920  1.00  0.00     0.004 A 
ATOM     19  C   UNL A   1      33.776  17.781  23.837  1.00  0.00     0.000 A 
ATOM     20  C   UNL A   1      32.152  19.417  23.120  1.00  0.00     0.000 A 
ATOM     21  C   UNL A   1      32.649  18.113  23.089  1.00  0.00     0.000 A 
ENDBRANCH  15  16
ENDBRANCH  14  15
ENDBRANCH  10  14
ENDBRANCH   4   6
ENDBRANCH   3   4
ENDBRANCH   2   3
ENDBRANCH   1   2
BRANCH   1  22
ATOM     22  O   UNL A   1      30.639  29.319  24.572  1.00  0.00    -0.374 OA
BRANCH  22  23
ATOM     23  C   UNL A   1      31.699  29.349  25.525  1.00  0.00     0.202 C 
BRANCH  23  24
ATOM     24  C   UNL A   1      32.093  30.736  26.057  1.00  0.00     0.261 C 
BRANCH  24  25
ATOM     25  O   UNL A   1      32.810  30.657  27.307  1.00  0.00    -0.460 OA
BRANCH  25  26
ATOM     26  C   UNL A   1      33.557  31.745  27.607  1.00  0.00     0.338 C 
ATOM     27  O   UNL A   1      33.154  32.876  27.822  1.00  0.00    -0.246 OA
BRANCH  26  28
ATOM     28  C   UNL A   1      34.968  31.371  27.837  1.00  0.00     0.060 A 
ATOM     29  C   UNL A   1      35.232  30.006  28.003  1.00  0.00     0.016 A 
ATOM     30  C   UNL A   1      35.986  32.311  28.015  1.00  0.00     0.016 A 
ATOM     31  C   UNL A   1      36.482  29.582  28.446  1.00  0.00     0.010 A 
ATOM     32  C   UNL A   1      37.247  31.881  28.461  1.00  0.00     0.010 A 
ATOM     33  C   UNL A   1      37.481  30.520  28.738  1.00  0.00    -0.014 A 
BRANCH  33  34
ATOM     34  C   UNL A   1      38.661  30.069  29.526  1.00  0.00     0.031 A 
ATOM     35  C   UNL A   1      38.823  30.561  30.944  1.00  0.00     0.074 A 
ATOM     36  C   UNL A   1      39.511  29.142  29.046  1.00  0.00     0.049 A 
ATOM     37  N   UNL A   1      39.725  30.244  31.840  1.00  0.00    -0.248 NA
ATOM     38  C   UNL A   1      37.827  31.535  31.417  1.00  0.00     0.031 C 
ATOM     39  C   UNL A   1      39.439  28.538  27.718  1.00  0.00     0.029 A 
ATOM     40  N   UNL A   1      40.594  28.534  29.635  1.00  0.00    -0.354 N 
ATOM     41  C   UNL A   1      39.401  30.972  32.978  1.00  0.00     0.074 A 
ATOM     42  C   UNL A   1      38.249  31.783  32.648  1.00  0.00     0.031 C 
ATOM     43  C   UNL A   1      40.430  27.637  27.595  1.00  0.00     0.029 A 
ATOM     44  C   UNL A   1      41.222  27.619  28.826  1.00  0.00     0.049 A 
ATOM     45  H   UNL A   1      40.892  28.734  30.552  1.00  0.00     0.167 HD
ATOM     46  C   UNL A   1      39.994  30.956  34.197  1.00  0.00     0.037 A 
ATOM     47  C   UNL A   1      42.314  26.861  29.048  1.00  0.00     0.037 A 
ATOM     48  C   UNL A   1      41.136  30.149  34.538  1.00  0.00     0.049 A 
ATOM     49  C   UNL A   1      43.007  26.926  30.387  1.00  0.00     0.074 A 
ATOM     50  C   UNL A   1      41.808  30.072  35.746  1.00  0.00     0.029 A 
ATOM     51  N   UNL A   1      41.776  29.279  33.669  1.00  0.00    -0.354 N 
ATOM     52  N   UNL A   1      42.683  27.608  31.458  1.00  0.00    -0.248 NA
ATOM     53  C   UNL A   1      44.218  26.105  30.546  1.00  0.00     0.031 C 
ATOM     54  C   UNL A   1      42.885  29.193  35.593  1.00  0.00     0.029 A 
ATOM     55  C   UNL A   1      42.847  28.677  34.309  1.00  0.00     0.049 A 
ATOM     56  H   UNL A   1      41.509  29.114  32.736  1.00  0.00     0.167 HD
ATOM     57  C   UNL A   1      43.621  27.266  32.427  1.00  0.00     0.074 A 
ATOM     58  C   UNL A   1      44.519  26.309  31.821  1.00  0.00     0.031 C 
ATOM     59  C   UNL A   1      43.724  27.706  33.706  1.00  0.00     0.037 A 
BRANCH  46  60
ATOM     60  C   UNL A   1      39.427  31.856  35.256  1.00  0.00     0.064 A 
ATOM     61  C   UNL A   1      38.573  31.369  36.257  1.00  0.00     0.173 A 
ATOM     62  C   UNL A   1      39.780  33.213  35.299  1.00  0.00     0.173 A 
ATOM     63  F   UNL A   1      38.194  30.082  36.254  1.00  0.00    -0.203 F 
ATOM     64  C   UNL A   1      38.075  32.213  37.248  1.00  0.00     0.198 A 
ATOM     65  C   UNL A   1      39.305  34.046  36.308  1.00  0.00     0.198 A 
ATOM     66  F   UNL A   1      40.598  33.729  34.369  1.00  0.00    -0.203 F 
ATOM     67  F   UNL A   1      37.226  31.735  38.168  1.00  0.00    -0.200 F 
ATOM     68  C   UNL A   1      38.449  33.548  37.277  1.00  0.00     0.200 A 
ATOM     69  F   UNL A   1      39.679  35.333  36.343  1.00  0.00    -0.200 F 
ATOM     70  F   UNL A   1      37.979  34.355  38.237  1.00  0.00    -0.200 F 
ENDBRANCH  46  60
BRANCH  47  71
ATOM     71  C   UNL A   1      42.838  25.969  27.978  1.00  0.00     0.064 A 
ATOM     72  C   UNL A   1      43.741  26.439  27.015  1.00  0.00     0.173 A 
ATOM     73  C   UNL A   1      42.401  24.641  27.865  1.00  0.00     0.173 A 
ATOM     74  F   UNL A   1      44.167  27.711  27.061  1.00  0.00    -0.203 F 
ATOM     75  C   UNL A   1      44.165  25.626  25.965  1.00  0.00     0.198 A 
ATOM     76  C   UNL A   1      42.849  23.818  26.834  1.00  0.00     0.198 A 
ATOM     77  F   UNL A   1      41.533  24.141  28.756  1.00  0.00    -0.203 F 
ATOM     78  F   UNL A   1      44.978  26.122  25.022  1.00  0.00    -0.200 F 
ATOM     79  C   UNL A   1      43.722  24.315  25.877  1.00  0.00     0.200 A 
ATOM     80  F   UNL A   1      42.427  22.549  26.761  1.00  0.00    -0.200 F 
ATOM     81  F   UNL A   1      44.123  23.536  24.865  1.00  0.00    -0.200 F 
ENDBRANCH  47  71
BRANCH  59  82
ATOM     82  C   UNL A   1      44.809  27.113  34.561  1.00  0.00     0.064 A 
ATOM     83  C   UNL A   1      46.093  27.674  34.626  1.00  0.00     0.173 A 
ATOM     84  C   UNL A   1      44.547  25.984  35.354  1.00  0.00     0.173 A 
ATOM     85  F   UNL A   1      46.401  28.745  33.880  1.00  0.00    -0.203 F 
ATOM     86  C   UNL A   1      47.082  27.108  35.429  1.00  0.00     0.198 A 
ATOM     87  C   UNL A   1      45.528  25.442  36.180  1.00  0.00     0.198 A 
ATOM     88  F   UNL A   1      43.334  25.413  35.339  1.00  0.00    -0.203 F 
ATOM     89  F   UNL A   1      48.318  27.629  35.432  1.00  0.00    -0.200 F 
ATOM     90  C   UNL A   1      46.798  25.998  36.209  1.00  0.00     0.200 A 
ATOM     91  F   UNL A   1      45.245  24.380  36.946  1.00  0.00    -0.200 F 
ATOM     92  F   UNL A   1      47.749  25.459  36.984  1.00  0.00    -0.200 F 
ENDBRANCH  59  82
ENDBRANCH  33  34
ENDBRANCH  26  28
ENDBRANCH  25  26
ENDBRANCH  24  25
ENDBRANCH  23  24
ENDBRANCH  22  23
ENDBRANCH   1  22
TORSDOF 17
ENDMDL
MODEL 3
REMARK VINA RESULT:     -11.9      0.634      1.837
REMARK SMILES CC1(C)[C@@H](CCc2ccccc2)CC[C@]1(C)C(=O)OCCOCCOC(=O)c1ccc(-c2c3nc(c(-c4c(F)c(F)c(F)c(F)c4F)c4ccc([nH]4)c(-c4c(F)c(F)c(F)c(F)c4F)c4nc(c(-c5c(F)c(F)c(F)c(F)c5F)c5ccc2[nH]5)C=C4)C=C3)cc1
REMARK SMILES IDX 21 1 20 2 19 3 17 4 18 5 15 6 1 7 2 8 3 9 4 10 13 11 14 12
REMARK SMILES IDX 16 13 5 14 6 15 7 16 8 17 12 18 9 19 11 20 10 21 22 22 23 23
REMARK SMILES IDX 24 24 25 25 26 26 27 27 28 28 29 29 90 30 30 31 89 32 31 33
REMARK SMILES IDX 32 34 33 35 83 36 34 37 88 38 82 39 84 40 35 41 87 42 81 43
REMARK SMILES IDX 80 44 36 46 68 47 48 48 67 49 49 50 52 51 66 52 85 53 50 54
REMARK SMILES IDX 51 55 65 57 86 58 53 59 37 60 38 61 46 62 39 63 40 64 44 65
REMARK SMILES IDX 47 66 41 67 42 68 45 69 43 70 69 71 70 72 78 73 71 74 72 75
REMARK SMILES IDX 76 76 79 77 73 78 74 79 77 80 75 81 54 82 55 83 63 84 56 85
REMARK SMILES IDX 57 86 61 87 64 88 58 89 59 90 62 91 60 92
REMARK H PARENT 84 45 52 56
REMARK Flexibility Score: inf
ROOT
ATOM      1  C   UNL A   1      33.133  29.683  26.389  1.00  0.00     0.202 C 
ENDROOT
BRANCH   1   2
ATOM      2  C   UNL A   1      33.465  28.272  26.885  1.00  0.00     0.261 C 
BRANCH   2   3
ATOM      3  O   UNL A   1      33.170  27.250  25.913  1.00  0.00    -0.463 OA
BRANCH   3   4
ATOM      4  C   UNL A   1      32.215  26.351  26.262  1.00  0.00     0.312 C 
ATOM      5  O   UNL A   1      31.277  26.610  27.009  1.00  0.00    -0.252 OA
BRANCH   4   6
ATOM      6  C   UNL A   1      32.462  24.939  25.701  1.00  0.00     0.071 C 
ATOM      7  C   UNL A   1      32.694  25.023  23.146  1.00  0.00     0.012 C 
ATOM      8  C   UNL A   1      31.819  24.547  24.312  1.00  0.00    -0.017 C 
ATOM      9  C   UNL A   1      30.416  25.144  24.040  1.00  0.00     0.012 C 
ATOM     10  C   UNL A   1      31.559  22.998  24.424  1.00  0.00    -0.004 C 
ATOM     11  C   UNL A   1      31.175  22.820  25.904  1.00  0.00     0.005 C 
ATOM     12  C   UNL A   1      31.867  23.916  26.700  1.00  0.00     0.019 C 
ATOM     13  C   UNL A   1      34.004  24.806  25.721  1.00  0.00     0.024 C 
BRANCH  10  14
ATOM     14  C   UNL A   1      32.661  22.012  23.980  1.00  0.00     0.009 C 
BRANCH  14  15
ATOM     15  C   UNL A   1      32.111  20.758  23.261  1.00  0.00     0.036 C 
BRANCH  15  16
ATOM     16  C   UNL A   1      32.848  19.483  23.586  1.00  0.00    -0.048 A 
ATOM     17  C   UNL A   1      32.501  18.276  22.959  1.00  0.00     0.004 A 
ATOM     18  C   UNL A   1      33.946  19.503  24.459  1.00  0.00     0.004 A 
ATOM     19  C   UNL A   1      33.272  17.128  23.155  1.00  0.00     0.000 A 
ATOM     20  C   UNL A   1      34.717  18.355  24.650  1.00  0.00     0.000 A 
ATOM     21  C   UNL A   1      34.388  17.171  23.988  1.00  0.00     0.000 A 
ENDBRANCH  15  16
ENDBRANCH  14  15
ENDBRANCH  10  14
ENDBRANCH   4   6
ENDBRANCH   3   4
ENDBRANCH   2   3
ENDBRANCH   1   2
BRANCH   1  22
ATOM     22  O   UNL A   1      32.176  30.430  27.137  1.00  0.00    -0.374 OA
BRANCH  22  23
ATOM     23  C   UNL A   1      31.604  31.573  26.506  1.00  0.00     0.202 C 
BRANCH  23  24
ATOM     24  C   UNL A   1      31.761  32.908  27.252  1.00  0.00     0.261 C 
BRANCH  24  25
ATOM     25  O   UNL A   1      33.113  33.411  27.191  1.00  0.00    -0.460 OA
BRANCH  25  26
ATOM     26  C   UNL A   1      33.694  33.633  28.393  1.00  0.00     0.338 C 
ATOM     27  O   UNL A   1      33.203  34.201  29.353  1.00  0.00    -0.246 OA
BRANCH  26  28
ATOM     28  C   UNL A   1      34.987  32.923  28.494  1.00  0.00     0.060 A 
ATOM     29  C   UNL A   1      34.931  31.579  28.882  1.00  0.00     0.016 A 
ATOM     30  C   UNL A   1      36.220  33.563  28.345  1.00  0.00     0.016 A 
ATOM     31  C   UNL A   1      36.097  30.898  29.220  1.00  0.00     0.010 A 
ATOM     32  C   UNL A   1      37.396  32.874  28.686  1.00  0.00     0.010 A 
ATOM     33  C   UNL A   1      37.333  31.558  29.185  1.00  0.00    -0.014 A 
BRANCH  33  34
ATOM     34  C   UNL A   1      38.490  30.923  29.875  1.00  0.00     0.031 A 
ATOM     35  C   UNL A   1      38.736  31.238  31.330  1.00  0.00     0.074 A 
ATOM     36  C   UNL A   1      39.240  29.985  29.265  1.00  0.00     0.049 A 
ATOM     37  N   UNL A   1      39.631  30.747  32.151  1.00  0.00    -0.248 NA
ATOM     38  C   UNL A   1      37.845  32.236  31.943  1.00  0.00     0.031 C 
ATOM     39  C   UNL A   1      39.076  29.540  27.883  1.00  0.00     0.029 A 
ATOM     40  N   UNL A   1      40.280  29.224  29.743  1.00  0.00    -0.354 N 
ATOM     41  C   UNL A   1      39.406  31.370  33.373  1.00  0.00     0.074 A 
ATOM     42  C   UNL A   1      38.323  32.309  33.177  1.00  0.00     0.031 C 
ATOM     43  C   UNL A   1      39.978  28.576  27.626  1.00  0.00     0.029 A 
ATOM     44  C   UNL A   1      40.800  28.354  28.816  1.00  0.00     0.049 A 
ATOM     45  H   UNL A   1      40.620  29.295  30.664  1.00  0.00     0.167 HD
ATOM     46  C   UNL A   1      40.030  31.168  34.559  1.00  0.00     0.037 A 
ATOM     47  C   UNL A   1      41.825  27.485  28.914  1.00  0.00     0.037 A 
ATOM     48  C   UNL A   1      41.104  30.232  34.768  1.00  0.00     0.049 A 
ATOM     49  C   UNL A   1      42.559  27.341  30.224  1.00  0.00     0.074 A 
ATOM     50  C   UNL A   1      41.800  29.964  35.933  1.00  0.00     0.029 A 
ATOM     51  N   UNL A   1      41.639  29.413  33.786  1.00  0.00    -0.354 N 
ATOM     52  N   UNL A   1      42.329  27.925  31.375  1.00  0.00    -0.248 NA
ATOM     53  C   UNL A   1      43.695  26.407  30.247  1.00  0.00     0.031 C 
ATOM     54  C   UNL A   1      42.790  29.018  35.646  1.00  0.00     0.029 A 
ATOM     55  C   UNL A   1      42.669  28.653  34.316  1.00  0.00     0.049 A 
ATOM     56  H   UNL A   1      41.331  29.375  32.852  1.00  0.00     0.167 HD
ATOM     57  C   UNL A   1      43.259  27.399  32.265  1.00  0.00     0.074 A 
ATOM     58  C   UNL A   1      44.050  26.440  31.524  1.00  0.00     0.031 C 
ATOM     59  C   UNL A   1      43.437  27.683  33.578  1.00  0.00     0.037 A 
BRANCH  46  60
ATOM     60  C   UNL A   1      39.576  31.990  35.731  1.00  0.00     0.064 A 
ATOM     61  C   UNL A   1      40.136  33.246  36.011  1.00  0.00     0.173 A 
ATOM     62  C   UNL A   1      38.535  31.538  36.555  1.00  0.00     0.173 A 
ATOM     63  F   UNL A   1      41.143  33.719  35.261  1.00  0.00    -0.203 F 
ATOM     64  C   UNL A   1      39.685  34.007  37.087  1.00  0.00     0.198 A 
ATOM     65  C   UNL A   1      38.067  32.314  37.611  1.00  0.00     0.198 A 
ATOM     66  F   UNL A   1      37.961  30.346  36.328  1.00  0.00    -0.203 F 
ATOM     67  F   UNL A   1      40.264  35.184  37.362  1.00  0.00    -0.200 F 
ATOM     68  C   UNL A   1      38.646  33.545  37.880  1.00  0.00     0.200 A 
ATOM     69  F   UNL A   1      37.053  31.872  38.368  1.00  0.00    -0.200 F 
ATOM     70  F   UNL A   1      38.206  34.283  38.908  1.00  0.00    -0.200 F 
ENDBRANCH  46  60
BRANCH  47  71
ATOM     71  C   UNL A   1      42.236  26.675  27.734  1.00  0.00     0.064 A 
ATOM     72  C   UNL A   1      41.695  25.403  27.500  1.00  0.00     0.173 A 
ATOM     73  C   UNL A   1      43.221  27.135  26.848  1.00  0.00     0.173 A 
ATOM     74  F   UNL A   1      40.771  24.904  28.336  1.00  0.00    -0.203 F 
ATOM     75  C   UNL A   1      42.143  24.612  26.443  1.00  0.00     0.198 A 
ATOM     76  C   UNL A   1      43.645  26.358  25.773  1.00  0.00     0.198 A 
ATOM     77  F   UNL A   1      43.776  28.343  27.028  1.00  0.00    -0.203 F 
ATOM     78  F   UNL A   1      41.655  23.374  26.282  1.00  0.00    -0.200 F 
ATOM     79  C   UNL A   1      43.115  25.092  25.578  1.00  0.00     0.200 A 
ATOM     80  F   UNL A   1      44.576  26.831  24.933  1.00  0.00    -0.200 F 
ATOM     81  F   UNL A   1      43.550  24.329  24.567  1.00  0.00    -0.200 F 
ENDBRANCH  47  71
BRANCH  59  82
ATOM     82  C   UNL A   1      44.489  26.908  34.322  1.00  0.00     0.064 A 
ATOM     83  C   UNL A   1      45.799  27.386  34.469  1.00  0.00     0.173 A 
ATOM     84  C   UNL A   1      44.169  25.681  34.927  1.00  0.00     0.173 A 
ATOM     85  F   UNL A   1      46.163  28.546  33.902  1.00  0.00    -0.203 F 
ATOM     86  C   UNL A   1      46.757  26.650  35.166  1.00  0.00     0.198 A 
ATOM     87  C   UNL A   1      45.119  24.966  35.651  1.00  0.00     0.198 A 
ATOM     88  F   UNL A   1      42.928  25.182  34.827  1.00  0.00    -0.203 F 
ATOM     89  F   UNL A   1      48.017  27.101  35.246  1.00  0.00    -0.200 F 
ATOM     90  C   UNL A   1      46.414  25.446  35.761  1.00  0.00     0.200 A 
ATOM     91  F   UNL A   1      44.780  23.811  36.239  1.00  0.00    -0.200 F 
ATOM     92  F   UNL A   1      47.335  24.743  36.435  1.00  0.00    -0.200 F 
ENDBRANCH  59  82
ENDBRANCH  33  34
ENDBRANCH  26  28
ENDBRANCH  25  26
ENDBRANCH  24  25
ENDBRANCH  23  24
ENDBRANCH  22  23
ENDBRANCH   1  22
TORSDOF 17
ENDMDL
