MODEL 1
REMARK VINA RESULT:     -11.9      0.000      0.000
REMARK SMILES CC[C@@H](NC(=O)N1C[C@H]2CCCC[N@@H+]2C[C@@H]1C)C(=O)OCCOCCOC(=O)c1ccc(-c2c3nc(c(-c4c(F)c(F)c(F)c(F)c4F)c4ccc([nH]4)c(-c4c(F)c(F)c(F)c(F)c4F)c4nc(c(-c5c(F)c(F)c(F)c(F)c5F)c5ccc2[nH]5)C=C4)C=C3)cc1
REMARK SMILES IDX 23 1 22 2 21 3 20 4 18 5 19 6 3 7 2 8 1 9 4 10 5 11 6 13
REMARK SMILES IDX 7 14 8 15 16 16 9 17 15 18 17 19 10 20 14 21 11 22 13 23
REMARK SMILES IDX 12 25 24 26 25 27 26 28 27 29 28 30 29 31 30 32 91 33 31 34
REMARK SMILES IDX 90 35 32 36 33 37 34 38 84 39 35 40 89 41 83 42 85 43 36 44
REMARK SMILES IDX 88 45 82 46 81 47 37 49 69 50 49 51 68 52 50 53 53 54 67 55
REMARK SMILES IDX 86 56 51 57 52 58 66 60 87 61 54 62 38 63 39 64 47 65 40 66
REMARK SMILES IDX 41 67 45 68 48 69 42 70 43 71 46 72 44 73 70 74 71 75 79 76
REMARK SMILES IDX 72 77 73 78 77 79 80 80 74 81 75 82 78 83 76 84 55 85 56 86
REMARK SMILES IDX 64 87 57 88 58 89 62 90 65 91 59 92 60 93 63 94 61 95
REMARK H PARENT 4 12 14 24 85 48 53 59
REMARK Flexibility Score: inf
ROOT
ATOM      1  O   UNL A   1      35.540  21.606  25.946  1.00  0.00    -0.374 OA
ENDROOT
BRANCH   1   2
ATOM      2  C   UNL A   1      34.311  21.454  26.619  1.00  0.00     0.202 C 
BRANCH   2   3
ATOM      3  C   UNL A   1      33.008  21.201  25.862  1.00  0.00     0.261 C 
BRANCH   3   4
ATOM      4  O   UNL A   1      32.213  22.295  25.444  1.00  0.00    -0.462 OA
BRANCH   4   5
ATOM      5  C   UNL A   1      32.036  23.359  26.269  1.00  0.00     0.328 C 
ATOM      6  O   UNL A   1      31.720  23.334  27.450  1.00  0.00    -0.250 OA
BRANCH   5   7
ATOM      7  C   UNL A   1      32.195  24.640  25.475  1.00  0.00     0.193 C 
BRANCH   7   8
ATOM      8  C   UNL A   1      33.510  25.311  25.965  1.00  0.00     0.033 C 
ATOM      9  C   UNL A   1      34.799  24.832  25.326  1.00  0.00     0.007 C 
ENDBRANCH   7   8
BRANCH   7  10
ATOM     10  N   UNL A   1      32.163  24.421  24.017  1.00  0.00    -0.324 N 
ATOM     11  C   UNL A   1      32.182  25.277  22.950  1.00  0.00     0.318 C 
ATOM     12  H   UNL A   1      32.120  23.471  23.762  1.00  0.00     0.166 HD
ATOM     13  O   UNL A   1      32.577  24.840  21.869  1.00  0.00    -0.249 OA
BRANCH  11  14
ATOM     14  N   UNL A   1      31.510  26.485  23.053  1.00  0.00    -0.310 N 
ATOM     15  C   UNL A   1      30.152  26.477  23.637  1.00  0.00     0.186 C 
ATOM     16  C   UNL A   1      32.297  27.623  23.575  1.00  0.00     0.139 C 
ATOM     17  C   UNL A   1      29.413  27.779  23.247  1.00  0.00     0.203 C 
ATOM     18  C   UNL A   1      31.523  28.988  23.596  1.00  0.00     0.287 C 
ATOM     19  C   UNL A   1      33.595  27.838  22.777  1.00  0.00     0.037 C 
ATOM     20  C   UNL A   1      27.913  27.791  23.560  1.00  0.00     0.067 C 
ATOM     21  N   UNL A   1      30.053  28.998  23.787  1.00  0.00    -0.329 N 
ATOM     22  C   UNL A   1      27.244  28.983  22.867  1.00  0.00     0.012 C 
ATOM     23  C   UNL A   1      29.485  30.212  23.162  1.00  0.00     0.262 C 
ATOM     24  H   UNL A   1      29.863  29.008  24.789  1.00  0.00     0.348 HD
ATOM     25  C   UNL A   1      27.955  30.297  23.179  1.00  0.00     0.062 C 
ENDBRANCH  11  14
ENDBRANCH   7  10
ENDBRANCH   5   7
ENDBRANCH   4   5
ENDBRANCH   3   4
ENDBRANCH   2   3
ENDBRANCH   1   2
BRANCH   1  26
ATOM     26  C   UNL A   1      35.920  20.604  25.015  1.00  0.00     0.202 C 
BRANCH  26  27
ATOM     27  C   UNL A   1      37.422  20.344  24.897  1.00  0.00     0.261 C 
BRANCH  27  28
ATOM     28  O   UNL A   1      38.188  21.477  25.363  1.00  0.00    -0.460 OA
BRANCH  28  29
ATOM     29  C   UNL A   1      39.281  21.176  26.109  1.00  0.00     0.338 C 
ATOM     30  O   UNL A   1      39.935  20.144  26.078  1.00  0.00    -0.246 OA
BRANCH  29  31
ATOM     31  C   UNL A   1      39.766  22.405  26.782  1.00  0.00     0.060 A 
ATOM     32  C   UNL A   1      39.167  23.629  26.434  1.00  0.00     0.016 A 
ATOM     33  C   UNL A   1      40.778  22.367  27.738  1.00  0.00     0.016 A 
ATOM     34  C   UNL A   1      39.623  24.825  26.986  1.00  0.00     0.010 A 
ATOM     35  C   UNL A   1      41.262  23.569  28.266  1.00  0.00     0.010 A 
ATOM     36  C   UNL A   1      40.725  24.803  27.847  1.00  0.00    -0.014 A 
BRANCH  36  37
ATOM     37  C   UNL A   1      41.519  26.044  28.032  1.00  0.00     0.031 A 
ATOM     38  C   UNL A   1      40.861  27.172  28.781  1.00  0.00     0.074 A 
ATOM     39  C   UNL A   1      42.782  26.173  27.594  1.00  0.00     0.049 A 
ATOM     40  N   UNL A   1      41.271  28.398  28.984  1.00  0.00    -0.248 NA
ATOM     41  C   UNL A   1      39.549  26.873  29.383  1.00  0.00     0.031 C 
ATOM     42  C   UNL A   1      43.565  25.134  26.933  1.00  0.00     0.029 A 
ATOM     43  N   UNL A   1      43.625  27.258  27.636  1.00  0.00    -0.354 N 
ATOM     44  C   UNL A   1      40.263  29.014  29.717  1.00  0.00     0.074 A 
ATOM     45  C   UNL A   1      39.211  28.041  29.901  1.00  0.00     0.031 C 
ATOM     46  C   UNL A   1      44.770  25.639  26.608  1.00  0.00     0.029 A 
ATOM     47  C   UNL A   1      44.825  27.048  27.000  1.00  0.00     0.049 A 
ATOM     48  H   UNL A   1      43.392  28.106  28.079  1.00  0.00     0.167 HD
ATOM     49  C   UNL A   1      40.220  30.277  30.199  1.00  0.00     0.037 A 
ATOM     50  C   UNL A   1      45.829  27.908  26.737  1.00  0.00     0.037 A 
ATOM     51  C   UNL A   1      41.265  31.246  30.014  1.00  0.00     0.049 A 
ATOM     52  C   UNL A   1      45.717  29.344  27.197  1.00  0.00     0.074 A 
ATOM     53  C   UNL A   1      41.313  32.558  30.449  1.00  0.00     0.029 A 
ATOM     54  N   UNL A   1      42.448  31.004  29.331  1.00  0.00    -0.354 N 
ATOM     55  N   UNL A   1      44.757  29.927  27.876  1.00  0.00    -0.248 NA
ATOM     56  C   UNL A   1      46.830  30.241  26.852  1.00  0.00     0.031 C 
ATOM     57  C   UNL A   1      42.500  33.128  29.980  1.00  0.00     0.029 A 
ATOM     58  C   UNL A   1      43.222  32.153  29.312  1.00  0.00     0.049 A 
ATOM     59  H   UNL A   1      42.699  30.146  28.921  1.00  0.00     0.167 HD
ATOM     60  C   UNL A   1      45.164  31.244  28.065  1.00  0.00     0.074 A 
ATOM     61  C   UNL A   1      46.464  31.371  27.441  1.00  0.00     0.031 C 
ATOM     62  C   UNL A   1      44.522  32.257  28.698  1.00  0.00     0.037 A 
BRANCH  49  63
ATOM     63  C   UNL A   1      38.978  30.691  30.935  1.00  0.00     0.064 A 
ATOM     64  C   UNL A   1      37.867  31.230  30.270  1.00  0.00     0.173 A 
ATOM     65  C   UNL A   1      38.899  30.538  32.328  1.00  0.00     0.173 A 
ATOM     66  F   UNL A   1      37.900  31.418  28.941  1.00  0.00    -0.203 F 
ATOM     67  C   UNL A   1      36.734  31.629  30.975  1.00  0.00     0.198 A 
ATOM     68  C   UNL A   1      37.752  30.906  33.025  1.00  0.00     0.198 A 
ATOM     69  F   UNL A   1      39.934  30.030  33.013  1.00  0.00    -0.203 F 
ATOM     70  F   UNL A   1      35.707  32.194  30.326  1.00  0.00    -0.200 F 
ATOM     71  C   UNL A   1      36.675  31.459  32.351  1.00  0.00     0.200 A 
ATOM     72  F   UNL A   1      37.693  30.732  34.353  1.00  0.00    -0.200 F 
ATOM     73  F   UNL A   1      35.582  31.839  33.027  1.00  0.00    -0.200 F 
ENDBRANCH  49  63
BRANCH  50  74
ATOM     74  C   UNL A   1      47.019  27.456  25.965  1.00  0.00     0.064 A 
ATOM     75  C   UNL A   1      48.136  26.902  26.606  1.00  0.00     0.173 A 
ATOM     76  C   UNL A   1      47.081  27.609  24.571  1.00  0.00     0.173 A 
ATOM     77  F   UNL A   1      48.142  26.765  27.941  1.00  0.00    -0.203 F 
ATOM     78  C   UNL A   1      49.274  26.538  25.888  1.00  0.00     0.198 A 
ATOM     79  C   UNL A   1      48.206  27.214  23.850  1.00  0.00     0.198 A 
ATOM     80  F   UNL A   1      46.044  28.141  23.907  1.00  0.00    -0.203 F 
ATOM     81  F   UNL A   1      50.349  26.064  26.534  1.00  0.00    -0.200 F 
ATOM     82  C   UNL A   1      49.306  26.688  24.510  1.00  0.00     0.200 A 
ATOM     83  F   UNL A   1      48.227  27.351  22.517  1.00  0.00    -0.200 F 
ATOM     84  F   UNL A   1      50.400  26.337  23.820  1.00  0.00    -0.200 F 
ENDBRANCH  50  74
BRANCH  62  85
ATOM     85  C   UNL A   1      45.229  33.581  28.793  1.00  0.00     0.064 A 
ATOM     86  C   UNL A   1      46.117  33.874  29.838  1.00  0.00     0.173 A 
ATOM     87  C   UNL A   1      45.056  34.547  27.789  1.00  0.00     0.173 A 
ATOM     88  F   UNL A   1      46.311  32.988  30.828  1.00  0.00    -0.203 F 
ATOM     89  C   UNL A   1      46.783  35.095  29.890  1.00  0.00     0.198 A 
ATOM     90  C   UNL A   1      45.749  35.754  27.826  1.00  0.00     0.198 A 
ATOM     91  F   UNL A   1      44.228  34.313  26.761  1.00  0.00    -0.203 F 
ATOM     92  F   UNL A   1      47.589  35.374  30.924  1.00  0.00    -0.200 F 
ATOM     93  C   UNL A   1      46.606  36.031  28.880  1.00  0.00     0.200 A 
ATOM     94  F   UNL A   1      45.592  36.647  26.840  1.00  0.00    -0.200 F 
ATOM     95  F   UNL A   1      47.257  37.201  28.927  1.00  0.00    -0.200 F 
ENDBRANCH  62  85
ENDBRANCH  36  37
ENDBRANCH  29  31
ENDBRANCH  28  29
ENDBRANCH  27  28
ENDBRANCH  26  27
ENDBRANCH   1  26
TORSDOF 17
ENDMDL
MODEL 2
REMARK VINA RESULT:     -11.9      4.629      8.694
REMARK SMILES CC[C@@H](NC(=O)N1C[C@H]2CCCC[N@@H+]2C[C@@H]1C)C(=O)OCCOCCOC(=O)c1ccc(-c2c3nc(c(-c4c(F)c(F)c(F)c(F)c4F)c4ccc([nH]4)c(-c4c(F)c(F)c(F)c(F)c4F)c4nc(c(-c5c(F)c(F)c(F)c(F)c5F)c5ccc2[nH]5)C=C4)C=C3)cc1
REMARK SMILES IDX 23 1 22 2 21 3 20 4 18 5 19 6 3 7 2 8 1 9 4 10 5 11 6 13
REMARK SMILES IDX 7 14 8 15 16 16 9 17 15 18 17 19 10 20 14 21 11 22 13 23
REMARK SMILES IDX 12 25 24 26 25 27 26 28 27 29 28 30 29 31 30 32 91 33 31 34
REMARK SMILES IDX 90 35 32 36 33 37 34 38 84 39 35 40 89 41 83 42 85 43 36 44
REMARK SMILES IDX 88 45 82 46 81 47 37 49 69 50 49 51 68 52 50 53 53 54 67 55
REMARK SMILES IDX 86 56 51 57 52 58 66 60 87 61 54 62 38 63 39 64 47 65 40 66
REMARK SMILES IDX 41 67 45 68 48 69 42 70 43 71 46 72 44 73 70 74 71 75 79 76
REMARK SMILES IDX 72 77 73 78 77 79 80 80 74 81 75 82 78 83 76 84 55 85 56 86
REMARK SMILES IDX 64 87 57 88 58 89 62 90 65 91 59 92 60 93 63 94 61 95
REMARK H PARENT 4 12 14 24 85 48 53 59
REMARK Flexibility Score: inf
ROOT
ATOM      1  O   UNL A   1      40.347  21.225  27.341  1.00  0.00    -0.374 OA
ENDROOT
BRANCH   1   2
ATOM      2  C   UNL A   1      39.754  21.324  26.066  1.00  0.00     0.202 C 
BRANCH   2   3
ATOM      3  C   UNL A   1      38.383  21.970  25.867  1.00  0.00     0.261 C 
BRANCH   3   4
ATOM      4  O   UNL A   1      37.396  21.303  25.103  1.00  0.00    -0.462 OA
BRANCH   4   5
ATOM      5  C   UNL A   1      36.327  21.992  24.626  1.00  0.00     0.328 C 
ATOM      6  O   UNL A   1      36.337  22.897  23.805  1.00  0.00    -0.250 OA
BRANCH   5   7
ATOM      7  C   UNL A   1      35.074  21.536  25.349  1.00  0.00     0.193 C 
BRANCH   7   8
ATOM      8  C   UNL A   1      34.778  22.598  26.445  1.00  0.00     0.033 C 
ATOM      9  C   UNL A   1      34.024  22.122  27.671  1.00  0.00     0.007 C 
ENDBRANCH   7   8
BRANCH   7  10
ATOM     10  N   UNL A   1      33.937  21.309  24.438  1.00  0.00    -0.324 N 
ATOM     11  C   UNL A   1      33.094  22.161  23.776  1.00  0.00     0.318 C 
ATOM     12  H   UNL A   1      33.746  20.357  24.274  1.00  0.00     0.166 HD
ATOM     13  O   UNL A   1      32.527  21.739  22.768  1.00  0.00    -0.249 OA
BRANCH  11  14
ATOM     14  N   UNL A   1      32.705  23.333  24.403  1.00  0.00    -0.310 N 
ATOM     15  C   UNL A   1      33.124  24.617  23.801  1.00  0.00     0.186 C 
ATOM     16  C   UNL A   1      31.293  23.398  24.841  1.00  0.00     0.139 C 
ATOM     17  C   UNL A   1      33.007  25.746  24.852  1.00  0.00     0.203 C 
ATOM     18  C   UNL A   1      30.917  24.707  25.620  1.00  0.00     0.287 C 
ATOM     19  C   UNL A   1      30.913  22.202  25.732  1.00  0.00     0.037 C 
ATOM     20  C   UNL A   1      33.653  27.075  24.449  1.00  0.00     0.067 C 
ATOM     21  N   UNL A   1      31.619  25.975  25.311  1.00  0.00    -0.329 N 
ATOM     22  C   UNL A   1      33.740  28.003  25.665  1.00  0.00     0.012 C 
ATOM     23  C   UNL A   1      31.598  26.851  26.502  1.00  0.00     0.262 C 
ATOM     24  H   UNL A   1      31.129  26.431  24.542  1.00  0.00     0.348 HD
ATOM     25  C   UNL A   1      32.392  28.154  26.366  1.00  0.00     0.062 C 
ENDBRANCH  11  14
ENDBRANCH   7  10
ENDBRANCH   5   7
ENDBRANCH   4   5
ENDBRANCH   3   4
ENDBRANCH   2   3
ENDBRANCH   1   2
BRANCH   1  26
ATOM     26  C   UNL A   1      41.739  20.954  27.411  1.00  0.00     0.202 C 
BRANCH  26  27
ATOM     27  C   UNL A   1      42.555  21.355  26.181  1.00  0.00     0.261 C 
BRANCH  27  28
ATOM     28  O   UNL A   1      43.328  22.548  26.432  1.00  0.00    -0.460 OA
BRANCH  28  29
ATOM     29  C   UNL A   1      43.138  23.563  25.551  1.00  0.00     0.338 C 
ATOM     30  O   UNL A   1      43.258  23.518  24.336  1.00  0.00    -0.246 OA
BRANCH  29  31
ATOM     31  C   UNL A   1      42.471  24.692  26.243  1.00  0.00     0.060 A 
ATOM     32  C   UNL A   1      43.167  25.911  26.340  1.00  0.00     0.016 A 
ATOM     33  C   UNL A   1      41.192  24.571  26.781  1.00  0.00     0.016 A 
ATOM     34  C   UNL A   1      42.618  26.988  27.033  1.00  0.00     0.010 A 
ATOM     35  C   UNL A   1      40.655  25.639  27.508  1.00  0.00     0.010 A 
ATOM     36  C   UNL A   1      41.392  26.827  27.685  1.00  0.00    -0.014 A 
BRANCH  36  37
ATOM     37  C   UNL A   1      41.046  27.739  28.805  1.00  0.00     0.031 A 
ATOM     38  C   UNL A   1      41.861  27.614  30.065  1.00  0.00     0.074 A 
ATOM     39  C   UNL A   1      40.079  28.668  28.718  1.00  0.00     0.049 A 
ATOM     40  N   UNL A   1      41.704  28.193  31.228  1.00  0.00    -0.248 NA
ATOM     41  C   UNL A   1      43.016  26.700  30.003  1.00  0.00     0.031 C 
ATOM     42  C   UNL A   1      39.276  28.952  27.533  1.00  0.00     0.029 A 
ATOM     43  N   UNL A   1      39.605  29.541  29.667  1.00  0.00    -0.354 N 
ATOM     44  C   UNL A   1      42.724  27.700  32.033  1.00  0.00     0.074 A 
ATOM     45  C   UNL A   1      43.479  26.757  31.240  1.00  0.00     0.031 C 
ATOM     46  C   UNL A   1      38.389  29.919  27.832  1.00  0.00     0.029 A 
ATOM     47  C   UNL A   1      38.535  30.289  29.241  1.00  0.00     0.049 A 
ATOM     48  H   UNL A   1      39.995  29.623  30.567  1.00  0.00     0.167 HD
ATOM     49  C   UNL A   1      43.012  28.009  33.317  1.00  0.00     0.037 A 
ATOM     50  C   UNL A   1      37.746  31.142  29.925  1.00  0.00     0.037 A 
ATOM     51  C   UNL A   1      42.261  28.946  34.108  1.00  0.00     0.049 A 
ATOM     52  C   UNL A   1      38.023  31.399  31.389  1.00  0.00     0.074 A 
ATOM     53  C   UNL A   1      42.460  29.319  35.425  1.00  0.00     0.029 A 
ATOM     54  N   UNL A   1      41.160  29.654  33.650  1.00  0.00    -0.354 N 
ATOM     55  N   UNL A   1      38.978  30.920  32.151  1.00  0.00    -0.248 NA
ATOM     56  C   UNL A   1      37.109  32.315  32.088  1.00  0.00     0.031 C 
ATOM     57  C   UNL A   1      41.445  30.212  35.782  1.00  0.00     0.029 A 
ATOM     58  C   UNL A   1      40.654  30.445  34.668  1.00  0.00     0.049 A 
ATOM     59  H   UNL A   1      40.793  29.602  32.739  1.00  0.00     0.167 HD
ATOM     60  C   UNL A   1      38.799  31.499  33.403  1.00  0.00     0.074 A 
ATOM     61  C   UNL A   1      37.652  32.375  33.296  1.00  0.00     0.031 C 
ATOM     62  C   UNL A   1      39.518  31.323  34.539  1.00  0.00     0.037 A 
BRANCH  49  63
ATOM     63  C   UNL A   1      44.165  27.291  33.957  1.00  0.00     0.064 A 
ATOM     64  C   UNL A   1      44.009  26.040  34.573  1.00  0.00     0.173 A 
ATOM     65  C   UNL A   1      45.446  27.862  33.947  1.00  0.00     0.173 A 
ATOM     66  F   UNL A   1      42.800  25.461  34.630  1.00  0.00    -0.203 F 
ATOM     67  C   UNL A   1      45.087  25.402  35.181  1.00  0.00     0.198 A 
ATOM     68  C   UNL A   1      46.528  27.205  34.526  1.00  0.00     0.198 A 
ATOM     69  F   UNL A   1      45.650  29.058  33.374  1.00  0.00    -0.203 F 
ATOM     70  F   UNL A   1      44.904  24.235  35.814  1.00  0.00    -0.200 F 
ATOM     71  C   UNL A   1      46.347  25.981  35.150  1.00  0.00     0.200 A 
ATOM     72  F   UNL A   1      47.747  27.763  34.485  1.00  0.00    -0.200 F 
ATOM     73  F   UNL A   1      47.385  25.364  35.732  1.00  0.00    -0.200 F 
ENDBRANCH  49  63
BRANCH  50  74
ATOM     74  C   UNL A   1      36.589  31.795  29.252  1.00  0.00     0.064 A 
ATOM     75  C   UNL A   1      36.580  33.173  28.993  1.00  0.00     0.173 A 
ATOM     76  C   UNL A   1      35.449  31.060  28.893  1.00  0.00     0.173 A 
ATOM     77  F   UNL A   1      37.631  33.928  29.348  1.00  0.00    -0.203 F 
ATOM     78  C   UNL A   1      35.469  33.793  28.421  1.00  0.00     0.198 A 
ATOM     79  C   UNL A   1      34.353  31.675  28.290  1.00  0.00     0.198 A 
ATOM     80  F   UNL A   1      35.400  29.740  29.125  1.00  0.00    -0.203 F 
ATOM     81  F   UNL A   1      35.466  35.120  28.238  1.00  0.00    -0.200 F 
ATOM     82  C   UNL A   1      34.360  33.042  28.064  1.00  0.00     0.200 A 
ATOM     83  F   UNL A   1      33.288  30.942  27.937  1.00  0.00    -0.200 F 
ATOM     84  F   UNL A   1      33.293  33.638  27.513  1.00  0.00    -0.200 F 
ENDBRANCH  50  74
BRANCH  62  85
ATOM     85  C   UNL A   1      39.122  32.125  35.748  1.00  0.00     0.064 A 
ATOM     86  C   UNL A   1      39.556  33.444  35.938  1.00  0.00     0.173 A 
ATOM     87  C   UNL A   1      38.245  31.580  36.700  1.00  0.00     0.173 A 
ATOM     88  F   UNL A   1      40.402  34.010  35.062  1.00  0.00    -0.203 F 
ATOM     89  C   UNL A   1      39.152  34.178  37.051  1.00  0.00     0.198 A 
ATOM     90  C   UNL A   1      37.816  32.327  37.793  1.00  0.00     0.198 A 
ATOM     91  F   UNL A   1      37.789  30.326  36.560  1.00  0.00    -0.203 F 
ATOM     92  F   UNL A   1      39.620  35.421  37.238  1.00  0.00    -0.200 F 
ATOM     93  C   UNL A   1      38.276  33.623  37.972  1.00  0.00     0.200 A 
ATOM     94  F   UNL A   1      36.956  31.796  38.672  1.00  0.00    -0.200 F 
ATOM     95  F   UNL A   1      37.880  34.335  39.036  1.00  0.00    -0.200 F 
ENDBRANCH  62  85
ENDBRANCH  36  37
ENDBRANCH  29  31
ENDBRANCH  28  29
ENDBRANCH  27  28
ENDBRANCH  26  27
ENDBRANCH   1  26
TORSDOF 17
ENDMDL
MODEL 3
REMARK VINA RESULT:     -11.8      4.364      9.889
REMARK SMILES CC[C@@H](NC(=O)N1C[C@H]2CCCC[N@@H+]2C[C@@H]1C)C(=O)OCCOCCOC(=O)c1ccc(-c2c3nc(c(-c4c(F)c(F)c(F)c(F)c4F)c4ccc([nH]4)c(-c4c(F)c(F)c(F)c(F)c4F)c4nc(c(-c5c(F)c(F)c(F)c(F)c5F)c5ccc2[nH]5)C=C4)C=C3)cc1
REMARK SMILES IDX 23 1 22 2 21 3 20 4 18 5 19 6 3 7 2 8 1 9 4 10 5 11 6 13
REMARK SMILES IDX 7 14 8 15 16 16 9 17 15 18 17 19 10 20 14 21 11 22 13 23
REMARK SMILES IDX 12 25 24 26 25 27 26 28 27 29 28 30 29 31 30 32 91 33 31 34
REMARK SMILES IDX 90 35 32 36 33 37 34 38 84 39 35 40 89 41 83 42 85 43 36 44
REMARK SMILES IDX 88 45 82 46 81 47 37 49 69 50 49 51 68 52 50 53 53 54 67 55
REMARK SMILES IDX 86 56 51 57 52 58 66 60 87 61 54 62 38 63 39 64 47 65 40 66
REMARK SMILES IDX 41 67 45 68 48 69 42 70 43 71 46 72 44 73 70 74 71 75 79 76
REMARK SMILES IDX 72 77 73 78 77 79 80 80 74 81 75 82 78 83 76 84 55 85 56 86
REMARK SMILES IDX 64 87 57 88 58 89 62 90 65 91 59 92 60 93 63 94 61 95
REMARK H PARENT 4 12 14 24 85 48 53 59
REMARK Flexibility Score: inf
ROOT
ATOM      1  O   UNL A   1      32.091  29.195  24.496  1.00  0.00    -0.374 OA
ENDROOT
BRANCH   1   2
ATOM      2  C   UNL A   1      33.220  28.402  24.206  1.00  0.00     0.202 C 
BRANCH   2   3
ATOM      3  C   UNL A   1      33.431  27.780  22.826  1.00  0.00     0.261 C 
BRANCH   3   4
ATOM      4  O   UNL A   1      32.709  26.619  22.460  1.00  0.00    -0.462 OA
BRANCH   4   5
ATOM      5  C   UNL A   1      31.352  26.645  22.428  1.00  0.00     0.328 C 
ATOM      6  O   UNL A   1      30.641  27.523  21.960  1.00  0.00    -0.250 OA
BRANCH   5   7
ATOM      7  C   UNL A   1      30.809  25.437  23.165  1.00  0.00     0.193 C 
BRANCH   7   8
ATOM      8  C   UNL A   1      31.865  24.306  23.010  1.00  0.00     0.033 C 
ATOM      9  C   UNL A   1      31.357  22.881  23.107  1.00  0.00     0.007 C 
ENDBRANCH   7   8
BRANCH   7  10
ATOM     10  N   UNL A   1      30.471  25.727  24.571  1.00  0.00    -0.324 N 
ATOM     11  C   UNL A   1      31.202  25.687  25.728  1.00  0.00     0.318 C 
ATOM     12  H   UNL A   1      29.536  26.005  24.704  1.00  0.00     0.166 HD
ATOM     13  O   UNL A   1      30.819  26.375  26.674  1.00  0.00    -0.249 OA
BRANCH  11  14
ATOM     14  N   UNL A   1      32.151  24.689  25.882  1.00  0.00    -0.310 N 
ATOM     15  C   UNL A   1      33.574  25.086  25.942  1.00  0.00     0.186 C 
ATOM     16  C   UNL A   1      31.852  23.659  26.901  1.00  0.00     0.139 C 
ATOM     17  C   UNL A   1      34.467  23.858  25.648  1.00  0.00     0.203 C 
ATOM     18  C   UNL A   1      32.911  22.505  26.983  1.00  0.00     0.287 C 
ATOM     19  C   UNL A   1      30.475  23.011  26.676  1.00  0.00     0.037 C 
ATOM     20  C   UNL A   1      35.948  24.175  25.418  1.00  0.00     0.067 C 
ATOM     21  N   UNL A   1      34.329  22.781  26.653  1.00  0.00    -0.329 N 
ATOM     22  C   UNL A   1      36.663  22.946  24.846  1.00  0.00     0.012 C 
ATOM     23  C   UNL A   1      34.975  21.537  26.183  1.00  0.00     0.262 C 
ATOM     24  H   UNL A   1      34.795  23.110  27.499  1.00  0.00     0.348 HD
ATOM     25  C   UNL A   1      36.418  21.699  25.692  1.00  0.00     0.062 C 
ENDBRANCH  11  14
ENDBRANCH   7  10
ENDBRANCH   5   7
ENDBRANCH   4   5
ENDBRANCH   3   4
ENDBRANCH   2   3
ENDBRANCH   1   2
BRANCH   1  26
ATOM     26  C   UNL A   1      31.788  29.453  25.858  1.00  0.00     0.202 C 
BRANCH  26  27
ATOM     27  C   UNL A   1      31.950  30.905  26.309  1.00  0.00     0.261 C 
BRANCH  27  28
ATOM     28  O   UNL A   1      32.729  30.993  27.522  1.00  0.00    -0.460 OA
BRANCH  28  29
ATOM     29  C   UNL A   1      33.533  32.081  27.622  1.00  0.00     0.338 C 
ATOM     30  O   UNL A   1      33.189  33.254  27.649  1.00  0.00    -0.246 OA
BRANCH  29  31
ATOM     31  C   UNL A   1      34.902  31.646  27.992  1.00  0.00     0.060 A 
ATOM     32  C   UNL A   1      35.113  30.279  28.251  1.00  0.00     0.016 A 
ATOM     33  C   UNL A   1      35.960  32.547  28.078  1.00  0.00     0.016 A 
ATOM     34  C   UNL A   1      36.362  29.820  28.664  1.00  0.00     0.010 A 
ATOM     35  C   UNL A   1      37.205  32.094  28.529  1.00  0.00     0.010 A 
ATOM     36  C   UNL A   1      37.391  30.741  28.878  1.00  0.00    -0.014 A 
BRANCH  36  37
ATOM     37  C   UNL A   1      38.519  30.368  29.770  1.00  0.00     0.031 A 
ATOM     38  C   UNL A   1      39.522  29.383  29.228  1.00  0.00     0.074 A 
ATOM     39  C   UNL A   1      38.684  30.892  30.995  1.00  0.00     0.049 A 
ATOM     40  N   UNL A   1      40.527  28.796  29.825  1.00  0.00    -0.248 NA
ATOM     41  C   UNL A   1      39.362  29.006  27.813  1.00  0.00     0.031 C 
ATOM     42  C   UNL A   1      37.839  31.914  31.605  1.00  0.00     0.029 A 
ATOM     43  N   UNL A   1      39.629  30.617  31.954  1.00  0.00    -0.354 N 
ATOM     44  C   UNL A   1      41.103  27.972  28.864  1.00  0.00     0.074 A 
ATOM     45  C   UNL A   1      40.323  28.112  27.656  1.00  0.00     0.031 C 
ATOM     46  C   UNL A   1      38.289  32.165  32.848  1.00  0.00     0.029 A 
ATOM     47  C   UNL A   1      39.427  31.289  33.135  1.00  0.00     0.049 A 
ATOM     48  H   UNL A   1      40.379  29.996  31.809  1.00  0.00     0.167 HD
ATOM     49  C   UNL A   1      42.189  27.174  28.976  1.00  0.00     0.037 A 
ATOM     50  C   UNL A   1      40.067  31.178  34.316  1.00  0.00     0.037 A 
ATOM     51  C   UNL A   1      42.964  27.032  30.177  1.00  0.00     0.049 A 
ATOM     52  C   UNL A   1      41.216  30.205  34.450  1.00  0.00     0.074 A 
ATOM     53  C   UNL A   1      44.074  26.237  30.401  1.00  0.00     0.029 A 
ATOM     54  N   UNL A   1      42.704  27.703  31.363  1.00  0.00    -0.354 N 
ATOM     55  N   UNL A   1      41.748  29.417  33.546  1.00  0.00    -0.248 NA
ATOM     56  C   UNL A   1      41.853  30.106  35.772  1.00  0.00     0.031 C 
ATOM     57  C   UNL A   1      44.451  26.383  31.739  1.00  0.00     0.029 A 
ATOM     58  C   UNL A   1      43.618  27.320  32.330  1.00  0.00     0.049 A 
ATOM     59  H   UNL A   1      41.977  28.352  31.498  1.00  0.00     0.167 HD
ATOM     60  C   UNL A   1      42.796  28.756  34.178  1.00  0.00     0.074 A 
ATOM     61  C   UNL A   1      42.835  29.246  35.540  1.00  0.00     0.031 C 
ATOM     62  C   UNL A   1      43.651  27.829  33.678  1.00  0.00     0.037 A 
BRANCH  49  63
ATOM     63  C   UNL A   1      42.571  26.358  27.774  1.00  0.00     0.064 A 
ATOM     64  C   UNL A   1      43.551  26.789  26.867  1.00  0.00     0.173 A 
ATOM     65  C   UNL A   1      41.949  25.124  27.532  1.00  0.00     0.173 A 
ATOM     66  F   UNL A   1      44.158  27.973  27.041  1.00  0.00    -0.203 F 
ATOM     67  C   UNL A   1      43.873  26.028  25.746  1.00  0.00     0.198 A 
ATOM     68  C   UNL A   1      42.299  24.350  26.429  1.00  0.00     0.198 A 
ATOM     69  F   UNL A   1      41.003  24.667  28.366  1.00  0.00    -0.203 F 
ATOM     70  F   UNL A   1      44.770  26.485  24.863  1.00  0.00    -0.200 F 
ATOM     71  C   UNL A   1      43.252  24.805  25.533  1.00  0.00     0.200 A 
ATOM     72  F   UNL A   1      41.705  23.164  26.230  1.00  0.00    -0.200 F 
ATOM     73  F   UNL A   1      43.567  24.072  24.456  1.00  0.00    -0.200 F 
ENDBRANCH  49  63
BRANCH  50  74
ATOM     74  C   UNL A   1      39.619  31.979  35.489  1.00  0.00     0.064 A 
ATOM     75  C   UNL A   1      38.646  31.494  36.373  1.00  0.00     0.173 A 
ATOM     76  C   UNL A   1      40.127  33.266  35.725  1.00  0.00     0.173 A 
ATOM     77  F   UNL A   1      38.103  30.283  36.173  1.00  0.00    -0.203 F 
ATOM     78  C   UNL A   1      38.182  32.271  37.434  1.00  0.00     0.198 A 
ATOM     79  C   UNL A   1      39.688  34.029  36.805  1.00  0.00     0.198 A 
ATOM     80  F   UNL A   1      41.054  33.783  34.906  1.00  0.00    -0.203 F 
ATOM     81  F   UNL A   1      37.210  31.805  38.229  1.00  0.00    -0.200 F 
ATOM     82  C   UNL A   1      38.708  33.535  37.654  1.00  0.00     0.200 A 
ATOM     83  F   UNL A   1      40.208  35.245  37.019  1.00  0.00    -0.200 F 
ATOM     84  F   UNL A   1      38.264  34.282  38.674  1.00  0.00    -0.200 F 
ENDBRANCH  50  74
BRANCH  62  85
ATOM     85  C   UNL A   1      44.732  27.314  34.588  1.00  0.00     0.064 A 
ATOM     86  C   UNL A   1      45.958  27.977  34.732  1.00  0.00     0.173 A 
ATOM     87  C   UNL A   1      44.510  26.168  35.370  1.00  0.00     0.173 A 
ATOM     88  F   UNL A   1      46.225  29.071  34.001  1.00  0.00    -0.203 F 
ATOM     89  C   UNL A   1      46.934  27.498  35.602  1.00  0.00     0.198 A 
ATOM     90  C   UNL A   1      45.474  25.711  36.264  1.00  0.00     0.198 A 
ATOM     91  F   UNL A   1      43.349  25.502  35.280  1.00  0.00    -0.203 F 
ATOM     92  F   UNL A   1      48.118  28.120  35.687  1.00  0.00    -0.200 F 
ATOM     93  C   UNL A   1      46.688  26.371  36.374  1.00  0.00     0.200 A 
ATOM     94  F   UNL A   1      45.227  24.634  37.022  1.00  0.00    -0.200 F 
ATOM     95  F   UNL A   1      47.624  25.918  37.219  1.00  0.00    -0.200 F 
ENDBRANCH  62  85
ENDBRANCH  36  37
ENDBRANCH  29  31
ENDBRANCH  28  29
ENDBRANCH  27  28
ENDBRANCH  26  27
ENDBRANCH   1  26
TORSDOF 17
ENDMDL
