MODEL 1
REMARK VINA RESULT:     -12.0      0.000      0.000
REMARK SMILES Cc1cc(Br)cc2c1O[C@H](C(F)(F)F)C(C(=O)OCCOCCOC(=O)c1ccc(-c3c4nc(c(-c5c(F)c(F)c(F)c(F)c5F)c5ccc([nH]5)c(-c5c(F)c(F)c(F)c(F)c5F)c5nc(c(-c6c(F)c(F)c(F)c(F)c6F)c6ccc3[nH]6)C=C5)C=C4)cc1)=C2
REMARK SMILES IDX 22 1 21 2 20 3 19 4 18 5 16 6 17 7 15 8 1 9 2 10 3 11 8 12
REMARK SMILES IDX 4 13 7 14 9 15 5 16 6 17 90 18 10 19 11 20 12 21 13 22 14 23
REMARK SMILES IDX 23 24 24 25 25 26 26 27 27 28 28 29 89 30 29 31 88 32 30 33
REMARK SMILES IDX 31 34 32 35 82 36 33 37 87 38 81 39 83 40 34 41 86 42 80 43
REMARK SMILES IDX 79 44 35 46 67 47 47 48 66 49 48 50 51 51 65 52 84 53 49 54
REMARK SMILES IDX 50 55 64 57 85 58 52 59 36 60 37 61 45 62 38 63 39 64 43 65
REMARK SMILES IDX 46 66 40 67 41 68 44 69 42 70 68 71 69 72 77 73 70 74 71 75
REMARK SMILES IDX 75 76 78 77 72 78 73 79 76 80 74 81 53 82 54 83 62 84 55 85
REMARK SMILES IDX 56 86 60 87 63 88 57 89 58 90 61 91 59 92
REMARK H PARENT 83 45 51 56
REMARK Flexibility Score: inf
ROOT
ATOM      1  C   UNL A   1      31.439  31.188  26.400  1.00  0.00     0.202 C 
ENDROOT
BRANCH   1   2
ATOM      2  O   UNL A   1      32.365  30.158  26.752  1.00  0.00    -0.374 OA
BRANCH   2   3
ATOM      3  C   UNL A   1      33.401  29.850  25.823  1.00  0.00     0.202 C 
BRANCH   3   4
ATOM      4  C   UNL A   1      33.655  28.365  25.549  1.00  0.00     0.261 C 
BRANCH   4   5
ATOM      5  O   UNL A   1      33.707  28.085  24.141  1.00  0.00    -0.460 OA
BRANCH   5   6
ATOM      6  C   UNL A   1      33.027  26.978  23.763  1.00  0.00     0.338 C 
ATOM      7  O   UNL A   1      33.462  25.837  23.698  1.00  0.00    -0.246 OA
BRANCH   6   8
ATOM      8  C   UNL A   1      31.609  27.311  23.537  1.00  0.00     0.087 C 
ATOM      9  C   UNL A   1      26.495  27.842  23.774  1.00  0.00     0.048 C 
ATOM     10  C   UNL A   1      27.640  28.568  23.124  1.00  0.00    -0.007 A 
ATOM     11  C   UNL A   1      27.387  29.797  22.493  1.00  0.00     0.023 A 
ATOM     12  C   UNL A   1      28.963  28.101  23.208  1.00  0.00     0.130 A 
ATOM     13  C   UNL A   1      28.430  30.529  21.930  1.00  0.00     0.019 A 
ATOM     14  C   UNL A   1      30.008  28.858  22.664  1.00  0.00     0.019 A 
ATOM     15  O   UNL A   1      29.165  26.899  23.827  1.00  0.00    -0.475 OA
ATOM     16  Br  UNL A   1      28.073  32.181  21.083  1.00  0.00    -0.051 Br
ATOM     17  C   UNL A   1      29.739  30.065  22.010  1.00  0.00     0.027 A 
ATOM     18  C   UNL A   1      31.383  28.426  22.833  1.00  0.00     0.027 C 
ATOM     19  C   UNL A   1      30.520  26.441  24.096  1.00  0.00     0.316 C 
BRANCH  19  20
ATOM     20  C   UNL A   1      30.656  26.219  25.610  1.00  0.00     0.430 C 
ATOM     21  F   UNL A   1      30.771  27.398  26.269  1.00  0.00    -0.167 F 
ATOM     22  F   UNL A   1      29.571  25.595  26.127  1.00  0.00    -0.167 F 
ATOM     23  F   UNL A   1      31.739  25.473  25.920  1.00  0.00    -0.167 F 
ENDBRANCH  19  20
ENDBRANCH   6   8
ENDBRANCH   5   6
ENDBRANCH   4   5
ENDBRANCH   3   4
ENDBRANCH   2   3
ENDBRANCH   1   2
BRANCH   1  24
ATOM     24  C   UNL A   1      31.635  32.553  27.073  1.00  0.00     0.261 C 
BRANCH  24  25
ATOM     25  O   UNL A   1      32.971  33.056  26.879  1.00  0.00    -0.460 OA
BRANCH  25  26
ATOM     26  C   UNL A   1      33.545  33.586  27.983  1.00  0.00     0.338 C 
ATOM     27  O   UNL A   1      33.084  34.444  28.727  1.00  0.00    -0.246 OA
BRANCH  26  28
ATOM     28  C   UNL A   1      34.777  32.852  28.311  1.00  0.00     0.060 A 
ATOM     29  C   UNL A   1      34.644  31.554  28.823  1.00  0.00     0.016 A 
ATOM     30  C   UNL A   1      36.032  33.454  28.212  1.00  0.00     0.016 A 
ATOM     31  C   UNL A   1      35.766  30.870  29.281  1.00  0.00     0.010 A 
ATOM     32  C   UNL A   1      37.157  32.770  28.687  1.00  0.00     0.010 A 
ATOM     33  C   UNL A   1      37.022  31.491  29.256  1.00  0.00    -0.014 A 
BRANCH  33  34
ATOM     34  C   UNL A   1      38.152  30.860  29.977  1.00  0.00     0.031 A 
ATOM     35  C   UNL A   1      38.390  31.226  31.416  1.00  0.00     0.074 A 
ATOM     36  C   UNL A   1      38.917  29.929  29.381  1.00  0.00     0.049 A 
ATOM     37  N   UNL A   1      39.304  30.790  32.244  1.00  0.00    -0.248 NA
ATOM     38  C   UNL A   1      37.467  32.212  32.002  1.00  0.00     0.031 C 
ATOM     39  C   UNL A   1      38.749  29.454  28.010  1.00  0.00     0.029 A 
ATOM     40  N   UNL A   1      39.985  29.211  29.860  1.00  0.00    -0.354 N 
ATOM     41  C   UNL A   1      39.060  31.437  33.448  1.00  0.00     0.074 A 
ATOM     42  C   UNL A   1      37.939  32.325  33.236  1.00  0.00     0.031 C 
ATOM     43  C   UNL A   1      39.681  28.518  27.757  1.00  0.00     0.029 A 
ATOM     44  C   UNL A   1      40.526  28.350  28.939  1.00  0.00     0.049 A 
ATOM     45  H   UNL A   1      40.329  29.307  30.777  1.00  0.00     0.167 HD
ATOM     46  C   UNL A   1      39.704  31.291  34.629  1.00  0.00     0.037 A 
ATOM     47  C   UNL A   1      41.590  27.530  29.038  1.00  0.00     0.037 A 
ATOM     48  C   UNL A   1      40.822  30.410  34.840  1.00  0.00     0.049 A 
ATOM     49  C   UNL A   1      42.356  27.464  30.334  1.00  0.00     0.074 A 
ATOM     50  C   UNL A   1      41.535  30.186  36.003  1.00  0.00     0.029 A 
ATOM     51  N   UNL A   1      41.392  29.613  33.858  1.00  0.00    -0.354 N 
ATOM     52  N   UNL A   1      42.111  28.068  31.471  1.00  0.00    -0.248 NA
ATOM     53  C   UNL A   1      43.551  26.608  30.357  1.00  0.00     0.031 C 
ATOM     54  C   UNL A   1      42.568  29.289  35.716  1.00  0.00     0.029 A 
ATOM     55  C   UNL A   1      42.470  28.919  34.384  1.00  0.00     0.049 A 
ATOM     56  H   UNL A   1      41.078  29.548  32.928  1.00  0.00     0.167 HD
ATOM     57  C   UNL A   1      43.106  27.655  32.347  1.00  0.00     0.074 A 
ATOM     58  C   UNL A   1      43.952  26.735  31.615  1.00  0.00     0.031 C 
ATOM     59  C   UNL A   1      43.305  28.009  33.640  1.00  0.00     0.037 A 
BRANCH  46  60
ATOM     60  C   UNL A   1      39.223  32.108  35.790  1.00  0.00     0.064 A 
ATOM     61  C   UNL A   1      38.302  31.595  36.713  1.00  0.00     0.173 A 
ATOM     62  C   UNL A   1      39.729  33.398  36.011  1.00  0.00     0.173 A 
ATOM     63  F   UNL A   1      37.779  30.371  36.537  1.00  0.00    -0.203 F 
ATOM     64  C   UNL A   1      37.893  32.349  37.810  1.00  0.00     0.198 A 
ATOM     65  C   UNL A   1      39.336  34.139  37.122  1.00  0.00     0.198 A 
ATOM     66  F   UNL A   1      40.614  33.933  35.158  1.00  0.00    -0.203 F 
ATOM     67  F   UNL A   1      36.986  31.851  38.663  1.00  0.00    -0.200 F 
ATOM     68  C   UNL A   1      38.416  33.616  38.018  1.00  0.00     0.200 A 
ATOM     69  F   UNL A   1      39.851  35.359  37.327  1.00  0.00    -0.200 F 
ATOM     70  F   UNL A   1      38.031  34.335  39.081  1.00  0.00    -0.200 F 
ENDBRANCH  46  60
BRANCH  47  71
ATOM     71  C   UNL A   1      41.996  26.703  27.873  1.00  0.00     0.064 A 
ATOM     72  C   UNL A   1      42.975  27.154  26.976  1.00  0.00     0.173 A 
ATOM     73  C   UNL A   1      41.416  25.449  27.631  1.00  0.00     0.173 A 
ATOM     74  F   UNL A   1      43.537  28.359  27.149  1.00  0.00    -0.203 F 
ATOM     75  C   UNL A   1      43.354  26.383  25.878  1.00  0.00     0.198 A 
ATOM     76  C   UNL A   1      41.814  24.669  26.548  1.00  0.00     0.198 A 
ATOM     77  F   UNL A   1      40.472  24.976  28.457  1.00  0.00    -0.203 F 
ATOM     78  F   UNL A   1      44.267  26.852  25.017  1.00  0.00    -0.200 F 
ATOM     79  C   UNL A   1      42.779  25.139  25.669  1.00  0.00     0.200 A 
ATOM     80  F   UNL A   1      41.261  23.464  26.355  1.00  0.00    -0.200 F 
ATOM     81  F   UNL A   1      43.149  24.394  24.618  1.00  0.00    -0.200 F 
ENDBRANCH  47  71
BRANCH  59  82
ATOM     82  C   UNL A   1      44.477  27.408  34.357  1.00  0.00     0.064 A 
ATOM     83  C   UNL A   1      45.695  28.095  34.464  1.00  0.00     0.173 A 
ATOM     84  C   UNL A   1      44.357  26.174  35.016  1.00  0.00     0.173 A 
ATOM     85  F   UNL A   1      45.862  29.271  33.843  1.00  0.00    -0.203 F 
ATOM     86  C   UNL A   1      46.753  27.565  35.198  1.00  0.00     0.198 A 
ATOM     87  C   UNL A   1      45.407  25.660  35.770  1.00  0.00     0.198 A 
ATOM     88  F   UNL A   1      43.209  25.483  34.951  1.00  0.00    -0.203 F 
ATOM     89  F   UNL A   1      47.916  28.225  35.265  1.00  0.00    -0.200 F 
ATOM     90  C   UNL A   1      46.604  26.354  35.859  1.00  0.00     0.200 A 
ATOM     91  F   UNL A   1      45.257  24.498  36.420  1.00  0.00    -0.200 F 
ATOM     92  F   UNL A   1      47.617  25.855  36.580  1.00  0.00    -0.200 F 
ENDBRANCH  59  82
ENDBRANCH  33  34
ENDBRANCH  26  28
ENDBRANCH  25  26
ENDBRANCH  24  25
ENDBRANCH   1  24
TORSDOF 15
ENDMDL
MODEL 2
REMARK VINA RESULT:     -11.9      2.339      3.316
REMARK SMILES Cc1cc(Br)cc2c1O[C@H](C(F)(F)F)C(C(=O)OCCOCCOC(=O)c1ccc(-c3c4nc(c(-c5c(F)c(F)c(F)c(F)c5F)c5ccc([nH]5)c(-c5c(F)c(F)c(F)c(F)c5F)c5nc(c(-c6c(F)c(F)c(F)c(F)c6F)c6ccc3[nH]6)C=C5)C=C4)cc1)=C2
REMARK SMILES IDX 22 1 21 2 20 3 19 4 18 5 16 6 17 7 15 8 1 9 2 10 3 11 8 12
REMARK SMILES IDX 4 13 7 14 9 15 5 16 6 17 90 18 10 19 11 20 12 21 13 22 14 23
REMARK SMILES IDX 23 24 24 25 25 26 26 27 27 28 28 29 89 30 29 31 88 32 30 33
REMARK SMILES IDX 31 34 32 35 82 36 33 37 87 38 81 39 83 40 34 41 86 42 80 43
REMARK SMILES IDX 79 44 35 46 67 47 47 48 66 49 48 50 51 51 65 52 84 53 49 54
REMARK SMILES IDX 50 55 64 57 85 58 52 59 36 60 37 61 45 62 38 63 39 64 43 65
REMARK SMILES IDX 46 66 40 67 41 68 44 69 42 70 68 71 69 72 77 73 70 74 71 75
REMARK SMILES IDX 75 76 78 77 72 78 73 79 76 80 74 81 53 82 54 83 62 84 55 85
REMARK SMILES IDX 56 86 60 87 63 88 57 89 58 90 61 91 59 92
REMARK H PARENT 83 45 51 56
REMARK Flexibility Score: inf
ROOT
ATOM      1  C   UNL A   1      31.289  31.907  26.504  1.00  0.00     0.202 C 
ENDROOT
BRANCH   1   2
ATOM      2  O   UNL A   1      32.035  30.743  26.866  1.00  0.00    -0.374 OA
BRANCH   2   3
ATOM      3  C   UNL A   1      32.768  30.077  25.840  1.00  0.00     0.202 C 
BRANCH   3   4
ATOM      4  C   UNL A   1      32.107  28.843  25.220  1.00  0.00     0.261 C 
BRANCH   4   5
ATOM      5  O   UNL A   1      32.758  27.629  25.630  1.00  0.00    -0.460 OA
BRANCH   5   6
ATOM      6  C   UNL A   1      31.960  26.760  26.291  1.00  0.00     0.338 C 
ATOM      7  O   UNL A   1      31.028  27.039  27.033  1.00  0.00    -0.246 OA
BRANCH   6   8
ATOM      8  C   UNL A   1      32.293  25.377  25.906  1.00  0.00     0.087 C 
ATOM      9  C   UNL A   1      32.528  20.692  23.788  1.00  0.00     0.048 C 
ATOM     10  C   UNL A   1      33.465  21.603  24.532  1.00  0.00    -0.007 A 
ATOM     11  C   UNL A   1      34.819  21.244  24.626  1.00  0.00     0.023 A 
ATOM     12  C   UNL A   1      33.046  22.839  25.052  1.00  0.00     0.130 A 
ATOM     13  C   UNL A   1      35.730  22.090  25.256  1.00  0.00     0.019 A 
ATOM     14  C   UNL A   1      33.975  23.695  25.657  1.00  0.00     0.019 A 
ATOM     15  O   UNL A   1      31.718  23.148  24.942  1.00  0.00    -0.475 OA
ATOM     16  Br  UNL A   1      37.550  21.592  25.376  1.00  0.00    -0.051 Br
ATOM     17  C   UNL A   1      35.315  23.312  25.774  1.00  0.00     0.027 A 
ATOM     18  C   UNL A   1      33.564  25.011  26.110  1.00  0.00     0.027 C 
ATOM     19  C   UNL A   1      31.251  24.477  25.307  1.00  0.00     0.316 C 
BRANCH  19  20
ATOM     20  C   UNL A   1      30.568  25.095  24.077  1.00  0.00     0.430 C 
ATOM     21  F   UNL A   1      30.049  24.137  23.272  1.00  0.00    -0.167 F 
ATOM     22  F   UNL A   1      29.539  25.903  24.426  1.00  0.00    -0.167 F 
ATOM     23  F   UNL A   1      31.426  25.829  23.335  1.00  0.00    -0.167 F 
ENDBRANCH  19  20
ENDBRANCH   6   8
ENDBRANCH   5   6
ENDBRANCH   4   5
ENDBRANCH   3   4
ENDBRANCH   2   3
ENDBRANCH   1   2
BRANCH   1  24
ATOM     24  C   UNL A   1      31.908  33.264  26.864  1.00  0.00     0.261 C 
BRANCH  24  25
ATOM     25  O   UNL A   1      32.697  33.188  28.067  1.00  0.00    -0.460 OA
BRANCH  25  26
ATOM     26  C   UNL A   1      33.788  33.987  28.083  1.00  0.00     0.338 C 
ATOM     27  O   UNL A   1      33.821  35.210  28.001  1.00  0.00    -0.246 OA
BRANCH  26  28
ATOM     28  C   UNL A   1      34.986  33.196  28.408  1.00  0.00     0.060 A 
ATOM     29  C   UNL A   1      34.795  31.891  28.882  1.00  0.00     0.016 A 
ATOM     30  C   UNL A   1      36.265  33.751  28.343  1.00  0.00     0.016 A 
ATOM     31  C   UNL A   1      35.883  31.151  29.335  1.00  0.00     0.010 A 
ATOM     32  C   UNL A   1      37.355  33.011  28.814  1.00  0.00     0.010 A 
ATOM     33  C   UNL A   1      37.162  31.723  29.345  1.00  0.00    -0.014 A 
BRANCH  33  34
ATOM     34  C   UNL A   1      38.256  31.029  30.064  1.00  0.00     0.031 A 
ATOM     35  C   UNL A   1      38.489  31.349  31.514  1.00  0.00     0.074 A 
ATOM     36  C   UNL A   1      38.991  30.082  29.453  1.00  0.00     0.049 A 
ATOM     37  N   UNL A   1      39.373  30.855  32.342  1.00  0.00    -0.248 NA
ATOM     38  C   UNL A   1      37.599  32.357  32.114  1.00  0.00     0.031 C 
ATOM     39  C   UNL A   1      38.821  29.649  28.068  1.00  0.00     0.029 A 
ATOM     40  N   UNL A   1      40.022  29.310  29.927  1.00  0.00    -0.354 N 
ATOM     41  C   UNL A   1      39.140  31.481  33.559  1.00  0.00     0.074 A 
ATOM     42  C   UNL A   1      38.058  32.419  33.356  1.00  0.00     0.031 C 
ATOM     43  C   UNL A   1      39.718  28.683  27.803  1.00  0.00     0.029 A 
ATOM     44  C   UNL A   1      40.540  28.451  28.991  1.00  0.00     0.049 A 
ATOM     45  H   UNL A   1      40.357  29.369  30.850  1.00  0.00     0.167 HD
ATOM     46  C   UNL A   1      39.762  31.279  34.744  1.00  0.00     0.037 A 
ATOM     47  C   UNL A   1      41.569  27.586  29.082  1.00  0.00     0.037 A 
ATOM     48  C   UNL A   1      40.840  30.348  34.945  1.00  0.00     0.049 A 
ATOM     49  C   UNL A   1      42.314  27.457  30.385  1.00  0.00     0.074 A 
ATOM     50  C   UNL A   1      41.529  30.067  36.111  1.00  0.00     0.029 A 
ATOM     51  N   UNL A   1      41.391  29.554  33.951  1.00  0.00    -0.354 N 
ATOM     52  N   UNL A   1      42.078  28.041  31.534  1.00  0.00    -0.248 NA
ATOM     53  C   UNL A   1      43.473  26.552  30.401  1.00  0.00     0.031 C 
ATOM     54  C   UNL A   1      42.528  29.136  35.814  1.00  0.00     0.029 A 
ATOM     55  C   UNL A   1      42.433  28.803  34.472  1.00  0.00     0.049 A 
ATOM     56  H   UNL A   1      41.087  29.526  33.015  1.00  0.00     0.167 HD
ATOM     57  C   UNL A   1      43.045  27.567  32.411  1.00  0.00     0.074 A 
ATOM     58  C   UNL A   1      43.861  26.631  31.666  1.00  0.00     0.031 C 
ATOM     59  C   UNL A   1      43.240  27.880  33.715  1.00  0.00     0.037 A 
BRANCH  46  60
ATOM     60  C   UNL A   1      39.299  32.086  35.919  1.00  0.00     0.064 A 
ATOM     61  C   UNL A   1      38.346  31.587  36.818  1.00  0.00     0.173 A 
ATOM     62  C   UNL A   1      39.852  33.349  36.178  1.00  0.00     0.173 A 
ATOM     63  F   UNL A   1      37.778  30.390  36.605  1.00  0.00    -0.203 F 
ATOM     64  C   UNL A   1      37.954  32.329  37.929  1.00  0.00     0.198 A 
ATOM     65  C   UNL A   1      39.475  34.077  37.303  1.00  0.00     0.198 A 
ATOM     66  F   UNL A   1      40.769  33.869  35.349  1.00  0.00    -0.203 F 
ATOM     67  F   UNL A   1      37.018  31.847  38.759  1.00  0.00    -0.200 F 
ATOM     68  C   UNL A   1      38.524  33.569  38.175  1.00  0.00     0.200 A 
ATOM     69  F   UNL A   1      40.035  35.270  37.545  1.00  0.00    -0.200 F 
ATOM     70  F   UNL A   1      38.154  34.277  39.251  1.00  0.00    -0.200 F 
ENDBRANCH  46  60
BRANCH  47  71
ATOM     71  C   UNL A   1      41.956  26.773  27.901  1.00  0.00     0.064 A 
ATOM     72  C   UNL A   1      42.913  27.238  26.989  1.00  0.00     0.173 A 
ATOM     73  C   UNL A   1      41.380  25.517  27.659  1.00  0.00     0.173 A 
ATOM     74  F   UNL A   1      43.471  28.445  27.162  1.00  0.00    -0.203 F 
ATOM     75  C   UNL A   1      43.275  26.480  25.876  1.00  0.00     0.198 A 
ATOM     76  C   UNL A   1      41.761  24.749  26.561  1.00  0.00     0.198 A 
ATOM     77  F   UNL A   1      40.456  25.030  28.500  1.00  0.00    -0.203 F 
ATOM     78  F   UNL A   1      44.167  26.963  25.001  1.00  0.00    -0.200 F 
ATOM     79  C   UNL A   1      42.704  25.234  25.667  1.00  0.00     0.200 A 
ATOM     80  F   UNL A   1      41.213  23.543  26.368  1.00  0.00    -0.200 F 
ATOM     81  F   UNL A   1      43.058  24.501  24.602  1.00  0.00    -0.200 F 
ENDBRANCH  47  71
BRANCH  59  82
ATOM     82  C   UNL A   1      44.377  27.213  34.431  1.00  0.00     0.064 A 
ATOM     83  C   UNL A   1      45.630  27.834  34.543  1.00  0.00     0.173 A 
ATOM     84  C   UNL A   1      44.190  25.985  35.084  1.00  0.00     0.173 A 
ATOM     85  F   UNL A   1      45.861  29.002  33.927  1.00  0.00    -0.203 F 
ATOM     86  C   UNL A   1      46.657  27.244  35.276  1.00  0.00     0.198 A 
ATOM     87  C   UNL A   1      45.211  25.412  35.837  1.00  0.00     0.198 A 
ATOM     88  F   UNL A   1      43.007  25.356  35.014  1.00  0.00    -0.203 F 
ATOM     89  F   UNL A   1      47.854  27.841  35.347  1.00  0.00    -0.200 F 
ATOM     90  C   UNL A   1      46.443  26.040  35.931  1.00  0.00     0.200 A 
ATOM     91  F   UNL A   1      44.998  24.256  36.481  1.00  0.00    -0.200 F 
ATOM     92  F   UNL A   1      47.427  25.485  36.651  1.00  0.00    -0.200 F 
ENDBRANCH  59  82
ENDBRANCH  33  34
ENDBRANCH  26  28
ENDBRANCH  25  26
ENDBRANCH  24  25
ENDBRANCH   1  24
TORSDOF 15
ENDMDL
MODEL 3
REMARK VINA RESULT:     -11.9      2.604      8.160
REMARK SMILES Cc1cc(Br)cc2c1O[C@H](C(F)(F)F)C(C(=O)OCCOCCOC(=O)c1ccc(-c3c4nc(c(-c5c(F)c(F)c(F)c(F)c5F)c5ccc([nH]5)c(-c5c(F)c(F)c(F)c(F)c5F)c5nc(c(-c6c(F)c(F)c(F)c(F)c6F)c6ccc3[nH]6)C=C5)C=C4)cc1)=C2
REMARK SMILES IDX 22 1 21 2 20 3 19 4 18 5 16 6 17 7 15 8 1 9 2 10 3 11 8 12
REMARK SMILES IDX 4 13 7 14 9 15 5 16 6 17 90 18 10 19 11 20 12 21 13 22 14 23
REMARK SMILES IDX 23 24 24 25 25 26 26 27 27 28 28 29 89 30 29 31 88 32 30 33
REMARK SMILES IDX 31 34 32 35 82 36 33 37 87 38 81 39 83 40 34 41 86 42 80 43
REMARK SMILES IDX 79 44 35 46 67 47 47 48 66 49 48 50 51 51 65 52 84 53 49 54
REMARK SMILES IDX 50 55 64 57 85 58 52 59 36 60 37 61 45 62 38 63 39 64 43 65
REMARK SMILES IDX 46 66 40 67 41 68 44 69 42 70 68 71 69 72 77 73 70 74 71 75
REMARK SMILES IDX 75 76 78 77 72 78 73 79 76 80 74 81 53 82 54 83 62 84 55 85
REMARK SMILES IDX 56 86 60 87 63 88 57 89 58 90 61 91 59 92
REMARK H PARENT 83 45 51 56
REMARK Flexibility Score: inf
ROOT
ATOM      1  C   UNL A   1      31.360  29.043  25.229  1.00  0.00     0.202 C 
ENDROOT
BRANCH   1   2
ATOM      2  O   UNL A   1      31.158  28.891  23.822  1.00  0.00    -0.374 OA
BRANCH   2   3
ATOM      3  C   UNL A   1      30.518  27.701  23.367  1.00  0.00     0.202 C 
BRANCH   3   4
ATOM      4  C   UNL A   1      31.035  27.108  22.053  1.00  0.00     0.261 C 
BRANCH   4   5
ATOM      5  O   UNL A   1      31.406  25.727  22.203  1.00  0.00    -0.460 OA
BRANCH   5   6
ATOM      6  C   UNL A   1      32.661  25.436  21.790  1.00  0.00     0.338 C 
ATOM      7  O   UNL A   1      33.279  25.977  20.883  1.00  0.00    -0.246 OA
BRANCH   6   8
ATOM      8  C   UNL A   1      33.259  24.421  22.675  1.00  0.00     0.087 C 
ATOM      9  C   UNL A   1      35.529  21.828  26.499  1.00  0.00     0.048 C 
ATOM     10  C   UNL A   1      34.605  21.505  25.358  1.00  0.00    -0.007 A 
ATOM     11  C   UNL A   1      34.048  20.218  25.286  1.00  0.00     0.023 A 
ATOM     12  C   UNL A   1      34.213  22.474  24.419  1.00  0.00     0.130 A 
ATOM     13  C   UNL A   1      33.142  19.897  24.277  1.00  0.00     0.019 A 
ATOM     14  C   UNL A   1      33.279  22.150  23.427  1.00  0.00     0.019 A 
ATOM     15  O   UNL A   1      34.781  23.714  24.522  1.00  0.00    -0.475 OA
ATOM     16  Br  UNL A   1      32.403  18.159  24.193  1.00  0.00    -0.051 Br
ATOM     17  C   UNL A   1      32.757  20.855  23.346  1.00  0.00     0.027 A 
ATOM     18  C   UNL A   1      32.801  23.173  22.516  1.00  0.00     0.027 C 
ATOM     19  C   UNL A   1      34.295  24.806  23.692  1.00  0.00     0.316 C 
BRANCH  19  20
ATOM     20  C   UNL A   1      33.826  25.937  24.619  1.00  0.00     0.430 C 
ATOM     21  F   UNL A   1      34.587  26.000  25.738  1.00  0.00    -0.167 F 
ATOM     22  F   UNL A   1      33.920  27.149  24.022  1.00  0.00    -0.167 F 
ATOM     23  F   UNL A   1      32.542  25.775  25.009  1.00  0.00    -0.167 F 
ENDBRANCH  19  20
ENDBRANCH   6   8
ENDBRANCH   5   6
ENDBRANCH   4   5
ENDBRANCH   3   4
ENDBRANCH   2   3
ENDBRANCH   1   2
BRANCH   1  24
ATOM     24  C   UNL A   1      31.792  30.431  25.719  1.00  0.00     0.261 C 
BRANCH  24  25
ATOM     25  O   UNL A   1      32.557  30.353  26.937  1.00  0.00    -0.460 OA
BRANCH  25  26
ATOM     26  C   UNL A   1      33.260  31.467  27.241  1.00  0.00     0.338 C 
ATOM     27  O   UNL A   1      32.858  32.625  27.250  1.00  0.00    -0.246 OA
BRANCH  26  28
ATOM     28  C   UNL A   1      34.587  31.099  27.760  1.00  0.00     0.060 A 
ATOM     29  C   UNL A   1      34.819  29.748  28.051  1.00  0.00     0.016 A 
ATOM     30  C   UNL A   1      35.550  32.067  28.048  1.00  0.00     0.016 A 
ATOM     31  C   UNL A   1      36.003  29.366  28.675  1.00  0.00     0.010 A 
ATOM     32  C   UNL A   1      36.733  31.682  28.689  1.00  0.00     0.010 A 
ATOM     33  C   UNL A   1      36.947  30.337  29.036  1.00  0.00    -0.014 A 
BRANCH  33  34
ATOM     34  C   UNL A   1      38.072  29.953  29.922  1.00  0.00     0.031 A 
ATOM     35  C   UNL A   1      39.122  29.014  29.396  1.00  0.00     0.074 A 
ATOM     36  C   UNL A   1      38.191  30.480  31.154  1.00  0.00     0.049 A 
ATOM     37  N   UNL A   1      40.197  28.556  29.985  1.00  0.00    -0.248 NA
ATOM     38  C   UNL A   1      38.938  28.531  28.018  1.00  0.00     0.031 C 
ATOM     39  C   UNL A   1      37.266  31.441  31.750  1.00  0.00     0.029 A 
ATOM     40  N   UNL A   1      39.148  30.285  32.118  1.00  0.00    -0.354 N 
ATOM     41  C   UNL A   1      40.822  27.744  29.049  1.00  0.00     0.074 A 
ATOM     42  C   UNL A   1      39.989  27.738  27.866  1.00  0.00     0.031 C 
ATOM     43  C   UNL A   1      37.703  31.756  32.983  1.00  0.00     0.029 A 
ATOM     44  C   UNL A   1      38.921  30.998  33.268  1.00  0.00     0.049 A 
ATOM     45  H   UNL A   1      39.922  29.690  31.995  1.00  0.00     0.167 HD
ATOM     46  C   UNL A   1      41.994  27.077  29.160  1.00  0.00     0.037 A 
ATOM     47  C   UNL A   1      39.614  31.025  34.424  1.00  0.00     0.037 A 
ATOM     48  C   UNL A   1      42.820  27.080  30.337  1.00  0.00     0.049 A 
ATOM     49  C   UNL A   1      40.860  30.189  34.559  1.00  0.00     0.074 A 
ATOM     50  C   UNL A   1      44.029  26.442  30.542  1.00  0.00     0.029 A 
ATOM     51  N   UNL A   1      42.515  27.751  31.512  1.00  0.00    -0.354 N 
ATOM     52  N   UNL A   1      41.452  29.436  33.664  1.00  0.00    -0.248 NA
ATOM     53  C   UNL A   1      41.531  30.202  35.867  1.00  0.00     0.031 C 
ATOM     54  C   UNL A   1      44.434  26.687  31.857  1.00  0.00     0.029 A 
ATOM     55  C   UNL A   1      43.500  27.516  32.457  1.00  0.00     0.049 A 
ATOM     56  H   UNL A   1      41.718  28.311  31.653  1.00  0.00     0.167 HD
ATOM     57  C   UNL A   1      42.568  28.899  34.293  1.00  0.00     0.074 A 
ATOM     58  C   UNL A   1      42.582  29.427  35.641  1.00  0.00     0.031 C 
ATOM     59  C   UNL A   1      43.496  28.044  33.798  1.00  0.00     0.037 A 
BRANCH  46  60
ATOM     60  C   UNL A   1      42.453  26.277  27.978  1.00  0.00     0.064 A 
ATOM     61  C   UNL A   1      41.985  24.976  27.749  1.00  0.00     0.173 A 
ATOM     62  C   UNL A   1      43.328  26.838  27.035  1.00  0.00     0.173 A 
ATOM     63  F   UNL A   1      41.157  24.391  28.630  1.00  0.00    -0.203 F 
ATOM     64  C   UNL A   1      42.387  24.258  26.626  1.00  0.00     0.198 A 
ATOM     65  C   UNL A   1      43.709  26.126  25.901  1.00  0.00     0.198 A 
ATOM     66  F   UNL A   1      43.802  28.081  27.207  1.00  0.00    -0.203 F 
ATOM     67  F   UNL A   1      41.952  23.003  26.444  1.00  0.00    -0.200 F 
ATOM     68  C   UNL A   1      43.241  24.836  25.699  1.00  0.00     0.200 A 
ATOM     69  F   UNL A   1      44.525  26.690  25.001  1.00  0.00    -0.200 F 
ATOM     70  F   UNL A   1      43.617  24.148  24.612  1.00  0.00    -0.200 F 
ENDBRANCH  46  60
BRANCH  47  71
ATOM     71  C   UNL A   1      39.142  31.873  35.548  1.00  0.00     0.064 A 
ATOM     72  C   UNL A   1      39.526  33.218  35.645  1.00  0.00     0.173 A 
ATOM     73  C   UNL A   1      38.300  31.360  36.545  1.00  0.00     0.173 A 
ATOM     74  F   UNL A   1      40.352  33.746  34.731  1.00  0.00    -0.203 F 
ATOM     75  C   UNL A   1      39.089  34.015  36.703  1.00  0.00     0.198 A 
ATOM     76  C   UNL A   1      37.845  32.164  37.587  1.00  0.00     0.198 A 
ATOM     77  F   UNL A   1      37.910  30.078  36.499  1.00  0.00    -0.203 F 
ATOM     78  F   UNL A   1      39.499  35.288  36.792  1.00  0.00    -0.200 F 
ATOM     79  C   UNL A   1      38.244  33.490  37.668  1.00  0.00     0.200 A 
ATOM     80  F   UNL A   1      37.022  31.655  38.513  1.00  0.00    -0.200 F 
ATOM     81  F   UNL A   1      37.818  34.258  38.680  1.00  0.00    -0.200 F 
ENDBRANCH  47  71
BRANCH  59  82
ATOM     82  C   UNL A   1      44.608  27.617  34.709  1.00  0.00     0.064 A 
ATOM     83  C   UNL A   1      44.519  26.438  35.464  1.00  0.00     0.173 A 
ATOM     84  C   UNL A   1      45.808  28.344  34.764  1.00  0.00     0.173 A 
ATOM     85  F   UNL A   1      43.389  25.716  35.454  1.00  0.00    -0.203 F 
ATOM     86  C   UNL A   1      45.587  26.008  36.247  1.00  0.00     0.198 A 
ATOM     87  C   UNL A   1      46.882  27.897  35.527  1.00  0.00     0.198 A 
ATOM     88  F   UNL A   1      45.946  29.474  34.053  1.00  0.00    -0.203 F 
ATOM     89  F   UNL A   1      45.470  24.893  36.981  1.00  0.00    -0.200 F 
ATOM     90  C   UNL A   1      46.771  26.731  36.269  1.00  0.00     0.200 A 
ATOM     91  F   UNL A   1      48.030  28.588  35.535  1.00  0.00    -0.200 F 
ATOM     92  F   UNL A   1      47.803  26.304  37.008  1.00  0.00    -0.200 F 
ENDBRANCH  59  82
ENDBRANCH  33  34
ENDBRANCH  26  28
ENDBRANCH  25  26
ENDBRANCH  24  25
ENDBRANCH   1  24
TORSDOF 15
ENDMDL
