MODEL 1
REMARK VINA RESULT:     -11.9      0.000      0.000
REMARK SMILES C[C@H]1[C@@H](C(=O)OCCOCCOC(=O)c2ccc(-c3c4nc(c(-c5c(F)c(F)c(F)c(F)c5F)c5ccc([nH]5)c(-c5c(F)c(F)c(F)c(F)c5F)c5nc(c(-c6c(F)c(F)c(F)c(F)c6F)c6ccc3[nH]6)C=C5)C=C4)cc2)CC[N@@H+]1Cc1cc(F)c(F)c(F)c1
REMARK SMILES IDX 9 1 8 2 7 3 6 4 4 5 5 6 3 7 1 8 2 9 80 10 78 11 79 12 81 14
REMARK SMILES IDX 82 15 83 16 90 17 84 18 88 19 85 20 86 21 89 22 87 23 10 24
REMARK SMILES IDX 11 25 12 26 13 27 14 28 15 29 16 30 77 31 17 32 76 33 18 34
REMARK SMILES IDX 19 35 20 36 70 37 21 38 75 39 69 40 71 41 22 42 74 43 68 44
REMARK SMILES IDX 67 45 23 47 55 48 35 49 54 50 36 51 39 52 53 53 72 54 37 55
REMARK SMILES IDX 38 56 52 58 73 59 40 60 24 61 25 62 33 63 26 64 27 65 31 66
REMARK SMILES IDX 34 67 28 68 29 69 32 70 30 71 56 72 57 73 65 74 58 75 59 76
REMARK SMILES IDX 63 77 66 78 60 79 61 80 64 81 62 82 41 83 42 84 50 85 43 86
REMARK SMILES IDX 44 87 48 88 51 89 45 90 46 91 49 92 47 93
REMARK H PARENT 80 13 71 46 39 57
REMARK Flexibility Score: inf
ROOT
ATOM      1  O   UNL A   1      35.220  21.147  26.259  1.00  0.00    -0.374 OA
ENDROOT
BRANCH   1   2
ATOM      2  C   UNL A   1      33.788  21.156  26.232  1.00  0.00     0.202 C 
BRANCH   2   3
ATOM      3  C   UNL A   1      33.174  20.617  24.936  1.00  0.00     0.261 C 
BRANCH   3   4
ATOM      4  O   UNL A   1      32.210  21.569  24.439  1.00  0.00    -0.463 OA
BRANCH   4   5
ATOM      5  C   UNL A   1      32.682  22.647  23.781  1.00  0.00     0.315 C 
ATOM      6  O   UNL A   1      33.423  22.585  22.804  1.00  0.00    -0.252 OA
BRANCH   5   7
ATOM      7  C   UNL A   1      32.103  23.971  24.255  1.00  0.00     0.162 C 
ATOM      8  C   UNL A   1      34.402  24.874  25.214  1.00  0.00     0.076 C 
ATOM      9  C   UNL A   1      32.952  25.135  24.809  1.00  0.00     0.195 C 
ATOM     10  N   UNL A   1      32.248  25.620  26.012  1.00  0.00    -0.328 N 
ATOM     11  C   UNL A   1      31.033  23.700  25.318  1.00  0.00     0.083 C 
ATOM     12  C   UNL A   1      31.431  24.530  26.522  1.00  0.00     0.263 C 
ATOM     13  H   UNL A   1      32.950  25.869  26.708  1.00  0.00     0.348 HD
BRANCH  10  14
ATOM     14  C   UNL A   1      31.582  26.922  25.912  1.00  0.00     0.299 C 
BRANCH  14  15
ATOM     15  C   UNL A   1      32.351  28.125  26.412  1.00  0.00     0.012 A 
ATOM     16  C   UNL A   1      33.691  27.999  26.808  1.00  0.00     0.052 A 
ATOM     17  C   UNL A   1      31.748  29.393  26.485  1.00  0.00     0.052 A 
ATOM     18  C   UNL A   1      34.410  29.122  27.218  1.00  0.00     0.162 A 
ATOM     19  C   UNL A   1      32.490  30.508  26.868  1.00  0.00     0.162 A 
ATOM     20  F   UNL A   1      35.688  28.974  27.592  1.00  0.00    -0.204 F 
ATOM     21  C   UNL A   1      33.821  30.378  27.232  1.00  0.00     0.194 A 
ATOM     22  F   UNL A   1      31.903  31.713  26.863  1.00  0.00    -0.204 F 
ATOM     23  F   UNL A   1      34.530  31.455  27.595  1.00  0.00    -0.200 F 
ENDBRANCH  14  15
ENDBRANCH  10  14
ENDBRANCH   5   7
ENDBRANCH   4   5
ENDBRANCH   3   4
ENDBRANCH   2   3
ENDBRANCH   1   2
BRANCH   1  24
ATOM     24  C   UNL A   1      35.868  21.121  24.989  1.00  0.00     0.202 C 
BRANCH  24  25
ATOM     25  C   UNL A   1      37.295  20.568  25.001  1.00  0.00     0.261 C 
BRANCH  25  26
ATOM     26  O   UNL A   1      38.240  21.636  25.171  1.00  0.00    -0.460 OA
BRANCH  26  27
ATOM     27  C   UNL A   1      39.281  21.322  25.971  1.00  0.00     0.338 C 
ATOM     28  O   UNL A   1      39.931  20.285  25.967  1.00  0.00    -0.246 OA
BRANCH  27  29
ATOM     29  C   UNL A   1      39.669  22.485  26.788  1.00  0.00     0.060 A 
ATOM     30  C   UNL A   1      38.978  23.676  26.542  1.00  0.00     0.016 A 
ATOM     31  C   UNL A   1      40.715  22.447  27.715  1.00  0.00     0.016 A 
ATOM     32  C   UNL A   1      39.400  24.858  27.134  1.00  0.00     0.010 A 
ATOM     33  C   UNL A   1      41.137  23.638  28.318  1.00  0.00     0.010 A 
ATOM     34  C   UNL A   1      40.520  24.854  27.976  1.00  0.00    -0.014 A 
BRANCH  34  35
ATOM     35  C   UNL A   1      41.141  26.159  28.305  1.00  0.00     0.031 A 
ATOM     36  C   UNL A   1      42.533  26.441  27.806  1.00  0.00     0.074 A 
ATOM     37  C   UNL A   1      40.431  27.116  28.926  1.00  0.00     0.049 A 
ATOM     38  N   UNL A   1      43.231  27.546  27.867  1.00  0.00    -0.248 NA
ATOM     39  C   UNL A   1      43.232  25.327  27.144  1.00  0.00     0.031 C 
ATOM     40  C   UNL A   1      39.063  26.964  29.418  1.00  0.00     0.029 A 
ATOM     41  N   UNL A   1      40.757  28.414  29.225  1.00  0.00    -0.354 N 
ATOM     42  C   UNL A   1      44.443  27.261  27.250  1.00  0.00     0.074 A 
ATOM     43  C   UNL A   1      44.407  25.869  26.864  1.00  0.00     0.031 C 
ATOM     44  C   UNL A   1      38.661  28.131  29.949  1.00  0.00     0.029 A 
ATOM     45  C   UNL A   1      39.748  29.103  29.849  1.00  0.00     0.049 A 
ATOM     46  H   UNL A   1      41.633  28.813  29.014  1.00  0.00     0.167 HD
ATOM     47  C   UNL A   1      45.485  28.092  27.010  1.00  0.00     0.037 A 
ATOM     48  C   UNL A   1      39.710  30.376  30.286  1.00  0.00     0.037 A 
ATOM     49  C   UNL A   1      45.513  29.479  27.392  1.00  0.00     0.049 A 
ATOM     50  C   UNL A   1      40.903  31.267  30.049  1.00  0.00     0.074 A 
ATOM     51  C   UNL A   1      46.513  30.411  27.188  1.00  0.00     0.029 A 
ATOM     52  N   UNL A   1      44.488  30.130  28.062  1.00  0.00    -0.354 N 
ATOM     53  N   UNL A   1      42.031  30.999  29.437  1.00  0.00    -0.248 NA
ATOM     54  C   UNL A   1      40.808  32.644  30.550  1.00  0.00     0.031 C 
ATOM     55  C   UNL A   1      46.116  31.615  27.780  1.00  0.00     0.029 A 
ATOM     56  C   UNL A   1      44.843  31.448  28.301  1.00  0.00     0.049 A 
ATOM     57  H   UNL A   1      43.635  29.718  28.329  1.00  0.00     0.167 HD
ATOM     58  C   UNL A   1      42.767  32.177  29.454  1.00  0.00     0.074 A 
ATOM     59  C   UNL A   1      41.947  33.167  30.121  1.00  0.00     0.031 C 
ATOM     60  C   UNL A   1      44.008  32.420  28.963  1.00  0.00     0.037 A 
BRANCH  47  61
ATOM     61  C   UNL A   1      46.688  27.513  26.323  1.00  0.00     0.064 A 
ATOM     62  C   UNL A   1      46.869  27.615  24.935  1.00  0.00     0.173 A 
ATOM     63  C   UNL A   1      47.686  26.864  27.067  1.00  0.00     0.173 A 
ATOM     64  F   UNL A   1      45.936  28.210  24.174  1.00  0.00    -0.203 F 
ATOM     65  C   UNL A   1      47.988  27.066  24.314  1.00  0.00     0.198 A 
ATOM     66  C   UNL A   1      48.820  26.344  26.446  1.00  0.00     0.198 A 
ATOM     67  F   UNL A   1      47.565  26.738  28.397  1.00  0.00    -0.203 F 
ATOM     68  F   UNL A   1      48.114  27.132  22.982  1.00  0.00    -0.200 F 
ATOM     69  C   UNL A   1      48.966  26.438  25.071  1.00  0.00     0.200 A 
ATOM     70  F   UNL A   1      49.768  25.746  27.181  1.00  0.00    -0.200 F 
ATOM     71  F   UNL A   1      50.046  25.915  24.474  1.00  0.00    -0.200 F 
ENDBRANCH  47  61
BRANCH  48  72
ATOM     72  C   UNL A   1      38.501  30.888  30.982  1.00  0.00     0.064 A 
ATOM     73  C   UNL A   1      37.399  31.375  30.265  1.00  0.00     0.173 A 
ATOM     74  C   UNL A   1      38.429  30.911  32.383  1.00  0.00     0.173 A 
ATOM     75  F   UNL A   1      37.429  31.395  28.924  1.00  0.00    -0.203 F 
ATOM     76  C   UNL A   1      36.283  31.887  30.922  1.00  0.00     0.198 A 
ATOM     77  C   UNL A   1      37.299  31.394  33.039  1.00  0.00     0.198 A 
ATOM     78  F   UNL A   1      39.455  30.455  33.116  1.00  0.00    -0.203 F 
ATOM     79  F   UNL A   1      35.264  32.392  30.214  1.00  0.00    -0.200 F 
ATOM     80  C   UNL A   1      36.230  31.891  32.308  1.00  0.00     0.200 A 
ATOM     81  F   UNL A   1      37.249  31.383  34.377  1.00  0.00    -0.200 F 
ATOM     82  F   UNL A   1      35.155  32.379  32.940  1.00  0.00    -0.200 F 
ENDBRANCH  48  72
BRANCH  60  83
ATOM     83  C   UNL A   1      44.537  33.819  29.100  1.00  0.00     0.064 A 
ATOM     84  C   UNL A   1      45.287  34.220  30.215  1.00  0.00     0.173 A 
ATOM     85  C   UNL A   1      44.308  34.764  28.087  1.00  0.00     0.173 A 
ATOM     86  F   UNL A   1      45.523  33.358  31.216  1.00  0.00    -0.203 F 
ATOM     87  C   UNL A   1      45.753  35.527  30.331  1.00  0.00     0.198 A 
ATOM     88  C   UNL A   1      44.807  36.059  28.191  1.00  0.00     0.198 A 
ATOM     89  F   UNL A   1      43.607  34.429  26.994  1.00  0.00    -0.203 F 
ATOM     90  F   UNL A   1      46.415  35.904  31.433  1.00  0.00    -0.200 F 
ATOM     91  C   UNL A   1      45.519  36.443  29.316  1.00  0.00     0.200 A 
ATOM     92  F   UNL A   1      44.591  36.939  27.203  1.00  0.00    -0.200 F 
ATOM     93  F   UNL A   1      45.970  37.700  29.430  1.00  0.00    -0.200 F 
ENDBRANCH  60  83
ENDBRANCH  34  35
ENDBRANCH  27  29
ENDBRANCH  26  27
ENDBRANCH  25  26
ENDBRANCH  24  25
ENDBRANCH   1  24
TORSDOF 16
ENDMDL
MODEL 2
REMARK VINA RESULT:     -11.9      4.545      9.902
REMARK SMILES C[C@H]1[C@@H](C(=O)OCCOCCOC(=O)c2ccc(-c3c4nc(c(-c5c(F)c(F)c(F)c(F)c5F)c5ccc([nH]5)c(-c5c(F)c(F)c(F)c(F)c5F)c5nc(c(-c6c(F)c(F)c(F)c(F)c6F)c6ccc3[nH]6)C=C5)C=C4)cc2)CC[N@@H+]1Cc1cc(F)c(F)c(F)c1
REMARK SMILES IDX 9 1 8 2 7 3 6 4 4 5 5 6 3 7 1 8 2 9 80 10 78 11 79 12 81 14
REMARK SMILES IDX 82 15 83 16 90 17 84 18 88 19 85 20 86 21 89 22 87 23 10 24
REMARK SMILES IDX 11 25 12 26 13 27 14 28 15 29 16 30 77 31 17 32 76 33 18 34
REMARK SMILES IDX 19 35 20 36 70 37 21 38 75 39 69 40 71 41 22 42 74 43 68 44
REMARK SMILES IDX 67 45 23 47 55 48 35 49 54 50 36 51 39 52 53 53 72 54 37 55
REMARK SMILES IDX 38 56 52 58 73 59 40 60 24 61 25 62 33 63 26 64 27 65 31 66
REMARK SMILES IDX 34 67 28 68 29 69 32 70 30 71 56 72 57 73 65 74 58 75 59 76
REMARK SMILES IDX 63 77 66 78 60 79 61 80 64 81 62 82 41 83 42 84 50 85 43 86
REMARK SMILES IDX 44 87 48 88 51 89 45 90 46 91 49 92 47 93
REMARK H PARENT 80 13 71 46 39 57
REMARK Flexibility Score: inf
ROOT
ATOM      1  O   UNL A   1      31.963  29.273  24.586  1.00  0.00    -0.374 OA
ENDROOT
BRANCH   1   2
ATOM      2  C   UNL A   1      30.778  28.940  23.854  1.00  0.00     0.202 C 
BRANCH   2   3
ATOM      3  C   UNL A   1      30.657  27.458  23.482  1.00  0.00     0.261 C 
BRANCH   3   4
ATOM      4  O   UNL A   1      29.909  26.774  24.509  1.00  0.00    -0.463 OA
BRANCH   4   5
ATOM      5  C   UNL A   1      30.603  26.026  25.390  1.00  0.00     0.315 C 
ATOM      6  O   UNL A   1      30.132  25.575  26.430  1.00  0.00    -0.252 OA
BRANCH   5   7
ATOM      7  C   UNL A   1      32.001  25.648  24.923  1.00  0.00     0.162 C 
ATOM      8  C   UNL A   1      31.302  23.224  24.110  1.00  0.00     0.076 C 
ATOM      9  C   UNL A   1      32.331  24.354  24.150  1.00  0.00     0.195 C 
ATOM     10  N   UNL A   1      33.551  23.804  24.773  1.00  0.00    -0.328 N 
ATOM     11  C   UNL A   1      32.954  25.668  26.122  1.00  0.00     0.083 C 
ATOM     12  C   UNL A   1      33.622  24.306  26.137  1.00  0.00     0.263 C 
ATOM     13  H   UNL A   1      33.464  22.788  24.793  1.00  0.00     0.348 HD
BRANCH  10  14
ATOM     14  C   UNL A   1      34.791  23.893  23.997  1.00  0.00     0.299 C 
BRANCH  14  15
ATOM     15  C   UNL A   1      36.009  23.199  24.568  1.00  0.00     0.012 A 
ATOM     16  C   UNL A   1      36.936  23.912  25.342  1.00  0.00     0.052 A 
ATOM     17  C   UNL A   1      36.236  21.831  24.344  1.00  0.00     0.052 A 
ATOM     18  C   UNL A   1      38.029  23.256  25.909  1.00  0.00     0.162 A 
ATOM     19  C   UNL A   1      37.314  21.185  24.943  1.00  0.00     0.162 A 
ATOM     20  F   UNL A   1      38.900  23.961  26.643  1.00  0.00    -0.204 F 
ATOM     21  C   UNL A   1      38.211  21.893  25.728  1.00  0.00     0.194 A 
ATOM     22  F   UNL A   1      37.465  19.866  24.765  1.00  0.00    -0.204 F 
ATOM     23  F   UNL A   1      39.245  21.266  26.306  1.00  0.00    -0.200 F 
ENDBRANCH  14  15
ENDBRANCH  10  14
ENDBRANCH   5   7
ENDBRANCH   4   5
ENDBRANCH   3   4
ENDBRANCH   2   3
ENDBRANCH   1   2
BRANCH   1  24
ATOM     24  C   UNL A   1      31.794  29.472  25.988  1.00  0.00     0.202 C 
BRANCH  24  25
ATOM     25  C   UNL A   1      31.997  30.912  26.466  1.00  0.00     0.261 C 
BRANCH  25  26
ATOM     26  O   UNL A   1      32.842  30.936  27.627  1.00  0.00    -0.460 OA
BRANCH  26  27
ATOM     27  C   UNL A   1      33.649  32.015  27.694  1.00  0.00     0.338 C 
ATOM     28  O   UNL A   1      33.312  33.192  27.691  1.00  0.00    -0.246 OA
BRANCH  27  29
ATOM     29  C   UNL A   1      35.042  31.601  27.938  1.00  0.00     0.060 A 
ATOM     30  C   UNL A   1      35.265  30.228  28.082  1.00  0.00     0.016 A 
ATOM     31  C   UNL A   1      36.089  32.514  28.095  1.00  0.00     0.016 A 
ATOM     32  C   UNL A   1      36.508  29.767  28.492  1.00  0.00     0.010 A 
ATOM     33  C   UNL A   1      37.346  32.048  28.502  1.00  0.00     0.010 A 
ATOM     34  C   UNL A   1      37.535  30.680  28.764  1.00  0.00    -0.014 A 
BRANCH  34  35
ATOM     35  C   UNL A   1      38.712  30.191  29.520  1.00  0.00     0.031 A 
ATOM     36  C   UNL A   1      38.887  30.631  30.948  1.00  0.00     0.074 A 
ATOM     37  C   UNL A   1      39.537  29.275  28.982  1.00  0.00     0.049 A 
ATOM     38  N   UNL A   1      39.765  30.245  31.837  1.00  0.00    -0.248 NA
ATOM     39  C   UNL A   1      37.938  31.643  31.444  1.00  0.00     0.031 C 
ATOM     40  C   UNL A   1      39.439  28.750  27.622  1.00  0.00     0.029 A 
ATOM     41  N   UNL A   1      40.603  28.608  29.527  1.00  0.00    -0.354 N 
ATOM     42  C   UNL A   1      39.473  30.959  32.993  1.00  0.00     0.074 A 
ATOM     43  C   UNL A   1      38.367  31.837  32.681  1.00  0.00     0.031 C 
ATOM     44  C   UNL A   1      40.402  27.831  27.441  1.00  0.00     0.029 A 
ATOM     45  C   UNL A   1      41.191  27.716  28.666  1.00  0.00     0.049 A 
ATOM     46  H   UNL A   1      40.918  28.756  30.449  1.00  0.00     0.167 HD
ATOM     47  C   UNL A   1      40.061  30.876  34.209  1.00  0.00     0.037 A 
ATOM     48  C   UNL A   1      42.246  26.901  28.851  1.00  0.00     0.037 A 
ATOM     49  C   UNL A   1      41.157  29.996  34.515  1.00  0.00     0.049 A 
ATOM     50  C   UNL A   1      42.914  26.862  30.202  1.00  0.00     0.074 A 
ATOM     51  C   UNL A   1      41.820  29.826  35.717  1.00  0.00     0.029 A 
ATOM     52  N   UNL A   1      41.754  29.138  33.603  1.00  0.00    -0.354 N 
ATOM     53  N   UNL A   1      42.610  27.517  31.297  1.00  0.00    -0.248 NA
ATOM     54  C   UNL A   1      44.061  25.957  30.346  1.00  0.00     0.031 C 
ATOM     55  C   UNL A   1      42.851  28.902  35.520  1.00  0.00     0.029 A 
ATOM     56  C   UNL A   1      42.794  28.453  34.210  1.00  0.00     0.049 A 
ATOM     57  H   UNL A   1      41.480  29.033  32.664  1.00  0.00     0.167 HD
ATOM     58  C   UNL A   1      43.508  27.085  32.264  1.00  0.00     0.074 A 
ATOM     59  C   UNL A   1      44.355  26.096  31.630  1.00  0.00     0.031 C 
ATOM     60  C   UNL A   1      43.623  27.469  33.561  1.00  0.00     0.037 A 
BRANCH  47  61
ATOM     61  C   UNL A   1      39.543  31.779  35.292  1.00  0.00     0.064 A 
ATOM     62  C   UNL A   1      38.621  31.331  36.252  1.00  0.00     0.173 A 
ATOM     63  C   UNL A   1      39.990  33.106  35.384  1.00  0.00     0.173 A 
ATOM     64  F   UNL A   1      38.146  30.077  36.199  1.00  0.00    -0.203 F 
ATOM     65  C   UNL A   1      38.147  32.186  37.244  1.00  0.00     0.198 A 
ATOM     66  C   UNL A   1      39.538  33.948  36.397  1.00  0.00     0.198 A 
ATOM     67  F   UNL A   1      40.871  33.586  34.493  1.00  0.00    -0.203 F 
ATOM     68  F   UNL A   1      37.229  31.751  38.119  1.00  0.00    -0.200 F 
ATOM     69  C   UNL A   1      38.611  33.490  37.320  1.00  0.00     0.200 A 
ATOM     70  F   UNL A   1      39.996  35.205  36.475  1.00  0.00    -0.200 F 
ATOM     71  F   UNL A   1      38.159  34.310  38.279  1.00  0.00    -0.200 F 
ENDBRANCH  47  61
BRANCH  48  72
ATOM     72  C   UNL A   1      42.731  26.047  27.735  1.00  0.00     0.064 A 
ATOM     73  C   UNL A   1      43.728  26.492  26.857  1.00  0.00     0.173 A 
ATOM     74  C   UNL A   1      42.193  24.770  27.517  1.00  0.00     0.173 A 
ATOM     75  F   UNL A   1      44.258  27.715  27.011  1.00  0.00    -0.203 F 
ATOM     76  C   UNL A   1      44.154  25.702  25.792  1.00  0.00     0.198 A 
ATOM     77  C   UNL A   1      42.641  23.968  26.469  1.00  0.00     0.198 A 
ATOM     78  F   UNL A   1      41.237  24.296  28.329  1.00  0.00    -0.203 F 
ATOM     79  F   UNL A   1      45.074  26.171  24.938  1.00  0.00    -0.200 F 
ATOM     80  C   UNL A   1      43.614  24.439  25.601  1.00  0.00     0.200 A 
ATOM     81  F   UNL A   1      42.126  22.744  26.299  1.00  0.00    -0.200 F 
ATOM     82  F   UNL A   1      44.026  23.678  24.579  1.00  0.00    -0.200 F 
ENDBRANCH  48  72
BRANCH  60  83
ATOM     83  C   UNL A   1      44.680  26.791  34.385  1.00  0.00     0.064 A 
ATOM     84  C   UNL A   1      44.426  25.596  35.074  1.00  0.00     0.173 A 
ATOM     85  C   UNL A   1      45.972  27.334  34.466  1.00  0.00     0.173 A 
ATOM     86  F   UNL A   1      43.204  25.042  35.038  1.00  0.00    -0.203 F 
ATOM     87  C   UNL A   1      45.414  24.991  35.847  1.00  0.00     0.198 A 
ATOM     88  C   UNL A   1      46.967  26.708  35.211  1.00  0.00     0.198 A 
ATOM     89  F   UNL A   1      46.271  28.469  33.816  1.00  0.00    -0.203 F 
ATOM     90  F   UNL A   1      45.131  23.884  36.545  1.00  0.00    -0.200 F 
ATOM     91  C   UNL A   1      46.685  25.544  35.909  1.00  0.00     0.200 A 
ATOM     92  F   UNL A   1      48.198  27.236  35.258  1.00  0.00    -0.200 F 
ATOM     93  F   UNL A   1      47.635  24.961  36.652  1.00  0.00    -0.200 F 
ENDBRANCH  60  83
ENDBRANCH  34  35
ENDBRANCH  27  29
ENDBRANCH  26  27
ENDBRANCH  25  26
ENDBRANCH  24  25
ENDBRANCH   1  24
TORSDOF 16
ENDMDL
MODEL 3
REMARK VINA RESULT:     -11.6      4.525      7.344
REMARK SMILES C[C@H]1[C@@H](C(=O)OCCOCCOC(=O)c2ccc(-c3c4nc(c(-c5c(F)c(F)c(F)c(F)c5F)c5ccc([nH]5)c(-c5c(F)c(F)c(F)c(F)c5F)c5nc(c(-c6c(F)c(F)c(F)c(F)c6F)c6ccc3[nH]6)C=C5)C=C4)cc2)CC[N@@H+]1Cc1cc(F)c(F)c(F)c1
REMARK SMILES IDX 9 1 8 2 7 3 6 4 4 5 5 6 3 7 1 8 2 9 80 10 78 11 79 12 81 14
REMARK SMILES IDX 82 15 83 16 90 17 84 18 88 19 85 20 86 21 89 22 87 23 10 24
REMARK SMILES IDX 11 25 12 26 13 27 14 28 15 29 16 30 77 31 17 32 76 33 18 34
REMARK SMILES IDX 19 35 20 36 70 37 21 38 75 39 69 40 71 41 22 42 74 43 68 44
REMARK SMILES IDX 67 45 23 47 55 48 35 49 54 50 36 51 39 52 53 53 72 54 37 55
REMARK SMILES IDX 38 56 52 58 73 59 40 60 24 61 25 62 33 63 26 64 27 65 31 66
REMARK SMILES IDX 34 67 28 68 29 69 32 70 30 71 56 72 57 73 65 74 58 75 59 76
REMARK SMILES IDX 63 77 66 78 60 79 61 80 64 81 62 82 41 83 42 84 50 85 43 86
REMARK SMILES IDX 44 87 48 88 51 89 45 90 46 91 49 92 47 93
REMARK H PARENT 80 13 71 46 39 57
REMARK Flexibility Score: inf
ROOT
ATOM      1  O   UNL A   1      30.765  29.423  24.243  1.00  0.00    -0.374 OA
ENDROOT
BRANCH   1   2
ATOM      2  C   UNL A   1      30.611  28.124  23.659  1.00  0.00     0.202 C 
BRANCH   2   3
ATOM      3  C   UNL A   1      31.564  27.833  22.496  1.00  0.00     0.261 C 
BRANCH   3   4
ATOM      4  O   UNL A   1      32.853  27.457  23.025  1.00  0.00    -0.463 OA
BRANCH   4   5
ATOM      5  C   UNL A   1      33.294  26.211  22.761  1.00  0.00     0.315 C 
ATOM      6  O   UNL A   1      33.725  25.852  21.668  1.00  0.00    -0.252 OA
BRANCH   5   7
ATOM      7  C   UNL A   1      33.359  25.300  23.978  1.00  0.00     0.162 C 
ATOM      8  C   UNL A   1      30.922  24.317  23.633  1.00  0.00     0.076 C 
ATOM      9  C   UNL A   1      32.282  24.252  24.329  1.00  0.00     0.195 C 
ATOM     10  N   UNL A   1      32.033  24.390  25.777  1.00  0.00    -0.328 N 
ATOM     11  C   UNL A   1      33.528  26.156  25.237  1.00  0.00     0.083 C 
ATOM     12  C   UNL A   1      32.407  25.740  26.169  1.00  0.00     0.263 C 
ATOM     13  H   UNL A   1      31.035  24.257  25.938  1.00  0.00     0.348 HD
BRANCH  10  14
ATOM     14  C   UNL A   1      32.530  23.316  26.641  1.00  0.00     0.299 C 
BRANCH  14  15
ATOM     15  C   UNL A   1      33.666  22.473  26.104  1.00  0.00     0.012 A 
ATOM     16  C   UNL A   1      34.997  22.885  26.270  1.00  0.00     0.052 A 
ATOM     17  C   UNL A   1      33.419  21.262  25.436  1.00  0.00     0.052 A 
ATOM     18  C   UNL A   1      36.042  22.078  25.819  1.00  0.00     0.162 A 
ATOM     19  C   UNL A   1      34.475  20.455  25.020  1.00  0.00     0.162 A 
ATOM     20  F   UNL A   1      37.304  22.495  25.989  1.00  0.00    -0.204 F 
ATOM     21  C   UNL A   1      35.787  20.857  25.212  1.00  0.00     0.194 A 
ATOM     22  F   UNL A   1      34.205  19.275  24.446  1.00  0.00    -0.204 F 
ATOM     23  F   UNL A   1      36.799  20.075  24.814  1.00  0.00    -0.200 F 
ENDBRANCH  14  15
ENDBRANCH  10  14
ENDBRANCH   5   7
ENDBRANCH   4   5
ENDBRANCH   3   4
ENDBRANCH   2   3
ENDBRANCH   1   2
BRANCH   1  24
ATOM     24  C   UNL A   1      31.575  29.488  25.414  1.00  0.00     0.202 C 
BRANCH  24  25
ATOM     25  C   UNL A   1      31.722  30.885  26.023  1.00  0.00     0.261 C 
BRANCH  25  26
ATOM     26  O   UNL A   1      32.487  30.820  27.236  1.00  0.00    -0.460 OA
BRANCH  26  27
ATOM     27  C   UNL A   1      33.286  31.888  27.436  1.00  0.00     0.338 C 
ATOM     28  O   UNL A   1      32.962  33.069  27.420  1.00  0.00    -0.246 OA
BRANCH  27  29
ATOM     29  C   UNL A   1      34.632  31.453  27.847  1.00  0.00     0.060 A 
ATOM     30  C   UNL A   1      34.798  30.084  28.082  1.00  0.00     0.016 A 
ATOM     31  C   UNL A   1      35.685  32.347  28.069  1.00  0.00     0.016 A 
ATOM     32  C   UNL A   1      35.976  29.615  28.645  1.00  0.00     0.010 A 
ATOM     33  C   UNL A   1      36.877  31.872  28.630  1.00  0.00     0.010 A 
ATOM     34  C   UNL A   1      36.996  30.515  28.979  1.00  0.00    -0.014 A 
BRANCH  34  35
ATOM     35  C   UNL A   1      38.072  30.037  29.879  1.00  0.00     0.031 A 
ATOM     36  C   UNL A   1      39.095  29.077  29.335  1.00  0.00     0.074 A 
ATOM     37  C   UNL A   1      38.203  30.546  31.116  1.00  0.00     0.049 A 
ATOM     38  N   UNL A   1      40.185  28.617  29.893  1.00  0.00    -0.248 NA
ATOM     39  C   UNL A   1      38.861  28.569  27.972  1.00  0.00     0.031 C 
ATOM     40  C   UNL A   1      37.292  31.509  31.731  1.00  0.00     0.029 A 
ATOM     41  N   UNL A   1      39.170  30.340  32.066  1.00  0.00    -0.354 N 
ATOM     42  C   UNL A   1      40.765  27.774  28.953  1.00  0.00     0.074 A 
ATOM     43  C   UNL A   1      39.885  27.747  27.806  1.00  0.00     0.031 C 
ATOM     44  C   UNL A   1      37.751  31.821  32.955  1.00  0.00     0.029 A 
ATOM     45  C   UNL A   1      38.977  31.068  33.213  1.00  0.00     0.049 A 
ATOM     46  H   UNL A   1      39.931  29.728  31.937  1.00  0.00     0.167 HD
ATOM     47  C   UNL A   1      41.936  27.099  29.031  1.00  0.00     0.037 A 
ATOM     48  C   UNL A   1      39.710  31.117  34.341  1.00  0.00     0.037 A 
ATOM     49  C   UNL A   1      42.811  27.134  30.173  1.00  0.00     0.049 A 
ATOM     50  C   UNL A   1      40.986  30.318  34.421  1.00  0.00     0.074 A 
ATOM     51  C   UNL A   1      44.024  26.496  30.352  1.00  0.00     0.029 A 
ATOM     52  N   UNL A   1      42.558  27.849  31.334  1.00  0.00    -0.354 N 
ATOM     53  N   UNL A   1      41.542  29.549  33.515  1.00  0.00    -0.248 NA
ATOM     54  C   UNL A   1      41.743  30.407  35.675  1.00  0.00     0.031 C 
ATOM     55  C   UNL A   1      44.482  26.783  31.642  1.00  0.00     0.029 A 
ATOM     56  C   UNL A   1      43.583  27.648  32.245  1.00  0.00     0.049 A 
ATOM     57  H   UNL A   1      41.768  28.414  31.490  1.00  0.00     0.167 HD
ATOM     58  C   UNL A   1      42.725  29.088  34.077  1.00  0.00     0.074 A 
ATOM     59  C   UNL A   1      42.814  29.679  35.396  1.00  0.00     0.031 C 
ATOM     60  C   UNL A   1      43.655  28.250  33.553  1.00  0.00     0.037 A 
BRANCH  47  61
ATOM     61  C   UNL A   1      42.323  26.247  27.857  1.00  0.00     0.064 A 
ATOM     62  C   UNL A   1      41.802  24.955  27.675  1.00  0.00     0.173 A 
ATOM     63  C   UNL A   1      43.212  26.736  26.888  1.00  0.00     0.173 A 
ATOM     64  F   UNL A   1      40.962  24.433  28.582  1.00  0.00    -0.203 F 
ATOM     65  C   UNL A   1      42.179  24.177  26.583  1.00  0.00     0.198 A 
ATOM     66  C   UNL A   1      43.562  25.966  25.780  1.00  0.00     0.198 A 
ATOM     67  F   UNL A   1      43.740  27.963  27.011  1.00  0.00    -0.203 F 
ATOM     68  F   UNL A   1      41.708  22.929  26.457  1.00  0.00    -0.200 F 
ATOM     69  C   UNL A   1      43.052  24.686  25.633  1.00  0.00     0.200 A 
ATOM     70  F   UNL A   1      44.397  26.464  24.858  1.00  0.00    -0.200 F 
ATOM     71  F   UNL A   1      43.409  23.938  24.580  1.00  0.00    -0.200 F 
ENDBRANCH  47  61
BRANCH  48  72
ATOM     72  C   UNL A   1      39.264  31.960  35.481  1.00  0.00     0.064 A 
ATOM     73  C   UNL A   1      39.677  33.293  35.607  1.00  0.00     0.173 A 
ATOM     74  C   UNL A   1      38.424  31.441  36.477  1.00  0.00     0.173 A 
ATOM     75  F   UNL A   1      40.499  33.829  34.691  1.00  0.00    -0.203 F 
ATOM     76  C   UNL A   1      39.286  34.068  36.695  1.00  0.00     0.198 A 
ATOM     77  C   UNL A   1      38.008  32.226  37.550  1.00  0.00     0.198 A 
ATOM     78  F   UNL A   1      37.999  30.171  36.404  1.00  0.00    -0.203 F 
ATOM     79  F   UNL A   1      39.734  35.325  36.817  1.00  0.00    -0.200 F 
ATOM     80  C   UNL A   1      38.447  33.537  37.664  1.00  0.00     0.200 A 
ATOM     81  F   UNL A   1      37.187  31.712  38.475  1.00  0.00    -0.200 F 
ATOM     82  F   UNL A   1      38.067  34.283  38.709  1.00  0.00    -0.200 F 
ENDBRANCH  48  72
BRANCH  60  83
ATOM     83  C   UNL A   1      44.863  27.955  34.394  1.00  0.00     0.064 A 
ATOM     84  C   UNL A   1      46.009  28.763  34.351  1.00  0.00     0.173 A 
ATOM     85  C   UNL A   1      44.865  26.860  35.272  1.00  0.00     0.173 A 
ATOM     86  F   UNL A   1      46.063  29.815  33.519  1.00  0.00    -0.203 F 
ATOM     87  C   UNL A   1      47.126  28.463  35.125  1.00  0.00     0.198 A 
ATOM     88  C   UNL A   1      45.970  26.584  36.071  1.00  0.00     0.198 A 
ATOM     89  F   UNL A   1      43.790  26.062  35.361  1.00  0.00    -0.203 F 
ATOM     90  F   UNL A   1      48.231  29.214  35.022  1.00  0.00    -0.200 F 
ATOM     91  C   UNL A   1      47.103  27.378  35.990  1.00  0.00     0.200 A 
ATOM     92  F   UNL A   1      45.941  25.544  36.916  1.00  0.00    -0.200 F 
ATOM     93  F   UNL A   1      48.179  27.092  36.735  1.00  0.00    -0.200 F 
ENDBRANCH  60  83
ENDBRANCH  34  35
ENDBRANCH  27  29
ENDBRANCH  26  27
ENDBRANCH  25  26
ENDBRANCH  24  25
ENDBRANCH   1  24
TORSDOF 16
ENDMDL
