MODEL 1
REMARK VINA RESULT:      -9.7      0.000      0.000
REMARK SMILES CCC(C)(C)c1cccc(C(=O)OCCOCCOC(=O)c2ccc(-c3c4nc(c(-c5c(F)c(F)c(F)c(F)c5F)c5ccc([nH]5)c(-c5c(F)c(F)c(F)c(F)c5F)c5nc(c(-c6c(F)c(F)c(F)c(F)c6F)c6ccc3[nH]6)C=C5)C=C4)cc2)c1
REMARK SMILES IDX 16 1 15 2 14 3 13 4 11 5 12 6 10 7 6 8 7 9 85 10 8 11 9 12
REMARK SMILES IDX 3 13 4 14 5 15 2 16 1 17 17 18 18 19 19 20 20 21 21 22 22 23
REMARK SMILES IDX 23 24 84 25 24 26 83 27 25 28 26 29 27 30 77 31 28 32 82 33
REMARK SMILES IDX 76 34 78 35 29 36 81 37 75 38 74 39 30 41 62 42 42 43 61 44
REMARK SMILES IDX 43 45 46 46 60 47 79 48 44 49 45 50 59 52 80 53 47 54 31 55
REMARK SMILES IDX 32 56 40 57 33 58 34 59 38 60 41 61 35 62 36 63 39 64 37 65
REMARK SMILES IDX 63 66 64 67 72 68 65 69 66 70 70 71 73 72 67 73 68 74 71 75
REMARK SMILES IDX 69 76 48 77 49 78 57 79 50 80 51 81 55 82 58 83 52 84 53 85
REMARK SMILES IDX 56 86 54 87
REMARK H PARENT 78 40 46 51
REMARK Flexibility Score: inf
ROOT
ATOM      1  O   UNL A   1      33.123  34.476  29.640  1.00  0.00    -0.374 OA
ENDROOT
BRANCH   1   2
ATOM      2  C   UNL A   1      32.874  35.851  29.936  1.00  0.00     0.202 C 
BRANCH   2   3
ATOM      3  C   UNL A   1      32.614  36.182  31.410  1.00  0.00     0.261 C 
BRANCH   3   4
ATOM      4  O   UNL A   1      33.130  35.144  32.260  1.00  0.00    -0.460 OA
BRANCH   4   5
ATOM      5  C   UNL A   1      34.179  35.503  33.038  1.00  0.00     0.338 C 
ATOM      6  O   UNL A   1      34.243  36.476  33.775  1.00  0.00    -0.246 OA
BRANCH   5   7
ATOM      7  C   UNL A   1      35.206  34.434  33.021  1.00  0.00     0.060 A 
ATOM      8  C   UNL A   1      37.460  33.586  33.468  1.00  0.00    -0.042 A 
ATOM      9  C   UNL A   1      37.047  32.352  32.924  1.00  0.00     0.004 A 
ATOM     10  C   UNL A   1      36.515  34.632  33.493  1.00  0.00     0.020 A 
ATOM     11  C   UNL A   1      35.756  32.164  32.425  1.00  0.00     0.001 A 
ATOM     12  C   UNL A   1      34.833  33.199  32.483  1.00  0.00     0.016 A 
BRANCH   8  13
ATOM     13  C   UNL A   1      38.859  33.723  34.104  1.00  0.00    -0.011 C 
ATOM     14  C   UNL A   1      39.906  34.370  33.166  1.00  0.00     0.016 C 
ATOM     15  C   UNL A   1      39.436  32.329  34.469  1.00  0.00     0.016 C 
BRANCH  13  16
ATOM     16  C   UNL A   1      38.743  34.551  35.419  1.00  0.00     0.008 C 
ATOM     17  C   UNL A   1      39.939  34.459  36.364  1.00  0.00     0.005 C 
ENDBRANCH  13  16
ENDBRANCH   8  13
ENDBRANCH   5   7
ENDBRANCH   4   5
ENDBRANCH   3   4
ENDBRANCH   2   3
ENDBRANCH   1   2
BRANCH   1  18
ATOM     18  C   UNL A   1      33.667  34.179  28.353  1.00  0.00     0.202 C 
BRANCH  18  19
ATOM     19  C   UNL A   1      34.895  33.262  28.333  1.00  0.00     0.261 C 
BRANCH  19  20
ATOM     20  O   UNL A   1      34.679  32.058  29.090  1.00  0.00    -0.460 OA
BRANCH  20  21
ATOM     21  C   UNL A   1      34.686  30.919  28.360  1.00  0.00     0.338 C 
ATOM     22  O   UNL A   1      33.833  30.534  27.573  1.00  0.00    -0.246 OA
BRANCH  21  23
ATOM     23  C   UNL A   1      35.985  30.237  28.507  1.00  0.00     0.060 A 
ATOM     24  C   UNL A   1      36.269  29.649  29.745  1.00  0.00     0.016 A 
ATOM     25  C   UNL A   1      36.933  30.232  27.482  1.00  0.00     0.016 A 
ATOM     26  C   UNL A   1      37.525  29.097  29.983  1.00  0.00     0.010 A 
ATOM     27  C   UNL A   1      38.197  29.684  27.726  1.00  0.00     0.010 A 
ATOM     28  C   UNL A   1      38.509  29.146  28.987  1.00  0.00    -0.014 A 
BRANCH  28  29
ATOM     29  C   UNL A   1      39.904  28.763  29.315  1.00  0.00     0.031 A 
ATOM     30  C   UNL A   1      40.736  29.686  30.161  1.00  0.00     0.074 A 
ATOM     31  C   UNL A   1      40.414  27.596  28.887  1.00  0.00     0.049 A 
ATOM     32  N   UNL A   1      41.985  29.572  30.538  1.00  0.00    -0.248 NA
ATOM     33  C   UNL A   1      40.070  30.905  30.646  1.00  0.00     0.031 C 
ATOM     34  C   UNL A   1      39.696  26.603  28.093  1.00  0.00     0.029 A 
ATOM     35  N   UNL A   1      41.664  27.054  29.055  1.00  0.00    -0.354 N 
ATOM     36  C   UNL A   1      42.254  30.704  31.296  1.00  0.00     0.074 A 
ATOM     37  C   UNL A   1      41.052  31.510  31.298  1.00  0.00     0.031 C 
ATOM     38  C   UNL A   1      40.521  25.574  27.832  1.00  0.00     0.029 A 
ATOM     39  C   UNL A   1      41.833  25.853  28.412  1.00  0.00     0.049 A 
ATOM     40  H   UNL A   1      42.373  27.486  29.586  1.00  0.00     0.167 HD
ATOM     41  C   UNL A   1      43.398  31.036  31.940  1.00  0.00     0.037 A 
ATOM     42  C   UNL A   1      42.930  25.082  28.289  1.00  0.00     0.037 A 
ATOM     43  C   UNL A   1      44.593  30.232  31.936  1.00  0.00     0.049 A 
ATOM     44  C   UNL A   1      44.213  25.506  28.957  1.00  0.00     0.074 A 
ATOM     45  C   UNL A   1      45.797  30.471  32.574  1.00  0.00     0.029 A 
ATOM     46  N   UNL A   1      44.736  29.034  31.250  1.00  0.00    -0.354 N 
ATOM     47  N   UNL A   1      44.453  26.563  29.693  1.00  0.00    -0.248 NA
ATOM     48  C   UNL A   1      45.375  24.624  28.778  1.00  0.00     0.031 C 
ATOM     49  C   UNL A   1      46.686  29.446  32.231  1.00  0.00     0.029 A 
ATOM     50  C   UNL A   1      46.017  28.537  31.426  1.00  0.00     0.049 A 
ATOM     51  H   UNL A   1      44.030  28.601  30.716  1.00  0.00     0.167 HD
ATOM     52  C   UNL A   1      45.780  26.461  30.090  1.00  0.00     0.074 A 
ATOM     53  C   UNL A   1      46.290  25.231  29.521  1.00  0.00     0.031 C 
ATOM     54  C   UNL A   1      46.510  27.307  30.858  1.00  0.00     0.037 A 
BRANCH  41  55
ATOM     55  C   UNL A   1      43.421  32.341  32.682  1.00  0.00     0.064 A 
ATOM     56  C   UNL A   1      43.219  32.407  34.069  1.00  0.00     0.173 A 
ATOM     57  C   UNL A   1      43.674  33.541  31.999  1.00  0.00     0.173 A 
ATOM     58  F   UNL A   1      42.960  31.290  34.767  1.00  0.00    -0.203 F 
ATOM     59  C   UNL A   1      43.241  33.628  34.740  1.00  0.00     0.198 A 
ATOM     60  C   UNL A   1      43.726  34.756  32.678  1.00  0.00     0.198 A 
ATOM     61  F   UNL A   1      43.878  33.534  30.673  1.00  0.00    -0.203 F 
ATOM     62  F   UNL A   1      42.994  33.672  36.056  1.00  0.00    -0.200 F 
ATOM     63  C   UNL A   1      43.500  34.799  34.046  1.00  0.00     0.200 A 
ATOM     64  F   UNL A   1      43.989  35.885  32.007  1.00  0.00    -0.200 F 
ATOM     65  F   UNL A   1      43.525  35.973  34.693  1.00  0.00    -0.200 F 
ENDBRANCH  41  55
BRANCH  42  66
ATOM     66  C   UNL A   1      42.866  23.830  27.490  1.00  0.00     0.064 A 
ATOM     67  C   UNL A   1      43.228  23.814  26.137  1.00  0.00     0.173 A 
ATOM     68  C   UNL A   1      42.432  22.625  28.064  1.00  0.00     0.173 A 
ATOM     69  F   UNL A   1      43.627  24.946  25.537  1.00  0.00    -0.203 F 
ATOM     70  C   UNL A   1      43.145  22.645  25.383  1.00  0.00     0.198 A 
ATOM     71  C   UNL A   1      42.375  21.451  27.316  1.00  0.00     0.198 A 
ATOM     72  F   UNL A   1      42.072  22.587  29.355  1.00  0.00    -0.203 F 
ATOM     73  F   UNL A   1      43.455  22.668  24.080  1.00  0.00    -0.200 F 
ATOM     74  C   UNL A   1      42.725  21.463  25.974  1.00  0.00     0.200 A 
ATOM     75  F   UNL A   1      41.982  20.309  27.895  1.00  0.00    -0.200 F 
ATOM     76  F   UNL A   1      42.650  20.338  25.250  1.00  0.00    -0.200 F 
ENDBRANCH  42  66
BRANCH  54  77
ATOM     77  C   UNL A   1      47.928  26.917  31.163  1.00  0.00     0.064 A 
ATOM     78  C   UNL A   1      48.247  26.069  32.234  1.00  0.00     0.173 A 
ATOM     79  C   UNL A   1      48.978  27.365  30.346  1.00  0.00     0.173 A 
ATOM     80  F   UNL A   1      47.282  25.625  33.054  1.00  0.00    -0.203 F 
ATOM     81  C   UNL A   1      49.567  25.706  32.490  1.00  0.00     0.198 A 
ATOM     82  C   UNL A   1      50.292  26.974  30.586  1.00  0.00     0.198 A 
ATOM     83  F   UNL A   1      48.726  28.173  29.304  1.00  0.00    -0.203 F 
ATOM     84  F   UNL A   1      49.853  24.932  33.547  1.00  0.00    -0.200 F 
ATOM     85  C   UNL A   1      50.586  26.151  31.661  1.00  0.00     0.200 A 
ATOM     86  F   UNL A   1      51.273  27.394  29.776  1.00  0.00    -0.200 F 
ATOM     87  F   UNL A   1      51.854  25.793  31.905  1.00  0.00    -0.200 F 
ENDBRANCH  54  77
ENDBRANCH  28  29
ENDBRANCH  21  23
ENDBRANCH  20  21
ENDBRANCH  19  20
ENDBRANCH  18  19
ENDBRANCH   1  18
TORSDOF 16
ENDMDL
MODEL 2
REMARK VINA RESULT:      -9.7      5.028     11.186
REMARK SMILES CCC(C)(C)c1cccc(C(=O)OCCOCCOC(=O)c2ccc(-c3c4nc(c(-c5c(F)c(F)c(F)c(F)c5F)c5ccc([nH]5)c(-c5c(F)c(F)c(F)c(F)c5F)c5nc(c(-c6c(F)c(F)c(F)c(F)c6F)c6ccc3[nH]6)C=C5)C=C4)cc2)c1
REMARK SMILES IDX 16 1 15 2 14 3 13 4 11 5 12 6 10 7 6 8 7 9 85 10 8 11 9 12
REMARK SMILES IDX 3 13 4 14 5 15 2 16 1 17 17 18 18 19 19 20 20 21 21 22 22 23
REMARK SMILES IDX 23 24 84 25 24 26 83 27 25 28 26 29 27 30 77 31 28 32 82 33
REMARK SMILES IDX 76 34 78 35 29 36 81 37 75 38 74 39 30 41 62 42 42 43 61 44
REMARK SMILES IDX 43 45 46 46 60 47 79 48 44 49 45 50 59 52 80 53 47 54 31 55
REMARK SMILES IDX 32 56 40 57 33 58 34 59 38 60 41 61 35 62 36 63 39 64 37 65
REMARK SMILES IDX 63 66 64 67 72 68 65 69 66 70 70 71 73 72 67 73 68 74 71 75
REMARK SMILES IDX 69 76 48 77 49 78 57 79 50 80 51 81 55 82 58 83 52 84 53 85
REMARK SMILES IDX 56 86 54 87
REMARK H PARENT 78 40 46 51
REMARK Flexibility Score: inf
ROOT
ATOM      1  O   UNL A   1      42.156  19.971  26.552  1.00  0.00    -0.374 OA
ENDROOT
BRANCH   1   2
ATOM      2  C   UNL A   1      40.753  20.010  26.291  1.00  0.00     0.202 C 
BRANCH   2   3
ATOM      3  C   UNL A   1      40.074  21.372  26.474  1.00  0.00     0.261 C 
BRANCH   3   4
ATOM      4  O   UNL A   1      38.802  21.396  25.806  1.00  0.00    -0.460 OA
BRANCH   4   5
ATOM      5  C   UNL A   1      38.109  22.554  25.926  1.00  0.00     0.338 C 
ATOM      6  O   UNL A   1      38.570  23.661  26.163  1.00  0.00    -0.246 OA
BRANCH   5   7
ATOM      7  C   UNL A   1      36.693  22.334  25.541  1.00  0.00     0.060 A 
ATOM      8  C   UNL A   1      34.436  23.136  25.032  1.00  0.00    -0.042 A 
ATOM      9  C   UNL A   1      34.062  21.792  24.828  1.00  0.00     0.004 A 
ATOM     10  C   UNL A   1      35.772  23.386  25.409  1.00  0.00     0.020 A 
ATOM     11  C   UNL A   1      34.969  20.743  24.991  1.00  0.00     0.001 A 
ATOM     12  C   UNL A   1      36.285  21.013  25.336  1.00  0.00     0.016 A 
BRANCH   8  13
ATOM     13  C   UNL A   1      33.435  24.273  24.741  1.00  0.00    -0.011 C 
ATOM     14  C   UNL A   1      32.183  24.246  25.650  1.00  0.00     0.016 C 
ATOM     15  C   UNL A   1      32.894  24.171  23.289  1.00  0.00     0.016 C 
BRANCH  13  16
ATOM     16  C   UNL A   1      34.163  25.644  24.884  1.00  0.00     0.008 C 
ATOM     17  C   UNL A   1      33.545  26.619  25.883  1.00  0.00     0.005 C 
ENDBRANCH  13  16
ENDBRANCH   8  13
ENDBRANCH   5   7
ENDBRANCH   4   5
ENDBRANCH   3   4
ENDBRANCH   2   3
ENDBRANCH   1   2
BRANCH   1  18
ATOM     18  C   UNL A   1      43.024  20.378  25.492  1.00  0.00     0.202 C 
BRANCH  18  19
ATOM     19  C   UNL A   1      43.717  21.733  25.668  1.00  0.00     0.261 C 
BRANCH  19  20
ATOM     20  O   UNL A   1      43.003  22.792  25.004  1.00  0.00    -0.460 OA
BRANCH  20  21
ATOM     21  C   UNL A   1      43.632  23.989  25.008  1.00  0.00     0.338 C 
ATOM     22  O   UNL A   1      44.548  24.351  24.283  1.00  0.00    -0.246 OA
BRANCH  21  23
ATOM     23  C   UNL A   1      42.940  24.916  25.922  1.00  0.00     0.060 A 
ATOM     24  C   UNL A   1      43.481  26.199  26.072  1.00  0.00     0.016 A 
ATOM     25  C   UNL A   1      41.829  24.520  26.670  1.00  0.00     0.016 A 
ATOM     26  C   UNL A   1      42.944  27.076  27.011  1.00  0.00     0.010 A 
ATOM     27  C   UNL A   1      41.296  25.401  27.617  1.00  0.00     0.010 A 
ATOM     28  C   UNL A   1      41.873  26.668  27.816  1.00  0.00    -0.014 A 
BRANCH  28  29
ATOM     29  C   UNL A   1      41.450  27.514  28.959  1.00  0.00     0.031 A 
ATOM     30  C   UNL A   1      42.221  27.438  30.248  1.00  0.00     0.074 A 
ATOM     31  C   UNL A   1      40.411  28.357  28.842  1.00  0.00     0.049 A 
ATOM     32  N   UNL A   1      42.007  28.055  31.383  1.00  0.00    -0.248 NA
ATOM     33  C   UNL A   1      43.388  26.542  30.259  1.00  0.00     0.031 C 
ATOM     34  C   UNL A   1      39.611  28.546  27.634  1.00  0.00     0.029 A 
ATOM     35  N   UNL A   1      39.845  29.208  29.759  1.00  0.00    -0.354 N 
ATOM     36  C   UNL A   1      43.007  27.619  32.242  1.00  0.00     0.074 A 
ATOM     37  C   UNL A   1      43.806  26.659  31.511  1.00  0.00     0.031 C 
ATOM     38  C   UNL A   1      38.648  29.449  27.887  1.00  0.00     0.029 A 
ATOM     39  C   UNL A   1      38.745  29.875  29.282  1.00  0.00     0.049 A 
ATOM     40  H   UNL A   1      40.195  29.327  30.672  1.00  0.00     0.167 HD
ATOM     41  C   UNL A   1      43.241  27.992  33.523  1.00  0.00     0.037 A 
ATOM     42  C   UNL A   1      37.900  30.716  29.910  1.00  0.00     0.037 A 
ATOM     43  C   UNL A   1      42.445  28.948  34.247  1.00  0.00     0.049 A 
ATOM     44  C   UNL A   1      38.142  31.064  31.356  1.00  0.00     0.074 A 
ATOM     45  C   UNL A   1      42.613  29.409  35.541  1.00  0.00     0.029 A 
ATOM     46  N   UNL A   1      41.320  29.583  33.740  1.00  0.00    -0.354 N 
ATOM     47  N   UNL A   1      39.102  30.668  32.154  1.00  0.00    -0.248 NA
ATOM     48  C   UNL A   1      37.180  31.980  31.985  1.00  0.00     0.031 C 
ATOM     49  C   UNL A   1      41.560  30.281  35.835  1.00  0.00     0.029 A 
ATOM     50  C   UNL A   1      40.768  30.410  34.705  1.00  0.00     0.049 A 
ATOM     51  H   UNL A   1      40.966  29.463  32.829  1.00  0.00     0.167 HD
ATOM     52  C   UNL A   1      38.881  31.307  33.368  1.00  0.00     0.074 A 
ATOM     53  C   UNL A   1      37.700  32.126  33.197  1.00  0.00     0.031 C 
ATOM     54  C   UNL A   1      39.594  31.225  34.519  1.00  0.00     0.037 A 
BRANCH  41  55
ATOM     55  C   UNL A   1      44.395  27.343  34.232  1.00  0.00     0.064 A 
ATOM     56  C   UNL A   1      44.231  26.177  34.997  1.00  0.00     0.173 A 
ATOM     57  C   UNL A   1      45.687  27.880  34.125  1.00  0.00     0.173 A 
ATOM     58  F   UNL A   1      43.014  25.631  35.143  1.00  0.00    -0.203 F 
ATOM     59  C   UNL A   1      45.313  25.591  35.651  1.00  0.00     0.198 A 
ATOM     60  C   UNL A   1      46.771  27.274  34.755  1.00  0.00     0.198 A 
ATOM     61  F   UNL A   1      45.900  28.990  33.403  1.00  0.00    -0.203 F 
ATOM     62  F   UNL A   1      45.123  24.508  36.417  1.00  0.00    -0.200 F 
ATOM     63  C   UNL A   1      46.581  26.135  35.525  1.00  0.00     0.200 A 
ATOM     64  F   UNL A   1      47.998  27.794  34.620  1.00  0.00    -0.200 F 
ATOM     65  F   UNL A   1      47.622  25.568  36.151  1.00  0.00    -0.200 F 
ENDBRANCH  41  55
BRANCH  42  66
ATOM     66  C   UNL A   1      36.739  31.281  29.175  1.00  0.00     0.064 A 
ATOM     67  C   UNL A   1      36.712  32.627  28.788  1.00  0.00     0.173 A 
ATOM     68  C   UNL A   1      35.628  30.486  28.852  1.00  0.00     0.173 A 
ATOM     69  F   UNL A   1      37.739  33.433  29.094  1.00  0.00    -0.203 F 
ATOM     70  C   UNL A   1      35.612  33.162  28.119  1.00  0.00     0.198 A 
ATOM     71  C   UNL A   1      34.541  31.016  28.160  1.00  0.00     0.198 A 
ATOM     72  F   UNL A   1      35.603  29.192  29.202  1.00  0.00    -0.203 F 
ATOM     73  F   UNL A   1      35.593  34.463  27.800  1.00  0.00    -0.200 F 
ATOM     74  C   UNL A   1      34.530  32.354  27.801  1.00  0.00     0.200 A 
ATOM     75  F   UNL A   1      33.504  30.229  27.842  1.00  0.00    -0.200 F 
ATOM     76  F   UNL A   1      33.475  32.868  27.153  1.00  0.00    -0.200 F 
ENDBRANCH  42  66
BRANCH  54  77
ATOM     77  C   UNL A   1      39.140  32.070  35.675  1.00  0.00     0.064 A 
ATOM     78  C   UNL A   1      38.280  31.570  36.664  1.00  0.00     0.173 A 
ATOM     79  C   UNL A   1      39.608  33.386  35.818  1.00  0.00     0.173 A 
ATOM     80  F   UNL A   1      37.794  30.323  36.566  1.00  0.00    -0.203 F 
ATOM     81  C   UNL A   1      37.885  32.364  37.737  1.00  0.00     0.198 A 
ATOM     82  C   UNL A   1      39.235  34.166  36.909  1.00  0.00     0.198 A 
ATOM     83  F   UNL A   1      40.439  33.911  34.903  1.00  0.00    -0.203 F 
ATOM     84  F   UNL A   1      37.025  31.880  38.645  1.00  0.00    -0.200 F 
ATOM     85  C   UNL A   1      38.369  33.657  37.863  1.00  0.00     0.200 A 
ATOM     86  F   UNL A   1      39.716  35.410  37.035  1.00  0.00    -0.200 F 
ATOM     87  F   UNL A   1      37.994  34.417  38.902  1.00  0.00    -0.200 F 
ENDBRANCH  54  77
ENDBRANCH  28  29
ENDBRANCH  21  23
ENDBRANCH  20  21
ENDBRANCH  19  20
ENDBRANCH  18  19
ENDBRANCH   1  18
TORSDOF 16
ENDMDL
MODEL 3
REMARK VINA RESULT:      -9.7      4.184     10.215
REMARK SMILES CCC(C)(C)c1cccc(C(=O)OCCOCCOC(=O)c2ccc(-c3c4nc(c(-c5c(F)c(F)c(F)c(F)c5F)c5ccc([nH]5)c(-c5c(F)c(F)c(F)c(F)c5F)c5nc(c(-c6c(F)c(F)c(F)c(F)c6F)c6ccc3[nH]6)C=C5)C=C4)cc2)c1
REMARK SMILES IDX 16 1 15 2 14 3 13 4 11 5 12 6 10 7 6 8 7 9 85 10 8 11 9 12
REMARK SMILES IDX 3 13 4 14 5 15 2 16 1 17 17 18 18 19 19 20 20 21 21 22 22 23
REMARK SMILES IDX 23 24 84 25 24 26 83 27 25 28 26 29 27 30 77 31 28 32 82 33
REMARK SMILES IDX 76 34 78 35 29 36 81 37 75 38 74 39 30 41 62 42 42 43 61 44
REMARK SMILES IDX 43 45 46 46 60 47 79 48 44 49 45 50 59 52 80 53 47 54 31 55
REMARK SMILES IDX 32 56 40 57 33 58 34 59 38 60 41 61 35 62 36 63 39 64 37 65
REMARK SMILES IDX 63 66 64 67 72 68 65 69 66 70 70 71 73 72 67 73 68 74 71 75
REMARK SMILES IDX 69 76 48 77 49 78 57 79 50 80 51 81 55 82 58 83 52 84 53 85
REMARK SMILES IDX 56 86 54 87
REMARK H PARENT 78 40 46 51
REMARK Flexibility Score: inf
ROOT
ATOM      1  O   UNL A   1      32.916  29.310  24.549  1.00  0.00    -0.374 OA
ENDROOT
BRANCH   1   2
ATOM      2  C   UNL A   1      33.099  27.962  24.114  1.00  0.00     0.202 C 
BRANCH   2   3
ATOM      3  C   UNL A   1      32.453  27.597  22.773  1.00  0.00     0.261 C 
BRANCH   3   4
ATOM      4  O   UNL A   1      32.040  26.220  22.770  1.00  0.00    -0.460 OA
BRANCH   4   5
ATOM      5  C   UNL A   1      32.742  25.408  21.943  1.00  0.00     0.338 C 
ATOM      6  O   UNL A   1      33.226  25.709  20.861  1.00  0.00    -0.246 OA
BRANCH   5   7
ATOM      7  C   UNL A   1      33.013  24.116  22.618  1.00  0.00     0.060 A 
ATOM      8  C   UNL A   1      34.443  22.600  23.903  1.00  0.00    -0.042 A 
ATOM      9  C   UNL A   1      33.404  21.648  23.837  1.00  0.00     0.004 A 
ATOM     10  C   UNL A   1      34.228  23.838  23.265  1.00  0.00     0.020 A 
ATOM     11  C   UNL A   1      32.208  21.911  23.166  1.00  0.00     0.001 A 
ATOM     12  C   UNL A   1      32.007  23.147  22.566  1.00  0.00     0.016 A 
BRANCH   8  13
ATOM     13  C   UNL A   1      35.706  22.312  24.741  1.00  0.00    -0.011 C 
ATOM     14  C   UNL A   1      37.028  22.528  23.966  1.00  0.00     0.016 C 
ATOM     15  C   UNL A   1      35.734  20.829  25.201  1.00  0.00     0.016 C 
BRANCH  13  16
ATOM     16  C   UNL A   1      35.687  23.207  26.017  1.00  0.00     0.008 C 
ATOM     17  C   UNL A   1      34.546  22.937  26.995  1.00  0.00     0.005 C 
ENDBRANCH  13  16
ENDBRANCH   8  13
ENDBRANCH   5   7
ENDBRANCH   4   5
ENDBRANCH   3   4
ENDBRANCH   2   3
ENDBRANCH   1   2
BRANCH   1  18
ATOM     18  C   UNL A   1      31.601  29.684  24.964  1.00  0.00     0.202 C 
BRANCH  18  19
ATOM     19  C   UNL A   1      31.515  30.782  26.031  1.00  0.00     0.261 C 
BRANCH  19  20
ATOM     20  O   UNL A   1      32.528  30.629  27.041  1.00  0.00    -0.460 OA
BRANCH  20  21
ATOM     21  C   UNL A   1      33.253  31.743  27.291  1.00  0.00     0.338 C 
ATOM     22  O   UNL A   1      32.871  32.904  27.253  1.00  0.00    -0.246 OA
BRANCH  21  23
ATOM     23  C   UNL A   1      34.586  31.371  27.800  1.00  0.00     0.060 A 
ATOM     24  C   UNL A   1      34.797  30.027  28.133  1.00  0.00     0.016 A 
ATOM     25  C   UNL A   1      35.585  32.323  28.014  1.00  0.00     0.016 A 
ATOM     26  C   UNL A   1      35.993  29.637  28.731  1.00  0.00     0.010 A 
ATOM     27  C   UNL A   1      36.782  31.930  28.622  1.00  0.00     0.010 A 
ATOM     28  C   UNL A   1      36.976  30.593  29.015  1.00  0.00    -0.014 A 
BRANCH  28  29
ATOM     29  C   UNL A   1      38.145  30.218  29.848  1.00  0.00     0.031 A 
ATOM     30  C   UNL A   1      39.151  29.244  29.299  1.00  0.00     0.074 A 
ATOM     31  C   UNL A   1      38.322  30.758  31.065  1.00  0.00     0.049 A 
ATOM     32  N   UNL A   1      40.223  28.747  29.865  1.00  0.00    -0.248 NA
ATOM     33  C   UNL A   1      38.914  28.763  27.930  1.00  0.00     0.031 C 
ATOM     34  C   UNL A   1      37.437  31.739  31.689  1.00  0.00     0.029 A 
ATOM     35  N   UNL A   1      39.305  30.548  32.000  1.00  0.00    -0.354 N 
ATOM     36  C   UNL A   1      40.782  27.893  28.924  1.00  0.00     0.074 A 
ATOM     37  C   UNL A   1      39.915  27.910  27.765  1.00  0.00     0.031 C 
ATOM     38  C   UNL A   1      37.912  32.039  32.910  1.00  0.00     0.029 A 
ATOM     39  C   UNL A   1      39.114  31.247  33.165  1.00  0.00     0.049 A 
ATOM     40  H   UNL A   1      40.075  29.952  31.849  1.00  0.00     0.167 HD
ATOM     41  C   UNL A   1      41.921  27.167  29.016  1.00  0.00     0.037 A 
ATOM     42  C   UNL A   1      39.817  31.229  34.314  1.00  0.00     0.037 A 
ATOM     43  C   UNL A   1      42.782  27.152  30.169  1.00  0.00     0.049 A 
ATOM     44  C   UNL A   1      41.044  30.360  34.417  1.00  0.00     0.074 A 
ATOM     45  C   UNL A   1      43.970  26.465  30.352  1.00  0.00     0.029 A 
ATOM     46  N   UNL A   1      42.541  27.851  31.343  1.00  0.00    -0.354 N 
ATOM     47  N   UNL A   1      41.581  29.575  33.516  1.00  0.00    -0.248 NA
ATOM     48  C   UNL A   1      41.762  30.379  35.699  1.00  0.00     0.031 C 
ATOM     49  C   UNL A   1      44.418  26.706  31.656  1.00  0.00     0.029 A 
ATOM     50  C   UNL A   1      43.542  27.590  32.265  1.00  0.00     0.049 A 
ATOM     51  H   UNL A   1      41.771  28.446  31.498  1.00  0.00     0.167 HD
ATOM     52  C   UNL A   1      42.715  29.031  34.107  1.00  0.00     0.074 A 
ATOM     53  C   UNL A   1      42.793  29.585  35.442  1.00  0.00     0.031 C 
ATOM     54  C   UNL A   1      43.610  28.154  33.590  1.00  0.00     0.037 A 
BRANCH  41  55
ATOM     55  C   UNL A   1      42.289  26.305  27.842  1.00  0.00     0.064 A 
ATOM     56  C   UNL A   1      41.725  25.033  27.653  1.00  0.00     0.173 A 
ATOM     57  C   UNL A   1      43.198  26.768  26.879  1.00  0.00     0.173 A 
ATOM     58  F   UNL A   1      40.860  24.538  28.552  1.00  0.00    -0.203 F 
ATOM     59  C   UNL A   1      42.080  24.247  26.559  1.00  0.00     0.198 A 
ATOM     60  C   UNL A   1      43.528  25.991  25.771  1.00  0.00     0.198 A 
ATOM     61  F   UNL A   1      43.763  27.978  27.009  1.00  0.00    -0.203 F 
ATOM     62  F   UNL A   1      41.569  23.015  26.427  1.00  0.00    -0.200 F 
ATOM     63  C   UNL A   1      42.976  24.728  25.617  1.00  0.00     0.200 A 
ATOM     64  F   UNL A   1      44.383  26.464  24.854  1.00  0.00    -0.200 F 
ATOM     65  F   UNL A   1      43.313  23.972  24.563  1.00  0.00    -0.200 F 
ENDBRANCH  41  55
BRANCH  42  66
ATOM     66  C   UNL A   1      39.371  32.056  35.465  1.00  0.00     0.064 A 
ATOM     67  C   UNL A   1      38.543  31.524  36.462  1.00  0.00     0.173 A 
ATOM     68  C   UNL A   1      39.759  33.399  35.587  1.00  0.00     0.173 A 
ATOM     69  F   UNL A   1      38.126  30.252  36.378  1.00  0.00    -0.203 F 
ATOM     70  C   UNL A   1      38.106  32.308  37.529  1.00  0.00     0.198 A 
ATOM     71  C   UNL A   1      39.344  34.173  36.668  1.00  0.00     0.198 A 
ATOM     72  F   UNL A   1      40.549  33.957  34.658  1.00  0.00    -0.203 F 
ATOM     73  F   UNL A   1      37.279  31.786  38.445  1.00  0.00    -0.200 F 
ATOM     74  C   UNL A   1      38.512  33.629  37.634  1.00  0.00     0.200 A 
ATOM     75  F   UNL A   1      39.749  35.446  36.772  1.00  0.00    -0.200 F 
ATOM     76  F   UNL A   1      38.096  34.381  38.663  1.00  0.00    -0.200 F 
ENDBRANCH  42  66
BRANCH  54  77
ATOM     77  C   UNL A   1      44.777  27.766  34.454  1.00  0.00     0.064 A 
ATOM     78  C   UNL A   1      45.962  28.514  34.474  1.00  0.00     0.173 A 
ATOM     79  C   UNL A   1      44.689  26.652  35.305  1.00  0.00     0.173 A 
ATOM     80  F   UNL A   1      46.102  29.579  33.669  1.00  0.00    -0.203 F 
ATOM     81  C   UNL A   1      47.026  28.147  35.294  1.00  0.00     0.198 A 
ATOM     82  C   UNL A   1      45.743  26.307  36.146  1.00  0.00     0.198 A 
ATOM     83  F   UNL A   1      43.574  25.907  35.329  1.00  0.00    -0.203 F 
ATOM     84  F   UNL A   1      48.167  28.850  35.262  1.00  0.00    -0.200 F 
ATOM     85  C   UNL A   1      46.912  27.051  36.135  1.00  0.00     0.200 A 
ATOM     86  F   UNL A   1      45.624  25.256  36.968  1.00  0.00    -0.200 F 
ATOM     87  F   UNL A   1      47.934  26.705  36.930  1.00  0.00    -0.200 F 
ENDBRANCH  54  77
ENDBRANCH  28  29
ENDBRANCH  21  23
ENDBRANCH  20  21
ENDBRANCH  19  20
ENDBRANCH  18  19
ENDBRANCH   1  18
TORSDOF 16
ENDMDL
