MODEL 1
REMARK VINA RESULT:     -10.6      0.000      0.000
REMARK SMILES [NH3+][C@@H](Cc1c[nH]c2ccccc12)C(=O)N[C@@H](CS)C(=O)N[C@@H](CO)C(=O)OCCOCCOC(=O)c1ccc(-c2c3nc(c(-c4c(F)c(F)c(F)c(F)c4F)c4ccc([nH]4)c(-c4c(F)c(F)c(F)c(F)c4F)c4nc(c(-c5c(F)c(F)c(F)c(F)c5F)c5ccc2[nH]5)C=C4)C=C3)cc1
REMARK SMILES IDX 28 1 27 2 25 3 26 4 22 5 21 6 19 7 20 8 16 10 15 11 13 12
REMARK SMILES IDX 14 13 2 15 1 16 3 20 4 21 5 22 12 23 6 24 7 25 11 26 8 28
REMARK SMILES IDX 10 29 9 30 17 31 18 32 23 34 24 35 29 37 30 38 31 39 32 40
REMARK SMILES IDX 33 41 34 42 35 43 36 44 37 45 98 46 38 47 97 48 39 49 40 50
REMARK SMILES IDX 41 51 91 52 42 53 96 54 90 55 92 56 43 57 95 58 89 59 88 60
REMARK SMILES IDX 44 62 76 63 56 64 75 65 57 66 60 67 74 68 93 69 58 70 59 71
REMARK SMILES IDX 73 73 94 74 61 75 45 76 46 77 54 78 47 79 48 80 52 81 55 82
REMARK SMILES IDX 49 83 50 84 53 85 51 86 77 87 78 88 86 89 79 90 80 91 84 92
REMARK SMILES IDX 87 93 81 94 82 95 85 96 83 97 62 98 63 99 71 100 64 101
REMARK SMILES IDX 65 102 69 103 72 104 66 105 67 106 70 107 68 108
REMARK H PARENT 21 9 15 14 1 17 1 18 1 19 6 27 18 33 24 36 92 61 60 72
REMARK Flexibility Score: inf
ROOT
ATOM      1  C   UNL A   1      35.605  21.878  24.258  1.00  0.00     0.261 C 
ENDROOT
BRANCH   1   2
ATOM      2  O   UNL A   1      34.447  22.689  24.498  1.00  0.00    -0.462 OA
BRANCH   2   3
ATOM      3  C   UNL A   1      34.532  23.499  25.589  1.00  0.00     0.331 C 
ATOM      4  O   UNL A   1      35.536  24.121  25.918  1.00  0.00    -0.250 OA
BRANCH   3   5
ATOM      5  C   UNL A   1      33.237  23.501  26.400  1.00  0.00     0.218 C 
BRANCH   5   6
ATOM      6  N   UNL A   1      32.031  23.139  25.625  1.00  0.00    -0.339 N 
ATOM      7  C   UNL A   1      31.046  24.081  25.533  1.00  0.00     0.244 C 
ATOM      8  O   UNL A   1      30.375  24.315  26.539  1.00  0.00    -0.273 OA
ATOM      9  H   UNL A   1      31.941  22.258  25.196  1.00  0.00     0.164 HD
BRANCH   7  10
ATOM     10  C   UNL A   1      30.904  24.902  24.228  1.00  0.00     0.181 C 
BRANCH  10  11
ATOM     11  N   UNL A   1      31.265  24.004  23.137  1.00  0.00    -0.338 N 
ATOM     12  C   UNL A   1      32.395  24.037  22.372  1.00  0.00     0.279 C 
ATOM     13  O   UNL A   1      32.808  22.950  21.950  1.00  0.00    -0.268 OA
ATOM     14  H   UNL A   1      30.617  23.293  22.929  1.00  0.00     0.164 HD
BRANCH  12  15
ATOM     15  C   UNL A   1      33.104  25.354  21.963  1.00  0.00     0.275 C 
BRANCH  15  16
ATOM     16  N   UNL A   1      32.163  26.285  21.296  1.00  0.00    -0.347 N 
ATOM     17  H   UNL A   1      32.047  27.122  21.869  1.00  0.00     0.345 HD
ATOM     18  H   UNL A   1      31.259  25.828  21.177  1.00  0.00     0.345 HD
ATOM     19  H   UNL A   1      32.534  26.548  20.383  1.00  0.00     0.345 HD
ENDBRANCH  15  16
BRANCH  15  20
ATOM     20  C   UNL A   1      34.072  25.972  23.002  1.00  0.00     0.113 C 
BRANCH  20  21
ATOM     21  C   UNL A   1      33.813  27.389  23.444  1.00  0.00    -0.016 A 
ATOM     22  C   UNL A   1      33.921  28.541  22.682  1.00  0.00     0.087 A 
ATOM     23  C   UNL A   1      33.409  27.815  24.756  1.00  0.00     0.003 A 
ATOM     24  N   UNL A   1      33.470  29.599  23.427  1.00  0.00    -0.361 N 
ATOM     25  C   UNL A   1      33.100  29.174  24.680  1.00  0.00     0.046 A 
ATOM     26  C   UNL A   1      33.213  27.156  25.986  1.00  0.00     0.010 A 
ATOM     27  H   UNL A   1      33.417  30.529  23.108  1.00  0.00     0.166 HD
ATOM     28  C   UNL A   1      32.529  29.885  25.744  1.00  0.00     0.026 A 
ATOM     29  C   UNL A   1      32.661  27.855  27.067  1.00  0.00     0.001 A 
ATOM     30  C   UNL A   1      32.303  29.194  26.938  1.00  0.00     0.002 A 
ENDBRANCH  20  21
ENDBRANCH  15  20
ENDBRANCH  12  15
ENDBRANCH  10  11
BRANCH  10  31
ATOM     31  C   UNL A   1      29.633  25.717  23.985  1.00  0.00     0.101 C 
BRANCH  31  32
ATOM     32  S   UNL A   1      29.826  27.517  23.823  1.00  0.00    -0.177 SA
ATOM     33  H   UNL A   1      30.490  28.001  24.906  1.00  0.00     0.102 HD
ENDBRANCH  31  32
ENDBRANCH  10  31
ENDBRANCH   7  10
ENDBRANCH   5   6
BRANCH   5  34
ATOM     34  C   UNL A   1      33.440  22.572  27.607  1.00  0.00     0.193 C 
BRANCH  34  35
ATOM     35  O   UNL A   1      32.179  22.205  28.173  1.00  0.00    -0.394 OA
ATOM     36  H   UNL A   1      32.215  21.284  28.475  1.00  0.00     0.210 HD
ENDBRANCH  34  35
ENDBRANCH   5  34
ENDBRANCH   3   5
ENDBRANCH   2   3
ENDBRANCH   1   2
BRANCH   1  37
ATOM     37  C   UNL A   1      35.485  20.554  25.012  1.00  0.00     0.202 C 
BRANCH  37  38
ATOM     38  O   UNL A   1      36.619  19.687  24.970  1.00  0.00    -0.374 OA
BRANCH  38  39
ATOM     39  C   UNL A   1      37.910  20.289  25.017  1.00  0.00     0.202 C 
BRANCH  39  40
ATOM     40  C   UNL A   1      39.099  19.371  25.340  1.00  0.00     0.261 C 
BRANCH  40  41
ATOM     41  O   UNL A   1      39.939  19.868  26.395  1.00  0.00    -0.460 OA
BRANCH  41  42
ATOM     42  C   UNL A   1      41.266  19.659  26.200  1.00  0.00     0.338 C 
ATOM     43  O   UNL A   1      41.802  18.682  25.710  1.00  0.00    -0.246 OA
BRANCH  42  44
ATOM     44  C   UNL A   1      42.018  20.878  26.543  1.00  0.00     0.060 A 
ATOM     45  C   UNL A   1      42.194  21.179  27.899  1.00  0.00     0.016 A 
ATOM     46  C   UNL A   1      42.456  21.759  25.553  1.00  0.00     0.016 A 
ATOM     47  C   UNL A   1      42.796  22.378  28.274  1.00  0.00     0.010 A 
ATOM     48  C   UNL A   1      43.044  22.969  25.932  1.00  0.00     0.010 A 
ATOM     49  C   UNL A   1      43.192  23.295  27.293  1.00  0.00    -0.014 A 
BRANCH  49  50
ATOM     50  C   UNL A   1      43.631  24.653  27.693  1.00  0.00     0.031 A 
ATOM     51  C   UNL A   1      42.590  25.684  28.028  1.00  0.00     0.074 A 
ATOM     52  C   UNL A   1      44.938  24.955  27.775  1.00  0.00     0.049 A 
ATOM     53  N   UNL A   1      42.739  26.945  28.340  1.00  0.00    -0.248 NA
ATOM     54  C   UNL A   1      41.191  25.229  28.007  1.00  0.00     0.031 C 
ATOM     55  C   UNL A   1      46.036  24.023  27.522  1.00  0.00     0.029 A 
ATOM     56  N   UNL A   1      45.561  26.137  28.086  1.00  0.00    -0.354 N 
ATOM     57  C   UNL A   1      41.457  27.436  28.545  1.00  0.00     0.074 A 
ATOM     58  C   UNL A   1      40.539  26.345  28.295  1.00  0.00     0.031 C 
ATOM     59  C   UNL A   1      47.201  24.675  27.676  1.00  0.00     0.029 A 
ATOM     60  C   UNL A   1      46.930  26.074  28.000  1.00  0.00     0.049 A 
ATOM     61  H   UNL A   1      45.074  26.952  28.347  1.00  0.00     0.167 HD
ATOM     62  C   UNL A   1      41.081  28.683  28.917  1.00  0.00     0.037 A 
ATOM     63  C   UNL A   1      47.853  27.045  28.141  1.00  0.00     0.037 A 
ATOM     64  C   UNL A   1      41.999  29.763  29.162  1.00  0.00     0.049 A 
ATOM     65  C   UNL A   1      47.403  28.445  28.471  1.00  0.00     0.074 A 
ATOM     66  C   UNL A   1      41.721  31.061  29.553  1.00  0.00     0.029 A 
ATOM     67  N   UNL A   1      43.377  29.672  29.031  1.00  0.00    -0.354 N 
ATOM     68  N   UNL A   1      46.192  28.899  28.682  1.00  0.00    -0.248 NA
ATOM     69  C   UNL A   1      48.452  29.469  28.584  1.00  0.00     0.031 C 
ATOM     70  C   UNL A   1      42.926  31.769  29.608  1.00  0.00     0.029 A 
ATOM     71  C   UNL A   1      43.961  30.897  29.308  1.00  0.00     0.049 A 
ATOM     72  H   UNL A   1      43.868  28.856  28.779  1.00  0.00     0.167 HD
ATOM     73  C   UNL A   1      46.334  30.248  28.982  1.00  0.00     0.074 A 
ATOM     74  C   UNL A   1      47.752  30.538  28.936  1.00  0.00     0.031 C 
ATOM     75  C   UNL A   1      45.377  31.164  29.271  1.00  0.00     0.037 A 
BRANCH  62  76
ATOM     76  C   UNL A   1      39.610  28.953  29.053  1.00  0.00     0.064 A 
ATOM     77  C   UNL A   1      38.952  28.850  30.287  1.00  0.00     0.173 A 
ATOM     78  C   UNL A   1      38.857  29.353  27.938  1.00  0.00     0.173 A 
ATOM     79  F   UNL A   1      39.622  28.458  31.381  1.00  0.00    -0.203 F 
ATOM     80  C   UNL A   1      37.588  29.113  30.395  1.00  0.00     0.198 A 
ATOM     81  C   UNL A   1      37.500  29.643  28.056  1.00  0.00     0.198 A 
ATOM     82  F   UNL A   1      39.439  29.470  26.735  1.00  0.00    -0.203 F 
ATOM     83  F   UNL A   1      36.969  28.962  31.574  1.00  0.00    -0.200 F 
ATOM     84  C   UNL A   1      36.866  29.515  29.282  1.00  0.00     0.200 A 
ATOM     85  F   UNL A   1      36.808  30.044  26.981  1.00  0.00    -0.200 F 
ATOM     86  F   UNL A   1      35.555  29.774  29.388  1.00  0.00    -0.200 F 
ENDBRANCH  62  76
BRANCH  63  87
ATOM     87  C   UNL A   1      49.295  26.734  27.954  1.00  0.00     0.064 A 
ATOM     88  C   UNL A   1      49.865  26.686  26.674  1.00  0.00     0.173 A 
ATOM     89  C   UNL A   1      50.128  26.457  29.049  1.00  0.00     0.173 A 
ATOM     90  F   UNL A   1      49.104  26.915  25.594  1.00  0.00    -0.203 F 
ATOM     91  C   UNL A   1      51.207  26.354  26.496  1.00  0.00     0.198 A 
ATOM     92  C   UNL A   1      51.476  26.156  28.872  1.00  0.00     0.198 A 
ATOM     93  F   UNL A   1      49.630  26.486  30.294  1.00  0.00    -0.203 F 
ATOM     94  F   UNL A   1      51.714  26.267  25.259  1.00  0.00    -0.200 F 
ATOM     95  C   UNL A   1      52.013  26.096  27.594  1.00  0.00     0.200 A 
ATOM     96  F   UNL A   1      52.253  25.917  29.936  1.00  0.00    -0.200 F 
ATOM     97  F   UNL A   1      53.303  25.779  27.422  1.00  0.00    -0.200 F 
ENDBRANCH  63  87
BRANCH  75  98
ATOM     98  C   UNL A   1      45.830  32.556  29.605  1.00  0.00     0.064 A 
ATOM     99  C   UNL A   1      46.174  32.927  30.913  1.00  0.00     0.173 A 
ATOM    100  C   UNL A   1      45.971  33.517  28.591  1.00  0.00     0.173 A 
ATOM    101  F   UNL A   1      46.044  32.049  31.920  1.00  0.00    -0.203 F 
ATOM    102  C   UNL A   1      46.621  34.214  31.197  1.00  0.00     0.198 A 
ATOM    103  C   UNL A   1      46.448  34.793  28.874  1.00  0.00     0.198 A 
ATOM    104  F   UNL A   1      45.663  33.210  27.321  1.00  0.00    -0.203 F 
ATOM    105  F   UNL A   1      46.903  34.560  32.461  1.00  0.00    -0.200 F 
ATOM    106  C   UNL A   1      46.766  35.143  30.177  1.00  0.00     0.200 A 
ATOM    107  F   UNL A   1      46.603  35.684  27.885  1.00  0.00    -0.200 F 
ATOM    108  F   UNL A   1      47.209  36.379  30.451  1.00  0.00    -0.200 F 
ENDBRANCH  75  98
ENDBRANCH  49  50
ENDBRANCH  42  44
ENDBRANCH  41  42
ENDBRANCH  40  41
ENDBRANCH  39  40
ENDBRANCH  38  39
ENDBRANCH  37  38
ENDBRANCH   1  37
TORSDOF 25
ENDMDL
MODEL 2
REMARK VINA RESULT:     -10.5      4.496      8.874
REMARK SMILES [NH3+][C@@H](Cc1c[nH]c2ccccc12)C(=O)N[C@@H](CS)C(=O)N[C@@H](CO)C(=O)OCCOCCOC(=O)c1ccc(-c2c3nc(c(-c4c(F)c(F)c(F)c(F)c4F)c4ccc([nH]4)c(-c4c(F)c(F)c(F)c(F)c4F)c4nc(c(-c5c(F)c(F)c(F)c(F)c5F)c5ccc2[nH]5)C=C4)C=C3)cc1
REMARK SMILES IDX 28 1 27 2 25 3 26 4 22 5 21 6 19 7 20 8 16 10 15 11 13 12
REMARK SMILES IDX 14 13 2 15 1 16 3 20 4 21 5 22 12 23 6 24 7 25 11 26 8 28
REMARK SMILES IDX 10 29 9 30 17 31 18 32 23 34 24 35 29 37 30 38 31 39 32 40
REMARK SMILES IDX 33 41 34 42 35 43 36 44 37 45 98 46 38 47 97 48 39 49 40 50
REMARK SMILES IDX 41 51 91 52 42 53 96 54 90 55 92 56 43 57 95 58 89 59 88 60
REMARK SMILES IDX 44 62 76 63 56 64 75 65 57 66 60 67 74 68 93 69 58 70 59 71
REMARK SMILES IDX 73 73 94 74 61 75 45 76 46 77 54 78 47 79 48 80 52 81 55 82
REMARK SMILES IDX 49 83 50 84 53 85 51 86 77 87 78 88 86 89 79 90 80 91 84 92
REMARK SMILES IDX 87 93 81 94 82 95 85 96 83 97 62 98 63 99 71 100 64 101
REMARK SMILES IDX 65 102 69 103 72 104 66 105 67 106 70 107 68 108
REMARK H PARENT 21 9 15 14 1 17 1 18 1 19 6 27 18 33 24 36 92 61 60 72
REMARK Flexibility Score: inf
ROOT
ATOM      1  C   UNL A   1      39.595  20.849  26.001  1.00  0.00     0.261 C 
ENDROOT
BRANCH   1   2
ATOM      2  O   UNL A   1      38.736  21.996  25.956  1.00  0.00    -0.462 OA
BRANCH   2   3
ATOM      3  C   UNL A   1      37.707  21.907  25.069  1.00  0.00     0.331 C 
ATOM      4  O   UNL A   1      37.383  20.882  24.480  1.00  0.00    -0.250 OA
BRANCH   3   5
ATOM      5  C   UNL A   1      37.032  23.258  24.842  1.00  0.00     0.218 C 
BRANCH   5   6
ATOM      6  N   UNL A   1      36.071  23.279  23.718  1.00  0.00    -0.339 N 
ATOM      7  C   UNL A   1      34.759  23.049  24.019  1.00  0.00     0.244 C 
ATOM      8  O   UNL A   1      34.429  21.903  24.328  1.00  0.00    -0.273 OA
ATOM      9  H   UNL A   1      36.364  23.449  22.794  1.00  0.00     0.164 HD
BRANCH   7  10
ATOM     10  C   UNL A   1      33.779  24.246  24.092  1.00  0.00     0.181 C 
BRANCH  10  11
ATOM     11  N   UNL A   1      33.261  24.435  22.743  1.00  0.00    -0.338 N 
ATOM     12  C   UNL A   1      33.164  25.605  22.045  1.00  0.00     0.279 C 
ATOM     13  O   UNL A   1      33.278  25.526  20.816  1.00  0.00    -0.268 OA
ATOM     14  H   UNL A   1      32.943  23.625  22.282  1.00  0.00     0.164 HD
BRANCH  12  15
ATOM     15  C   UNL A   1      32.846  26.967  22.714  1.00  0.00     0.275 C 
BRANCH  15  16
ATOM     16  N   UNL A   1      33.234  28.099  21.838  1.00  0.00    -0.347 N 
ATOM     17  H   UNL A   1      33.770  27.747  21.045  1.00  0.00     0.345 HD
ATOM     18  H   UNL A   1      33.805  28.758  22.367  1.00  0.00     0.345 HD
ATOM     19  H   UNL A   1      32.396  28.569  21.499  1.00  0.00     0.345 HD
ENDBRANCH  15  16
BRANCH  15  20
ATOM     20  C   UNL A   1      31.480  27.084  23.435  1.00  0.00     0.113 C 
BRANCH  20  21
ATOM     21  C   UNL A   1      31.039  28.454  23.883  1.00  0.00    -0.016 A 
ATOM     22  C   UNL A   1      31.709  29.316  24.735  1.00  0.00     0.087 A 
ATOM     23  C   UNL A   1      29.825  29.125  23.509  1.00  0.00     0.003 A 
ATOM     24  N   UNL A   1      31.030  30.505  24.773  1.00  0.00    -0.361 N 
ATOM     25  C   UNL A   1      29.903  30.434  23.990  1.00  0.00     0.046 A 
ATOM     26  C   UNL A   1      28.694  28.762  22.750  1.00  0.00     0.010 A 
ATOM     27  H   UNL A   1      31.310  31.298  25.286  1.00  0.00     0.166 HD
ATOM     28  C   UNL A   1      28.953  31.415  23.680  1.00  0.00     0.026 A 
ATOM     29  C   UNL A   1      27.724  29.725  22.447  1.00  0.00     0.001 A 
ATOM     30  C   UNL A   1      27.865  31.038  22.887  1.00  0.00     0.002 A 
ENDBRANCH  20  21
ENDBRANCH  15  20
ENDBRANCH  12  15
ENDBRANCH  10  11
BRANCH  10  31
ATOM     31  C   UNL A   1      32.715  24.283  25.191  1.00  0.00     0.101 C 
BRANCH  31  32
ATOM     32  S   UNL A   1      31.164  23.391  24.866  1.00  0.00    -0.177 SA
ATOM     33  H   UNL A   1      31.421  22.060  24.756  1.00  0.00     0.102 HD
ENDBRANCH  31  32
ENDBRANCH  10  31
ENDBRANCH   7  10
ENDBRANCH   5   6
BRANCH   5  34
ATOM     34  C   UNL A   1      36.372  23.679  26.165  1.00  0.00     0.193 C 
BRANCH  34  35
ATOM     35  O   UNL A   1      35.898  22.531  26.875  1.00  0.00    -0.394 OA
ATOM     36  H   UNL A   1      35.126  22.775  27.407  1.00  0.00     0.210 HD
ENDBRANCH  34  35
ENDBRANCH   5  34
ENDBRANCH   3   5
ENDBRANCH   2   3
ENDBRANCH   1   2
BRANCH   1  37
ATOM     37  C   UNL A   1      41.035  21.280  26.280  1.00  0.00     0.202 C 
BRANCH  37  38
ATOM     38  O   UNL A   1      42.042  20.750  25.419  1.00  0.00    -0.374 OA
BRANCH  38  39
ATOM     39  C   UNL A   1      43.362  20.629  25.945  1.00  0.00     0.202 C 
BRANCH  39  40
ATOM     40  C   UNL A   1      44.379  21.704  25.536  1.00  0.00     0.261 C 
BRANCH  40  41
ATOM     41  O   UNL A   1      44.186  22.962  26.203  1.00  0.00    -0.460 OA
BRANCH  41  42
ATOM     42  C   UNL A   1      43.538  23.896  25.461  1.00  0.00     0.338 C 
ATOM     43  O   UNL A   1      43.383  23.912  24.254  1.00  0.00    -0.246 OA
BRANCH  42  44
ATOM     44  C   UNL A   1      42.886  24.873  26.349  1.00  0.00     0.060 A 
ATOM     45  C   UNL A   1      43.449  26.153  26.440  1.00  0.00     0.016 A 
ATOM     46  C   UNL A   1      41.802  24.512  27.150  1.00  0.00     0.016 A 
ATOM     47  C   UNL A   1      42.940  27.075  27.351  1.00  0.00     0.010 A 
ATOM     48  C   UNL A   1      41.304  25.433  28.076  1.00  0.00     0.010 A 
ATOM     49  C   UNL A   1      41.887  26.708  28.198  1.00  0.00    -0.014 A 
BRANCH  49  50
ATOM     50  C   UNL A   1      41.492  27.608  29.307  1.00  0.00     0.031 A 
ATOM     51  C   UNL A   1      42.262  27.554  30.597  1.00  0.00     0.074 A 
ATOM     52  C   UNL A   1      40.473  28.472  29.159  1.00  0.00     0.049 A 
ATOM     53  N   UNL A   1      42.056  28.200  31.716  1.00  0.00    -0.248 NA
ATOM     54  C   UNL A   1      43.420  26.649  30.627  1.00  0.00     0.031 C 
ATOM     55  C   UNL A   1      39.687  28.647  27.939  1.00  0.00     0.029 A 
ATOM     56  N   UNL A   1      39.922  29.360  30.048  1.00  0.00    -0.354 N 
ATOM     57  C   UNL A   1      43.053  27.775  32.584  1.00  0.00     0.074 A 
ATOM     58  C   UNL A   1      43.846  26.795  31.874  1.00  0.00     0.031 C 
ATOM     59  C   UNL A   1      38.743  29.578  28.161  1.00  0.00     0.029 A 
ATOM     60  C   UNL A   1      38.836  30.035  29.547  1.00  0.00     0.049 A 
ATOM     61  H   UNL A   1      40.271  29.501  30.958  1.00  0.00     0.167 HD
ATOM     62  C   UNL A   1      43.288  28.173  33.857  1.00  0.00     0.037 A 
ATOM     63  C   UNL A   1      37.999  30.900  30.150  1.00  0.00     0.037 A 
ATOM     64  C   UNL A   1      42.493  29.146  34.558  1.00  0.00     0.049 A 
ATOM     65  C   UNL A   1      38.231  31.263  31.594  1.00  0.00     0.074 A 
ATOM     66  C   UNL A   1      42.653  29.626  35.846  1.00  0.00     0.029 A 
ATOM     67  N   UNL A   1      41.379  29.783  34.030  1.00  0.00    -0.354 N 
ATOM     68  N   UNL A   1      39.185  30.872  32.405  1.00  0.00    -0.248 NA
ATOM     69  C   UNL A   1      37.269  32.189  32.209  1.00  0.00     0.031 C 
ATOM     70  C   UNL A   1      41.607  30.515  36.115  1.00  0.00     0.029 A 
ATOM     71  C   UNL A   1      40.827  30.632  34.975  1.00  0.00     0.049 A 
ATOM     72  H   UNL A   1      41.033  29.651  33.118  1.00  0.00     0.167 HD
ATOM     73  C   UNL A   1      38.958  31.526  33.609  1.00  0.00     0.074 A 
ATOM     74  C   UNL A   1      37.781  32.348  33.421  1.00  0.00     0.031 C 
ATOM     75  C   UNL A   1      39.662  31.454  34.765  1.00  0.00     0.037 A 
BRANCH  62  76
ATOM     76  C   UNL A   1      44.435  27.533  34.584  1.00  0.00     0.064 A 
ATOM     77  C   UNL A   1      44.288  26.319  35.270  1.00  0.00     0.173 A 
ATOM     78  C   UNL A   1      45.706  28.127  34.564  1.00  0.00     0.173 A 
ATOM     79  F   UNL A   1      43.091  25.717  35.332  1.00  0.00    -0.203 F 
ATOM     80  C   UNL A   1      45.366  25.736  35.932  1.00  0.00     0.198 A 
ATOM     81  C   UNL A   1      46.789  27.526  35.202  1.00  0.00     0.198 A 
ATOM     82  F   UNL A   1      45.902  29.286  33.919  1.00  0.00    -0.203 F 
ATOM     83  F   UNL A   1      45.193  24.600  36.622  1.00  0.00    -0.200 F 
ATOM     84  C   UNL A   1      46.616  26.335  35.891  1.00  0.00     0.200 A 
ATOM     85  F   UNL A   1      47.998  28.101  35.150  1.00  0.00    -0.200 F 
ATOM     86  F   UNL A   1      47.654  25.770  36.523  1.00  0.00    -0.200 F 
ENDBRANCH  62  76
BRANCH  63  87
ATOM     87  C   UNL A   1      36.851  31.473  29.398  1.00  0.00     0.064 A 
ATOM     88  C   UNL A   1      36.822  32.829  29.045  1.00  0.00     0.173 A 
ATOM     89  C   UNL A   1      35.750  30.682  29.036  1.00  0.00     0.173 A 
ATOM     90  F   UNL A   1      37.838  33.633  29.391  1.00  0.00    -0.203 F 
ATOM     91  C   UNL A   1      35.728  33.375  28.375  1.00  0.00     0.198 A 
ATOM     92  C   UNL A   1      34.671  31.222  28.340  1.00  0.00     0.198 A 
ATOM     93  F   UNL A   1      35.727  29.379  29.354  1.00  0.00    -0.203 F 
ATOM     94  F   UNL A   1      35.705  34.685  28.093  1.00  0.00    -0.200 F 
ATOM     95  C   UNL A   1      34.657  32.571  28.018  1.00  0.00     0.200 A 
ATOM     96  F   UNL A   1      33.643  30.438  27.989  1.00  0.00    -0.200 F 
ATOM     97  F   UNL A   1      33.607  33.096  27.374  1.00  0.00    -0.200 F 
ENDBRANCH  63  87
BRANCH  75  98
ATOM     98  C   UNL A   1      39.208  32.318  35.907  1.00  0.00     0.064 A 
ATOM     99  C   UNL A   1      38.311  31.850  36.877  1.00  0.00     0.173 A 
ATOM    100  C   UNL A   1      39.720  33.617  36.058  1.00  0.00     0.173 A 
ATOM    101  F   UNL A   1      37.782  30.621  36.770  1.00  0.00    -0.203 F 
ATOM    102  C   UNL A   1      37.926  32.657  37.945  1.00  0.00     0.198 A 
ATOM    103  C   UNL A   1      39.357  34.409  37.143  1.00  0.00     0.198 A 
ATOM    104  F   UNL A   1      40.589  34.110  35.161  1.00  0.00    -0.203 F 
ATOM    105  F   UNL A   1      37.034  32.204  38.836  1.00  0.00    -0.200 F 
ATOM    106  C   UNL A   1      38.456  33.932  38.081  1.00  0.00     0.200 A 
ATOM    107  F   UNL A   1      39.883  35.634  37.282  1.00  0.00    -0.200 F 
ATOM    108  F   UNL A   1      38.094  34.703  39.116  1.00  0.00    -0.200 F 
ENDBRANCH  75  98
ENDBRANCH  49  50
ENDBRANCH  42  44
ENDBRANCH  41  42
ENDBRANCH  40  41
ENDBRANCH  39  40
ENDBRANCH  38  39
ENDBRANCH  37  38
ENDBRANCH   1  37
TORSDOF 25
ENDMDL
MODEL 3
REMARK VINA RESULT:     -10.4      2.127      7.800
REMARK SMILES [NH3+][C@@H](Cc1c[nH]c2ccccc12)C(=O)N[C@@H](CS)C(=O)N[C@@H](CO)C(=O)OCCOCCOC(=O)c1ccc(-c2c3nc(c(-c4c(F)c(F)c(F)c(F)c4F)c4ccc([nH]4)c(-c4c(F)c(F)c(F)c(F)c4F)c4nc(c(-c5c(F)c(F)c(F)c(F)c5F)c5ccc2[nH]5)C=C4)C=C3)cc1
REMARK SMILES IDX 28 1 27 2 25 3 26 4 22 5 21 6 19 7 20 8 16 10 15 11 13 12
REMARK SMILES IDX 14 13 2 15 1 16 3 20 4 21 5 22 12 23 6 24 7 25 11 26 8 28
REMARK SMILES IDX 10 29 9 30 17 31 18 32 23 34 24 35 29 37 30 38 31 39 32 40
REMARK SMILES IDX 33 41 34 42 35 43 36 44 37 45 98 46 38 47 97 48 39 49 40 50
REMARK SMILES IDX 41 51 91 52 42 53 96 54 90 55 92 56 43 57 95 58 89 59 88 60
REMARK SMILES IDX 44 62 76 63 56 64 75 65 57 66 60 67 74 68 93 69 58 70 59 71
REMARK SMILES IDX 73 73 94 74 61 75 45 76 46 77 54 78 47 79 48 80 52 81 55 82
REMARK SMILES IDX 49 83 50 84 53 85 51 86 77 87 78 88 86 89 79 90 80 91 84 92
REMARK SMILES IDX 87 93 81 94 82 95 85 96 83 97 62 98 63 99 71 100 64 101
REMARK SMILES IDX 65 102 69 103 72 104 66 105 67 106 70 107 68 108
REMARK H PARENT 21 9 15 14 1 17 1 18 1 19 6 27 18 33 24 36 92 61 60 72
REMARK Flexibility Score: inf
ROOT
ATOM      1  C   UNL A   1      36.629  21.865  24.450  1.00  0.00     0.261 C 
ENDROOT
BRANCH   1   2
ATOM      2  O   UNL A   1      35.614  22.825  24.775  1.00  0.00    -0.462 OA
BRANCH   2   3
ATOM      3  C   UNL A   1      35.740  23.397  26.004  1.00  0.00     0.331 C 
ATOM      4  O   UNL A   1      36.808  23.617  26.563  1.00  0.00    -0.250 OA
BRANCH   3   5
ATOM      5  C   UNL A   1      34.381  23.683  26.641  1.00  0.00     0.218 C 
BRANCH   5   6
ATOM      6  N   UNL A   1      33.239  23.603  25.707  1.00  0.00    -0.339 N 
ATOM      7  C   UNL A   1      32.538  24.753  25.482  1.00  0.00     0.244 C 
ATOM      8  O   UNL A   1      31.815  25.175  26.386  1.00  0.00    -0.273 OA
ATOM      9  H   UNL A   1      32.993  22.758  25.266  1.00  0.00     0.164 HD
BRANCH   7  10
ATOM     10  C   UNL A   1      32.780  25.543  24.172  1.00  0.00     0.181 C 
BRANCH  10  11
ATOM     11  N   UNL A   1      33.525  24.655  23.289  1.00  0.00    -0.338 N 
ATOM     12  C   UNL A   1      33.046  23.587  22.586  1.00  0.00     0.279 C 
ATOM     13  O   UNL A   1      33.601  23.341  21.509  1.00  0.00    -0.268 OA
ATOM     14  H   UNL A   1      34.485  24.848  23.189  1.00  0.00     0.164 HD
BRANCH  12  15
ATOM     15  C   UNL A   1      31.922  22.659  23.117  1.00  0.00     0.275 C 
BRANCH  15  16
ATOM     16  N   UNL A   1      30.582  23.231  22.847  1.00  0.00    -0.347 N 
ATOM     17  H   UNL A   1      30.437  23.298  21.839  1.00  0.00     0.345 HD
ATOM     18  H   UNL A   1      30.519  24.161  23.261  1.00  0.00     0.345 HD
ATOM     19  H   UNL A   1      29.866  22.629  23.253  1.00  0.00     0.345 HD
ENDBRANCH  15  16
BRANCH  15  20
ATOM     20  C   UNL A   1      32.095  21.141  22.855  1.00  0.00     0.113 C 
BRANCH  20  21
ATOM     21  C   UNL A   1      32.465  20.267  24.026  1.00  0.00    -0.016 A 
ATOM     22  C   UNL A   1      32.456  20.610  25.367  1.00  0.00     0.087 A 
ATOM     23  C   UNL A   1      32.907  18.901  23.965  1.00  0.00     0.003 A 
ATOM     24  N   UNL A   1      32.731  19.489  26.105  1.00  0.00    -0.361 N 
ATOM     25  C   UNL A   1      32.958  18.418  25.274  1.00  0.00     0.046 A 
ATOM     26  C   UNL A   1      33.206  18.010  22.915  1.00  0.00     0.010 A 
ATOM     27  H   UNL A   1      32.760  19.455  27.089  1.00  0.00     0.166 HD
ATOM     28  C   UNL A   1      33.209  17.074  25.579  1.00  0.00     0.026 A 
ATOM     29  C   UNL A   1      33.479  16.667  23.202  1.00  0.00     0.001 A 
ATOM     30  C   UNL A   1      33.457  16.203  24.515  1.00  0.00     0.002 A 
ENDBRANCH  20  21
ENDBRANCH  15  20
ENDBRANCH  12  15
ENDBRANCH  10  11
BRANCH  10  31
ATOM     31  C   UNL A   1      31.610  26.269  23.504  1.00  0.00     0.101 C 
BRANCH  31  32
ATOM     32  S   UNL A   1      31.211  27.932  24.121  1.00  0.00    -0.177 SA
ATOM     33  H   UNL A   1      30.627  28.655  23.128  1.00  0.00     0.102 HD
ENDBRANCH  31  32
ENDBRANCH  10  31
ENDBRANCH   7  10
ENDBRANCH   5   6
BRANCH   5  34
ATOM     34  C   UNL A   1      34.213  22.726  27.832  1.00  0.00     0.193 C 
BRANCH  34  35
ATOM     35  O   UNL A   1      34.820  21.463  27.548  1.00  0.00    -0.394 OA
ATOM     36  H   UNL A   1      35.515  21.580  26.882  1.00  0.00     0.210 HD
ENDBRANCH  34  35
ENDBRANCH   5  34
ENDBRANCH   3   5
ENDBRANCH   2   3
ENDBRANCH   1   2
BRANCH   1  37
ATOM     37  C   UNL A   1      36.225  20.481  24.956  1.00  0.00     0.202 C 
BRANCH  37  38
ATOM     38  O   UNL A   1      37.240  19.476  24.956  1.00  0.00    -0.374 OA
BRANCH  38  39
ATOM     39  C   UNL A   1      38.595  19.910  24.866  1.00  0.00     0.202 C 
BRANCH  39  40
ATOM     40  C   UNL A   1      39.620  19.189  25.754  1.00  0.00     0.261 C 
BRANCH  40  41
ATOM     41  O   UNL A   1      39.941  19.905  26.959  1.00  0.00    -0.460 OA
BRANCH  41  42
ATOM     42  C   UNL A   1      41.255  20.220  27.091  1.00  0.00     0.338 C 
ATOM     43  O   UNL A   1      42.217  19.511  26.864  1.00  0.00    -0.246 OA
BRANCH  42  44
ATOM     44  C   UNL A   1      41.393  21.647  27.427  1.00  0.00     0.060 A 
ATOM     45  C   UNL A   1      40.835  22.584  26.547  1.00  0.00     0.016 A 
ATOM     46  C   UNL A   1      42.138  22.061  28.532  1.00  0.00     0.016 A 
ATOM     47  C   UNL A   1      41.037  23.946  26.759  1.00  0.00     0.010 A 
ATOM     48  C   UNL A   1      42.355  23.427  28.733  1.00  0.00     0.010 A 
ATOM     49  C   UNL A   1      41.828  24.373  27.833  1.00  0.00    -0.014 A 
BRANCH  49  50
ATOM     50  C   UNL A   1      42.220  25.799  27.933  1.00  0.00     0.031 A 
ATOM     51  C   UNL A   1      43.527  26.237  27.334  1.00  0.00     0.074 A 
ATOM     52  C   UNL A   1      41.413  26.691  28.533  1.00  0.00     0.049 A 
ATOM     53  N   UNL A   1      44.099  27.413  27.357  1.00  0.00    -0.248 NA
ATOM     54  C   UNL A   1      44.291  25.208  26.613  1.00  0.00     0.031 C 
ATOM     55  C   UNL A   1      40.102  26.391  29.105  1.00  0.00     0.029 A 
ATOM     56  N   UNL A   1      41.586  28.032  28.765  1.00  0.00    -0.354 N 
ATOM     57  C   UNL A   1      45.291  27.264  26.661  1.00  0.00     0.074 A 
ATOM     58  C   UNL A   1      45.375  25.879  26.252  1.00  0.00     0.031 C 
ATOM     59  C   UNL A   1      39.593  27.516  29.637  1.00  0.00     0.029 A 
ATOM     60  C   UNL A   1      40.558  28.602  29.474  1.00  0.00     0.049 A 
ATOM     61  H   UNL A   1      42.371  28.538  28.454  1.00  0.00     0.167 HD
ATOM     62  C   UNL A   1      46.227  28.203  26.382  1.00  0.00     0.037 A 
ATOM     63  C   UNL A   1      40.427  29.852  29.959  1.00  0.00     0.037 A 
ATOM     64  C   UNL A   1      46.137  29.579  26.793  1.00  0.00     0.049 A 
ATOM     65  C   UNL A   1      41.522  30.857  29.708  1.00  0.00     0.074 A 
ATOM     66  C   UNL A   1      47.026  30.612  26.553  1.00  0.00     0.029 A 
ATOM     67  N   UNL A   1      45.097  30.113  27.540  1.00  0.00    -0.354 N 
ATOM     68  N   UNL A   1      42.639  30.716  29.034  1.00  0.00    -0.248 NA
ATOM     69  C   UNL A   1      41.339  32.196  30.286  1.00  0.00     0.031 C 
ATOM     70  C   UNL A   1      46.550  31.758  27.198  1.00  0.00     0.029 A 
ATOM     71  C   UNL A   1      45.335  31.454  27.793  1.00  0.00     0.049 A 
ATOM     72  H   UNL A   1      44.306  29.612  27.846  1.00  0.00     0.167 HD
ATOM     73  C   UNL A   1      43.273  31.951  29.079  1.00  0.00     0.074 A 
ATOM     74  C   UNL A   1      42.412  32.834  29.839  1.00  0.00     0.031 C 
ATOM     75  C   UNL A   1      44.460  32.321  28.539  1.00  0.00     0.037 A 
BRANCH  62  76
ATOM     76  C   UNL A   1      47.443  27.765  25.619  1.00  0.00     0.064 A 
ATOM     77  C   UNL A   1      47.464  27.737  24.216  1.00  0.00     0.173 A 
ATOM     78  C   UNL A   1      48.614  27.401  26.300  1.00  0.00     0.173 A 
ATOM     79  F   UNL A   1      46.365  28.062  23.517  1.00  0.00    -0.203 F 
ATOM     80  C   UNL A   1      48.604  27.335  23.525  1.00  0.00     0.198 A 
ATOM     81  C   UNL A   1      49.762  27.028  25.605  1.00  0.00     0.198 A 
ATOM     82  F   UNL A   1      48.649  27.414  27.640  1.00  0.00    -0.203 F 
ATOM     83  F   UNL A   1      48.587  27.270  22.187  1.00  0.00    -0.200 F 
ATOM     84  C   UNL A   1      49.753  26.989  24.219  1.00  0.00     0.200 A 
ATOM     85  F   UNL A   1      50.875  26.706  26.278  1.00  0.00    -0.200 F 
ATOM     86  F   UNL A   1      50.853  26.608  23.553  1.00  0.00    -0.200 F 
ENDBRANCH  62  76
BRANCH  63  87
ATOM     87  C   UNL A   1      39.222  30.223  30.746  1.00  0.00     0.064 A 
ATOM     88  C   UNL A   1      38.107  30.808  30.130  1.00  0.00     0.173 A 
ATOM     89  C   UNL A   1      39.168  30.021  32.134  1.00  0.00     0.173 A 
ATOM     90  F   UNL A   1      38.120  31.048  28.810  1.00  0.00    -0.203 F 
ATOM     91  C   UNL A   1      36.992  31.194  30.874  1.00  0.00     0.198 A 
ATOM     92  C   UNL A   1      38.041  30.379  32.872  1.00  0.00     0.198 A 
ATOM     93  F   UNL A   1      40.210  29.469  32.773  1.00  0.00    -0.203 F 
ATOM     94  F   UNL A   1      35.961  31.796  30.267  1.00  0.00    -0.200 F 
ATOM     95  C   UNL A   1      36.958  30.973  32.242  1.00  0.00     0.200 A 
ATOM     96  F   UNL A   1      38.009  30.155  34.192  1.00  0.00    -0.200 F 
ATOM     97  F   UNL A   1      35.887  31.343  32.956  1.00  0.00    -0.200 F 
ENDBRANCH  63  87
BRANCH  75  98
ATOM     98  C   UNL A   1      44.880  33.753  28.709  1.00  0.00     0.064 A 
ATOM     99  C   UNL A   1      44.491  34.749  27.803  1.00  0.00     0.173 A 
ATOM    100  C   UNL A   1      45.640  34.140  29.824  1.00  0.00     0.173 A 
ATOM    101  F   UNL A   1      43.777  34.429  26.713  1.00  0.00    -0.203 F 
ATOM    102  C   UNL A   1      44.867  36.077  27.994  1.00  0.00     0.198 A 
ATOM    103  C   UNL A   1      45.986  35.472  30.029  1.00  0.00     0.198 A 
ATOM    104  F   UNL A   1      46.030  33.226  30.727  1.00  0.00    -0.203 F 
ATOM    105  F   UNL A   1      44.521  37.005  27.092  1.00  0.00    -0.200 F 
ATOM    106  C   UNL A   1      45.606  36.438  29.111  1.00  0.00     0.200 A 
ATOM    107  F   UNL A   1      46.686  35.821  31.117  1.00  0.00    -0.200 F 
ATOM    108  F   UNL A   1      45.955  37.718  29.300  1.00  0.00    -0.200 F 
ENDBRANCH  75  98
ENDBRANCH  49  50
ENDBRANCH  42  44
ENDBRANCH  41  42
ENDBRANCH  40  41
ENDBRANCH  39  40
ENDBRANCH  38  39
ENDBRANCH  37  38
ENDBRANCH   1  37
TORSDOF 25
ENDMDL
