MODEL 1
REMARK VINA RESULT:     -12.1      0.000      0.000
REMARK SMILES O=C(OCCOCCOC(=O)c1ccc(-c2c3nc(c(-c4c(F)c(F)c(F)c(F)c4F)c4ccc([nH]4)c(-c4c(F)c(F)c(F)c(F)c4F)c4nc(c(-c5c(F)c(F)c(F)c(F)c5F)c5ccc2[nH]5)C=C4)C=C3)cc1)C1=Cc2c(cc(Cl)c(Cl)c2Cl)O[C@H]1C(F)(F)F
REMARK SMILES IDX 7 1 6 2 5 3 4 4 3 5 2 6 1 7 75 8 76 9 87 10 77 11 86 12
REMARK SMILES IDX 78 13 84 14 79 15 82 16 85 17 80 18 83 19 81 20 88 21 89 22
REMARK SMILES IDX 90 23 91 24 8 25 9 26 10 27 11 28 12 29 13 30 74 31 14 32
REMARK SMILES IDX 73 33 15 34 16 35 17 36 67 37 18 38 72 39 66 40 68 41 19 42
REMARK SMILES IDX 71 43 65 44 64 45 20 47 52 48 32 49 51 50 33 51 36 52 50 53
REMARK SMILES IDX 69 54 34 55 35 56 49 58 70 59 37 60 21 61 22 62 30 63 23 64
REMARK SMILES IDX 24 65 28 66 31 67 25 68 26 69 29 70 27 71 53 72 54 73 62 74
REMARK SMILES IDX 55 75 56 76 60 77 63 78 57 79 58 80 61 81 59 82 38 83 39 84
REMARK SMILES IDX 47 85 40 86 41 87 45 88 48 89 42 90 43 91 46 92 44 93
REMARK H PARENT 68 46 36 57
REMARK Flexibility Score: inf
ROOT
ATOM      1  C   UNL A   1      34.217  33.617  28.187  1.00  0.00     0.202 C 
ENDROOT
BRANCH   1   2
ATOM      2  O   UNL A   1      33.202  32.688  27.809  1.00  0.00    -0.374 OA
BRANCH   2   3
ATOM      3  C   UNL A   1      33.683  31.354  27.666  1.00  0.00     0.202 C 
BRANCH   3   4
ATOM      4  C   UNL A   1      32.602  30.422  27.119  1.00  0.00     0.261 C 
BRANCH   4   5
ATOM      5  O   UNL A   1      32.949  29.027  27.209  1.00  0.00    -0.460 OA
BRANCH   5   6
ATOM      6  C   UNL A   1      32.140  27.946  27.199  1.00  0.00     0.338 C 
ATOM      7  O   UNL A   1      31.207  27.901  28.001  1.00  0.00    -0.246 OA
BRANCH   6   8
ATOM      8  C   UNL A   1      32.185  26.914  26.132  1.00  0.00     0.087 C 
ATOM      9  C   UNL A   1      32.163  25.593  26.316  1.00  0.00     0.029 C 
ATOM     10  C   UNL A   1      32.521  27.469  24.762  1.00  0.00     0.316 C 
ATOM     11  C   UNL A   1      33.136  24.817  25.564  1.00  0.00     0.038 A 
ATOM     12  O   UNL A   1      32.984  26.463  23.802  1.00  0.00    -0.475 OA
ATOM     13  C   UNL A   1      33.520  25.318  24.325  1.00  0.00     0.131 A 
ATOM     14  C   UNL A   1      33.796  23.691  26.100  1.00  0.00     0.072 A 
ATOM     15  C   UNL A   1      34.481  24.656  23.572  1.00  0.00     0.069 A 
ATOM     16  C   UNL A   1      34.815  23.056  25.374  1.00  0.00     0.079 A 
ATOM     17  Cl  UNL A   1      33.408  23.145  27.701  1.00  0.00    -0.082 Cl
ATOM     18  C   UNL A   1      35.137  23.538  24.098  1.00  0.00     0.064 A 
ATOM     19  Cl  UNL A   1      35.693  21.722  26.064  1.00  0.00    -0.081 Cl
ATOM     20  Cl  UNL A   1      36.370  22.814  23.126  1.00  0.00    -0.083 Cl
BRANCH  10  21
ATOM     21  C   UNL A   1      31.295  28.209  24.155  1.00  0.00     0.430 C 
ATOM     22  F   UNL A   1      31.268  28.208  22.802  1.00  0.00    -0.167 F 
ATOM     23  F   UNL A   1      30.134  27.658  24.584  1.00  0.00    -0.167 F 
ATOM     24  F   UNL A   1      31.271  29.516  24.522  1.00  0.00    -0.167 F 
ENDBRANCH  10  21
ENDBRANCH   6   8
ENDBRANCH   5   6
ENDBRANCH   4   5
ENDBRANCH   3   4
ENDBRANCH   2   3
ENDBRANCH   1   2
BRANCH   1  25
ATOM     25  C   UNL A   1      34.010  34.178  29.598  1.00  0.00     0.261 C 
BRANCH  25  26
ATOM     26  O   UNL A   1      35.179  33.974  30.418  1.00  0.00    -0.460 OA
BRANCH  26  27
ATOM     27  C   UNL A   1      35.252  32.778  31.070  1.00  0.00     0.338 C 
ATOM     28  O   UNL A   1      34.403  32.284  31.770  1.00  0.00    -0.246 OA
BRANCH  27  29
ATOM     29  C   UNL A   1      36.521  32.070  30.709  1.00  0.00     0.060 A 
ATOM     30  C   UNL A   1      37.287  31.515  31.746  1.00  0.00     0.016 A 
ATOM     31  C   UNL A   1      36.948  31.916  29.386  1.00  0.00     0.016 A 
ATOM     32  C   UNL A   1      38.457  30.797  31.465  1.00  0.00     0.010 A 
ATOM     33  C   UNL A   1      38.122  31.205  29.106  1.00  0.00     0.010 A 
ATOM     34  C   UNL A   1      38.886  30.640  30.141  1.00  0.00    -0.014 A 
BRANCH  34  35
ATOM     35  C   UNL A   1      40.183  29.994  29.811  1.00  0.00     0.031 A 
ATOM     36  C   UNL A   1      41.422  30.841  29.756  1.00  0.00     0.074 A 
ATOM     37  C   UNL A   1      40.256  28.690  29.483  1.00  0.00     0.049 A 
ATOM     38  N   UNL A   1      42.625  30.527  29.345  1.00  0.00    -0.248 NA
ATOM     39  C   UNL A   1      41.284  32.231  30.215  1.00  0.00     0.031 C 
ATOM     40  C   UNL A   1      39.145  27.746  29.523  1.00  0.00     0.029 A 
ATOM     41  N   UNL A   1      41.314  27.942  29.019  1.00  0.00    -0.354 N 
ATOM     42  C   UNL A   1      43.383  31.678  29.492  1.00  0.00     0.074 A 
ATOM     43  C   UNL A   1      42.506  32.703  30.015  1.00  0.00     0.031 C 
ATOM     44  C   UNL A   1      39.567  26.551  29.071  1.00  0.00     0.029 A 
ATOM     45  C   UNL A   1      40.968  26.658  28.668  1.00  0.00     0.049 A 
ATOM     46  H   UNL A   1      42.230  28.293  28.945  1.00  0.00     0.167 HD
ATOM     47  C   UNL A   1      44.694  31.865  29.212  1.00  0.00     0.037 A 
ATOM     48  C   UNL A   1      41.686  25.696  28.053  1.00  0.00     0.037 A 
ATOM     49  C   UNL A   1      45.572  30.858  28.678  1.00  0.00     0.049 A 
ATOM     50  C   UNL A   1      43.119  25.968  27.658  1.00  0.00     0.074 A 
ATOM     51  C   UNL A   1      46.927  30.954  28.408  1.00  0.00     0.029 A 
ATOM     52  N   UNL A   1      45.181  29.580  28.315  1.00  0.00    -0.354 N 
ATOM     53  N   UNL A   1      43.848  27.038  27.861  1.00  0.00    -0.248 NA
ATOM     54  C   UNL A   1      43.827  24.897  26.936  1.00  0.00     0.031 C 
ATOM     55  C   UNL A   1      47.341  29.756  27.820  1.00  0.00     0.029 A 
ATOM     56  C   UNL A   1      46.257  28.894  27.776  1.00  0.00     0.049 A 
ATOM     57  H   UNL A   1      44.273  29.214  28.423  1.00  0.00     0.167 HD
ATOM     58  C   UNL A   1      45.099  26.758  27.324  1.00  0.00     0.074 A 
ATOM     59  C   UNL A   1      45.040  25.412  26.799  1.00  0.00     0.031 C 
ATOM     60  C   UNL A   1      46.197  27.549  27.266  1.00  0.00     0.037 A 
BRANCH  47  61
ATOM     61  C   UNL A   1      45.264  33.230  29.444  1.00  0.00     0.064 A 
ATOM     62  C   UNL A   1      45.251  34.212  28.444  1.00  0.00     0.173 A 
ATOM     63  C   UNL A   1      45.772  33.578  30.705  1.00  0.00     0.173 A 
ATOM     64  F   UNL A   1      44.787  33.921  27.219  1.00  0.00    -0.203 F 
ATOM     65  C   UNL A   1      45.737  35.491  28.695  1.00  0.00     0.198 A 
ATOM     66  C   UNL A   1      46.235  34.865  30.959  1.00  0.00     0.198 A 
ATOM     67  F   UNL A   1      45.803  32.671  31.694  1.00  0.00    -0.203 F 
ATOM     68  F   UNL A   1      45.744  36.408  27.716  1.00  0.00    -0.200 F 
ATOM     69  C   UNL A   1      46.220  35.819  29.954  1.00  0.00     0.200 A 
ATOM     70  F   UNL A   1      46.691  35.182  32.178  1.00  0.00    -0.200 F 
ATOM     71  F   UNL A   1      46.676  37.055  30.197  1.00  0.00    -0.200 F 
ENDBRANCH  47  61
BRANCH  48  72
ATOM     72  C   UNL A   1      41.062  24.388  27.705  1.00  0.00     0.064 A 
ATOM     73  C   UNL A   1      41.515  23.193  28.282  1.00  0.00     0.173 A 
ATOM     74  C   UNL A   1      40.065  24.298  26.721  1.00  0.00     0.173 A 
ATOM     75  F   UNL A   1      42.492  23.222  29.201  1.00  0.00    -0.203 F 
ATOM     76  C   UNL A   1      41.023  21.958  27.862  1.00  0.00     0.198 A 
ATOM     77  C   UNL A   1      39.550  23.064  26.327  1.00  0.00     0.198 A 
ATOM     78  F   UNL A   1      39.601  25.407  26.128  1.00  0.00    -0.203 F 
ATOM     79  F   UNL A   1      41.531  20.828  28.376  1.00  0.00    -0.200 F 
ATOM     80  C   UNL A   1      40.040  21.894  26.888  1.00  0.00     0.200 A 
ATOM     81  F   UNL A   1      38.596  23.009  25.389  1.00  0.00    -0.200 F 
ATOM     82  F   UNL A   1      39.580  20.707  26.473  1.00  0.00    -0.200 F 
ENDBRANCH  48  72
BRANCH  60  83
ATOM     83  C   UNL A   1      47.440  26.982  26.641  1.00  0.00     0.064 A 
ATOM     84  C   UNL A   1      47.760  27.217  25.296  1.00  0.00     0.173 A 
ATOM     85  C   UNL A   1      48.355  26.249  27.414  1.00  0.00     0.173 A 
ATOM     86  F   UNL A   1      46.913  27.899  24.510  1.00  0.00    -0.203 F 
ATOM     87  C   UNL A   1      48.941  26.727  24.744  1.00  0.00     0.198 A 
ATOM     88  C   UNL A   1      49.549  25.786  26.866  1.00  0.00     0.198 A 
ATOM     89  F   UNL A   1      48.102  26.000  28.706  1.00  0.00    -0.203 F 
ATOM     90  F   UNL A   1      49.207  26.932  23.446  1.00  0.00    -0.200 F 
ATOM     91  C   UNL A   1      49.839  26.021  25.531  1.00  0.00     0.200 A 
ATOM     92  F   UNL A   1      50.422  25.118  27.632  1.00  0.00    -0.200 F 
ATOM     93  F   UNL A   1      50.982  25.565  25.001  1.00  0.00    -0.200 F 
ENDBRANCH  60  83
ENDBRANCH  34  35
ENDBRANCH  27  29
ENDBRANCH  26  27
ENDBRANCH  25  26
ENDBRANCH   1  25
TORSDOF 15
ENDMDL
MODEL 2
REMARK VINA RESULT:     -12.1      4.683      9.062
REMARK SMILES O=C(OCCOCCOC(=O)c1ccc(-c2c3nc(c(-c4c(F)c(F)c(F)c(F)c4F)c4ccc([nH]4)c(-c4c(F)c(F)c(F)c(F)c4F)c4nc(c(-c5c(F)c(F)c(F)c(F)c5F)c5ccc2[nH]5)C=C4)C=C3)cc1)C1=Cc2c(cc(Cl)c(Cl)c2Cl)O[C@H]1C(F)(F)F
REMARK SMILES IDX 7 1 6 2 5 3 4 4 3 5 2 6 1 7 75 8 76 9 87 10 77 11 86 12
REMARK SMILES IDX 78 13 84 14 79 15 82 16 85 17 80 18 83 19 81 20 88 21 89 22
REMARK SMILES IDX 90 23 91 24 8 25 9 26 10 27 11 28 12 29 13 30 74 31 14 32
REMARK SMILES IDX 73 33 15 34 16 35 17 36 67 37 18 38 72 39 66 40 68 41 19 42
REMARK SMILES IDX 71 43 65 44 64 45 20 47 52 48 32 49 51 50 33 51 36 52 50 53
REMARK SMILES IDX 69 54 34 55 35 56 49 58 70 59 37 60 21 61 22 62 30 63 23 64
REMARK SMILES IDX 24 65 28 66 31 67 25 68 26 69 29 70 27 71 53 72 54 73 62 74
REMARK SMILES IDX 55 75 56 76 60 77 63 78 57 79 58 80 61 81 59 82 38 83 39 84
REMARK SMILES IDX 47 85 40 86 41 87 45 88 48 89 42 90 43 91 46 92 44 93
REMARK H PARENT 68 46 36 57
REMARK Flexibility Score: inf
ROOT
ATOM      1  C   UNL A   1      31.955  32.067  26.892  1.00  0.00     0.202 C 
ENDROOT
BRANCH   1   2
ATOM      2  O   UNL A   1      32.516  30.776  27.125  1.00  0.00    -0.374 OA
BRANCH   2   3
ATOM      3  C   UNL A   1      32.550  29.956  25.960  1.00  0.00     0.202 C 
BRANCH   3   4
ATOM      4  C   UNL A   1      33.749  29.010  25.972  1.00  0.00     0.261 C 
BRANCH   4   5
ATOM      5  O   UNL A   1      34.014  28.404  24.693  1.00  0.00    -0.460 OA
BRANCH   5   6
ATOM      6  C   UNL A   1      33.569  27.228  24.199  1.00  0.00     0.338 C 
ATOM      7  O   UNL A   1      33.477  27.099  22.979  1.00  0.00    -0.246 OA
BRANCH   6   8
ATOM      8  C   UNL A   1      33.393  26.016  25.038  1.00  0.00     0.087 C 
ATOM      9  C   UNL A   1      34.364  25.334  25.649  1.00  0.00     0.029 C 
ATOM     10  C   UNL A   1      32.001  25.418  24.958  1.00  0.00     0.316 C 
ATOM     11  C   UNL A   1      34.326  23.887  25.511  1.00  0.00     0.038 A 
ATOM     12  O   UNL A   1      31.916  24.027  25.412  1.00  0.00    -0.475 OA
ATOM     13  C   UNL A   1      33.073  23.299  25.376  1.00  0.00     0.131 A 
ATOM     14  C   UNL A   1      35.489  23.103  25.361  1.00  0.00     0.072 A 
ATOM     15  C   UNL A   1      32.963  21.926  25.191  1.00  0.00     0.069 A 
ATOM     16  C   UNL A   1      35.387  21.726  25.107  1.00  0.00     0.079 A 
ATOM     17  Cl  UNL A   1      37.050  23.859  25.399  1.00  0.00    -0.082 Cl
ATOM     18  C   UNL A   1      34.114  21.144  25.043  1.00  0.00     0.064 A 
ATOM     19  Cl  UNL A   1      36.813  20.769  24.834  1.00  0.00    -0.081 Cl
ATOM     20  Cl  UNL A   1      33.889  19.455  24.746  1.00  0.00    -0.083 Cl
BRANCH  10  21
ATOM     21  C   UNL A   1      30.991  26.272  25.776  1.00  0.00     0.430 C 
ATOM     22  F   UNL A   1      29.870  25.603  26.133  1.00  0.00    -0.167 F 
ATOM     23  F   UNL A   1      31.561  26.743  26.911  1.00  0.00    -0.167 F 
ATOM     24  F   UNL A   1      30.565  27.351  25.070  1.00  0.00    -0.167 F 
ENDBRANCH  10  21
ENDBRANCH   6   8
ENDBRANCH   5   6
ENDBRANCH   4   5
ENDBRANCH   3   4
ENDBRANCH   2   3
ENDBRANCH   1   2
BRANCH   1  25
ATOM     25  C   UNL A   1      32.877  33.204  27.346  1.00  0.00     0.261 C 
BRANCH  25  26
ATOM     26  O   UNL A   1      32.158  34.180  28.128  1.00  0.00    -0.460 OA
BRANCH  26  27
ATOM     27  C   UNL A   1      32.914  35.153  28.714  1.00  0.00     0.338 C 
ATOM     28  O   UNL A   1      32.632  36.320  28.821  1.00  0.00    -0.246 OA
BRANCH  27  29
ATOM     29  C   UNL A   1      34.139  34.552  29.330  1.00  0.00     0.060 A 
ATOM     30  C   UNL A   1      33.993  33.834  30.527  1.00  0.00     0.016 A 
ATOM     31  C   UNL A   1      35.405  34.653  28.744  1.00  0.00     0.016 A 
ATOM     32  C   UNL A   1      35.095  33.205  31.123  1.00  0.00     0.010 A 
ATOM     33  C   UNL A   1      36.508  34.032  29.344  1.00  0.00     0.010 A 
ATOM     34  C   UNL A   1      36.363  33.304  30.538  1.00  0.00    -0.014 A 
BRANCH  34  35
ATOM     35  C   UNL A   1      37.576  32.759  31.202  1.00  0.00     0.031 A 
ATOM     36  C   UNL A   1      38.253  31.560  30.605  1.00  0.00     0.074 A 
ATOM     37  C   UNL A   1      38.028  33.266  32.365  1.00  0.00     0.049 A 
ATOM     38  N   UNL A   1      39.225  30.828  31.090  1.00  0.00    -0.248 NA
ATOM     39  C   UNL A   1      37.763  31.119  29.291  1.00  0.00     0.031 C 
ATOM     40  C   UNL A   1      37.489  34.441  33.040  1.00  0.00     0.029 A 
ATOM     41  N   UNL A   1      39.030  32.830  33.202  1.00  0.00    -0.354 N 
ATOM     42  C   UNL A   1      39.459  29.841  30.144  1.00  0.00     0.074 A 
ATOM     43  C   UNL A   1      38.520  30.056  29.064  1.00  0.00     0.031 C 
ATOM     44  C   UNL A   1      38.142  34.619  34.203  1.00  0.00     0.029 A 
ATOM     45  C   UNL A   1      39.116  33.542  34.376  1.00  0.00     0.049 A 
ATOM     46  H   UNL A   1      39.628  32.080  32.981  1.00  0.00     0.167 HD
ATOM     47  C   UNL A   1      40.372  28.842  30.176  1.00  0.00     0.037 A 
ATOM     48  C   UNL A   1      39.861  33.323  35.479  1.00  0.00     0.037 A 
ATOM     49  C   UNL A   1      41.300  28.612  31.250  1.00  0.00     0.049 A 
ATOM     50  C   UNL A   1      40.798  32.139  35.526  1.00  0.00     0.074 A 
ATOM     51  C   UNL A   1      42.290  27.647  31.340  1.00  0.00     0.029 A 
ATOM     52  N   UNL A   1      41.340  29.337  32.430  1.00  0.00    -0.354 N 
ATOM     53  N   UNL A   1      41.061  31.250  34.601  1.00  0.00    -0.248 NA
ATOM     54  C   UNL A   1      41.538  31.924  36.781  1.00  0.00     0.031 C 
ATOM     55  C   UNL A   1      42.885  27.748  32.600  1.00  0.00     0.029 A 
ATOM     56  C   UNL A   1      42.305  28.810  33.273  1.00  0.00     0.049 A 
ATOM     57  H   UNL A   1      40.769  30.112  32.638  1.00  0.00     0.167 HD
ATOM     58  C   UNL A   1      42.011  30.395  35.147  1.00  0.00     0.074 A 
ATOM     59  C   UNL A   1      42.294  30.878  36.480  1.00  0.00     0.031 C 
ATOM     60  C   UNL A   1      42.592  29.303  34.595  1.00  0.00     0.037 A 
BRANCH  47  61
ATOM     61  C   UNL A   1      40.395  27.889  29.022  1.00  0.00     0.064 A 
ATOM     62  C   UNL A   1      39.627  26.717  29.020  1.00  0.00     0.173 A 
ATOM     63  C   UNL A   1      41.150  28.187  27.876  1.00  0.00     0.173 A 
ATOM     64  F   UNL A   1      38.901  26.385  30.099  1.00  0.00    -0.203 F 
ATOM     65  C   UNL A   1      39.621  25.870  27.917  1.00  0.00     0.198 A 
ATOM     66  C   UNL A   1      41.123  27.349  26.766  1.00  0.00     0.198 A 
ATOM     67  F   UNL A   1      41.900  29.299  27.831  1.00  0.00    -0.203 F 
ATOM     68  F   UNL A   1      38.903  24.738  27.947  1.00  0.00    -0.200 F 
ATOM     69  C   UNL A   1      40.362  26.191  26.788  1.00  0.00     0.200 A 
ATOM     70  F   UNL A   1      41.830  27.667  25.673  1.00  0.00    -0.200 F 
ATOM     71  F   UNL A   1      40.345  25.380  25.721  1.00  0.00    -0.200 F 
ENDBRANCH  47  61
BRANCH  48  72
ATOM     72  C   UNL A   1      39.725  34.203  36.673  1.00  0.00     0.064 A 
ATOM     73  C   UNL A   1      40.499  35.365  36.809  1.00  0.00     0.173 A 
ATOM     74  C   UNL A   1      38.887  33.851  37.743  1.00  0.00     0.173 A 
ATOM     75  F   UNL A   1      41.342  35.725  35.831  1.00  0.00    -0.203 F 
ATOM     76  C   UNL A   1      40.469  36.118  37.982  1.00  0.00     0.198 A 
ATOM     77  C   UNL A   1      38.833  34.625  38.901  1.00  0.00     0.198 A 
ATOM     78  F   UNL A   1      38.132  32.746  37.672  1.00  0.00    -0.203 F 
ATOM     79  F   UNL A   1      41.278  37.179  38.114  1.00  0.00    -0.200 F 
ATOM     80  C   UNL A   1      39.635  35.749  39.025  1.00  0.00     0.200 A 
ATOM     81  F   UNL A   1      38.021  34.267  39.905  1.00  0.00    -0.200 F 
ATOM     82  F   UNL A   1      39.619  36.464  40.159  1.00  0.00    -0.200 F 
ENDBRANCH  48  72
BRANCH  60  83
ATOM     83  C   UNL A   1      43.616  28.564  35.410  1.00  0.00     0.064 A 
ATOM     84  C   UNL A   1      44.984  28.852  35.308  1.00  0.00     0.173 A 
ATOM     85  C   UNL A   1      43.217  27.601  36.351  1.00  0.00     0.173 A 
ATOM     86  F   UNL A   1      45.420  29.753  34.415  1.00  0.00    -0.203 F 
ATOM     87  C   UNL A   1      45.917  28.194  36.106  1.00  0.00     0.198 A 
ATOM     88  C   UNL A   1      44.149  26.967  37.169  1.00  0.00     0.198 A 
ATOM     89  F   UNL A   1      41.921  27.292  36.494  1.00  0.00    -0.203 F 
ATOM     90  F   UNL A   1      47.223  28.460  35.965  1.00  0.00    -0.200 F 
ATOM     91  C   UNL A   1      45.499  27.260  37.043  1.00  0.00     0.200 A 
ATOM     92  F   UNL A   1      43.742  26.077  38.083  1.00  0.00    -0.200 F 
ATOM     93  F   UNL A   1      46.397  26.640  37.821  1.00  0.00    -0.200 F 
ENDBRANCH  60  83
ENDBRANCH  34  35
ENDBRANCH  27  29
ENDBRANCH  26  27
ENDBRANCH  25  26
ENDBRANCH   1  25
TORSDOF 15
ENDMDL
MODEL 3
REMARK VINA RESULT:     -12.0      3.407      8.357
REMARK SMILES O=C(OCCOCCOC(=O)c1ccc(-c2c3nc(c(-c4c(F)c(F)c(F)c(F)c4F)c4ccc([nH]4)c(-c4c(F)c(F)c(F)c(F)c4F)c4nc(c(-c5c(F)c(F)c(F)c(F)c5F)c5ccc2[nH]5)C=C4)C=C3)cc1)C1=Cc2c(cc(Cl)c(Cl)c2Cl)O[C@H]1C(F)(F)F
REMARK SMILES IDX 7 1 6 2 5 3 4 4 3 5 2 6 1 7 75 8 76 9 87 10 77 11 86 12
REMARK SMILES IDX 78 13 84 14 79 15 82 16 85 17 80 18 83 19 81 20 88 21 89 22
REMARK SMILES IDX 90 23 91 24 8 25 9 26 10 27 11 28 12 29 13 30 74 31 14 32
REMARK SMILES IDX 73 33 15 34 16 35 17 36 67 37 18 38 72 39 66 40 68 41 19 42
REMARK SMILES IDX 71 43 65 44 64 45 20 47 52 48 32 49 51 50 33 51 36 52 50 53
REMARK SMILES IDX 69 54 34 55 35 56 49 58 70 59 37 60 21 61 22 62 30 63 23 64
REMARK SMILES IDX 24 65 28 66 31 67 25 68 26 69 29 70 27 71 53 72 54 73 62 74
REMARK SMILES IDX 55 75 56 76 60 77 63 78 57 79 58 80 61 81 59 82 38 83 39 84
REMARK SMILES IDX 47 85 40 86 41 87 45 88 48 89 42 90 43 91 46 92 44 93
REMARK H PARENT 68 46 36 57
REMARK Flexibility Score: inf
ROOT
ATOM      1  C   UNL A   1      35.663  20.543  25.206  1.00  0.00     0.202 C 
ENDROOT
BRANCH   1   2
ATOM      2  O   UNL A   1      35.317  21.633  26.060  1.00  0.00    -0.374 OA
BRANCH   2   3
ATOM      3  C   UNL A   1      34.167  21.380  26.862  1.00  0.00     0.202 C 
BRANCH   3   4
ATOM      4  C   UNL A   1      33.785  22.600  27.699  1.00  0.00     0.261 C 
BRANCH   4   5
ATOM      5  O   UNL A   1      32.363  22.756  27.869  1.00  0.00    -0.460 OA
BRANCH   5   6
ATOM      6  C   UNL A   1      31.473  23.376  27.066  1.00  0.00     0.338 C 
ATOM      7  O   UNL A   1      30.285  23.371  27.389  1.00  0.00    -0.246 OA
BRANCH   6   8
ATOM      8  C   UNL A   1      31.876  24.245  25.932  1.00  0.00     0.087 C 
ATOM      9  C   UNL A   1      32.548  25.394  26.022  1.00  0.00     0.029 C 
ATOM     10  C   UNL A   1      31.237  23.859  24.612  1.00  0.00     0.316 C 
ATOM     11  C   UNL A   1      32.034  26.509  25.242  1.00  0.00     0.038 A 
ATOM     12  O   UNL A   1      31.268  24.914  23.596  1.00  0.00    -0.475 OA
ATOM     13  C   UNL A   1      31.387  26.199  24.051  1.00  0.00     0.131 A 
ATOM     14  C   UNL A   1      32.036  27.838  25.714  1.00  0.00     0.072 A 
ATOM     15  C   UNL A   1      30.828  27.209  23.278  1.00  0.00     0.069 A 
ATOM     16  C   UNL A   1      31.415  28.855  24.972  1.00  0.00     0.079 A 
ATOM     17  Cl  UNL A   1      32.729  28.202  27.264  1.00  0.00    -0.082 Cl
ATOM     18  C   UNL A   1      30.829  28.530  23.741  1.00  0.00     0.064 A 
ATOM     19  Cl  UNL A   1      31.336  30.479  25.589  1.00  0.00    -0.081 Cl
ATOM     20  Cl  UNL A   1      30.051  29.715  22.752  1.00  0.00    -0.083 Cl
BRANCH  10  21
ATOM     21  C   UNL A   1      31.913  22.585  24.028  1.00  0.00     0.430 C 
ATOM     22  F   UNL A   1      31.666  21.460  24.737  1.00  0.00    -0.167 F 
ATOM     23  F   UNL A   1      31.505  22.360  22.756  1.00  0.00    -0.167 F 
ATOM     24  F   UNL A   1      33.264  22.710  23.994  1.00  0.00    -0.167 F 
ENDBRANCH  10  21
ENDBRANCH   6   8
ENDBRANCH   5   6
ENDBRANCH   4   5
ENDBRANCH   3   4
ENDBRANCH   2   3
ENDBRANCH   1   2
BRANCH   1  25
ATOM     25  C   UNL A   1      37.173  20.433  24.969  1.00  0.00     0.261 C 
BRANCH  25  26
ATOM     26  O   UNL A   1      37.884  21.504  25.622  1.00  0.00    -0.460 OA
BRANCH  26  27
ATOM     27  C   UNL A   1      39.117  21.191  26.115  1.00  0.00     0.338 C 
ATOM     28  O   UNL A   1      39.642  20.106  26.111  1.00  0.00    -0.246 OA
BRANCH  27  29
ATOM     29  C   UNL A   1      39.814  22.431  26.584  1.00  0.00     0.060 A 
ATOM     30  C   UNL A   1      39.370  23.667  26.088  1.00  0.00     0.016 A 
ATOM     31  C   UNL A   1      40.858  22.403  27.513  1.00  0.00     0.016 A 
ATOM     32  C   UNL A   1      39.950  24.864  26.530  1.00  0.00     0.010 A 
ATOM     33  C   UNL A   1      41.443  23.599  27.949  1.00  0.00     0.010 A 
ATOM     34  C   UNL A   1      40.995  24.839  27.462  1.00  0.00    -0.014 A 
BRANCH  34  35
ATOM     35  C   UNL A   1      41.718  26.075  27.860  1.00  0.00     0.031 A 
ATOM     36  C   UNL A   1      40.966  27.152  28.586  1.00  0.00     0.074 A 
ATOM     37  C   UNL A   1      43.003  26.280  27.514  1.00  0.00     0.049 A 
ATOM     38  N   UNL A   1      41.347  28.366  28.896  1.00  0.00    -0.248 NA
ATOM     39  C   UNL A   1      39.598  26.821  29.012  1.00  0.00     0.031 C 
ATOM     40  C   UNL A   1      43.860  25.313  26.837  1.00  0.00     0.029 A 
ATOM     41  N   UNL A   1      43.802  27.391  27.658  1.00  0.00    -0.354 N 
ATOM     42  C   UNL A   1      40.267  28.944  29.546  1.00  0.00     0.074 A 
ATOM     43  C   UNL A   1      39.210  27.955  29.577  1.00  0.00     0.031 C 
ATOM     44  C   UNL A   1      45.056  25.880  26.595  1.00  0.00     0.029 A 
ATOM     45  C   UNL A   1      45.034  27.266  27.060  1.00  0.00     0.049 A 
ATOM     46  H   UNL A   1      43.518  28.199  28.144  1.00  0.00     0.167 HD
ATOM     47  C   UNL A   1      40.165  30.188  30.069  1.00  0.00     0.037 A 
ATOM     48  C   UNL A   1      46.011  28.176  26.870  1.00  0.00     0.037 A 
ATOM     49  C   UNL A   1      41.204  31.182  30.032  1.00  0.00     0.049 A 
ATOM     50  C   UNL A   1      45.827  29.588  27.374  1.00  0.00     0.074 A 
ATOM     51  C   UNL A   1      41.196  32.454  30.580  1.00  0.00     0.029 A 
ATOM     52  N   UNL A   1      42.425  31.026  29.399  1.00  0.00    -0.354 N 
ATOM     53  N   UNL A   1      44.829  30.106  28.047  1.00  0.00    -0.248 NA
ATOM     54  C   UNL A   1      46.906  30.547  27.082  1.00  0.00     0.031 C 
ATOM     55  C   UNL A   1      42.387  33.091  30.220  1.00  0.00     0.029 A 
ATOM     56  C   UNL A   1      43.159  32.197  29.498  1.00  0.00     0.049 A 
ATOM     57  H   UNL A   1      42.727  30.206  28.945  1.00  0.00     0.167 HD
ATOM     58  C   UNL A   1      45.172  31.433  28.283  1.00  0.00     0.074 A 
ATOM     59  C   UNL A   1      46.477  31.640  27.697  1.00  0.00     0.031 C 
ATOM     60  C   UNL A   1      44.465  32.395  28.923  1.00  0.00     0.037 A 
BRANCH  47  61
ATOM     61  C   UNL A   1      38.863  30.567  30.703  1.00  0.00     0.064 A 
ATOM     62  C   UNL A   1      38.665  30.475  32.087  1.00  0.00     0.173 A 
ATOM     63  C   UNL A   1      37.822  31.089  29.919  1.00  0.00     0.173 A 
ATOM     64  F   UNL A   1      39.627  29.970  32.874  1.00  0.00    -0.203 F 
ATOM     65  C   UNL A   1      37.466  30.882  32.665  1.00  0.00     0.198 A 
ATOM     66  C   UNL A   1      36.633  31.517  30.503  1.00  0.00     0.198 A 
ATOM     67  F   UNL A   1      37.966  31.197  28.589  1.00  0.00    -0.203 F 
ATOM     68  F   UNL A   1      37.285  30.758  33.987  1.00  0.00    -0.200 F 
ATOM     69  C   UNL A   1      36.455  31.410  31.874  1.00  0.00     0.200 A 
ATOM     70  F   UNL A   1      35.664  32.036  29.739  1.00  0.00    -0.200 F 
ATOM     71  F   UNL A   1      35.306  31.813  32.433  1.00  0.00    -0.200 F 
ENDBRANCH  47  61
BRANCH  48  72
ATOM     72  C   UNL A   1      47.245  27.819  26.116  1.00  0.00     0.064 A 
ATOM     73  C   UNL A   1      47.246  27.760  24.714  1.00  0.00     0.173 A 
ATOM     74  C   UNL A   1      48.420  27.441  26.782  1.00  0.00     0.173 A 
ATOM     75  F   UNL A   1      46.135  28.075  24.031  1.00  0.00    -0.203 F 
ATOM     76  C   UNL A   1      48.359  27.300  24.013  1.00  0.00     0.198 A 
ATOM     77  C   UNL A   1      49.545  27.014  26.077  1.00  0.00     0.198 A 
ATOM     78  F   UNL A   1      48.475  27.468  28.122  1.00  0.00    -0.203 F 
ATOM     79  F   UNL A   1      48.303  27.179  22.679  1.00  0.00    -0.200 F 
ATOM     80  C   UNL A   1      49.508  26.930  24.693  1.00  0.00     0.200 A 
ATOM     81  F   UNL A   1      50.655  26.664  26.740  1.00  0.00    -0.200 F 
ATOM     82  F   UNL A   1      50.571  26.472  24.020  1.00  0.00    -0.200 F 
ENDBRANCH  48  72
BRANCH  60  83
ATOM     83  C   UNL A   1      45.089  33.756  29.056  1.00  0.00     0.064 A 
ATOM     84  C   UNL A   1      44.859  34.765  28.110  1.00  0.00     0.173 A 
ATOM     85  C   UNL A   1      45.873  34.073  30.177  1.00  0.00     0.173 A 
ATOM     86  F   UNL A   1      44.129  34.509  27.014  1.00  0.00    -0.203 F 
ATOM     87  C   UNL A   1      45.403  36.037  28.273  1.00  0.00     0.198 A 
ATOM     88  C   UNL A   1      46.390  35.354  30.351  1.00  0.00     0.198 A 
ATOM     89  F   UNL A   1      46.119  33.147  31.114  1.00  0.00    -0.203 F 
ATOM     90  F   UNL A   1      45.200  36.975  27.337  1.00  0.00    -0.200 F 
ATOM     91  C   UNL A   1      46.159  36.334  29.397  1.00  0.00     0.200 A 
ATOM     92  F   UNL A   1      47.107  35.643  31.445  1.00  0.00    -0.200 F 
ATOM     93  F   UNL A   1      46.668  37.563  29.559  1.00  0.00    -0.200 F 
ENDBRANCH  60  83
ENDBRANCH  34  35
ENDBRANCH  27  29
ENDBRANCH  26  27
ENDBRANCH  25  26
ENDBRANCH   1  25
TORSDOF 15
ENDMDL
