MODEL 1
REMARK VINA RESULT:     -11.7      0.000      0.000
REMARK SMILES CC[C@]1(C(=O)OCCOCCOC(=O)c2ccc(-c3c4nc(c(-c5c(F)c(F)c(F)c(F)c5F)c5ccc([nH]5)c(-c5c(F)c(F)c(F)c(F)c5F)c5nc(c(-c6c(F)c(F)c(F)c(F)c6F)c6ccc3[nH]6)C=C5)C=C4)cc2)CC[N@@H+](Cc2ccc(CC(C)C)cc2)C1
REMARK SMILES IDX 8 1 7 2 6 3 4 4 5 5 3 6 78 7 92 8 79 9 80 10 2 12 1 13 81 14
REMARK SMILES IDX 82 15 83 16 91 17 84 18 90 19 85 20 86 21 87 22 88 23 89 24
REMARK SMILES IDX 9 25 10 26 11 27 12 28 13 29 14 30 15 31 16 32 77 33 17 34
REMARK SMILES IDX 76 35 18 36 19 37 20 38 70 39 21 40 75 41 69 42 71 43 22 44
REMARK SMILES IDX 74 45 68 46 67 47 23 49 55 50 35 51 54 52 36 53 39 54 53 55
REMARK SMILES IDX 72 56 37 57 38 58 52 60 73 61 40 62 24 63 25 64 33 65 26 66
REMARK SMILES IDX 27 67 31 68 34 69 28 70 29 71 32 72 30 73 56 74 57 75 65 76
REMARK SMILES IDX 58 77 59 78 63 79 66 80 60 81 61 82 64 83 62 84 41 85 42 86
REMARK SMILES IDX 50 87 43 88 44 89 48 90 51 91 45 92 46 93 49 94 47 95
REMARK H PARENT 80 11 71 48 39 59
REMARK Flexibility Score: inf
ROOT
ATOM      1  C   UNL A   1      40.967  20.137  27.251  1.00  0.00     0.202 C 
ENDROOT
BRANCH   1   2
ATOM      2  C   UNL A   1      40.022  20.074  26.050  1.00  0.00     0.261 C 
BRANCH   2   3
ATOM      3  O   UNL A   1      39.305  21.312  25.941  1.00  0.00    -0.463 OA
BRANCH   3   4
ATOM      4  C   UNL A   1      38.076  21.237  25.375  1.00  0.00     0.318 C 
ATOM      5  O   UNL A   1      37.547  20.182  25.044  1.00  0.00    -0.251 OA
BRANCH   4   6
ATOM      6  C   UNL A   1      37.381  22.598  25.269  1.00  0.00     0.122 C 
ATOM      7  C   UNL A   1      36.804  22.952  23.888  1.00  0.00     0.086 C 
ATOM      8  C   UNL A   1      36.123  22.539  26.163  1.00  0.00     0.281 C 
ATOM      9  C   UNL A   1      35.533  23.725  24.215  1.00  0.00     0.263 C 
ATOM     10  N   UNL A   1      34.982  23.105  25.422  1.00  0.00    -0.330 N 
ATOM     11  H   UNL A   1      34.510  23.821  25.973  1.00  0.00     0.348 HD
BRANCH   6  12
ATOM     12  C   UNL A   1      38.417  23.702  25.622  1.00  0.00     0.021 C 
ATOM     13  C   UNL A   1      38.202  24.449  26.928  1.00  0.00     0.005 C 
ENDBRANCH   6  12
BRANCH  10  14
ATOM     14  C   UNL A   1      33.864  22.152  25.209  1.00  0.00     0.299 C 
BRANCH  14  15
ATOM     15  C   UNL A   1      32.487  22.785  25.136  1.00  0.00     0.006 A 
ATOM     16  C   UNL A   1      31.993  23.428  26.275  1.00  0.00     0.010 A 
ATOM     17  C   UNL A   1      31.836  22.968  23.907  1.00  0.00     0.010 A 
ATOM     18  C   UNL A   1      31.106  24.479  26.126  1.00  0.00     0.004 A 
ATOM     19  C   UNL A   1      30.904  23.994  23.764  1.00  0.00     0.004 A 
ATOM     20  C   UNL A   1      30.651  24.841  24.848  1.00  0.00    -0.048 A 
BRANCH  20  21
ATOM     21  C   UNL A   1      30.117  26.250  24.642  1.00  0.00     0.038 C 
BRANCH  21  22
ATOM     22  C   UNL A   1      31.179  27.575  24.257  1.00  0.00    -0.013 C 
ATOM     23  C   UNL A   1      30.917  27.354  22.510  1.00  0.00     0.008 C 
ATOM     24  C   UNL A   1      31.534  29.442  25.333  1.00  0.00     0.008 C 
ENDBRANCH  21  22
ENDBRANCH  20  21
ENDBRANCH  14  15
ENDBRANCH  10  14
ENDBRANCH   4   6
ENDBRANCH   3   4
ENDBRANCH   2   3
ENDBRANCH   1   2
BRANCH   1  25
ATOM     25  O   UNL A   1      42.263  19.573  27.056  1.00  0.00    -0.374 OA
BRANCH  25  26
ATOM     26  C   UNL A   1      42.800  19.622  25.733  1.00  0.00     0.202 C 
BRANCH  26  27
ATOM     27  C   UNL A   1      43.738  20.792  25.404  1.00  0.00     0.261 C 
BRANCH  27  28
ATOM     28  O   UNL A   1      43.035  21.983  25.013  1.00  0.00    -0.460 OA
BRANCH  28  29
ATOM     29  C   UNL A   1      43.793  23.089  24.842  1.00  0.00     0.338 C 
ATOM     30  O   UNL A   1      44.451  23.408  23.870  1.00  0.00    -0.246 OA
BRANCH  29  31
ATOM     31  C   UNL A   1      43.566  23.992  25.980  1.00  0.00     0.060 A 
ATOM     32  C   UNL A   1      42.254  23.582  27.159  1.00  0.00     0.016 A 
ATOM     33  C   UNL A   1      44.398  25.581  26.062  1.00  0.00     0.016 A 
ATOM     34  C   UNL A   1      41.683  24.798  28.345  1.00  0.00     0.010 A 
ATOM     35  C   UNL A   1      43.823  26.818  27.248  1.00  0.00     0.010 A 
ATOM     36  C   UNL A   1      42.492  26.408  28.434  1.00  0.00    -0.014 A 
BRANCH  36  37
ATOM     37  C   UNL A   1      42.092  27.395  29.464  1.00  0.00     0.031 A 
ATOM     38  C   UNL A   1      42.762  27.328  30.799  1.00  0.00     0.074 A 
ATOM     39  C   UNL A   1      41.029  28.195  29.238  1.00  0.00     0.049 A 
ATOM     40  N   UNL A   1      42.413  27.873  31.933  1.00  0.00    -0.248 NA
ATOM     41  C   UNL A   1      43.965  26.483  30.890  1.00  0.00     0.031 C 
ATOM     42  C   UNL A   1      40.257  28.278  27.994  1.00  0.00     0.029 A 
ATOM     43  N   UNL A   1      40.357  29.046  30.080  1.00  0.00    -0.354 N 
ATOM     44  C   UNL A   1      43.335  27.412  32.863  1.00  0.00     0.074 A 
ATOM     45  C   UNL A   1      44.188  26.462  32.193  1.00  0.00     0.031 C 
ATOM     46  C   UNL A   1      39.203  29.089  28.162  1.00  0.00     0.029 A 
ATOM     47  C   UNL A   1      39.213  29.580  29.528  1.00  0.00     0.049 A 
ATOM     48  H   UNL A   1      40.663  29.255  30.992  1.00  0.00     0.167 HD
ATOM     49  C   UNL A   1      43.493  27.801  34.149  1.00  0.00     0.037 A 
ATOM     50  C   UNL A   1      38.268  30.366  30.074  1.00  0.00     0.037 A 
ATOM     51  C   UNL A   1      42.660  28.795  34.765  1.00  0.00     0.049 A 
ATOM     52  C   UNL A   1      38.466  30.795  31.498  1.00  0.00     0.074 A 
ATOM     53  C   UNL A   1      42.759  29.348  36.027  1.00  0.00     0.029 A 
ATOM     54  N   UNL A   1      41.571  29.392  34.142  1.00  0.00    -0.354 N 
ATOM     55  N   UNL A   1      39.397  30.427  32.346  1.00  0.00    -0.248 NA
ATOM     56  C   UNL A   1      37.510  31.769  32.036  1.00  0.00     0.031 C 
ATOM     57  C   UNL A   1      41.709  30.260  36.178  1.00  0.00     0.029 A 
ATOM     58  C   UNL A   1      40.981  30.304  34.996  1.00  0.00     0.049 A 
ATOM     59  H   UNL A   1      41.265  29.196  33.228  1.00  0.00     0.167 HD
ATOM     60  C   UNL A   1      39.164  31.146  33.505  1.00  0.00     0.074 A 
ATOM     61  C   UNL A   1      38.011  31.987  33.243  1.00  0.00     0.031 C 
ATOM     62  C   UNL A   1      39.836  31.121  34.683  1.00  0.00     0.037 A 
BRANCH  49  63
ATOM     63  C   UNL A   1      44.620  27.183  34.927  1.00  0.00     0.064 A 
ATOM     64  C   UNL A   1      44.435  26.010  35.680  1.00  0.00     0.173 A 
ATOM     65  C   UNL A   1      45.894  27.767  34.936  1.00  0.00     0.173 A 
ATOM     66  F   UNL A   1      43.233  25.416  35.722  1.00  0.00    -0.203 F 
ATOM     67  C   UNL A   1      45.468  25.476  36.448  1.00  0.00     0.198 A 
ATOM     68  C   UNL A   1      46.935  27.209  35.676  1.00  0.00     0.198 A 
ATOM     69  F   UNL A   1      46.131  28.888  34.237  1.00  0.00    -0.203 F 
ATOM     70  F   UNL A   1      45.241  24.402  37.215  1.00  0.00    -0.200 F 
ATOM     71  C   UNL A   1      46.718  26.072  36.440  1.00  0.00     0.200 A 
ATOM     72  F   UNL A   1      48.148  27.780  35.660  1.00  0.00    -0.200 F 
ATOM     73  F   UNL A   1      47.711  25.557  37.179  1.00  0.00    -0.200 F 
ENDBRANCH  49  63
BRANCH  50  74
ATOM     74  C   UNL A   1      37.114  30.841  29.260  1.00  0.00     0.064 A 
ATOM     75  C   UNL A   1      36.029  29.992  28.995  1.00  0.00     0.173 A 
ATOM     76  C   UNL A   1      37.053  32.146  28.747  1.00  0.00     0.173 A 
ATOM     77  F   UNL A   1      36.039  28.733  29.455  1.00  0.00    -0.203 F 
ATOM     78  C   UNL A   1      34.946  30.417  28.227  1.00  0.00     0.198 A 
ATOM     79  C   UNL A   1      35.955  32.580  28.003  1.00  0.00     0.198 A 
ATOM     80  F   UNL A   1      38.052  33.008  28.983  1.00  0.00    -0.203 F 
ATOM     81  F   UNL A   1      33.946  29.567  27.956  1.00  0.00    -0.200 F 
ATOM     82  C   UNL A   1      34.907  31.712  27.736  1.00  0.00     0.200 A 
ATOM     83  F   UNL A   1      35.912  33.838  27.544  1.00  0.00    -0.200 F 
ATOM     84  F   UNL A   1      33.863  32.122  27.001  1.00  0.00    -0.200 F 
ENDBRANCH  50  74
BRANCH  62  85
ATOM     85  C   UNL A   1      39.344  32.044  35.753  1.00  0.00     0.064 A 
ATOM     86  C   UNL A   1      38.386  31.630  36.687  1.00  0.00     0.173 A 
ATOM     87  C   UNL A   1      39.874  33.336  35.869  1.00  0.00     0.173 A 
ATOM     88  F   UNL A   1      37.840  30.407  36.600  1.00  0.00    -0.203 F 
ATOM     89  C   UNL A   1      37.958  32.489  37.692  1.00  0.00     0.198 A 
ATOM     90  C   UNL A   1      39.470  34.180  36.896  1.00  0.00     0.198 A 
ATOM     91  F   UNL A   1      40.799  33.771  34.999  1.00  0.00    -0.203 F 
ATOM     92  F   UNL A   1      37.006  32.093  38.547  1.00  0.00    -0.200 F 
ATOM     93  C   UNL A   1      38.508  33.759  37.802  1.00  0.00     0.200 A 
ATOM     94  F   UNL A   1      40.013  35.400  37.012  1.00  0.00    -0.200 F 
ATOM     95  F   UNL A   1      38.104  34.580  38.780  1.00  0.00    -0.200 F 
ENDBRANCH  62  85
ENDBRANCH  36  37
ENDBRANCH  29  31
ENDBRANCH  28  29
ENDBRANCH  27  28
ENDBRANCH  26  27
ENDBRANCH  25  26
ENDBRANCH   1  25
TORSDOF 19
ENDMDL
MODEL 2
REMARK VINA RESULT:     -11.3      4.585      9.327
REMARK SMILES CC[C@]1(C(=O)OCCOCCOC(=O)c2ccc(-c3c4nc(c(-c5c(F)c(F)c(F)c(F)c5F)c5ccc([nH]5)c(-c5c(F)c(F)c(F)c(F)c5F)c5nc(c(-c6c(F)c(F)c(F)c(F)c6F)c6ccc3[nH]6)C=C5)C=C4)cc2)CC[N@@H+](Cc2ccc(CC(C)C)cc2)C1
REMARK SMILES IDX 8 1 7 2 6 3 4 4 5 5 3 6 78 7 92 8 79 9 80 10 2 12 1 13 81 14
REMARK SMILES IDX 82 15 83 16 91 17 84 18 90 19 85 20 86 21 87 22 88 23 89 24
REMARK SMILES IDX 9 25 10 26 11 27 12 28 13 29 14 30 15 31 16 32 77 33 17 34
REMARK SMILES IDX 76 35 18 36 19 37 20 38 70 39 21 40 75 41 69 42 71 43 22 44
REMARK SMILES IDX 74 45 68 46 67 47 23 49 55 50 35 51 54 52 36 53 39 54 53 55
REMARK SMILES IDX 72 56 37 57 38 58 52 60 73 61 40 62 24 63 25 64 33 65 26 66
REMARK SMILES IDX 27 67 31 68 34 69 28 70 29 71 32 72 30 73 56 74 57 75 65 76
REMARK SMILES IDX 58 77 59 78 63 79 66 80 60 81 61 82 64 83 62 84 41 85 42 86
REMARK SMILES IDX 50 87 43 88 44 89 48 90 51 91 45 92 46 93 49 94 47 95
REMARK H PARENT 80 11 71 48 39 59
REMARK Flexibility Score: inf
ROOT
ATOM      1  C   UNL A   1      33.670  27.431  23.687  1.00  0.00     0.202 C 
ENDROOT
BRANCH   1   2
ATOM      2  C   UNL A   1      33.648  25.949  23.311  1.00  0.00     0.261 C 
BRANCH   2   3
ATOM      3  O   UNL A   1      34.352  25.194  24.308  1.00  0.00    -0.463 OA
BRANCH   3   4
ATOM      4  C   UNL A   1      34.754  23.955  23.937  1.00  0.00     0.318 C 
ATOM      5  O   UNL A   1      35.220  23.697  22.833  1.00  0.00    -0.251 OA
BRANCH   4   6
ATOM      6  C   UNL A   1      34.648  22.926  25.068  1.00  0.00     0.122 C 
ATOM      7  C   UNL A   1      34.337  23.492  26.464  1.00  0.00     0.086 C 
ATOM      8  C   UNL A   1      33.416  22.045  24.769  1.00  0.00     0.281 C 
ATOM      9  C   UNL A   1      33.448  22.427  27.093  1.00  0.00     0.263 C 
ATOM     10  N   UNL A   1      32.630  21.887  26.005  1.00  0.00    -0.330 N 
ATOM     11  H   UNL A   1      32.440  20.903  26.193  1.00  0.00     0.348 HD
BRANCH   6  12
ATOM     12  C   UNL A   1      36.009  22.182  25.176  1.00  0.00     0.021 C 
ATOM     13  C   UNL A   1      35.975  20.670  25.023  1.00  0.00     0.005 C 
ENDBRANCH   6  12
BRANCH  10  14
ATOM     14  C   UNL A   1      31.244  22.412  25.914  1.00  0.00     0.299 C 
BRANCH  14  15
ATOM     15  C   UNL A   1      31.113  23.765  25.241  1.00  0.00     0.006 A 
ATOM     16  C   UNL A   1      30.804  23.799  23.878  1.00  0.00     0.010 A 
ATOM     17  C   UNL A   1      31.031  24.946  25.993  1.00  0.00     0.010 A 
ATOM     18  C   UNL A   1      30.108  24.882  23.370  1.00  0.00     0.004 A 
ATOM     19  C   UNL A   1      30.374  26.057  25.468  1.00  0.00     0.004 A 
ATOM     20  C   UNL A   1      29.787  25.965  24.202  1.00  0.00    -0.048 A 
BRANCH  20  21
ATOM     21  C   UNL A   1      28.630  26.868  23.800  1.00  0.00     0.038 C 
BRANCH  21  22
ATOM     22  C   UNL A   1      28.878  28.264  22.789  1.00  0.00    -0.013 C 
ATOM     23  C   UNL A   1      27.233  28.863  23.113  1.00  0.00     0.008 C 
ATOM     24  C   UNL A   1      30.687  29.437  22.441  1.00  0.00     0.008 C 
ENDBRANCH  21  22
ENDBRANCH  20  21
ENDBRANCH  14  15
ENDBRANCH  10  14
ENDBRANCH   4   6
ENDBRANCH   3   4
ENDBRANCH   2   3
ENDBRANCH   1   2
BRANCH   1  25
ATOM     25  O   UNL A   1      33.602  27.724  25.081  1.00  0.00    -0.374 OA
BRANCH  25  26
ATOM     26  C   UNL A   1      32.858  28.881  25.466  1.00  0.00     0.202 C 
BRANCH  26  27
ATOM     27  C   UNL A   1      32.712  29.149  26.971  1.00  0.00     0.261 C 
BRANCH  27  28
ATOM     28  O   UNL A   1      33.965  29.097  27.674  1.00  0.00    -0.460 OA
BRANCH  28  29
ATOM     29  C   UNL A   1      34.507  30.290  28.007  1.00  0.00     0.338 C 
ATOM     30  O   UNL A   1      33.948  31.365  28.123  1.00  0.00    -0.246 OA
BRANCH  29  31
ATOM     31  C   UNL A   1      35.906  30.075  28.404  1.00  0.00     0.060 A 
ATOM     32  C   UNL A   1      37.188  30.158  27.127  1.00  0.00     0.016 A 
ATOM     33  C   UNL A   1      36.306  29.501  30.058  1.00  0.00     0.016 A 
ATOM     34  C   UNL A   1      38.843  29.558  27.458  1.00  0.00     0.010 A 
ATOM     35  C   UNL A   1      37.971  28.883  30.398  1.00  0.00     0.010 A 
ATOM     36  C   UNL A   1      39.264  28.960  29.107  1.00  0.00    -0.014 A 
BRANCH  36  37
ATOM     37  C   UNL A   1      40.649  28.540  29.425  1.00  0.00     0.031 A 
ATOM     38  C   UNL A   1      41.565  29.548  30.041  1.00  0.00     0.074 A 
ATOM     39  C   UNL A   1      41.093  27.341  28.993  1.00  0.00     0.049 A 
ATOM     40  N   UNL A   1      42.865  29.528  30.156  1.00  0.00    -0.248 NA
ATOM     41  C   UNL A   1      40.941  30.780  30.550  1.00  0.00     0.031 C 
ATOM     42  C   UNL A   1      40.295  26.317  28.309  1.00  0.00     0.029 A 
ATOM     43  N   UNL A   1      42.356  26.803  28.994  1.00  0.00    -0.354 N 
ATOM     44  C   UNL A   1      43.205  30.750  30.721  1.00  0.00     0.074 A 
ATOM     45  C   UNL A   1      41.995  31.529  30.824  1.00  0.00     0.031 C 
ATOM     46  C   UNL A   1      41.084  25.305  27.922  1.00  0.00     0.029 A 
ATOM     47  C   UNL A   1      42.447  25.606  28.319  1.00  0.00     0.049 A 
ATOM     48  H   UNL A   1      43.123  27.232  29.436  1.00  0.00     0.167 HD
ATOM     49  C   UNL A   1      44.412  31.158  31.175  1.00  0.00     0.037 A 
ATOM     50  C   UNL A   1      43.520  24.845  28.038  1.00  0.00     0.037 A 
ATOM     51  C   UNL A   1      45.583  30.330  31.108  1.00  0.00     0.049 A 
ATOM     52  C   UNL A   1      44.850  25.308  28.558  1.00  0.00     0.074 A 
ATOM     53  C   UNL A   1      46.848  30.575  31.606  1.00  0.00     0.029 A 
ATOM     54  N   UNL A   1      45.617  29.077  30.509  1.00  0.00    -0.354 N 
ATOM     55  N   UNL A   1      45.146  26.426  29.177  1.00  0.00    -0.248 NA
ATOM     56  C   UNL A   1      45.986  24.399  28.373  1.00  0.00     0.031 C 
ATOM     57  C   UNL A   1      47.656  29.482  31.277  1.00  0.00     0.029 A 
ATOM     58  C   UNL A   1      46.885  28.538  30.614  1.00  0.00     0.049 A 
ATOM     59  H   UNL A   1      44.851  28.637  30.074  1.00  0.00     0.167 HD
ATOM     60  C   UNL A   1      46.492  26.344  29.488  1.00  0.00     0.074 A 
ATOM     61  C   UNL A   1      46.950  25.055  29.003  1.00  0.00     0.031 C 
ATOM     62  C   UNL A   1      47.286  27.246  30.117  1.00  0.00     0.037 A 
BRANCH  49  63
ATOM     63  C   UNL A   1      44.493  32.519  31.806  1.00  0.00     0.064 A 
ATOM     64  C   UNL A   1      44.811  33.660  31.051  1.00  0.00     0.173 A 
ATOM     65  C   UNL A   1      44.266  32.690  33.179  1.00  0.00     0.173 A 
ATOM     66  F   UNL A   1      45.055  33.555  29.735  1.00  0.00    -0.203 F 
ATOM     67  C   UNL A   1      44.945  34.909  31.653  1.00  0.00     0.198 A 
ATOM     68  C   UNL A   1      44.363  33.948  33.771  1.00  0.00     0.198 A 
ATOM     69  F   UNL A   1      43.959  31.637  33.952  1.00  0.00    -0.203 F 
ATOM     70  F   UNL A   1      45.323  35.966  30.921  1.00  0.00    -0.200 F 
ATOM     71  C   UNL A   1      44.714  35.053  33.011  1.00  0.00     0.200 A 
ATOM     72  F   UNL A   1      44.130  34.088  35.084  1.00  0.00    -0.200 F 
ATOM     73  F   UNL A   1      44.843  36.255  33.590  1.00  0.00    -0.200 F 
ENDBRANCH  49  63
BRANCH  50  74
ATOM     74  C   UNL A   1      43.366  23.560  27.299  1.00  0.00     0.064 A 
ATOM     75  C   UNL A   1      43.807  23.441  25.973  1.00  0.00     0.173 A 
ATOM     76  C   UNL A   1      42.799  22.423  27.895  1.00  0.00     0.173 A 
ATOM     77  F   UNL A   1      44.351  24.498  25.353  1.00  0.00    -0.203 F 
ATOM     78  C   UNL A   1      43.662  22.249  25.265  1.00  0.00     0.198 A 
ATOM     79  C   UNL A   1      42.679  21.222  27.195  1.00  0.00     0.198 A 
ATOM     80  F   UNL A   1      42.374  22.472  29.166  1.00  0.00    -0.203 F 
ATOM     81  F   UNL A   1      44.054  22.182  23.985  1.00  0.00    -0.200 F 
ATOM     82  C   UNL A   1      43.102  21.139  25.877  1.00  0.00     0.200 A 
ATOM     83  F   UNL A   1      42.154  20.146  27.796  1.00  0.00    -0.200 F 
ATOM     84  F   UNL A   1      42.966  19.992  25.197  1.00  0.00    -0.200 F 
ENDBRANCH  50  74
BRANCH  62  85
ATOM     85  C   UNL A   1      48.713  26.849  30.325  1.00  0.00     0.064 A 
ATOM     86  C   UNL A   1      49.712  27.219  29.416  1.00  0.00     0.173 A 
ATOM     87  C   UNL A   1      49.087  26.134  31.472  1.00  0.00     0.173 A 
ATOM     88  F   UNL A   1      49.394  27.888  28.297  1.00  0.00    -0.203 F 
ATOM     89  C   UNL A   1      51.039  26.866  29.637  1.00  0.00     0.198 A 
ATOM     90  C   UNL A   1      50.419  25.813  31.707  1.00  0.00     0.198 A 
ATOM     91  F   UNL A   1      48.163  25.765  32.372  1.00  0.00    -0.203 F 
ATOM     92  F   UNL A   1      51.973  27.186  28.732  1.00  0.00    -0.200 F 
ATOM     93  C   UNL A   1      51.392  26.174  30.786  1.00  0.00     0.200 A 
ATOM     94  F   UNL A   1      50.761  25.160  32.825  1.00  0.00    -0.200 F 
ATOM     95  F   UNL A   1      52.673  25.847  31.003  1.00  0.00    -0.200 F 
ENDBRANCH  62  85
ENDBRANCH  36  37
ENDBRANCH  29  31
ENDBRANCH  28  29
ENDBRANCH  27  28
ENDBRANCH  26  27
ENDBRANCH  25  26
ENDBRANCH   1  25
TORSDOF 19
ENDMDL
MODEL 3
REMARK VINA RESULT:     -10.8      4.476      9.011
REMARK SMILES CC[C@]1(C(=O)OCCOCCOC(=O)c2ccc(-c3c4nc(c(-c5c(F)c(F)c(F)c(F)c5F)c5ccc([nH]5)c(-c5c(F)c(F)c(F)c(F)c5F)c5nc(c(-c6c(F)c(F)c(F)c(F)c6F)c6ccc3[nH]6)C=C5)C=C4)cc2)CC[N@@H+](Cc2ccc(CC(C)C)cc2)C1
REMARK SMILES IDX 8 1 7 2 6 3 4 4 5 5 3 6 78 7 92 8 79 9 80 10 2 12 1 13 81 14
REMARK SMILES IDX 82 15 83 16 91 17 84 18 90 19 85 20 86 21 87 22 88 23 89 24
REMARK SMILES IDX 9 25 10 26 11 27 12 28 13 29 14 30 15 31 16 32 77 33 17 34
REMARK SMILES IDX 76 35 18 36 19 37 20 38 70 39 21 40 75 41 69 42 71 43 22 44
REMARK SMILES IDX 74 45 68 46 67 47 23 49 55 50 35 51 54 52 36 53 39 54 53 55
REMARK SMILES IDX 72 56 37 57 38 58 52 60 73 61 40 62 24 63 25 64 33 65 26 66
REMARK SMILES IDX 27 67 31 68 34 69 28 70 29 71 32 72 30 73 56 74 57 75 65 76
REMARK SMILES IDX 58 77 59 78 63 79 66 80 60 81 61 82 64 83 62 84 41 85 42 86
REMARK SMILES IDX 50 87 43 88 44 89 48 90 51 91 45 92 46 93 49 94 47 95
REMARK H PARENT 80 11 71 48 39 59
REMARK Flexibility Score: inf
ROOT
ATOM      1  C   UNL A   1      38.147  23.202  25.750  1.00  0.00     0.202 C 
ENDROOT
BRANCH   1   2
ATOM      2  C   UNL A   1      36.671  22.857  25.951  1.00  0.00     0.261 C 
BRANCH   2   3
ATOM      3  O   UNL A   1      36.152  22.263  24.752  1.00  0.00    -0.463 OA
BRANCH   3   4
ATOM      4  C   UNL A   1      35.566  21.050  24.897  1.00  0.00     0.318 C 
ATOM      5  O   UNL A   1      36.195  20.001  24.977  1.00  0.00    -0.251 OA
BRANCH   4   6
ATOM      6  C   UNL A   1      34.043  21.133  25.036  1.00  0.00     0.122 C 
ATOM      7  C   UNL A   1      33.510  21.396  26.455  1.00  0.00     0.086 C 
ATOM      8  C   UNL A   1      33.580  22.382  24.256  1.00  0.00     0.281 C 
ATOM      9  C   UNL A   1      32.289  22.277  26.223  1.00  0.00     0.263 C 
ATOM     10  N   UNL A   1      32.617  23.132  25.081  1.00  0.00    -0.330 N 
ATOM     11  H   UNL A   1      31.763  23.326  24.559  1.00  0.00     0.348 HD
BRANCH   6  12
ATOM     12  C   UNL A   1      33.439  19.777  24.572  1.00  0.00     0.021 C 
ATOM     13  C   UNL A   1      32.415  19.832  23.451  1.00  0.00     0.005 C 
ENDBRANCH   6  12
BRANCH  10  14
ATOM     14  C   UNL A   1      33.047  24.515  25.409  1.00  0.00     0.299 C 
BRANCH  14  15
ATOM     15  C   UNL A   1      31.962  25.569  25.295  1.00  0.00     0.006 A 
ATOM     16  C   UNL A   1      32.216  26.840  25.820  1.00  0.00     0.010 A 
ATOM     17  C   UNL A   1      30.851  25.380  24.461  1.00  0.00     0.010 A 
ATOM     18  C   UNL A   1      31.595  27.939  25.256  1.00  0.00     0.004 A 
ATOM     19  C   UNL A   1      30.190  26.485  23.928  1.00  0.00     0.004 A 
ATOM     20  C   UNL A   1      30.663  27.768  24.221  1.00  0.00    -0.048 A 
BRANCH  20  21
ATOM     21  C   UNL A   1      30.387  28.942  23.293  1.00  0.00     0.038 C 
BRANCH  21  22
ATOM     22  C   UNL A   1      28.769  29.532  23.035  1.00  0.00    -0.013 C 
ATOM     23  C   UNL A   1      29.276  30.469  21.608  1.00  0.00     0.008 C 
ATOM     24  C   UNL A   1      26.849  28.550  23.380  1.00  0.00     0.008 C 
ENDBRANCH  21  22
ENDBRANCH  20  21
ENDBRANCH  14  15
ENDBRANCH  10  14
ENDBRANCH   4   6
ENDBRANCH   3   4
ENDBRANCH   2   3
ENDBRANCH   1   2
BRANCH   1  25
ATOM     25  O   UNL A   1      39.085  22.306  26.345  1.00  0.00    -0.374 OA
BRANCH  25  26
ATOM     26  C   UNL A   1      39.366  21.098  25.637  1.00  0.00     0.202 C 
BRANCH  26  27
ATOM     27  C   UNL A   1      40.138  20.008  26.396  1.00  0.00     0.261 C 
BRANCH  27  28
ATOM     28  O   UNL A   1      40.861  19.122  25.525  1.00  0.00    -0.460 OA
BRANCH  28  29
ATOM     29  C   UNL A   1      42.149  18.886  25.859  1.00  0.00     0.338 C 
ATOM     30  O   UNL A   1      42.802  17.876  25.675  1.00  0.00    -0.246 OA
BRANCH  29  31
ATOM     31  C   UNL A   1      42.745  20.142  26.340  1.00  0.00     0.060 A 
ATOM     32  C   UNL A   1      42.510  20.597  28.077  1.00  0.00     0.016 A 
ATOM     33  C   UNL A   1      43.472  21.308  25.184  1.00  0.00     0.016 A 
ATOM     34  C   UNL A   1      42.886  22.256  28.642  1.00  0.00     0.010 A 
ATOM     35  C   UNL A   1      43.845  22.986  25.742  1.00  0.00     0.010 A 
ATOM     36  C   UNL A   1      43.601  23.450  27.494  1.00  0.00    -0.014 A 
BRANCH  36  37
ATOM     37  C   UNL A   1      43.998  24.799  27.962  1.00  0.00     0.031 A 
ATOM     38  C   UNL A   1      42.917  25.796  28.231  1.00  0.00     0.074 A 
ATOM     39  C   UNL A   1      45.303  25.143  27.960  1.00  0.00     0.049 A 
ATOM     40  N   UNL A   1      42.998  27.091  28.374  1.00  0.00    -0.248 NA
ATOM     41  C   UNL A   1      41.541  25.275  28.291  1.00  0.00     0.031 C 
ATOM     42  C   UNL A   1      46.430  24.262  27.636  1.00  0.00     0.029 A 
ATOM     43  N   UNL A   1      45.906  26.359  28.166  1.00  0.00    -0.354 N 
ATOM     44  C   UNL A   1      41.688  27.530  28.511  1.00  0.00     0.074 A 
ATOM     45  C   UNL A   1      40.827  26.387  28.325  1.00  0.00     0.031 C 
ATOM     46  C   UNL A   1      47.571  24.965  27.622  1.00  0.00     0.029 A 
ATOM     47  C   UNL A   1      47.263  26.350  27.926  1.00  0.00     0.049 A 
ATOM     48  H   UNL A   1      45.416  27.160  28.458  1.00  0.00     0.167 HD
ATOM     49  C   UNL A   1      41.248  28.768  28.831  1.00  0.00     0.037 A 
ATOM     50  C   UNL A   1      48.154  27.357  27.935  1.00  0.00     0.037 A 
ATOM     51  C   UNL A   1      42.139  29.869  29.067  1.00  0.00     0.049 A 
ATOM     52  C   UNL A   1      47.650  28.722  28.302  1.00  0.00     0.074 A 
ATOM     53  C   UNL A   1      41.842  31.152  29.482  1.00  0.00     0.029 A 
ATOM     54  N   UNL A   1      43.519  29.800  28.916  1.00  0.00    -0.354 N 
ATOM     55  N   UNL A   1      46.416  29.111  28.524  1.00  0.00    -0.248 NA
ATOM     56  C   UNL A   1      48.654  29.781  28.452  1.00  0.00     0.031 C 
ATOM     57  C   UNL A   1      43.041  31.869  29.551  1.00  0.00     0.029 A 
ATOM     58  C   UNL A   1      44.089  31.021  29.220  1.00  0.00     0.049 A 
ATOM     59  H   UNL A   1      44.017  28.999  28.633  1.00  0.00     0.167 HD
ATOM     60  C   UNL A   1      46.494  30.448  28.873  1.00  0.00     0.074 A 
ATOM     61  C   UNL A   1      47.903  30.798  28.851  1.00  0.00     0.031 C 
ATOM     62  C   UNL A   1      45.500  31.314  29.186  1.00  0.00     0.037 A 
BRANCH  49  63
ATOM     63  C   UNL A   1      39.765  28.962  28.980  1.00  0.00     0.064 A 
ATOM     64  C   UNL A   1      38.964  29.354  27.894  1.00  0.00     0.173 A 
ATOM     65  C   UNL A   1      39.135  28.768  30.216  1.00  0.00     0.173 A 
ATOM     66  F   UNL A   1      39.516  29.571  26.689  1.00  0.00    -0.203 F 
ATOM     67  C   UNL A   1      37.601  29.591  28.052  1.00  0.00     0.198 A 
ATOM     68  C   UNL A   1      37.763  28.969  30.362  1.00  0.00     0.198 A 
ATOM     69  F   UNL A   1      39.848  28.393  31.290  1.00  0.00    -0.203 F 
ATOM     70  F   UNL A   1      36.877  30.038  27.017  1.00  0.00    -0.200 F 
ATOM     71  C   UNL A   1      37.000  29.391  29.284  1.00  0.00     0.200 A 
ATOM     72  F   UNL A   1      37.181  28.766  31.552  1.00  0.00    -0.200 F 
ATOM     73  F   UNL A   1      35.688  29.619  29.435  1.00  0.00    -0.200 F 
ENDBRANCH  49  63
BRANCH  50  74
ATOM     74  C   UNL A   1      49.595  27.097  27.659  1.00  0.00     0.064 A 
ATOM     75  C   UNL A   1      50.475  26.772  28.702  1.00  0.00     0.173 A 
ATOM     76  C   UNL A   1      50.123  27.144  26.360  1.00  0.00     0.173 A 
ATOM     77  F   UNL A   1      50.024  26.718  29.964  1.00  0.00    -0.203 F 
ATOM     78  C   UNL A   1      51.828  26.534  28.462  1.00  0.00     0.198 A 
ATOM     79  C   UNL A   1      51.472  26.878  26.117  1.00  0.00     0.198 A 
ATOM     80  F   UNL A   1      49.327  27.432  25.320  1.00  0.00    -0.203 F 
ATOM     81  F   UNL A   1      52.650  26.270  29.487  1.00  0.00    -0.200 F 
ATOM     82  C   UNL A   1      52.325  26.583  27.169  1.00  0.00     0.200 A 
ATOM     83  F   UNL A   1      51.946  26.909  24.864  1.00  0.00    -0.200 F 
ATOM     84  F   UNL A   1      53.625  26.351  26.939  1.00  0.00    -0.200 F 
ENDBRANCH  50  74
BRANCH  62  85
ATOM     85  C   UNL A   1      45.914  32.706  29.545  1.00  0.00     0.064 A 
ATOM     86  C   UNL A   1      45.997  33.714  28.575  1.00  0.00     0.173 A 
ATOM     87  C   UNL A   1      46.184  33.041  30.879  1.00  0.00     0.173 A 
ATOM     88  F   UNL A   1      45.764  33.431  27.285  1.00  0.00    -0.203 F 
ATOM     89  C   UNL A   1      46.357  35.010  28.928  1.00  0.00     0.198 A 
ATOM     90  C   UNL A   1      46.510  34.345  31.233  1.00  0.00     0.198 A 
ATOM     91  F   UNL A   1      46.111  32.108  31.841  1.00  0.00    -0.203 F 
ATOM     92  F   UNL A   1      46.478  35.949  27.980  1.00  0.00    -0.200 F 
ATOM     93  C   UNL A   1      46.603  35.326  30.257  1.00  0.00     0.200 A 
ATOM     94  F   UNL A   1      46.730  34.653  32.518  1.00  0.00    -0.200 F 
ATOM     95  F   UNL A   1      46.936  36.578  30.595  1.00  0.00    -0.200 F 
ENDBRANCH  62  85
ENDBRANCH  36  37
ENDBRANCH  29  31
ENDBRANCH  28  29
ENDBRANCH  27  28
ENDBRANCH  26  27
ENDBRANCH  25  26
ENDBRANCH   1  25
TORSDOF 19
ENDMDL
