MODEL 1
REMARK VINA RESULT:     -12.0      0.000      0.000
REMARK SMILES COc1ccccc1C(=O)N1[C@@H](C(=O)OCCOCCOC(=O)c2ccc(-c3c4nc(c(-c5c(F)c(F)c(F)c(F)c5F)c5ccc([nH]5)c(-c5c(F)c(F)c(F)c(F)c5F)c5nc(c(-c6c(F)c(F)c(F)c(F)c6F)c6ccc3[nH]6)C=C5)C=C4)cc2)COC12CC[NH+](Cc1ccccc1)CC2
REMARK SMILES IDX 17 1 16 2 15 3 13 4 14 5 12 6 11 7 89 8 87 9 88 10 90 11
REMARK SMILES IDX 101 12 91 13 100 14 92 15 9 17 10 18 8 19 3 20 4 21 5 22
REMARK SMILES IDX 7 23 6 24 2 25 1 26 93 27 94 28 95 29 99 30 96 31 98 32
REMARK SMILES IDX 97 33 18 34 19 35 20 36 21 37 22 38 23 39 24 40 25 41 86 42
REMARK SMILES IDX 26 43 85 44 27 45 28 46 29 47 79 48 30 49 84 50 78 51 80 52
REMARK SMILES IDX 31 53 83 54 77 55 76 56 32 58 64 59 44 60 63 61 45 62 48 63
REMARK SMILES IDX 62 64 81 65 46 66 47 67 61 69 82 70 49 71 33 72 34 73 42 74
REMARK SMILES IDX 35 75 36 76 40 77 43 78 37 79 38 80 41 81 39 82 65 83 66 84
REMARK SMILES IDX 74 85 67 86 68 87 72 88 75 89 69 90 70 91 73 92 71 93 50 94
REMARK SMILES IDX 51 95 59 96 52 97 53 98 57 99 60 100 54 101 55 102 58 103
REMARK SMILES IDX 56 104
REMARK H PARENT 92 16 80 57 48 68
REMARK Flexibility Score: inf
ROOT
ATOM      1  C   UNL A   1      35.137  21.069  25.724  1.00  0.00     0.202 C 
ENDROOT
BRANCH   1   2
ATOM      2  C   UNL A   1      34.493  22.060  26.692  1.00  0.00     0.261 C 
BRANCH   2   3
ATOM      3  O   UNL A   1      33.074  21.864  26.810  1.00  0.00    -0.462 OA
BRANCH   3   4
ATOM      4  C   UNL A   1      32.318  22.991  26.688  1.00  0.00     0.331 C 
ATOM      5  O   UNL A   1      31.599  23.434  27.578  1.00  0.00    -0.250 OA
BRANCH   4   6
ATOM      6  C   UNL A   1      32.338  23.581  25.283  1.00  0.00     0.224 C 
ATOM      7  N   UNL A   1      32.030  24.996  25.368  1.00  0.00    -0.293 N 
ATOM      8  C   UNL A   1      31.172  25.353  24.232  1.00  0.00     0.155 C 
ATOM      9  C   UNL A   1      31.367  23.033  24.262  1.00  0.00     0.200 C 
ATOM     10  O   UNL A   1      30.473  24.113  23.937  1.00  0.00    -0.352 OA
ATOM     11  C   UNL A   1      30.109  26.382  24.612  1.00  0.00     0.120 C 
ATOM     12  C   UNL A   1      31.962  25.760  22.971  1.00  0.00     0.120 C 
ATOM     13  C   UNL A   1      29.329  26.931  23.435  1.00  0.00     0.267 C 
ATOM     14  C   UNL A   1      31.100  26.430  21.894  1.00  0.00     0.267 C 
ATOM     15  N   UNL A   1      30.185  27.454  22.383  1.00  0.00    -0.331 N 
ATOM     16  H   UNL A   1      29.588  27.661  21.582  1.00  0.00     0.348 HD
BRANCH   7  17
ATOM     17  C   UNL A   1      33.067  25.808  25.804  1.00  0.00     0.260 C 
ATOM     18  O   UNL A   1      34.132  25.300  26.163  1.00  0.00    -0.269 OA
BRANCH  17  19
ATOM     19  C   UNL A   1      32.831  27.276  26.042  1.00  0.00     0.082 A 
ATOM     20  C   UNL A   1      33.401  28.359  25.357  1.00  0.00     0.131 A 
ATOM     21  C   UNL A   1      33.190  29.676  25.797  1.00  0.00     0.047 A 
ATOM     22  C   UNL A   1      32.344  29.943  26.867  1.00  0.00     0.004 A 
ATOM     23  C   UNL A   1      31.947  27.575  27.100  1.00  0.00     0.018 A 
ATOM     24  C   UNL A   1      31.702  28.892  27.505  1.00  0.00     0.001 A 
BRANCH  20  25
ATOM     25  O   UNL A   1      34.275  28.230  24.319  1.00  0.00    -0.496 OA
ATOM     26  C   UNL A   1      33.871  28.976  23.177  1.00  0.00     0.278 C 
ENDBRANCH  20  25
ENDBRANCH  17  19
ENDBRANCH   7  17
BRANCH  15  27
ATOM     27  C   UNL A   1      30.697  28.820  22.576  1.00  0.00     0.299 C 
BRANCH  27  28
ATOM     28  C   UNL A   1      29.727  29.985  22.571  1.00  0.00     0.006 A 
ATOM     29  C   UNL A   1      29.110  30.421  21.390  1.00  0.00     0.009 A 
ATOM     30  C   UNL A   1      29.444  30.675  23.762  1.00  0.00     0.009 A 
ATOM     31  C   UNL A   1      28.193  31.476  21.413  1.00  0.00     0.001 A 
ATOM     32  C   UNL A   1      28.500  31.703  23.789  1.00  0.00     0.001 A 
ATOM     33  C   UNL A   1      27.870  32.099  22.615  1.00  0.00     0.000 A 
ENDBRANCH  27  28
ENDBRANCH  15  27
ENDBRANCH   4   6
ENDBRANCH   3   4
ENDBRANCH   2   3
ENDBRANCH   1   2
BRANCH   1  34
ATOM     34  O   UNL A   1      35.232  21.491  24.370  1.00  0.00    -0.374 OA
BRANCH  34  35
ATOM     35  C   UNL A   1      35.485  22.871  24.110  1.00  0.00     0.202 C 
BRANCH  35  36
ATOM     36  C   UNL A   1      36.953  23.319  24.121  1.00  0.00     0.261 C 
BRANCH  36  37
ATOM     37  O   UNL A   1      37.334  23.985  25.345  1.00  0.00    -0.460 OA
BRANCH  37  38
ATOM     38  C   UNL A   1      38.283  23.343  26.064  1.00  0.00     0.338 C 
ATOM     39  O   UNL A   1      38.477  22.133  26.118  1.00  0.00    -0.246 OA
BRANCH  38  40
ATOM     40  C   UNL A   1      39.191  24.279  26.745  1.00  0.00     0.060 A 
ATOM     41  C   UNL A   1      39.031  24.461  28.125  1.00  0.00     0.016 A 
ATOM     42  C   UNL A   1      40.003  25.142  26.007  1.00  0.00     0.016 A 
ATOM     43  C   UNL A   1      39.622  25.556  28.757  1.00  0.00     0.010 A 
ATOM     44  C   UNL A   1      40.592  26.242  26.644  1.00  0.00     0.010 A 
ATOM     45  C   UNL A   1      40.359  26.485  28.009  1.00  0.00    -0.014 A 
BRANCH  45  46
ATOM     46  C   UNL A   1      40.730  27.787  28.621  1.00  0.00     0.031 A 
ATOM     47  C   UNL A   1      42.160  28.028  29.032  1.00  0.00     0.074 A 
ATOM     48  C   UNL A   1      39.821  28.765  28.777  1.00  0.00     0.049 A 
ATOM     49  N   UNL A   1      42.700  29.081  29.596  1.00  0.00    -0.248 NA
ATOM     50  C   UNL A   1      43.111  26.937  28.770  1.00  0.00     0.031 C 
ATOM     51  C   UNL A   1      38.416  28.678  28.389  1.00  0.00     0.029 A 
ATOM     52  N   UNL A   1      39.950  30.025  29.307  1.00  0.00    -0.354 N 
ATOM     53  C   UNL A   1      44.046  28.777  29.759  1.00  0.00     0.074 A 
ATOM     54  C   UNL A   1      44.238  27.432  29.259  1.00  0.00     0.031 C 
ATOM     55  C   UNL A   1      37.806  29.833  28.707  1.00  0.00     0.029 A 
ATOM     56  C   UNL A   1      38.772  30.729  29.341  1.00  0.00     0.049 A 
ATOM     57  H   UNL A   1      40.804  30.389  29.633  1.00  0.00     0.167 HD
ATOM     58  C   UNL A   1      45.035  29.551  30.267  1.00  0.00     0.037 A 
ATOM     59  C   UNL A   1      38.501  31.950  29.844  1.00  0.00     0.037 A 
ATOM     60  C   UNL A   1      44.853  30.891  30.762  1.00  0.00     0.049 A 
ATOM     61  C   UNL A   1      39.606  32.769  30.459  1.00  0.00     0.074 A 
ATOM     62  C   UNL A   1      45.802  31.755  31.282  1.00  0.00     0.029 A 
ATOM     63  N   UNL A   1      43.640  31.558  30.802  1.00  0.00    -0.354 N 
ATOM     64  N   UNL A   1      40.877  32.481  30.587  1.00  0.00    -0.248 NA
ATOM     65  C   UNL A   1      39.235  34.087  30.994  1.00  0.00     0.031 C 
ATOM     66  C   UNL A   1      45.153  32.932  31.674  1.00  0.00     0.029 A 
ATOM     67  C   UNL A   1      43.810  32.817  31.357  1.00  0.00     0.049 A 
ATOM     68  H   UNL A   1      42.782  31.192  30.484  1.00  0.00     0.167 HD
ATOM     69  C   UNL A   1      41.461  33.585  31.194  1.00  0.00     0.074 A 
ATOM     70  C   UNL A   1      40.407  34.557  31.396  1.00  0.00     0.031 C 
ATOM     71  C   UNL A   1      42.755  33.778  31.548  1.00  0.00     0.037 A 
BRANCH  58  72
ATOM     72  C   UNL A   1      46.412  28.959  30.329  1.00  0.00     0.064 A 
ATOM     73  C   UNL A   1      46.858  28.256  31.458  1.00  0.00     0.173 A 
ATOM     74  C   UNL A   1      47.279  29.059  29.231  1.00  0.00     0.173 A 
ATOM     75  F   UNL A   1      46.069  28.141  32.537  1.00  0.00    -0.203 F 
ATOM     76  C   UNL A   1      48.131  27.692  31.492  1.00  0.00     0.198 A 
ATOM     77  C   UNL A   1      48.542  28.475  29.260  1.00  0.00     0.198 A 
ATOM     78  F   UNL A   1      46.898  29.717  28.126  1.00  0.00    -0.203 F 
ATOM     79  F   UNL A   1      48.552  27.057  32.595  1.00  0.00    -0.200 F 
ATOM     80  C   UNL A   1      48.970  27.797  30.392  1.00  0.00     0.200 A 
ATOM     81  F   UNL A   1      49.347  28.568  28.193  1.00  0.00    -0.200 F 
ATOM     82  F   UNL A   1      50.193  27.250  30.426  1.00  0.00    -0.200 F 
ENDBRANCH  58  72
BRANCH  59  83
ATOM     83  C   UNL A   1      37.112  32.472  29.798  1.00  0.00     0.064 A 
ATOM     84  C   UNL A   1      36.646  33.192  28.690  1.00  0.00     0.173 A 
ATOM     85  C   UNL A   1      36.228  32.270  30.868  1.00  0.00     0.173 A 
ATOM     86  F   UNL A   1      37.464  33.432  27.655  1.00  0.00    -0.203 F 
ATOM     87  C   UNL A   1      35.349  33.702  28.660  1.00  0.00     0.198 A 
ATOM     88  C   UNL A   1      34.924  32.759  30.826  1.00  0.00     0.198 A 
ATOM     89  F   UNL A   1      36.629  31.590  31.951  1.00  0.00    -0.203 F 
ATOM     90  F   UNL A   1      34.939  34.421  27.606  1.00  0.00    -0.200 F 
ATOM     91  C   UNL A   1      34.488  33.481  29.724  1.00  0.00     0.200 A 
ATOM     92  F   UNL A   1      34.093  32.534  31.851  1.00  0.00    -0.200 F 
ATOM     93  F   UNL A   1      33.240  33.967  29.692  1.00  0.00    -0.200 F 
ENDBRANCH  59  83
BRANCH  71  94
ATOM     94  C   UNL A   1      43.115  35.099  32.164  1.00  0.00     0.064 A 
ATOM     95  C   UNL A   1      42.968  35.332  33.539  1.00  0.00     0.173 A 
ATOM     96  C   UNL A   1      43.651  36.128  31.375  1.00  0.00     0.173 A 
ATOM     97  F   UNL A   1      42.447  34.385  34.333  1.00  0.00    -0.203 F 
ATOM     98  C   UNL A   1      43.325  36.557  34.098  1.00  0.00     0.198 A 
ATOM     99  C   UNL A   1      44.030  37.342  31.941  1.00  0.00     0.198 A 
ATOM    100  F   UNL A   1      43.818  35.952  30.056  1.00  0.00    -0.203 F 
ATOM    101  F   UNL A   1      43.138  36.774  35.408  1.00  0.00    -0.200 F 
ATOM    102  C   UNL A   1      43.861  37.558  33.301  1.00  0.00     0.200 A 
ATOM    103  F   UNL A   1      44.557  38.304  31.172  1.00  0.00    -0.200 F 
ATOM    104  F   UNL A   1      44.209  38.733  33.842  1.00  0.00    -0.200 F 
ENDBRANCH  71  94
ENDBRANCH  45  46
ENDBRANCH  38  40
ENDBRANCH  37  38
ENDBRANCH  36  37
ENDBRANCH  35  36
ENDBRANCH  34  35
ENDBRANCH   1  34
TORSDOF 19
ENDMDL
MODEL 2
REMARK VINA RESULT:     -11.2      2.634      4.415
REMARK SMILES COc1ccccc1C(=O)N1[C@@H](C(=O)OCCOCCOC(=O)c2ccc(-c3c4nc(c(-c5c(F)c(F)c(F)c(F)c5F)c5ccc([nH]5)c(-c5c(F)c(F)c(F)c(F)c5F)c5nc(c(-c6c(F)c(F)c(F)c(F)c6F)c6ccc3[nH]6)C=C5)C=C4)cc2)COC12CC[NH+](Cc1ccccc1)CC2
REMARK SMILES IDX 17 1 16 2 15 3 13 4 14 5 12 6 11 7 89 8 87 9 88 10 90 11
REMARK SMILES IDX 101 12 91 13 100 14 92 15 9 17 10 18 8 19 3 20 4 21 5 22
REMARK SMILES IDX 7 23 6 24 2 25 1 26 93 27 94 28 95 29 99 30 96 31 98 32
REMARK SMILES IDX 97 33 18 34 19 35 20 36 21 37 22 38 23 39 24 40 25 41 86 42
REMARK SMILES IDX 26 43 85 44 27 45 28 46 29 47 79 48 30 49 84 50 78 51 80 52
REMARK SMILES IDX 31 53 83 54 77 55 76 56 32 58 64 59 44 60 63 61 45 62 48 63
REMARK SMILES IDX 62 64 81 65 46 66 47 67 61 69 82 70 49 71 33 72 34 73 42 74
REMARK SMILES IDX 35 75 36 76 40 77 43 78 37 79 38 80 41 81 39 82 65 83 66 84
REMARK SMILES IDX 74 85 67 86 68 87 72 88 75 89 69 90 70 91 73 92 71 93 50 94
REMARK SMILES IDX 51 95 59 96 52 97 53 98 57 99 60 100 54 101 55 102 58 103
REMARK SMILES IDX 56 104
REMARK H PARENT 92 16 80 57 48 68
REMARK Flexibility Score: inf
ROOT
ATOM      1  C   UNL A   1      36.161  21.162  25.298  1.00  0.00     0.202 C 
ENDROOT
BRANCH   1   2
ATOM      2  C   UNL A   1      36.817  22.174  24.361  1.00  0.00     0.261 C 
BRANCH   2   3
ATOM      3  O   UNL A   1      36.351  23.514  24.593  1.00  0.00    -0.462 OA
BRANCH   3   4
ATOM      4  C   UNL A   1      35.270  23.891  23.854  1.00  0.00     0.331 C 
ATOM      5  O   UNL A   1      35.170  23.711  22.644  1.00  0.00    -0.250 OA
BRANCH   4   6
ATOM      6  C   UNL A   1      34.244  24.690  24.650  1.00  0.00     0.224 C 
ATOM      7  N   UNL A   1      33.311  25.301  23.724  1.00  0.00    -0.293 N 
ATOM      8  C   UNL A   1      32.992  26.649  24.208  1.00  0.00     0.155 C 
ATOM      9  C   UNL A   1      34.737  25.829  25.513  1.00  0.00     0.200 C 
ATOM     10  O   UNL A   1      34.184  27.031  24.946  1.00  0.00    -0.352 OA
ATOM     11  C   UNL A   1      32.837  27.652  23.067  1.00  0.00     0.120 C 
ATOM     12  C   UNL A   1      31.800  26.683  25.188  1.00  0.00     0.120 C 
ATOM     13  C   UNL A   1      32.313  29.007  23.499  1.00  0.00     0.267 C 
ATOM     14  C   UNL A   1      31.260  28.093  25.453  1.00  0.00     0.267 C 
ATOM     15  N   UNL A   1      31.081  28.919  24.266  1.00  0.00    -0.331 N 
ATOM     16  H   UNL A   1      30.887  29.850  24.634  1.00  0.00     0.348 HD
BRANCH   7  17
ATOM     17  C   UNL A   1      32.349  24.451  23.196  1.00  0.00     0.260 C 
ATOM     18  O   UNL A   1      31.520  24.888  22.394  1.00  0.00    -0.269 OA
BRANCH  17  19
ATOM     19  C   UNL A   1      32.179  23.063  23.753  1.00  0.00     0.082 A 
ATOM     20  C   UNL A   1      31.735  22.701  25.034  1.00  0.00     0.131 A 
ATOM     21  C   UNL A   1      31.772  21.360  25.453  1.00  0.00     0.047 A 
ATOM     22  C   UNL A   1      32.168  20.352  24.581  1.00  0.00     0.004 A 
ATOM     23  C   UNL A   1      32.539  22.018  22.877  1.00  0.00     0.018 A 
ATOM     24  C   UNL A   1      32.529  20.679  23.282  1.00  0.00     0.001 A 
BRANCH  20  25
ATOM     25  O   UNL A   1      31.359  23.594  25.992  1.00  0.00    -0.496 OA
ATOM     26  C   UNL A   1      30.257  23.127  26.763  1.00  0.00     0.278 C 
ENDBRANCH  20  25
ENDBRANCH  17  19
ENDBRANCH   7  17
BRANCH  15  27
ATOM     27  C   UNL A   1      29.838  28.777  23.492  1.00  0.00     0.299 C 
BRANCH  27  28
ATOM     28  C   UNL A   1      29.189  30.010  22.895  1.00  0.00     0.006 A 
ATOM     29  C   UNL A   1      29.126  31.220  23.599  1.00  0.00     0.009 A 
ATOM     30  C   UNL A   1      28.609  29.956  21.616  1.00  0.00     0.009 A 
ATOM     31  C   UNL A   1      28.552  32.354  23.017  1.00  0.00     0.001 A 
ATOM     32  C   UNL A   1      28.071  31.098  21.022  1.00  0.00     0.001 A 
ATOM     33  C   UNL A   1      28.049  32.300  21.720  1.00  0.00     0.000 A 
ENDBRANCH  27  28
ENDBRANCH  15  27
ENDBRANCH   4   6
ENDBRANCH   3   4
ENDBRANCH   2   3
ENDBRANCH   1   2
BRANCH   1  34
ATOM     34  O   UNL A   1      36.770  19.878  25.356  1.00  0.00    -0.374 OA
BRANCH  34  35
ATOM     35  C   UNL A   1      37.988  19.677  24.638  1.00  0.00     0.202 C 
BRANCH  35  36
ATOM     36  C   UNL A   1      39.234  19.341  25.469  1.00  0.00     0.261 C 
BRANCH  36  37
ATOM     37  O   UNL A   1      40.125  20.465  25.637  1.00  0.00    -0.460 OA
BRANCH  37  38
ATOM     38  C   UNL A   1      40.791  20.486  26.815  1.00  0.00     0.338 C 
ATOM     39  O   UNL A   1      41.403  19.558  27.334  1.00  0.00    -0.246 OA
BRANCH  38  40
ATOM     40  C   UNL A   1      40.810  21.828  27.417  1.00  0.00     0.060 A 
ATOM     41  C   UNL A   1      40.088  22.844  26.777  1.00  0.00     0.016 A 
ATOM     42  C   UNL A   1      41.717  22.136  28.432  1.00  0.00     0.016 A 
ATOM     43  C   UNL A   1      40.329  24.180  27.099  1.00  0.00     0.010 A 
ATOM     44  C   UNL A   1      41.960  23.479  28.751  1.00  0.00     0.010 A 
ATOM     45  C   UNL A   1      41.308  24.508  28.048  1.00  0.00    -0.014 A 
BRANCH  45  46
ATOM     46  C   UNL A   1      41.765  25.917  28.170  1.00  0.00     0.031 A 
ATOM     47  C   UNL A   1      43.108  26.308  27.608  1.00  0.00     0.074 A 
ATOM     48  C   UNL A   1      40.985  26.852  28.738  1.00  0.00     0.049 A 
ATOM     49  N   UNL A   1      43.708  27.473  27.617  1.00  0.00    -0.248 NA
ATOM     50  C   UNL A   1      43.875  25.244  26.942  1.00  0.00     0.031 C 
ATOM     51  C   UNL A   1      39.653  26.618  29.288  1.00  0.00     0.029 A 
ATOM     52  N   UNL A   1      41.207  28.192  28.946  1.00  0.00    -0.354 N 
ATOM     53  C   UNL A   1      44.920  27.280  26.965  1.00  0.00     0.074 A 
ATOM     54  C   UNL A   1      44.984  25.882  26.597  1.00  0.00     0.031 C 
ATOM     55  C   UNL A   1      39.178  27.774  29.784  1.00  0.00     0.029 A 
ATOM     56  C   UNL A   1      40.184  28.821  29.608  1.00  0.00     0.049 A 
ATOM     57  H   UNL A   1      42.023  28.655  28.650  1.00  0.00     0.167 HD
ATOM     58  C   UNL A   1      45.888  28.188  26.689  1.00  0.00     0.037 A 
ATOM     59  C   UNL A   1      40.078  30.094  30.040  1.00  0.00     0.037 A 
ATOM     60  C   UNL A   1      45.831  29.580  27.048  1.00  0.00     0.049 A 
ATOM     61  C   UNL A   1      41.193  31.071  29.773  1.00  0.00     0.074 A 
ATOM     62  C   UNL A   1      46.760  30.576  26.795  1.00  0.00     0.029 A 
ATOM     63  N   UNL A   1      44.788  30.174  27.740  1.00  0.00    -0.354 N 
ATOM     64  N   UNL A   1      42.324  30.883  29.138  1.00  0.00    -0.248 NA
ATOM     65  C   UNL A   1      41.012  32.439  30.280  1.00  0.00     0.031 C 
ATOM     66  C   UNL A   1      46.295  31.765  27.371  1.00  0.00     0.029 A 
ATOM     67  C   UNL A   1      45.057  31.518  27.943  1.00  0.00     0.049 A 
ATOM     68  H   UNL A   1      43.974  29.709  28.045  1.00  0.00     0.167 HD
ATOM     69  C   UNL A   1      42.977  32.109  29.148  1.00  0.00     0.074 A 
ATOM     70  C   UNL A   1      42.110  33.039  29.841  1.00  0.00     0.031 C 
ATOM     71  C   UNL A   1      44.185  32.435  28.628  1.00  0.00     0.037 A 
BRANCH  58  72
ATOM     72  C   UNL A   1      47.110  27.696  25.971  1.00  0.00     0.064 A 
ATOM     73  C   UNL A   1      48.223  27.205  26.668  1.00  0.00     0.173 A 
ATOM     74  C   UNL A   1      47.150  27.676  24.568  1.00  0.00     0.173 A 
ATOM     75  F   UNL A   1      48.237  27.212  28.009  1.00  0.00    -0.203 F 
ATOM     76  C   UNL A   1      49.342  26.731  25.987  1.00  0.00     0.198 A 
ATOM     77  C   UNL A   1      48.261  27.180  23.891  1.00  0.00     0.198 A 
ATOM     78  F   UNL A   1      46.109  28.129  23.855  1.00  0.00    -0.203 F 
ATOM     79  F   UNL A   1      50.410  26.301  26.673  1.00  0.00    -0.200 F 
ATOM     80  C   UNL A   1      49.358  26.714  24.599  1.00  0.00     0.200 A 
ATOM     81  F   UNL A   1      48.270  27.154  22.551  1.00  0.00    -0.200 F 
ATOM     82  F   UNL A   1      50.433  26.252  23.946  1.00  0.00    -0.200 F 
ENDBRANCH  58  72
BRANCH  59  83
ATOM     83  C   UNL A   1      38.866  30.519  30.786  1.00  0.00     0.064 A 
ATOM     84  C   UNL A   1      38.804  30.419  32.182  1.00  0.00     0.173 A 
ATOM     85  C   UNL A   1      37.743  31.021  30.113  1.00  0.00     0.173 A 
ATOM     86  F   UNL A   1      39.844  29.919  32.865  1.00  0.00    -0.203 F 
ATOM     87  C   UNL A   1      37.656  30.795  32.877  1.00  0.00     0.198 A 
ATOM     88  C   UNL A   1      36.606  31.421  30.812  1.00  0.00     0.198 A 
ATOM     89  F   UNL A   1      37.754  31.133  28.778  1.00  0.00    -0.203 F 
ATOM     90  F   UNL A   1      37.606  30.654  34.209  1.00  0.00    -0.200 F 
ATOM     91  C   UNL A   1      36.561  31.301  32.193  1.00  0.00     0.200 A 
ATOM     92  F   UNL A   1      35.554  31.918  30.148  1.00  0.00    -0.200 F 
ATOM     93  F   UNL A   1      35.460  31.667  32.862  1.00  0.00    -0.200 F 
ENDBRANCH  59  83
BRANCH  71  94
ATOM     94  C   UNL A   1      44.633  33.862  28.758  1.00  0.00     0.064 A 
ATOM     95  C   UNL A   1      44.292  34.829  27.800  1.00  0.00     0.173 A 
ATOM     96  C   UNL A   1      45.377  34.275  29.874  1.00  0.00     0.173 A 
ATOM     97  F   UNL A   1      43.595  34.480  26.708  1.00  0.00    -0.203 F 
ATOM     98  C   UNL A   1      44.699  36.152  27.945  1.00  0.00     0.198 A 
ATOM     99  C   UNL A   1      45.761  35.604  30.027  1.00  0.00     0.198 A 
ATOM    100  F   UNL A   1      45.722  33.390  30.821  1.00  0.00    -0.203 F 
ATOM    101  F   UNL A   1      44.398  37.052  26.997  1.00  0.00    -0.200 F 
ATOM    102  C   UNL A   1      45.427  36.541  29.061  1.00  0.00     0.200 A 
ATOM    103  F   UNL A   1      46.454  35.979  31.111  1.00  0.00    -0.200 F 
ATOM    104  F   UNL A   1      45.813  37.816  29.200  1.00  0.00    -0.200 F 
ENDBRANCH  71  94
ENDBRANCH  45  46
ENDBRANCH  38  40
ENDBRANCH  37  38
ENDBRANCH  36  37
ENDBRANCH  35  36
ENDBRANCH  34  35
ENDBRANCH   1  34
TORSDOF 19
ENDMDL
MODEL 3
REMARK VINA RESULT:     -11.1      2.656      7.867
REMARK SMILES COc1ccccc1C(=O)N1[C@@H](C(=O)OCCOCCOC(=O)c2ccc(-c3c4nc(c(-c5c(F)c(F)c(F)c(F)c5F)c5ccc([nH]5)c(-c5c(F)c(F)c(F)c(F)c5F)c5nc(c(-c6c(F)c(F)c(F)c(F)c6F)c6ccc3[nH]6)C=C5)C=C4)cc2)COC12CC[NH+](Cc1ccccc1)CC2
REMARK SMILES IDX 17 1 16 2 15 3 13 4 14 5 12 6 11 7 89 8 87 9 88 10 90 11
REMARK SMILES IDX 101 12 91 13 100 14 92 15 9 17 10 18 8 19 3 20 4 21 5 22
REMARK SMILES IDX 7 23 6 24 2 25 1 26 93 27 94 28 95 29 99 30 96 31 98 32
REMARK SMILES IDX 97 33 18 34 19 35 20 36 21 37 22 38 23 39 24 40 25 41 86 42
REMARK SMILES IDX 26 43 85 44 27 45 28 46 29 47 79 48 30 49 84 50 78 51 80 52
REMARK SMILES IDX 31 53 83 54 77 55 76 56 32 58 64 59 44 60 63 61 45 62 48 63
REMARK SMILES IDX 62 64 81 65 46 66 47 67 61 69 82 70 49 71 33 72 34 73 42 74
REMARK SMILES IDX 35 75 36 76 40 77 43 78 37 79 38 80 41 81 39 82 65 83 66 84
REMARK SMILES IDX 74 85 67 86 68 87 72 88 75 89 69 90 70 91 73 92 71 93 50 94
REMARK SMILES IDX 51 95 59 96 52 97 53 98 57 99 60 100 54 101 55 102 58 103
REMARK SMILES IDX 56 104
REMARK H PARENT 92 16 80 57 48 68
REMARK Flexibility Score: inf
ROOT
ATOM      1  C   UNL A   1      36.783  19.799  25.051  1.00  0.00     0.202 C 
ENDROOT
BRANCH   1   2
ATOM      2  C   UNL A   1      35.385  20.405  24.947  1.00  0.00     0.261 C 
BRANCH   2   3
ATOM      3  O   UNL A   1      35.381  21.646  24.223  1.00  0.00    -0.462 OA
BRANCH   3   4
ATOM      4  C   UNL A   1      34.225  22.363  24.301  1.00  0.00     0.331 C 
ATOM      5  O   UNL A   1      33.230  21.995  24.918  1.00  0.00    -0.250 OA
BRANCH   4   6
ATOM      6  C   UNL A   1      34.231  23.615  23.431  1.00  0.00     0.224 C 
ATOM      7  N   UNL A   1      33.404  24.625  24.062  1.00  0.00    -0.293 N 
ATOM      8  C   UNL A   1      32.654  25.331  23.017  1.00  0.00     0.155 C 
ATOM      9  C   UNL A   1      33.701  23.506  22.019  1.00  0.00     0.200 C 
ATOM     10  O   UNL A   1      32.526  24.335  21.966  1.00  0.00    -0.352 OA
ATOM     11  C   UNL A   1      31.238  25.689  23.463  1.00  0.00     0.120 C 
ATOM     12  C   UNL A   1      33.411  26.541  22.430  1.00  0.00     0.120 C 
ATOM     13  C   UNL A   1      30.494  26.590  22.499  1.00  0.00     0.267 C 
ATOM     14  C   UNL A   1      32.532  27.463  21.579  1.00  0.00     0.267 C 
ATOM     15  N   UNL A   1      31.237  27.793  22.160  1.00  0.00    -0.331 N 
ATOM     16  H   UNL A   1      30.733  28.257  21.404  1.00  0.00     0.348 HD
BRANCH   7  17
ATOM     17  C   UNL A   1      33.981  25.282  25.140  1.00  0.00     0.260 C 
ATOM     18  O   UNL A   1      35.050  24.875  25.603  1.00  0.00    -0.269 OA
BRANCH  17  19
ATOM     19  C   UNL A   1      33.213  26.347  25.877  1.00  0.00     0.082 A 
ATOM     20  C   UNL A   1      32.038  26.193  26.627  1.00  0.00     0.131 A 
ATOM     21  C   UNL A   1      31.359  27.314  27.133  1.00  0.00     0.047 A 
ATOM     22  C   UNL A   1      31.881  28.593  26.976  1.00  0.00     0.004 A 
ATOM     23  C   UNL A   1      33.741  27.650  25.765  1.00  0.00     0.018 A 
ATOM     24  C   UNL A   1      33.088  28.760  26.312  1.00  0.00     0.001 A 
BRANCH  20  25
ATOM     25  O   UNL A   1      31.407  25.001  26.820  1.00  0.00    -0.496 OA
ATOM     26  C   UNL A   1      30.052  25.031  26.383  1.00  0.00     0.278 C 
ENDBRANCH  20  25
ENDBRANCH  17  19
ENDBRANCH   7  17
BRANCH  15  27
ATOM     27  C   UNL A   1      31.162  28.901  23.125  1.00  0.00     0.299 C 
BRANCH  27  28
ATOM     28  C   UNL A   1      29.944  29.805  23.126  1.00  0.00     0.006 A 
ATOM     29  C   UNL A   1      28.870  29.590  22.252  1.00  0.00     0.009 A 
ATOM     30  C   UNL A   1      29.880  30.905  23.999  1.00  0.00     0.009 A 
ATOM     31  C   UNL A   1      27.742  30.415  22.292  1.00  0.00     0.001 A 
ATOM     32  C   UNL A   1      28.739  31.704  24.064  1.00  0.00     0.001 A 
ATOM     33  C   UNL A   1      27.666  31.455  23.215  1.00  0.00     0.000 A 
ENDBRANCH  27  28
ENDBRANCH  15  27
ENDBRANCH   4   6
ENDBRANCH   3   4
ENDBRANCH   2   3
ENDBRANCH   1   2
BRANCH   1  34
ATOM     34  O   UNL A   1      37.862  20.651  24.689  1.00  0.00    -0.374 OA
BRANCH  34  35
ATOM     35  C   UNL A   1      38.261  21.663  25.614  1.00  0.00     0.202 C 
BRANCH  35  36
ATOM     36  C   UNL A   1      39.702  21.592  26.138  1.00  0.00     0.261 C 
BRANCH  36  37
ATOM     37  O   UNL A   1      40.094  20.263  26.544  1.00  0.00    -0.460 OA
BRANCH  37  38
ATOM     38  C   UNL A   1      41.366  19.928  26.226  1.00  0.00     0.338 C 
ATOM     39  O   UNL A   1      41.739  18.925  25.627  1.00  0.00    -0.246 OA
BRANCH  38  40
ATOM     40  C   UNL A   1      42.324  20.983  26.592  1.00  0.00     0.060 A 
ATOM     41  C   UNL A   1      42.459  21.305  27.948  1.00  0.00     0.016 A 
ATOM     42  C   UNL A   1      42.881  21.806  25.610  1.00  0.00     0.016 A 
ATOM     43  C   UNL A   1      43.085  22.494  28.324  1.00  0.00     0.010 A 
ATOM     44  C   UNL A   1      43.507  23.000  25.991  1.00  0.00     0.010 A 
ATOM     45  C   UNL A   1      43.563  23.377  27.344  1.00  0.00    -0.014 A 
BRANCH  45  46
ATOM     46  C   UNL A   1      43.955  24.757  27.731  1.00  0.00     0.031 A 
ATOM     47  C   UNL A   1      42.882  25.767  28.046  1.00  0.00     0.074 A 
ATOM     48  C   UNL A   1      45.248  25.105  27.843  1.00  0.00     0.049 A 
ATOM     49  N   UNL A   1      42.998  27.027  28.390  1.00  0.00    -0.248 NA
ATOM     50  C   UNL A   1      41.491  25.294  27.967  1.00  0.00     0.031 C 
ATOM     51  C   UNL A   1      46.383  24.218  27.603  1.00  0.00     0.029 A 
ATOM     52  N   UNL A   1      45.821  26.305  28.185  1.00  0.00    -0.354 N 
ATOM     53  C   UNL A   1      41.700  27.494  28.562  1.00  0.00     0.074 A 
ATOM     54  C   UNL A   1      40.812  26.393  28.261  1.00  0.00     0.031 C 
ATOM     55  C   UNL A   1      47.521  24.908  27.794  1.00  0.00     0.029 A 
ATOM     56  C   UNL A   1      47.193  26.289  28.144  1.00  0.00     0.049 A 
ATOM     57  H   UNL A   1      45.299  27.101  28.435  1.00  0.00     0.167 HD
ATOM     58  C   UNL A   1      41.286  28.726  28.948  1.00  0.00     0.037 A 
ATOM     59  C   UNL A   1      48.083  27.282  28.347  1.00  0.00     0.037 A 
ATOM     60  C   UNL A   1      42.164  29.825  29.254  1.00  0.00     0.049 A 
ATOM     61  C   UNL A   1      47.596  28.659  28.718  1.00  0.00     0.074 A 
ATOM     62  C   UNL A   1      41.833  31.105  29.668  1.00  0.00     0.029 A 
ATOM     63  N   UNL A   1      43.546  29.776  29.176  1.00  0.00    -0.354 N 
ATOM     64  N   UNL A   1      46.370  29.083  28.899  1.00  0.00    -0.248 NA
ATOM     65  C   UNL A   1      48.622  29.693  28.917  1.00  0.00     0.031 C 
ATOM     66  C   UNL A   1      43.016  31.842  29.801  1.00  0.00     0.029 A 
ATOM     67  C   UNL A   1      44.084  31.007  29.514  1.00  0.00     0.049 A 
ATOM     68  H   UNL A   1      44.070  28.982  28.919  1.00  0.00     0.167 HD
ATOM     69  C   UNL A   1      46.476  30.422  29.254  1.00  0.00     0.074 A 
ATOM     70  C   UNL A   1      47.889  30.737  29.277  1.00  0.00     0.031 C 
ATOM     71  C   UNL A   1      45.492  31.308  29.539  1.00  0.00     0.037 A 
BRANCH  58  72
ATOM     72  C   UNL A   1      39.808  28.957  29.047  1.00  0.00     0.064 A 
ATOM     73  C   UNL A   1      39.046  29.324  27.928  1.00  0.00     0.173 A 
ATOM     74  C   UNL A   1      39.138  28.768  30.266  1.00  0.00     0.173 A 
ATOM     75  F   UNL A   1      39.642  29.527  26.743  1.00  0.00    -0.203 F 
ATOM     76  C   UNL A   1      37.670  29.514  28.030  1.00  0.00     0.198 A 
ATOM     77  C   UNL A   1      37.760  28.936  30.359  1.00  0.00     0.198 A 
ATOM     78  F   UNL A   1      39.821  28.411  31.364  1.00  0.00    -0.203 F 
ATOM     79  F   UNL A   1      36.967  29.902  26.957  1.00  0.00    -0.200 F 
ATOM     80  C   UNL A   1      37.027  29.315  29.244  1.00  0.00     0.200 A 
ATOM     81  F   UNL A   1      37.139  28.733  31.529  1.00  0.00    -0.200 F 
ATOM     82  F   UNL A   1      35.703  29.493  29.338  1.00  0.00    -0.200 F 
ENDBRANCH  58  72
BRANCH  59  83
ATOM     83  C   UNL A   1      49.534  27.011  28.193  1.00  0.00     0.064 A 
ATOM     84  C   UNL A   1      50.161  27.115  26.945  1.00  0.00     0.173 A 
ATOM     85  C   UNL A   1      50.319  26.631  29.292  1.00  0.00     0.173 A 
ATOM     86  F   UNL A   1      49.445  27.450  25.861  1.00  0.00    -0.203 F 
ATOM     87  C   UNL A   1      51.519  26.836  26.799  1.00  0.00     0.198 A 
ATOM     88  C   UNL A   1      51.681  26.377  29.148  1.00  0.00     0.198 A 
ATOM     89  F   UNL A   1      49.763  26.516  30.506  1.00  0.00    -0.203 F 
ATOM     90  F   UNL A   1      52.087  26.904  25.587  1.00  0.00    -0.200 F 
ATOM     91  C   UNL A   1      52.279  26.473  27.901  1.00  0.00     0.200 A 
ATOM     92  F   UNL A   1      52.413  26.037  30.218  1.00  0.00    -0.200 F 
ATOM     93  F   UNL A   1      53.584  26.210  27.760  1.00  0.00    -0.200 F 
ENDBRANCH  59  83
BRANCH  71  94
ATOM     94  C   UNL A   1      45.903  32.699  29.930  1.00  0.00     0.064 A 
ATOM     95  C   UNL A   1      46.036  33.720  28.978  1.00  0.00     0.173 A 
ATOM     96  C   UNL A   1      46.128  33.020  31.277  1.00  0.00     0.173 A 
ATOM     97  F   UNL A   1      45.846  33.459  27.676  1.00  0.00    -0.203 F 
ATOM     98  C   UNL A   1      46.399  35.009  29.360  1.00  0.00     0.198 A 
ATOM     99  C   UNL A   1      46.468  34.316  31.657  1.00  0.00     0.198 A 
ATOM    100  F   UNL A   1      46.008  32.080  32.226  1.00  0.00    -0.203 F 
ATOM    101  F   UNL A   1      46.561  35.961  28.430  1.00  0.00    -0.200 F 
ATOM    102  C   UNL A   1      46.609  35.308  30.698  1.00  0.00     0.200 A 
ATOM    103  F   UNL A   1      46.659  34.605  32.952  1.00  0.00    -0.200 F 
ATOM    104  F   UNL A   1      46.953  36.550  31.064  1.00  0.00    -0.200 F 
ENDBRANCH  71  94
ENDBRANCH  45  46
ENDBRANCH  38  40
ENDBRANCH  37  38
ENDBRANCH  36  37
ENDBRANCH  35  36
ENDBRANCH  34  35
ENDBRANCH   1  34
TORSDOF 19
ENDMDL
