MODEL 1
REMARK VINA RESULT:     -11.9      0.000      0.000
REMARK SMILES C[C@@H]1CC[C@H](C)[N@H+]1Cc1cc2c(cc1Cl)C=C(C(=O)OCCOCCOC(=O)c1ccc(-c3c4nc(c(-c5c(F)c(F)c(F)c(F)c5F)c5ccc([nH]5)c(-c5c(F)c(F)c(F)c(F)c5F)c5nc(c(-c6c(F)c(F)c(F)c(F)c6F)c6ccc3[nH]6)C=C5)C=C4)cc1)[C@@H](C(F)(F)F)O2
REMARK SMILES IDX 23 1 22 2 21 3 20 4 18 5 19 6 17 7 9 8 10 9 14 10 11 11
REMARK SMILES IDX 13 12 15 13 12 14 97 15 16 16 92 17 8 18 7 19 6 20 5 21 4 22
REMARK SMILES IDX 3 23 2 24 1 26 93 27 94 28 95 29 96 30 24 31 25 32 26 33
REMARK SMILES IDX 27 34 28 35 29 36 30 37 91 38 31 39 90 40 32 41 33 42 34 43
REMARK SMILES IDX 84 44 35 45 89 46 83 47 85 48 36 49 88 50 82 51 81 52 37 54
REMARK SMILES IDX 69 55 49 56 68 57 50 58 53 59 67 60 86 61 51 62 52 63 66 65
REMARK SMILES IDX 87 66 54 67 38 68 39 69 47 70 40 71 41 72 45 73 48 74 42 75
REMARK SMILES IDX 43 76 46 77 44 78 70 79 71 80 79 81 72 82 73 83 77 84 80 85
REMARK SMILES IDX 74 86 75 87 78 88 76 89 55 90 56 91 64 92 57 93 58 94 62 95
REMARK SMILES IDX 65 96 59 97 60 98 63 99 61 100
REMARK H PARENT 7 25 85 53 53 64
REMARK Flexibility Score: inf
ROOT
ATOM      1  O   UNL A   1      37.409  21.313  24.473  1.00  0.00    -0.374 OA
ENDROOT
BRANCH   1   2
ATOM      2  C   UNL A   1      36.047  21.453  24.864  1.00  0.00     0.202 C 
BRANCH   2   3
ATOM      3  C   UNL A   1      35.179  20.192  24.909  1.00  0.00     0.261 C 
BRANCH   3   4
ATOM      4  O   UNL A   1      33.907  20.390  24.272  1.00  0.00    -0.460 OA
BRANCH   4   5
ATOM      5  C   UNL A   1      32.861  20.272  25.121  1.00  0.00     0.338 C 
ATOM      6  O   UNL A   1      32.540  19.278  25.753  1.00  0.00    -0.246 OA
BRANCH   5   7
ATOM      7  C   UNL A   1      32.204  21.574  25.313  1.00  0.00     0.087 C 
ATOM      8  C   UNL A   1      31.165  26.378  24.381  1.00  0.00     0.029 A 
ATOM      9  C   UNL A   1      31.053  25.568  25.541  1.00  0.00     0.058 A 
ATOM     10  C   UNL A   1      31.565  25.750  23.190  1.00  0.00     0.050 A 
ATOM     11  C   UNL A   1      31.318  24.193  25.490  1.00  0.00     0.128 A 
ATOM     12  C   UNL A   1      31.656  24.364  23.108  1.00  0.00     0.033 A 
ATOM     13  Cl  UNL A   1      32.189  26.595  21.813  1.00  0.00    -0.084 Cl
ATOM     14  C   UNL A   1      31.560  23.592  24.259  1.00  0.00     0.019 A 
ATOM     15  O   UNL A   1      31.350  23.492  26.668  1.00  0.00    -0.475 OA
ATOM     16  C   UNL A   1      31.889  22.190  24.170  1.00  0.00     0.027 C 
ATOM     17  C   UNL A   1      32.043  22.196  26.670  1.00  0.00     0.316 C 
BRANCH   8  18
ATOM     18  C   UNL A   1      30.917  27.876  24.489  1.00  0.00     0.301 C 
BRANCH  18  19
ATOM     19  N   UNL A   1      31.987  28.716  25.053  1.00  0.00    -0.327 N 
ATOM     20  C   UNL A   1      34.045  28.794  23.684  1.00  0.00     0.075 C 
ATOM     21  C   UNL A   1      33.359  28.207  24.912  1.00  0.00     0.181 C 
ATOM     22  C   UNL A   1      34.077  28.627  26.196  1.00  0.00     0.071 C 
ATOM     23  C   UNL A   1      32.963  28.647  27.218  1.00  0.00     0.071 C 
ATOM     24  C   UNL A   1      31.783  29.190  26.426  1.00  0.00     0.181 C 
ATOM     25  H   UNL A   1      31.894  29.521  24.433  1.00  0.00     0.348 HD
ATOM     26  C   UNL A   1      31.705  30.716  26.453  1.00  0.00     0.075 C 
ENDBRANCH  18  19
ENDBRANCH   8  18
BRANCH  17  27
ATOM     27  C   UNL A   1      33.386  22.305  27.407  1.00  0.00     0.430 C 
ATOM     28  F   UNL A   1      33.980  21.095  27.539  1.00  0.00    -0.167 F 
ATOM     29  F   UNL A   1      34.257  23.088  26.721  1.00  0.00    -0.167 F 
ATOM     30  F   UNL A   1      33.254  22.834  28.642  1.00  0.00    -0.167 F 
ENDBRANCH  17  27
ENDBRANCH   5   7
ENDBRANCH   4   5
ENDBRANCH   3   4
ENDBRANCH   2   3
ENDBRANCH   1   2
BRANCH   1  31
ATOM     31  C   UNL A   1      38.388  21.032  25.473  1.00  0.00     0.202 C 
BRANCH  31  32
ATOM     32  C   UNL A   1      39.192  19.730  25.377  1.00  0.00     0.261 C 
BRANCH  32  33
ATOM     33  O   UNL A   1      40.108  19.560  26.472  1.00  0.00    -0.460 OA
BRANCH  33  34
ATOM     34  C   UNL A   1      41.422  19.605  26.139  1.00  0.00     0.338 C 
ATOM     35  O   UNL A   1      42.051  18.796  25.476  1.00  0.00    -0.246 OA
BRANCH  34  36
ATOM     36  C   UNL A   1      41.957  20.921  26.527  1.00  0.00     0.060 A 
ATOM     37  C   UNL A   1      42.290  21.867  25.559  1.00  0.00     0.016 A 
ATOM     38  C   UNL A   1      42.106  21.208  27.891  1.00  0.00     0.016 A 
ATOM     39  C   UNL A   1      42.772  23.112  25.963  1.00  0.00     0.010 A 
ATOM     40  C   UNL A   1      42.594  22.450  28.292  1.00  0.00     0.010 A 
ATOM     41  C   UNL A   1      42.921  23.416  27.330  1.00  0.00    -0.014 A 
BRANCH  41  42
ATOM     42  C   UNL A   1      43.316  24.781  27.746  1.00  0.00     0.031 A 
ATOM     43  C   UNL A   1      44.754  25.199  27.794  1.00  0.00     0.074 A 
ATOM     44  C   UNL A   1      42.345  25.652  28.083  1.00  0.00     0.049 A 
ATOM     45  N   UNL A   1      45.259  26.375  28.066  1.00  0.00    -0.248 NA
ATOM     46  C   UNL A   1      45.756  24.163  27.503  1.00  0.00     0.031 C 
ATOM     47  C   UNL A   1      40.916  25.343  28.104  1.00  0.00     0.029 A 
ATOM     48  N   UNL A   1      42.410  26.968  28.462  1.00  0.00    -0.354 N 
ATOM     49  C   UNL A   1      46.635  26.231  27.957  1.00  0.00     0.074 A 
ATOM     50  C   UNL A   1      46.889  24.839  27.645  1.00  0.00     0.031 C 
ATOM     51  C   UNL A   1      40.234  26.449  28.439  1.00  0.00     0.029 A 
ATOM     52  C   UNL A   1      41.179  27.533  28.690  1.00  0.00     0.049 A 
ATOM     53  H   UNL A   1      43.257  27.461  28.560  1.00  0.00     0.167 HD
ATOM     54  C   UNL A   1      47.591  27.183  28.083  1.00  0.00     0.037 A 
ATOM     55  C   UNL A   1      40.850  28.785  29.059  1.00  0.00     0.037 A 
ATOM     56  C   UNL A   1      47.329  28.563  28.409  1.00  0.00     0.049 A 
ATOM     57  C   UNL A   1      41.938  29.806  29.246  1.00  0.00     0.074 A 
ATOM     58  C   UNL A   1      48.232  29.605  28.531  1.00  0.00     0.029 A 
ATOM     59  N   UNL A   1      46.074  29.091  28.677  1.00  0.00    -0.354 N 
ATOM     60  N   UNL A   1      43.231  29.678  29.071  1.00  0.00    -0.248 NA
ATOM     61  C   UNL A   1      41.521  31.147  29.677  1.00  0.00     0.031 C 
ATOM     62  C   UNL A   1      47.533  30.748  28.930  1.00  0.00     0.029 A 
ATOM     63  C   UNL A   1      46.184  30.437  28.996  1.00  0.00     0.049 A 
ATOM     64  H   UNL A   1      45.229  28.585  28.647  1.00  0.00     0.167 HD
ATOM     65  C   UNL A   1      43.778  30.923  29.347  1.00  0.00     0.074 A 
ATOM     66  C   UNL A   1      42.674  31.800  29.680  1.00  0.00     0.031 C 
ATOM     67  C   UNL A   1      45.080  31.303  29.328  1.00  0.00     0.037 A 
BRANCH  54  68
ATOM     68  C   UNL A   1      49.021  26.778  27.857  1.00  0.00     0.064 A 
ATOM     69  C   UNL A   1      49.864  26.454  28.930  1.00  0.00     0.173 A 
ATOM     70  C   UNL A   1      49.525  26.621  26.556  1.00  0.00     0.173 A 
ATOM     71  F   UNL A   1      49.434  26.591  30.193  1.00  0.00    -0.203 F 
ATOM     72  C   UNL A   1      51.163  26.001  28.710  1.00  0.00     0.198 A 
ATOM     73  C   UNL A   1      50.813  26.140  26.340  1.00  0.00     0.198 A 
ATOM     74  F   UNL A   1      48.757  26.908  25.495  1.00  0.00    -0.203 F 
ATOM     75  F   UNL A   1      51.960  25.725  29.752  1.00  0.00    -0.200 F 
ATOM     76  C   UNL A   1      51.632  25.834  27.416  1.00  0.00     0.200 A 
ATOM     77  F   UNL A   1      51.258  25.961  25.088  1.00  0.00    -0.200 F 
ATOM     78  F   UNL A   1      52.874  25.376  27.205  1.00  0.00    -0.200 F 
ENDBRANCH  54  68
BRANCH  55  79
ATOM     79  C   UNL A   1      39.419  29.145  29.235  1.00  0.00     0.064 A 
ATOM     80  C   UNL A   1      38.813  29.092  30.497  1.00  0.00     0.173 A 
ATOM     81  C   UNL A   1      38.637  29.574  28.152  1.00  0.00     0.173 A 
ATOM     82  F   UNL A   1      39.515  28.671  31.560  1.00  0.00    -0.203 F 
ATOM     83  C   UNL A   1      37.476  29.442  30.669  1.00  0.00     0.198 A 
ATOM     84  C   UNL A   1      37.309  29.954  28.330  1.00  0.00     0.198 A 
ATOM     85  F   UNL A   1      39.171  29.648  26.924  1.00  0.00    -0.203 F 
ATOM     86  F   UNL A   1      36.912  29.347  31.880  1.00  0.00    -0.200 F 
ATOM     87  C   UNL A   1      36.727  29.882  29.587  1.00  0.00     0.200 A 
ATOM     88  F   UNL A   1      36.595  30.396  27.286  1.00  0.00    -0.200 F 
ATOM     89  F   UNL A   1      35.446  30.233  29.756  1.00  0.00    -0.200 F 
ENDBRANCH  55  79
BRANCH  67  90
ATOM     90  C   UNL A   1      45.392  32.735  29.662  1.00  0.00     0.064 A 
ATOM     91  C   UNL A   1      45.726  33.130  30.966  1.00  0.00     0.173 A 
ATOM     92  C   UNL A   1      45.417  33.713  28.655  1.00  0.00     0.173 A 
ATOM     93  F   UNL A   1      45.704  32.238  31.968  1.00  0.00    -0.203 F 
ATOM     94  C   UNL A   1      46.054  34.452  31.252  1.00  0.00     0.198 A 
ATOM     95  C   UNL A   1      45.780  35.027  28.939  1.00  0.00     0.198 A 
ATOM     96  F   UNL A   1      45.113  33.389  27.389  1.00  0.00    -0.203 F 
ATOM     97  F   UNL A   1      46.328  34.813  32.514  1.00  0.00    -0.200 F 
ATOM     98  C   UNL A   1      46.092  35.397  30.238  1.00  0.00     0.200 A 
ATOM     99  F   UNL A   1      45.833  35.934  27.954  1.00  0.00    -0.200 F 
ATOM    100  F   UNL A   1      46.425  36.665  30.514  1.00  0.00    -0.200 F 
ENDBRANCH  67  90
ENDBRANCH  41  42
ENDBRANCH  34  36
ENDBRANCH  33  34
ENDBRANCH  32  33
ENDBRANCH  31  32
ENDBRANCH   1  31
TORSDOF 17
ENDMDL
MODEL 2
REMARK VINA RESULT:     -11.9      0.889      2.125
REMARK SMILES C[C@@H]1CC[C@H](C)[N@H+]1Cc1cc2c(cc1Cl)C=C(C(=O)OCCOCCOC(=O)c1ccc(-c3c4nc(c(-c5c(F)c(F)c(F)c(F)c5F)c5ccc([nH]5)c(-c5c(F)c(F)c(F)c(F)c5F)c5nc(c(-c6c(F)c(F)c(F)c(F)c6F)c6ccc3[nH]6)C=C5)C=C4)cc1)[C@@H](C(F)(F)F)O2
REMARK SMILES IDX 23 1 22 2 21 3 20 4 18 5 19 6 17 7 9 8 10 9 14 10 11 11
REMARK SMILES IDX 13 12 15 13 12 14 97 15 16 16 92 17 8 18 7 19 6 20 5 21 4 22
REMARK SMILES IDX 3 23 2 24 1 26 93 27 94 28 95 29 96 30 24 31 25 32 26 33
REMARK SMILES IDX 27 34 28 35 29 36 30 37 91 38 31 39 90 40 32 41 33 42 34 43
REMARK SMILES IDX 84 44 35 45 89 46 83 47 85 48 36 49 88 50 82 51 81 52 37 54
REMARK SMILES IDX 69 55 49 56 68 57 50 58 53 59 67 60 86 61 51 62 52 63 66 65
REMARK SMILES IDX 87 66 54 67 38 68 39 69 47 70 40 71 41 72 45 73 48 74 42 75
REMARK SMILES IDX 43 76 46 77 44 78 70 79 71 80 79 81 72 82 73 83 77 84 80 85
REMARK SMILES IDX 74 86 75 87 78 88 76 89 55 90 56 91 64 92 57 93 58 94 62 95
REMARK SMILES IDX 65 96 59 97 60 98 63 99 61 100
REMARK H PARENT 7 25 85 53 53 64
REMARK Flexibility Score: inf
ROOT
ATOM      1  O   UNL A   1      37.403  21.150  24.361  1.00  0.00    -0.374 OA
ENDROOT
BRANCH   1   2
ATOM      2  C   UNL A   1      36.055  21.403  24.743  1.00  0.00     0.202 C 
BRANCH   2   3
ATOM      3  C   UNL A   1      35.121  20.202  24.919  1.00  0.00     0.261 C 
BRANCH   3   4
ATOM      4  O   UNL A   1      33.848  20.412  24.288  1.00  0.00    -0.460 OA
BRANCH   4   5
ATOM      5  C   UNL A   1      32.804  20.282  25.137  1.00  0.00     0.338 C 
ATOM      6  O   UNL A   1      32.479  19.275  25.749  1.00  0.00    -0.246 OA
BRANCH   5   7
ATOM      7  C   UNL A   1      32.155  21.582  25.360  1.00  0.00     0.087 C 
ATOM      8  C   UNL A   1      31.079  26.389  24.488  1.00  0.00     0.029 A 
ATOM      9  C   UNL A   1      31.014  25.575  25.648  1.00  0.00     0.058 A 
ATOM     10  C   UNL A   1      31.432  25.766  23.279  1.00  0.00     0.050 A 
ATOM     11  C   UNL A   1      31.276  24.200  25.581  1.00  0.00     0.128 A 
ATOM     12  C   UNL A   1      31.520  24.380  23.189  1.00  0.00     0.033 A 
ATOM     13  Cl  UNL A   1      32.001  26.616  21.881  1.00  0.00    -0.084 Cl
ATOM     14  C   UNL A   1      31.469  23.605  24.340  1.00  0.00     0.019 A 
ATOM     15  O   UNL A   1      31.355  23.495  26.755  1.00  0.00    -0.475 OA
ATOM     16  C   UNL A   1      31.795  22.202  24.232  1.00  0.00     0.027 C 
ATOM     17  C   UNL A   1      32.048  22.200  26.724  1.00  0.00     0.316 C 
BRANCH   8  18
ATOM     18  C   UNL A   1      30.835  27.887  24.610  1.00  0.00     0.301 C 
BRANCH  18  19
ATOM     19  N   UNL A   1      31.932  28.728  25.119  1.00  0.00    -0.327 N 
ATOM     20  C   UNL A   1      33.944  28.752  23.681  1.00  0.00     0.075 C 
ATOM     21  C   UNL A   1      33.294  28.200  24.944  1.00  0.00     0.181 C 
ATOM     22  C   UNL A   1      34.058  28.640  26.193  1.00  0.00     0.071 C 
ATOM     23  C   UNL A   1      32.980  28.696  27.251  1.00  0.00     0.071 C 
ATOM     24  C   UNL A   1      31.780  29.234  26.487  1.00  0.00     0.181 C 
ATOM     25  H   UNL A   1      31.827  29.520  24.484  1.00  0.00     0.348 HD
ATOM     26  C   UNL A   1      31.718  30.762  26.482  1.00  0.00     0.075 C 
ENDBRANCH  18  19
ENDBRANCH   8  18
BRANCH  17  27
ATOM     27  C   UNL A   1      33.419  22.306  27.408  1.00  0.00     0.430 C 
ATOM     28  F   UNL A   1      33.961  21.084  27.628  1.00  0.00    -0.167 F 
ATOM     29  F   UNL A   1      34.301  22.983  26.630  1.00  0.00    -0.167 F 
ATOM     30  F   UNL A   1      33.354  22.946  28.595  1.00  0.00    -0.167 F 
ENDBRANCH  17  27
ENDBRANCH   5   7
ENDBRANCH   4   5
ENDBRANCH   3   4
ENDBRANCH   2   3
ENDBRANCH   1   2
BRANCH   1  31
ATOM     31  C   UNL A   1      38.384  20.957  25.380  1.00  0.00     0.202 C 
BRANCH  31  32
ATOM     32  C   UNL A   1      39.209  19.664  25.376  1.00  0.00     0.261 C 
BRANCH  32  33
ATOM     33  O   UNL A   1      40.114  19.580  26.491  1.00  0.00    -0.460 OA
BRANCH  33  34
ATOM     34  C   UNL A   1      41.431  19.578  26.169  1.00  0.00     0.338 C 
ATOM     35  O   UNL A   1      42.056  18.704  25.591  1.00  0.00    -0.246 OA
BRANCH  34  36
ATOM     36  C   UNL A   1      41.979  20.918  26.438  1.00  0.00     0.060 A 
ATOM     37  C   UNL A   1      42.215  21.812  25.396  1.00  0.00     0.016 A 
ATOM     38  C   UNL A   1      42.238  21.282  27.767  1.00  0.00     0.016 A 
ATOM     39  C   UNL A   1      42.713  23.083  25.688  1.00  0.00     0.010 A 
ATOM     40  C   UNL A   1      42.741  22.549  28.057  1.00  0.00     0.010 A 
ATOM     41  C   UNL A   1      42.972  23.463  27.019  1.00  0.00    -0.014 A 
BRANCH  41  42
ATOM     42  C   UNL A   1      43.382  24.853  27.325  1.00  0.00     0.031 A 
ATOM     43  C   UNL A   1      44.763  25.346  27.018  1.00  0.00     0.074 A 
ATOM     44  C   UNL A   1      42.477  25.676  27.890  1.00  0.00     0.049 A 
ATOM     45  N   UNL A   1      45.254  26.552  27.158  1.00  0.00    -0.248 NA
ATOM     46  C   UNL A   1      45.717  24.362  26.490  1.00  0.00     0.031 C 
ATOM     47  C   UNL A   1      41.116  25.291  28.261  1.00  0.00     0.029 A 
ATOM     48  N   UNL A   1      42.561  26.998  28.241  1.00  0.00    -0.354 N 
ATOM     49  C   UNL A   1      46.567  26.479  26.714  1.00  0.00     0.074 A 
ATOM     50  C   UNL A   1      46.812  25.099  26.350  1.00  0.00     0.031 C 
ATOM     51  C   UNL A   1      40.478  26.364  28.754  1.00  0.00     0.029 A 
ATOM     52  C   UNL A   1      41.395  27.500  28.765  1.00  0.00     0.049 A 
ATOM     53  H   UNL A   1      43.377  27.536  28.128  1.00  0.00     0.167 HD
ATOM     54  C   UNL A   1      47.471  27.482  26.601  1.00  0.00     0.037 A 
ATOM     55  C   UNL A   1      41.098  28.738  29.202  1.00  0.00     0.037 A 
ATOM     56  C   UNL A   1      47.221  28.851  26.981  1.00  0.00     0.049 A 
ATOM     57  C   UNL A   1      42.141  29.817  29.117  1.00  0.00     0.074 A 
ATOM     58  C   UNL A   1      48.068  29.941  26.877  1.00  0.00     0.029 A 
ATOM     59  N   UNL A   1      46.044  29.314  27.550  1.00  0.00    -0.354 N 
ATOM     60  N   UNL A   1      43.356  29.756  28.629  1.00  0.00    -0.248 NA
ATOM     61  C   UNL A   1      41.769  31.140  29.637  1.00  0.00     0.031 C 
ATOM     62  C   UNL A   1      47.427  31.050  27.436  1.00  0.00     0.029 A 
ATOM     63  C   UNL A   1      46.155  30.669  27.831  1.00  0.00     0.049 A 
ATOM     64  H   UNL A   1      45.247  28.765  27.728  1.00  0.00     0.167 HD
ATOM     65  C   UNL A   1      43.886  31.032  28.762  1.00  0.00     0.074 A 
ATOM     66  C   UNL A   1      42.851  31.853  29.356  1.00  0.00     0.031 C 
ATOM     67  C   UNL A   1      45.120  31.480  28.424  1.00  0.00     0.037 A 
BRANCH  54  68
ATOM     68  C   UNL A   1      48.821  27.151  26.031  1.00  0.00     0.064 A 
ATOM     69  C   UNL A   1      49.088  27.290  24.661  1.00  0.00     0.173 A 
ATOM     70  C   UNL A   1      49.883  26.782  26.871  1.00  0.00     0.173 A 
ATOM     71  F   UNL A   1      48.108  27.635  23.813  1.00  0.00    -0.203 F 
ATOM     72  C   UNL A   1      50.365  27.059  24.152  1.00  0.00     0.198 A 
ATOM     73  C   UNL A   1      51.164  26.581  26.363  1.00  0.00     0.198 A 
ATOM     74  F   UNL A   1      49.685  26.644  28.191  1.00  0.00    -0.203 F 
ATOM     75  F   UNL A   1      50.588  27.171  22.834  1.00  0.00    -0.200 F 
ATOM     76  C   UNL A   1      51.402  26.717  25.004  1.00  0.00     0.200 A 
ATOM     77  F   UNL A   1      52.170  26.269  27.191  1.00  0.00    -0.200 F 
ATOM     78  F   UNL A   1      52.635  26.517  24.516  1.00  0.00    -0.200 F 
ENDBRANCH  54  68
BRANCH  55  79
ATOM     79  C   UNL A   1      39.736  29.024  29.725  1.00  0.00     0.064 A 
ATOM     80  C   UNL A   1      38.720  29.477  28.874  1.00  0.00     0.173 A 
ATOM     81  C   UNL A   1      39.417  28.825  31.076  1.00  0.00     0.173 A 
ATOM     82  F   UNL A   1      38.981  29.700  27.577  1.00  0.00    -0.203 F 
ATOM     83  C   UNL A   1      37.438  29.732  29.356  1.00  0.00     0.198 A 
ATOM     84  C   UNL A   1      38.127  29.050  31.551  1.00  0.00     0.198 A 
ATOM     85  F   UNL A   1      40.353  28.386  31.930  1.00  0.00    -0.203 F 
ATOM     86  F   UNL A   1      36.494  30.200  28.529  1.00  0.00    -0.200 F 
ATOM     87  C   UNL A   1      37.140  29.509  30.693  1.00  0.00     0.200 A 
ATOM     88  F   UNL A   1      37.839  28.815  32.838  1.00  0.00    -0.200 F 
ATOM     89  F   UNL A   1      35.903  29.740  31.152  1.00  0.00    -0.200 F 
ENDBRANCH  55  79
BRANCH  67  90
ATOM     90  C   UNL A   1      45.426  32.931  28.671  1.00  0.00     0.064 A 
ATOM     91  C   UNL A   1      45.106  33.920  27.729  1.00  0.00     0.173 A 
ATOM     92  C   UNL A   1      45.989  33.343  29.889  1.00  0.00     0.173 A 
ATOM     93  F   UNL A   1      44.579  33.579  26.543  1.00  0.00    -0.203 F 
ATOM     94  C   UNL A   1      45.357  35.265  27.989  1.00  0.00     0.198 A 
ATOM     95  C   UNL A   1      46.205  34.692  30.159  1.00  0.00     0.198 A 
ATOM     96  F   UNL A   1      46.307  32.440  30.828  1.00  0.00    -0.203 F 
ATOM     97  F   UNL A   1      45.083  36.187  27.056  1.00  0.00    -0.200 F 
ATOM     98  C   UNL A   1      45.895  35.651  29.207  1.00  0.00     0.200 A 
ATOM     99  F   UNL A   1      46.709  35.064  31.344  1.00  0.00    -0.200 F 
ATOM    100  F   UNL A   1      46.119  36.947  29.462  1.00  0.00    -0.200 F 
ENDBRANCH  67  90
ENDBRANCH  41  42
ENDBRANCH  34  36
ENDBRANCH  33  34
ENDBRANCH  32  33
ENDBRANCH  31  32
ENDBRANCH   1  31
TORSDOF 17
ENDMDL
MODEL 3
REMARK VINA RESULT:     -11.7      0.935      7.064
REMARK SMILES C[C@@H]1CC[C@H](C)[N@H+]1Cc1cc2c(cc1Cl)C=C(C(=O)OCCOCCOC(=O)c1ccc(-c3c4nc(c(-c5c(F)c(F)c(F)c(F)c5F)c5ccc([nH]5)c(-c5c(F)c(F)c(F)c(F)c5F)c5nc(c(-c6c(F)c(F)c(F)c(F)c6F)c6ccc3[nH]6)C=C5)C=C4)cc1)[C@@H](C(F)(F)F)O2
REMARK SMILES IDX 23 1 22 2 21 3 20 4 18 5 19 6 17 7 9 8 10 9 14 10 11 11
REMARK SMILES IDX 13 12 15 13 12 14 97 15 16 16 92 17 8 18 7 19 6 20 5 21 4 22
REMARK SMILES IDX 3 23 2 24 1 26 93 27 94 28 95 29 96 30 24 31 25 32 26 33
REMARK SMILES IDX 27 34 28 35 29 36 30 37 91 38 31 39 90 40 32 41 33 42 34 43
REMARK SMILES IDX 84 44 35 45 89 46 83 47 85 48 36 49 88 50 82 51 81 52 37 54
REMARK SMILES IDX 69 55 49 56 68 57 50 58 53 59 67 60 86 61 51 62 52 63 66 65
REMARK SMILES IDX 87 66 54 67 38 68 39 69 47 70 40 71 41 72 45 73 48 74 42 75
REMARK SMILES IDX 43 76 46 77 44 78 70 79 71 80 79 81 72 82 73 83 77 84 80 85
REMARK SMILES IDX 74 86 75 87 78 88 76 89 55 90 56 91 64 92 57 93 58 94 62 95
REMARK SMILES IDX 65 96 59 97 60 98 63 99 61 100
REMARK H PARENT 7 25 85 53 53 64
REMARK Flexibility Score: inf
ROOT
ATOM      1  O   UNL A   1      37.558  21.066  24.589  1.00  0.00    -0.374 OA
ENDROOT
BRANCH   1   2
ATOM      2  C   UNL A   1      36.201  21.323  24.936  1.00  0.00     0.202 C 
BRANCH   2   3
ATOM      3  C   UNL A   1      35.232  20.138  24.976  1.00  0.00     0.261 C 
BRANCH   3   4
ATOM      4  O   UNL A   1      33.982  20.441  24.339  1.00  0.00    -0.460 OA
BRANCH   4   5
ATOM      5  C   UNL A   1      32.916  20.303  25.161  1.00  0.00     0.338 C 
ATOM      6  O   UNL A   1      32.586  19.296  25.767  1.00  0.00    -0.246 OA
BRANCH   5   7
ATOM      7  C   UNL A   1      32.250  21.598  25.362  1.00  0.00     0.087 C 
ATOM      8  C   UNL A   1      31.163  26.396  24.454  1.00  0.00     0.029 A 
ATOM      9  C   UNL A   1      31.064  25.581  25.611  1.00  0.00     0.058 A 
ATOM     10  C   UNL A   1      31.563  25.777  23.258  1.00  0.00     0.050 A 
ATOM     11  C   UNL A   1      31.341  24.208  25.553  1.00  0.00     0.128 A 
ATOM     12  C   UNL A   1      31.666  24.392  23.171  1.00  0.00     0.033 A 
ATOM     13  Cl  UNL A   1      32.173  26.633  21.882  1.00  0.00    -0.084 Cl
ATOM     14  C   UNL A   1      31.582  23.615  24.319  1.00  0.00     0.019 A 
ATOM     15  O   UNL A   1      31.385  23.503  26.729  1.00  0.00    -0.475 OA
ATOM     16  C   UNL A   1      31.923  22.216  24.222  1.00  0.00     0.027 C 
ATOM     17  C   UNL A   1      32.089  22.214  26.721  1.00  0.00     0.316 C 
BRANCH   8  18
ATOM     18  C   UNL A   1      30.902  27.892  24.569  1.00  0.00     0.301 C 
BRANCH  18  19
ATOM     19  N   UNL A   1      31.982  28.745  25.095  1.00  0.00    -0.327 N 
ATOM     20  C   UNL A   1      33.988  28.848  23.653  1.00  0.00     0.075 C 
ATOM     21  C   UNL A   1      33.354  28.252  24.904  1.00  0.00     0.181 C 
ATOM     22  C   UNL A   1      34.112  28.679  26.162  1.00  0.00     0.071 C 
ATOM     23  C   UNL A   1      33.036  28.685  27.224  1.00  0.00     0.071 C 
ATOM     24  C   UNL A   1      31.822  29.215  26.475  1.00  0.00     0.181 C 
ATOM     25  H   UNL A   1      31.856  29.549  24.480  1.00  0.00     0.348 HD
ATOM     26  C   UNL A   1      31.726  30.740  26.507  1.00  0.00     0.075 C 
ENDBRANCH  18  19
ENDBRANCH   8  18
BRANCH  17  27
ATOM     27  C   UNL A   1      33.435  22.331  27.453  1.00  0.00     0.430 C 
ATOM     28  F   UNL A   1      33.986  21.115  27.679  1.00  0.00    -0.167 F 
ATOM     29  F   UNL A   1      34.334  23.028  26.711  1.00  0.00    -0.167 F 
ATOM     30  F   UNL A   1      33.321  22.958  28.642  1.00  0.00    -0.167 F 
ENDBRANCH  17  27
ENDBRANCH   5   7
ENDBRANCH   4   5
ENDBRANCH   3   4
ENDBRANCH   2   3
ENDBRANCH   1   2
BRANCH   1  31
ATOM     31  C   UNL A   1      38.489  20.763  25.627  1.00  0.00     0.202 C 
BRANCH  31  32
ATOM     32  C   UNL A   1      39.388  19.529  25.478  1.00  0.00     0.261 C 
BRANCH  32  33
ATOM     33  O   UNL A   1      40.290  19.362  26.585  1.00  0.00    -0.460 OA
BRANCH  33  34
ATOM     34  C   UNL A   1      41.608  19.394  26.269  1.00  0.00     0.338 C 
ATOM     35  O   UNL A   1      42.272  18.512  25.751  1.00  0.00    -0.246 OA
BRANCH  34  36
ATOM     36  C   UNL A   1      42.098  20.771  26.452  1.00  0.00     0.060 A 
ATOM     37  C   UNL A   1      42.330  21.596  25.353  1.00  0.00     0.016 A 
ATOM     38  C   UNL A   1      42.307  21.240  27.757  1.00  0.00     0.016 A 
ATOM     39  C   UNL A   1      42.772  22.902  25.563  1.00  0.00     0.010 A 
ATOM     40  C   UNL A   1      42.755  22.543  27.965  1.00  0.00     0.010 A 
ATOM     41  C   UNL A   1      42.981  23.387  26.869  1.00  0.00    -0.014 A 
BRANCH  41  42
ATOM     42  C   UNL A   1      43.330  24.811  27.082  1.00  0.00     0.031 A 
ATOM     43  C   UNL A   1      42.343  25.779  27.659  1.00  0.00     0.074 A 
ATOM     44  C   UNL A   1      44.568  25.223  26.746  1.00  0.00     0.049 A 
ATOM     45  N   UNL A   1      42.516  27.038  27.975  1.00  0.00    -0.248 NA
ATOM     46  C   UNL A   1      40.986  25.274  27.911  1.00  0.00     0.031 C 
ATOM     47  C   UNL A   1      45.597  24.373  26.147  1.00  0.00     0.029 A 
ATOM     48  N   UNL A   1      45.171  26.448  26.866  1.00  0.00    -0.354 N 
ATOM     49  C   UNL A   1      41.300  27.471  28.485  1.00  0.00     0.074 A 
ATOM     50  C   UNL A   1      40.381  26.355  28.388  1.00  0.00     0.031 C 
ATOM     51  C   UNL A   1      46.718  25.092  25.986  1.00  0.00     0.029 A 
ATOM     52  C   UNL A   1      46.475  26.459  26.438  1.00  0.00     0.049 A 
ATOM     53  H   UNL A   1      44.714  27.242  27.225  1.00  0.00     0.167 HD
ATOM     54  C   UNL A   1      40.993  28.683  29.007  1.00  0.00     0.037 A 
ATOM     55  C   UNL A   1      47.376  27.460  26.414  1.00  0.00     0.037 A 
ATOM     56  C   UNL A   1      41.911  29.793  29.085  1.00  0.00     0.049 A 
ATOM     57  C   UNL A   1      46.988  28.811  26.949  1.00  0.00     0.074 A 
ATOM     58  C   UNL A   1      41.697  31.050  29.623  1.00  0.00     0.029 A 
ATOM     59  N   UNL A   1      43.211  29.783  28.601  1.00  0.00    -0.354 N 
ATOM     60  N   UNL A   1      45.858  29.190  27.495  1.00  0.00    -0.248 NA
ATOM     61  C   UNL A   1      48.002  29.871  26.869  1.00  0.00     0.031 C 
ATOM     62  C   UNL A   1      42.845  31.820  29.412  1.00  0.00     0.029 A 
ATOM     63  C   UNL A   1      43.800  31.024  28.800  1.00  0.00     0.049 A 
ATOM     64  H   UNL A   1      43.652  29.010  28.179  1.00  0.00     0.167 HD
ATOM     65  C   UNL A   1      46.032  30.522  27.844  1.00  0.00     0.074 A 
ATOM     66  C   UNL A   1      47.385  30.879  27.469  1.00  0.00     0.031 C 
ATOM     67  C   UNL A   1      45.147  31.372  28.422  1.00  0.00     0.037 A 
BRANCH  54  68
ATOM     68  C   UNL A   1      39.607  28.883  29.552  1.00  0.00     0.064 A 
ATOM     69  C   UNL A   1      39.310  28.630  30.900  1.00  0.00     0.173 A 
ATOM     70  C   UNL A   1      38.591  29.421  28.747  1.00  0.00     0.173 A 
ATOM     71  F   UNL A   1      40.243  28.111  31.712  1.00  0.00    -0.203 F 
ATOM     72  C   UNL A   1      38.044  28.895  31.418  1.00  0.00     0.198 A 
ATOM     73  C   UNL A   1      37.336  29.712  29.276  1.00  0.00     0.198 A 
ATOM     74  F   UNL A   1      38.824  29.691  27.454  1.00  0.00    -0.203 F 
ATOM     75  F   UNL A   1      37.777  28.618  32.702  1.00  0.00    -0.200 F 
ATOM     76  C   UNL A   1      37.063  29.446  30.609  1.00  0.00     0.200 A 
ATOM     77  F   UNL A   1      36.394  30.262  28.496  1.00  0.00    -0.200 F 
ATOM     78  F   UNL A   1      35.852  29.722  31.114  1.00  0.00    -0.200 F 
ENDBRANCH  54  68
BRANCH  55  79
ATOM     79  C   UNL A   1      48.746  27.201  25.898  1.00  0.00     0.064 A 
ATOM     80  C   UNL A   1      49.042  27.352  24.537  1.00  0.00     0.173 A 
ATOM     81  C   UNL A   1      49.789  26.825  26.756  1.00  0.00     0.173 A 
ATOM     82  F   UNL A   1      48.073  27.693  23.674  1.00  0.00    -0.203 F 
ATOM     83  C   UNL A   1      50.327  27.125  24.051  1.00  0.00     0.198 A 
ATOM     84  C   UNL A   1      51.081  26.628  26.274  1.00  0.00     0.198 A 
ATOM     85  F   UNL A   1      49.559  26.673  28.068  1.00  0.00    -0.203 F 
ATOM     86  F   UNL A   1      50.575  27.241  22.740  1.00  0.00    -0.200 F 
ATOM     87  C   UNL A   1      51.349  26.773  24.922  1.00  0.00     0.200 A 
ATOM     88  F   UNL A   1      52.068  26.307  27.121  1.00  0.00    -0.200 F 
ATOM     89  F   UNL A   1      52.588  26.569  24.456  1.00  0.00    -0.200 F 
ENDBRANCH  55  79
BRANCH  67  90
ATOM     90  C   UNL A   1      45.611  32.774  28.702  1.00  0.00     0.064 A 
ATOM     91  C   UNL A   1      45.395  33.817  27.788  1.00  0.00     0.173 A 
ATOM     92  C   UNL A   1      46.223  33.091  29.925  1.00  0.00     0.173 A 
ATOM     93  F   UNL A   1      44.826  33.565  26.599  1.00  0.00    -0.203 F 
ATOM     94  C   UNL A   1      45.792  35.119  28.080  1.00  0.00     0.198 A 
ATOM     95  C   UNL A   1      46.587  34.401  30.227  1.00  0.00     0.198 A 
ATOM     96  F   UNL A   1      46.447  32.134  30.838  1.00  0.00    -0.203 F 
ATOM     97  F   UNL A   1      45.614  36.090  27.173  1.00  0.00    -0.200 F 
ATOM     98  C   UNL A   1      46.377  35.412  29.302  1.00  0.00     0.200 A 
ATOM     99  F   UNL A   1      47.136  34.686  31.416  1.00  0.00    -0.200 F 
ATOM    100  F   UNL A   1      46.742  36.669  29.588  1.00  0.00    -0.200 F 
ENDBRANCH  67  90
ENDBRANCH  41  42
ENDBRANCH  34  36
ENDBRANCH  33  34
ENDBRANCH  32  33
ENDBRANCH  31  32
ENDBRANCH   1  31
TORSDOF 17
ENDMDL
