MODEL 1
REMARK VINA RESULT:     -11.6      0.000      0.000
REMARK SMILES O=C(OCCOCCOC(=O)[C@H]1C=C[C@@H](NS(=O)(=O)c2ccccc2)C1)c1ccc(-c2c3nc(c(-c4c(F)c(F)c(F)c(F)c4F)c4ccc([nH]4)c(-c4c(F)c(F)c(F)c(F)c4F)c4nc(c(-c5c(F)c(F)c(F)c(F)c5F)c5ccc2[nH]5)C=C4)C=C3)cc1
REMARK SMILES IDX 7 1 6 2 5 3 4 4 3 5 2 6 1 7 27 8 28 9 89 10 29 11 88 12
REMARK SMILES IDX 30 13 31 14 32 15 82 16 33 17 87 18 81 19 83 20 34 21 86 22
REMARK SMILES IDX 80 23 79 24 35 26 67 27 47 28 66 29 48 30 51 31 65 32 84 33
REMARK SMILES IDX 49 34 50 35 64 37 85 38 52 39 36 40 37 41 45 42 38 43 39 44
REMARK SMILES IDX 43 45 46 46 40 47 41 48 44 49 42 50 68 51 69 52 77 53 70 54
REMARK SMILES IDX 71 55 75 56 78 57 72 58 73 59 76 60 74 61 53 62 54 63 62 64
REMARK SMILES IDX 55 65 56 66 60 67 63 68 57 69 58 70 61 71 59 72 8 73 9 74
REMARK SMILES IDX 10 75 11 76 12 77 13 78 26 79 14 80 15 81 16 82 17 84 18 85
REMARK SMILES IDX 19 86 20 87 21 88 25 89 22 90 24 91 23 92
REMARK H PARENT 83 25 51 36 16 83
REMARK Flexibility Score: inf
ROOT
ATOM      1  C   UNL A   1      32.159  29.735  26.294  1.00  0.00     0.202 C 
ENDROOT
BRANCH   1   2
ATOM      2  O   UNL A   1      31.592  30.946  25.779  1.00  0.00    -0.374 OA
BRANCH   2   3
ATOM      3  C   UNL A   1      31.351  31.985  26.734  1.00  0.00     0.202 C 
BRANCH   3   4
ATOM      4  C   UNL A   1      32.578  32.668  27.354  1.00  0.00     0.261 C 
BRANCH   4   5
ATOM      5  O   UNL A   1      32.280  34.020  27.752  1.00  0.00    -0.460 OA
BRANCH   5   6
ATOM      6  C   UNL A   1      32.951  34.792  28.640  1.00  0.00     0.338 C 
ATOM      7  O   UNL A   1      32.530  35.918  28.895  1.00  0.00    -0.246 OA
BRANCH   6   8
ATOM      8  C   UNL A   1      34.172  34.320  29.352  1.00  0.00     0.060 A 
ATOM      9  C   UNL A   1      35.471  34.518  28.889  1.00  0.00     0.016 A 
ATOM     10  C   UNL A   1      34.004  33.678  30.588  1.00  0.00     0.016 A 
ATOM     11  C   UNL A   1      36.564  33.998  29.544  1.00  0.00     0.010 A 
ATOM     12  C   UNL A   1      35.110  33.196  31.296  1.00  0.00     0.010 A 
ATOM     13  C   UNL A   1      36.390  33.329  30.746  1.00  0.00    -0.014 A 
BRANCH  13  14
ATOM     14  C   UNL A   1      37.580  32.655  31.280  1.00  0.00     0.031 A 
ATOM     15  C   UNL A   1      37.988  32.970  32.684  1.00  0.00     0.074 A 
ATOM     16  C   UNL A   1      38.104  31.625  30.594  1.00  0.00     0.049 A 
ATOM     17  N   UNL A   1      38.966  32.480  33.392  1.00  0.00    -0.248 NA
ATOM     18  C   UNL A   1      37.160  33.958  33.400  1.00  0.00     0.031 C 
ATOM     19  C   UNL A   1      37.624  31.150  29.292  1.00  0.00     0.029 A 
ATOM     20  N   UNL A   1      39.103  30.751  30.919  1.00  0.00    -0.354 N 
ATOM     21  C   UNL A   1      38.901  33.131  34.615  1.00  0.00     0.074 A 
ATOM     22  C   UNL A   1      37.783  34.042  34.564  1.00  0.00     0.031 C 
ATOM     23  C   UNL A   1      38.301  30.043  28.952  1.00  0.00     0.029 A 
ATOM     24  C   UNL A   1      39.313  29.783  29.969  1.00  0.00     0.049 A 
ATOM     25  H   UNL A   1      39.621  30.810  31.754  1.00  0.00     0.167 HD
ATOM     26  C   UNL A   1      39.727  32.982  35.676  1.00  0.00     0.037 A 
ATOM     27  C   UNL A   1      40.247  28.817  29.927  1.00  0.00     0.037 A 
ATOM     28  C   UNL A   1      40.819  32.048  35.687  1.00  0.00     0.049 A 
ATOM     29  C   UNL A   1      41.212  28.739  31.077  1.00  0.00     0.074 A 
ATOM     30  C   UNL A   1      41.782  31.846  36.657  1.00  0.00     0.029 A 
ATOM     31  N   UNL A   1      41.085  31.149  34.660  1.00  0.00    -0.354 N 
ATOM     32  N   UNL A   1      41.225  29.429  32.195  1.00  0.00    -0.248 NA
ATOM     33  C   UNL A   1      42.303  27.766  30.957  1.00  0.00     0.031 C 
ATOM     34  C   UNL A   1      42.659  30.858  36.193  1.00  0.00     0.029 A 
ATOM     35  C   UNL A   1      42.208  30.401  34.962  1.00  0.00     0.049 A 
ATOM     36  H   UNL A   1      40.551  31.058  33.837  1.00  0.00     0.167 HD
ATOM     37  C   UNL A   1      42.307  28.961  32.923  1.00  0.00     0.074 A 
ATOM     38  C   UNL A   1      42.916  27.913  32.123  1.00  0.00     0.031 C 
ATOM     39  C   UNL A   1      42.763  29.355  34.137  1.00  0.00     0.037 A 
BRANCH  26  40
ATOM     40  C   UNL A   1      39.526  33.919  36.829  1.00  0.00     0.064 A 
ATOM     41  C   UNL A   1      40.109  35.195  36.873  1.00  0.00     0.173 A 
ATOM     42  C   UNL A   1      38.787  33.499  37.945  1.00  0.00     0.173 A 
ATOM     43  F   UNL A   1      40.855  35.633  35.849  1.00  0.00    -0.203 F 
ATOM     44  C   UNL A   1      39.990  35.997  38.008  1.00  0.00     0.198 A 
ATOM     45  C   UNL A   1      38.645  34.315  39.065  1.00  0.00     0.198 A 
ATOM     46  F   UNL A   1      38.218  32.284  37.959  1.00  0.00    -0.203 F 
ATOM     47  F   UNL A   1      40.616  37.181  38.058  1.00  0.00    -0.200 F 
ATOM     48  C   UNL A   1      39.257  35.557  39.101  1.00  0.00     0.200 A 
ATOM     49  F   UNL A   1      37.936  33.887  40.118  1.00  0.00    -0.200 F 
ATOM     50  F   UNL A   1      39.158  36.323  40.196  1.00  0.00    -0.200 F 
ENDBRANCH  26  40
BRANCH  27  51
ATOM     51  C   UNL A   1      40.338  27.906  28.755  1.00  0.00     0.064 A 
ATOM     52  C   UNL A   1      41.070  28.257  27.612  1.00  0.00     0.173 A 
ATOM     53  C   UNL A   1      39.686  26.661  28.750  1.00  0.00     0.173 A 
ATOM     54  F   UNL A   1      41.696  29.441  27.554  1.00  0.00    -0.203 F 
ATOM     55  C   UNL A   1      41.132  27.408  26.506  1.00  0.00     0.198 A 
ATOM     56  C   UNL A   1      39.776  25.800  27.658  1.00  0.00     0.198 A 
ATOM     57  F   UNL A   1      38.968  26.274  29.814  1.00  0.00    -0.203 F 
ATOM     58  F   UNL A   1      41.800  27.789  25.409  1.00  0.00    -0.200 F 
ATOM     59  C   UNL A   1      40.492  26.178  26.533  1.00  0.00     0.200 A 
ATOM     60  F   UNL A   1      39.166  24.607  27.696  1.00  0.00    -0.200 F 
ATOM     61  F   UNL A   1      40.554  25.362  25.472  1.00  0.00    -0.200 F 
ENDBRANCH  27  51
BRANCH  39  62
ATOM     62  C   UNL A   1      43.940  28.610  34.688  1.00  0.00     0.064 A 
ATOM     63  C   UNL A   1      43.785  27.440  35.445  1.00  0.00     0.173 A 
ATOM     64  C   UNL A   1      45.241  29.058  34.417  1.00  0.00     0.173 A 
ATOM     65  F   UNL A   1      42.559  26.984  35.742  1.00  0.00    -0.203 F 
ATOM     66  C   UNL A   1      44.895  26.760  35.935  1.00  0.00     0.198 A 
ATOM     67  C   UNL A   1      46.347  28.357  34.881  1.00  0.00     0.198 A 
ATOM     68  F   UNL A   1      45.437  30.169  33.691  1.00  0.00    -0.203 F 
ATOM     69  F   UNL A   1      44.726  25.673  36.701  1.00  0.00    -0.200 F 
ATOM     70  C   UNL A   1      46.174  27.213  35.647  1.00  0.00     0.200 A 
ATOM     71  F   UNL A   1      47.582  28.787  34.588  1.00  0.00    -0.200 F 
ATOM     72  F   UNL A   1      47.241  26.552  36.113  1.00  0.00    -0.200 F 
ENDBRANCH  39  62
ENDBRANCH  13  14
ENDBRANCH   6   8
ENDBRANCH   5   6
ENDBRANCH   4   5
ENDBRANCH   3   4
ENDBRANCH   2   3
ENDBRANCH   1   2
BRANCH   1  73
ATOM     73  C   UNL A   1      33.091  29.087  25.272  1.00  0.00     0.261 C 
BRANCH  73  74
ATOM     74  O   UNL A   1      32.349  28.075  24.571  1.00  0.00    -0.463 OA
BRANCH  74  75
ATOM     75  C   UNL A   1      33.106  27.050  24.098  1.00  0.00     0.312 C 
ATOM     76  O   UNL A   1      33.356  26.856  22.913  1.00  0.00    -0.252 OA
BRANCH  75  77
ATOM     77  C   UNL A   1      33.616  26.153  25.219  1.00  0.00     0.123 C 
ATOM     78  C   UNL A   1      32.425  25.535  25.896  1.00  0.00    -0.015 C 
ATOM     79  C   UNL A   1      34.442  24.912  24.818  1.00  0.00     0.043 C 
ATOM     80  C   UNL A   1      32.599  24.232  26.132  1.00  0.00    -0.011 C 
ATOM     81  C   UNL A   1      33.955  23.771  25.727  1.00  0.00     0.093 C 
BRANCH  81  82
ATOM     82  N   UNL A   1      33.891  22.491  25.029  1.00  0.00    -0.204 NA
ATOM     83  H   UNL A   1      34.442  22.596  24.177  1.00  0.00     0.142 HD
BRANCH  82  84
ATOM     84  S   UNL A   1      34.425  21.071  25.781  1.00  0.00     0.241 S 
ATOM     85  O   UNL A   1      35.870  21.056  25.787  1.00  0.00    -0.207 OA
ATOM     86  O   UNL A   1      33.671  20.988  27.014  1.00  0.00    -0.207 OA
BRANCH  84  87
ATOM     87  C   UNL A   1      33.871  19.767  24.704  1.00  0.00     0.082 A 
ATOM     88  C   UNL A   1      34.603  18.583  24.600  1.00  0.00     0.022 A 
ATOM     89  C   UNL A   1      32.710  19.951  23.944  1.00  0.00     0.022 A 
ATOM     90  C   UNL A   1      34.130  17.556  23.779  1.00  0.00     0.001 A 
ATOM     91  C   UNL A   1      32.224  18.910  23.157  1.00  0.00     0.001 A 
ATOM     92  C   UNL A   1      32.932  17.712  23.076  1.00  0.00     0.000 A 
ENDBRANCH  84  87
ENDBRANCH  82  84
ENDBRANCH  81  82
ENDBRANCH  75  77
ENDBRANCH  74  75
ENDBRANCH  73  74
ENDBRANCH   1  73
TORSDOF 17
ENDMDL
MODEL 2
REMARK VINA RESULT:     -11.6      1.667      2.466
REMARK SMILES O=C(OCCOCCOC(=O)[C@H]1C=C[C@@H](NS(=O)(=O)c2ccccc2)C1)c1ccc(-c2c3nc(c(-c4c(F)c(F)c(F)c(F)c4F)c4ccc([nH]4)c(-c4c(F)c(F)c(F)c(F)c4F)c4nc(c(-c5c(F)c(F)c(F)c(F)c5F)c5ccc2[nH]5)C=C4)C=C3)cc1
REMARK SMILES IDX 7 1 6 2 5 3 4 4 3 5 2 6 1 7 27 8 28 9 89 10 29 11 88 12
REMARK SMILES IDX 30 13 31 14 32 15 82 16 33 17 87 18 81 19 83 20 34 21 86 22
REMARK SMILES IDX 80 23 79 24 35 26 67 27 47 28 66 29 48 30 51 31 65 32 84 33
REMARK SMILES IDX 49 34 50 35 64 37 85 38 52 39 36 40 37 41 45 42 38 43 39 44
REMARK SMILES IDX 43 45 46 46 40 47 41 48 44 49 42 50 68 51 69 52 77 53 70 54
REMARK SMILES IDX 71 55 75 56 78 57 72 58 73 59 76 60 74 61 53 62 54 63 62 64
REMARK SMILES IDX 55 65 56 66 60 67 63 68 57 69 58 70 61 71 59 72 8 73 9 74
REMARK SMILES IDX 10 75 11 76 12 77 13 78 26 79 14 80 15 81 16 82 17 84 18 85
REMARK SMILES IDX 19 86 20 87 21 88 25 89 22 90 24 91 23 92
REMARK H PARENT 83 25 51 36 16 83
REMARK Flexibility Score: inf
ROOT
ATOM      1  C   UNL A   1      33.075  28.873  26.474  1.00  0.00     0.202 C 
ENDROOT
BRANCH   1   2
ATOM      2  O   UNL A   1      32.837  30.224  26.059  1.00  0.00    -0.374 OA
BRANCH   2   3
ATOM      3  C   UNL A   1      31.519  30.732  26.291  1.00  0.00     0.202 C 
BRANCH   3   4
ATOM      4  C   UNL A   1      31.404  32.170  26.820  1.00  0.00     0.261 C 
BRANCH   4   5
ATOM      5  O   UNL A   1      32.682  32.834  26.812  1.00  0.00    -0.460 OA
BRANCH   5   6
ATOM      6  C   UNL A   1      33.382  33.302  27.873  1.00  0.00     0.338 C 
ATOM      7  O   UNL A   1      32.951  34.269  28.497  1.00  0.00    -0.246 OA
BRANCH   6   8
ATOM      8  C   UNL A   1      34.647  32.670  28.342  1.00  0.00     0.060 A 
ATOM      9  C   UNL A   1      34.757  31.338  28.734  1.00  0.00     0.016 A 
ATOM     10  C   UNL A   1      35.810  33.456  28.345  1.00  0.00     0.016 A 
ATOM     11  C   UNL A   1      35.930  30.819  29.231  1.00  0.00     0.010 A 
ATOM     12  C   UNL A   1      37.026  32.925  28.791  1.00  0.00     0.010 A 
ATOM     13  C   UNL A   1      37.069  31.610  29.270  1.00  0.00    -0.014 A 
BRANCH  13  14
ATOM     14  C   UNL A   1      38.221  31.038  29.977  1.00  0.00     0.031 A 
ATOM     15  C   UNL A   1      38.335  31.298  31.445  1.00  0.00     0.074 A 
ATOM     16  C   UNL A   1      38.979  30.124  29.348  1.00  0.00     0.049 A 
ATOM     17  N   UNL A   1      39.228  30.872  32.294  1.00  0.00    -0.248 NA
ATOM     18  C   UNL A   1      37.280  32.134  32.047  1.00  0.00     0.031 C 
ATOM     19  C   UNL A   1      38.795  29.690  27.959  1.00  0.00     0.029 A 
ATOM     20  N   UNL A   1      40.005  29.347  29.806  1.00  0.00    -0.354 N 
ATOM     21  C   UNL A   1      38.872  31.424  33.516  1.00  0.00     0.074 A 
ATOM     22  C   UNL A   1      37.676  32.206  33.308  1.00  0.00     0.031 C 
ATOM     23  C   UNL A   1      39.651  28.692  27.694  1.00  0.00     0.029 A 
ATOM     24  C   UNL A   1      40.494  28.477  28.864  1.00  0.00     0.049 A 
ATOM     25  H   UNL A   1      40.358  29.405  30.723  1.00  0.00     0.167 HD
ATOM     26  C   UNL A   1      39.512  31.295  34.700  1.00  0.00     0.037 A 
ATOM     27  C   UNL A   1      41.533  27.627  28.944  1.00  0.00     0.037 A 
ATOM     28  C   UNL A   1      40.692  30.491  34.864  1.00  0.00     0.049 A 
ATOM     29  C   UNL A   1      42.285  27.577  30.245  1.00  0.00     0.074 A 
ATOM     30  C   UNL A   1      41.488  30.331  35.981  1.00  0.00     0.029 A 
ATOM     31  N   UNL A   1      41.241  29.702  33.859  1.00  0.00    -0.354 N 
ATOM     32  N   UNL A   1      42.018  28.185  31.379  1.00  0.00    -0.248 NA
ATOM     33  C   UNL A   1      43.491  26.743  30.278  1.00  0.00     0.031 C 
ATOM     34  C   UNL A   1      42.547  29.482  35.636  1.00  0.00     0.029 A 
ATOM     35  C   UNL A   1      42.377  29.064  34.323  1.00  0.00     0.049 A 
ATOM     36  H   UNL A   1      40.874  29.609  32.949  1.00  0.00     0.167 HD
ATOM     37  C   UNL A   1      43.005  27.791  32.267  1.00  0.00     0.074 A 
ATOM     38  C   UNL A   1      43.869  26.877  31.541  1.00  0.00     0.031 C 
ATOM     39  C   UNL A   1      43.191  28.148  33.562  1.00  0.00     0.037 A 
BRANCH  26  40
ATOM     40  C   UNL A   1      39.000  32.121  35.842  1.00  0.00     0.064 A 
ATOM     41  C   UNL A   1      39.382  33.458  36.037  1.00  0.00     0.173 A 
ATOM     42  C   UNL A   1      38.159  31.535  36.801  1.00  0.00     0.173 A 
ATOM     43  F   UNL A   1      40.213  34.055  35.170  1.00  0.00    -0.203 F 
ATOM     44  C   UNL A   1      38.972  34.161  37.168  1.00  0.00     0.198 A 
ATOM     45  C   UNL A   1      37.727  32.251  37.914  1.00  0.00     0.198 A 
ATOM     46  F   UNL A   1      37.772  30.257  36.669  1.00  0.00    -0.203 F 
ATOM     47  F   UNL A   1      39.409  35.412  37.373  1.00  0.00    -0.200 F 
ATOM     48  C   UNL A   1      38.144  33.559  38.104  1.00  0.00     0.200 A 
ATOM     49  F   UNL A   1      36.926  31.666  38.815  1.00  0.00    -0.200 F 
ATOM     50  F   UNL A   1      37.764  34.232  39.199  1.00  0.00    -0.200 F 
ENDBRANCH  26  40
BRANCH  27  51
ATOM     51  C   UNL A   1      41.938  26.816  27.766  1.00  0.00     0.064 A 
ATOM     52  C   UNL A   1      42.840  27.311  26.813  1.00  0.00     0.173 A 
ATOM     53  C   UNL A   1      41.423  25.525  27.560  1.00  0.00     0.173 A 
ATOM     54  F   UNL A   1      43.346  28.545  26.948  1.00  0.00    -0.203 F 
ATOM     55  C   UNL A   1      43.198  26.555  25.696  1.00  0.00     0.198 A 
ATOM     56  C   UNL A   1      41.807  24.758  26.462  1.00  0.00     0.198 A 
ATOM     57  F   UNL A   1      40.554  25.000  28.436  1.00  0.00    -0.203 F 
ATOM     58  F   UNL A   1      44.025  27.071  24.778  1.00  0.00    -0.200 F 
ATOM     59  C   UNL A   1      42.687  25.276  25.526  1.00  0.00     0.200 A 
ATOM     60  F   UNL A   1      41.320  23.518  26.311  1.00  0.00    -0.200 F 
ATOM     61  F   UNL A   1      43.033  24.550  24.455  1.00  0.00    -0.200 F 
ENDBRANCH  27  51
BRANCH  39  62
ATOM     62  C   UNL A   1      44.336  27.502  34.280  1.00  0.00     0.064 A 
ATOM     63  C   UNL A   1      45.602  28.103  34.343  1.00  0.00     0.173 A 
ATOM     64  C   UNL A   1      44.147  26.282  34.945  1.00  0.00     0.173 A 
ATOM     65  F   UNL A   1      45.832  29.261  33.707  1.00  0.00    -0.203 F 
ATOM     66  C   UNL A   1      46.647  27.487  35.025  1.00  0.00     0.198 A 
ATOM     67  C   UNL A   1      45.185  25.687  35.653  1.00  0.00     0.198 A 
ATOM     68  F   UNL A   1      42.951  25.674  34.918  1.00  0.00    -0.203 F 
ATOM     69  F   UNL A   1      47.862  28.051  35.029  1.00  0.00    -0.200 F 
ATOM     70  C   UNL A   1      46.436  26.286  35.685  1.00  0.00     0.200 A 
ATOM     71  F   UNL A   1      44.976  24.535  36.304  1.00  0.00    -0.200 F 
ATOM     72  F   UNL A   1      47.442  25.700  36.348  1.00  0.00    -0.200 F 
ENDBRANCH  39  62
ENDBRANCH  13  14
ENDBRANCH   6   8
ENDBRANCH   5   6
ENDBRANCH   4   5
ENDBRANCH   3   4
ENDBRANCH   2   3
ENDBRANCH   1   2
BRANCH   1  73
ATOM     73  C   UNL A   1      32.453  27.880  25.494  1.00  0.00     0.261 C 
BRANCH  73  74
ATOM     74  O   UNL A   1      33.499  27.026  25.000  1.00  0.00    -0.463 OA
BRANCH  74  75
ATOM     75  C   UNL A   1      33.375  25.721  25.357  1.00  0.00     0.312 C 
ATOM     76  O   UNL A   1      32.865  25.327  26.401  1.00  0.00    -0.252 OA
BRANCH  75  77
ATOM     77  C   UNL A   1      33.948  24.784  24.301  1.00  0.00     0.123 C 
ATOM     78  C   UNL A   1      35.315  24.355  24.755  1.00  0.00    -0.015 C 
ATOM     79  C   UNL A   1      33.237  23.430  24.088  1.00  0.00     0.043 C 
ATOM     80  C   UNL A   1      35.515  23.046  24.583  1.00  0.00    -0.011 C 
ATOM     81  C   UNL A   1      34.357  22.389  23.920  1.00  0.00     0.093 C 
BRANCH  81  82
ATOM     82  N   UNL A   1      34.033  21.117  24.558  1.00  0.00    -0.204 NA
ATOM     83  H   UNL A   1      34.069  21.277  25.564  1.00  0.00     0.142 HD
BRANCH  82  84
ATOM     84  S   UNL A   1      32.559  20.345  24.243  1.00  0.00     0.241 S 
ATOM     85  O   UNL A   1      31.610  20.703  25.273  1.00  0.00    -0.207 OA
ATOM     86  O   UNL A   1      32.282  20.609  22.846  1.00  0.00    -0.207 OA
BRANCH  84  87
ATOM     87  C   UNL A   1      32.923  18.612  24.416  1.00  0.00     0.082 A 
ATOM     88  C   UNL A   1      33.539  17.915  23.375  1.00  0.00     0.022 A 
ATOM     89  C   UNL A   1      32.564  17.950  25.596  1.00  0.00     0.022 A 
ATOM     90  C   UNL A   1      33.852  16.564  23.547  1.00  0.00     0.001 A 
ATOM     91  C   UNL A   1      32.913  16.613  25.776  1.00  0.00     0.001 A 
ATOM     92  C   UNL A   1      33.559  15.922  24.752  1.00  0.00     0.000 A 
ENDBRANCH  84  87
ENDBRANCH  82  84
ENDBRANCH  81  82
ENDBRANCH  75  77
ENDBRANCH  74  75
ENDBRANCH  73  74
ENDBRANCH   1  73
TORSDOF 17
ENDMDL
MODEL 3
REMARK VINA RESULT:     -11.5      2.114      3.645
REMARK SMILES O=C(OCCOCCOC(=O)[C@H]1C=C[C@@H](NS(=O)(=O)c2ccccc2)C1)c1ccc(-c2c3nc(c(-c4c(F)c(F)c(F)c(F)c4F)c4ccc([nH]4)c(-c4c(F)c(F)c(F)c(F)c4F)c4nc(c(-c5c(F)c(F)c(F)c(F)c5F)c5ccc2[nH]5)C=C4)C=C3)cc1
REMARK SMILES IDX 7 1 6 2 5 3 4 4 3 5 2 6 1 7 27 8 28 9 89 10 29 11 88 12
REMARK SMILES IDX 30 13 31 14 32 15 82 16 33 17 87 18 81 19 83 20 34 21 86 22
REMARK SMILES IDX 80 23 79 24 35 26 67 27 47 28 66 29 48 30 51 31 65 32 84 33
REMARK SMILES IDX 49 34 50 35 64 37 85 38 52 39 36 40 37 41 45 42 38 43 39 44
REMARK SMILES IDX 43 45 46 46 40 47 41 48 44 49 42 50 68 51 69 52 77 53 70 54
REMARK SMILES IDX 71 55 75 56 78 57 72 58 73 59 76 60 74 61 53 62 54 63 62 64
REMARK SMILES IDX 55 65 56 66 60 67 63 68 57 69 58 70 61 71 59 72 8 73 9 74
REMARK SMILES IDX 10 75 11 76 12 77 13 78 26 79 14 80 15 81 16 82 17 84 18 85
REMARK SMILES IDX 19 86 20 87 21 88 25 89 22 90 24 91 23 92
REMARK H PARENT 83 25 51 36 16 83
REMARK Flexibility Score: inf
ROOT
ATOM      1  C   UNL A   1      33.004  28.731  24.197  1.00  0.00     0.202 C 
ENDROOT
BRANCH   1   2
ATOM      2  O   UNL A   1      32.912  29.666  25.279  1.00  0.00    -0.374 OA
BRANCH   2   3
ATOM      3  C   UNL A   1      31.638  30.294  25.463  1.00  0.00     0.202 C 
BRANCH   3   4
ATOM      4  C   UNL A   1      31.577  31.488  26.427  1.00  0.00     0.261 C 
BRANCH   4   5
ATOM      5  O   UNL A   1      32.579  31.382  27.455  1.00  0.00    -0.460 OA
BRANCH   5   6
ATOM      6  C   UNL A   1      33.671  32.164  27.635  1.00  0.00     0.338 C 
ATOM      7  O   UNL A   1      33.580  33.374  27.442  1.00  0.00    -0.246 OA
BRANCH   6   8
ATOM      8  C   UNL A   1      34.982  31.622  28.091  1.00  0.00     0.060 A 
ATOM      9  C   UNL A   1      35.214  30.278  28.374  1.00  0.00     0.016 A 
ATOM     10  C   UNL A   1      36.060  32.514  28.196  1.00  0.00     0.016 A 
ATOM     11  C   UNL A   1      36.422  29.836  28.864  1.00  0.00     0.010 A 
ATOM     12  C   UNL A   1      37.311  32.068  28.635  1.00  0.00     0.010 A 
ATOM     13  C   UNL A   1      37.474  30.728  29.004  1.00  0.00    -0.014 A 
BRANCH  13  14
ATOM     14  C   UNL A   1      38.661  30.213  29.699  1.00  0.00     0.031 A 
ATOM     15  C   UNL A   1      38.835  30.572  31.140  1.00  0.00     0.074 A 
ATOM     16  C   UNL A   1      39.400  29.263  29.101  1.00  0.00     0.049 A 
ATOM     17  N   UNL A   1      39.767  30.211  31.976  1.00  0.00    -0.248 NA
ATOM     18  C   UNL A   1      37.798  31.440  31.728  1.00  0.00     0.031 C 
ATOM     19  C   UNL A   1      39.162  28.736  27.753  1.00  0.00     0.029 A 
ATOM     20  N   UNL A   1      40.452  28.526  29.566  1.00  0.00    -0.354 N 
ATOM     21  C   UNL A   1      39.457  30.842  33.173  1.00  0.00     0.074 A 
ATOM     22  C   UNL A   1      38.246  31.600  32.963  1.00  0.00     0.031 C 
ATOM     23  C   UNL A   1      40.016  27.728  27.520  1.00  0.00     0.029 A 
ATOM     24  C   UNL A   1      40.910  27.598  28.664  1.00  0.00     0.049 A 
ATOM     25  H   UNL A   1      40.844  28.649  30.461  1.00  0.00     0.167 HD
ATOM     26  C   UNL A   1      40.148  30.798  34.335  1.00  0.00     0.037 A 
ATOM     27  C   UNL A   1      41.959  26.763  28.757  1.00  0.00     0.037 A 
ATOM     28  C   UNL A   1      41.341  30.015  34.501  1.00  0.00     0.049 A 
ATOM     29  C   UNL A   1      42.766  26.806  30.025  1.00  0.00     0.074 A 
ATOM     30  C   UNL A   1      42.185  29.936  35.591  1.00  0.00     0.029 A 
ATOM     31  N   UNL A   1      41.855  29.163  33.529  1.00  0.00    -0.354 N 
ATOM     32  N   UNL A   1      42.541  27.487  31.126  1.00  0.00    -0.248 NA
ATOM     33  C   UNL A   1      43.980  25.984  30.062  1.00  0.00     0.031 C 
ATOM     34  C   UNL A   1      43.237  29.073  35.259  1.00  0.00     0.029 A 
ATOM     35  C   UNL A   1      43.016  28.566  33.986  1.00  0.00     0.049 A 
ATOM     36  H   UNL A   1      41.450  29.007  32.644  1.00  0.00     0.167 HD
ATOM     37  C   UNL A   1      43.569  27.160  31.995  1.00  0.00     0.074 A 
ATOM     38  C   UNL A   1      44.409  26.205  31.296  1.00  0.00     0.031 C 
ATOM     39  C   UNL A   1      43.805  27.606  33.254  1.00  0.00     0.037 A 
BRANCH  26  40
ATOM     40  C   UNL A   1      39.677  31.696  35.439  1.00  0.00     0.064 A 
ATOM     41  C   UNL A   1      38.692  31.306  36.360  1.00  0.00     0.173 A 
ATOM     42  C   UNL A   1      40.178  33.003  35.532  1.00  0.00     0.173 A 
ATOM     43  F   UNL A   1      38.153  30.080  36.294  1.00  0.00    -0.203 F 
ATOM     44  C   UNL A   1      38.201  32.205  37.306  1.00  0.00     0.198 A 
ATOM     45  C   UNL A   1      39.707  33.889  36.497  1.00  0.00     0.198 A 
ATOM     46  F   UNL A   1      41.113  33.431  34.669  1.00  0.00    -0.203 F 
ATOM     47  F   UNL A   1      37.209  31.836  38.128  1.00  0.00    -0.200 F 
ATOM     48  C   UNL A   1      38.711  33.494  37.375  1.00  0.00     0.200 A 
ATOM     49  F   UNL A   1      40.202  35.133  36.561  1.00  0.00    -0.200 F 
ATOM     50  F   UNL A   1      38.226  34.361  38.275  1.00  0.00    -0.200 F 
ENDBRANCH  26  40
BRANCH  27  51
ATOM     51  C   UNL A   1      42.321  25.876  27.620  1.00  0.00     0.064 A 
ATOM     52  C   UNL A   1      41.729  24.616  27.458  1.00  0.00     0.173 A 
ATOM     53  C   UNL A   1      43.279  26.267  26.669  1.00  0.00     0.173 A 
ATOM     54  F   UNL A   1      40.823  24.182  28.347  1.00  0.00    -0.203 F 
ATOM     55  C   UNL A   1      42.091  23.778  26.403  1.00  0.00     0.198 A 
ATOM     56  C   UNL A   1      43.616  25.443  25.597  1.00  0.00     0.198 A 
ATOM     57  F   UNL A   1      43.883  27.460  26.774  1.00  0.00    -0.203 F 
ATOM     58  F   UNL A   1      41.542  22.560  26.300  1.00  0.00    -0.200 F 
ATOM     59  C   UNL A   1      43.028  24.195  25.470  1.00  0.00     0.200 A 
ATOM     60  F   UNL A   1      44.512  25.858  24.691  1.00  0.00    -0.200 F 
ATOM     61  F   UNL A   1      43.372  23.391  24.455  1.00  0.00    -0.200 F 
ENDBRANCH  27  51
BRANCH  39  62
ATOM     62  C   UNL A   1      44.987  27.018  33.964  1.00  0.00     0.064 A 
ATOM     63  C   UNL A   1      46.249  27.627  33.928  1.00  0.00     0.173 A 
ATOM     64  C   UNL A   1      44.836  25.847  34.721  1.00  0.00     0.173 A 
ATOM     65  F   UNL A   1      46.442  28.739  33.202  1.00  0.00    -0.203 F 
ATOM     66  C   UNL A   1      47.328  27.067  34.604  1.00  0.00     0.198 A 
ATOM     67  C   UNL A   1      45.909  25.309  35.423  1.00  0.00     0.198 A 
ATOM     68  F   UNL A   1      43.645  25.234  34.791  1.00  0.00    -0.203 F 
ATOM     69  F   UNL A   1      48.538  27.634  34.515  1.00  0.00    -0.200 F 
ATOM     70  C   UNL A   1      47.155  25.914  35.357  1.00  0.00     0.200 A 
ATOM     71  F   UNL A   1      45.737  24.205  36.162  1.00  0.00    -0.200 F 
ATOM     72  F   UNL A   1      48.194  25.381  36.014  1.00  0.00    -0.200 F 
ENDBRANCH  39  62
ENDBRANCH  13  14
ENDBRANCH   6   8
ENDBRANCH   5   6
ENDBRANCH   4   5
ENDBRANCH   3   4
ENDBRANCH   2   3
ENDBRANCH   1   2
BRANCH   1  73
ATOM     73  C   UNL A   1      33.027  27.294  24.713  1.00  0.00     0.261 C 
BRANCH  73  74
ATOM     74  O   UNL A   1      31.669  26.838  24.825  1.00  0.00    -0.463 OA
BRANCH  74  75
ATOM     75  C   UNL A   1      31.319  26.415  26.068  1.00  0.00     0.312 C 
ATOM     76  O   UNL A   1      31.254  27.136  27.058  1.00  0.00    -0.252 OA
BRANCH  75  77
ATOM     77  C   UNL A   1      31.010  24.923  26.097  1.00  0.00     0.123 C 
ATOM     78  C   UNL A   1      30.505  24.528  24.738  1.00  0.00    -0.015 C 
ATOM     79  C   UNL A   1      32.196  23.955  26.297  1.00  0.00     0.043 C 
ATOM     80  C   UNL A   1      31.051  23.386  24.310  1.00  0.00    -0.011 C 
ATOM     81  C   UNL A   1      31.950  22.783  25.331  1.00  0.00     0.093 C 
BRANCH  81  82
ATOM     82  N   UNL A   1      33.184  22.294  24.725  1.00  0.00    -0.204 NA
ATOM     83  H   UNL A   1      33.767  23.111  24.549  1.00  0.00     0.142 HD
BRANCH  82  84
ATOM     84  S   UNL A   1      34.157  21.171  25.538  1.00  0.00     0.241 S 
ATOM     85  O   UNL A   1      33.654  20.998  26.882  1.00  0.00    -0.207 OA
ATOM     86  O   UNL A   1      34.277  20.047  24.633  1.00  0.00    -0.207 OA
BRANCH  84  87
ATOM     87  C   UNL A   1      35.746  21.964  25.650  1.00  0.00     0.082 A 
ATOM     88  C   UNL A   1      35.836  23.312  26.005  1.00  0.00     0.022 A 
ATOM     89  C   UNL A   1      36.901  21.231  25.353  1.00  0.00     0.022 A 
ATOM     90  C   UNL A   1      37.095  23.904  26.126  1.00  0.00     0.001 A 
ATOM     91  C   UNL A   1      38.155  21.818  25.511  1.00  0.00     0.001 A 
ATOM     92  C   UNL A   1      38.251  23.153  25.900  1.00  0.00     0.000 A 
ENDBRANCH  84  87
ENDBRANCH  82  84
ENDBRANCH  81  82
ENDBRANCH  75  77
ENDBRANCH  74  75
ENDBRANCH  73  74
ENDBRANCH   1  73
TORSDOF 17
ENDMDL
