MODEL 1
REMARK VINA RESULT:     -12.3      0.000      0.000
REMARK SMILES CC1=C[C@H](C)[C@@H](C(=O)OCCOCCOC(=O)c2ccc(-c3c4nc(c(-c5c(F)c(F)c(F)c(F)c5F)c5ccc([nH]5)c(-c5c(F)c(F)c(F)c(F)c5F)c5nc(c(-c6c(F)c(F)c(F)c(F)c6F)c6ccc3[nH]6)C=C5)C=C4)cc2)[C@H](C(=O)Nc2cccnc2)C1
REMARK SMILES IDX 12 1 11 2 10 3 9 4 7 5 8 6 6 7 1 8 2 9 3 10 91 11 4 12 81 13
REMARK SMILES IDX 5 14 82 15 83 16 84 17 85 19 86 20 90 21 87 22 89 23 88 24
REMARK SMILES IDX 13 25 14 26 15 27 16 28 17 29 18 30 19 31 80 32 20 33 79 34
REMARK SMILES IDX 21 35 22 36 23 37 73 38 24 39 78 40 72 41 74 42 25 43 77 44
REMARK SMILES IDX 71 45 70 46 26 48 58 49 38 50 57 51 39 52 42 53 56 54 75 55
REMARK SMILES IDX 40 56 41 57 55 59 76 60 43 61 27 62 28 63 36 64 29 65 30 66
REMARK SMILES IDX 34 67 37 68 31 69 32 70 35 71 33 72 59 73 60 74 68 75 61 76
REMARK SMILES IDX 62 77 66 78 69 79 63 80 64 81 67 82 65 83 44 84 45 85 53 86
REMARK SMILES IDX 46 87 47 88 51 89 54 90 48 91 49 92 52 93 50 94
REMARK H PARENT 84 18 74 47 42 58
REMARK Flexibility Score: inf
ROOT
ATOM      1  O   UNL A   1      31.054  29.270  23.695  1.00  0.00    -0.374 OA
ENDROOT
BRANCH   1   2
ATOM      2  C   UNL A   1      31.224  28.219  22.751  1.00  0.00     0.202 C 
BRANCH   2   3
ATOM      3  C   UNL A   1      31.041  26.786  23.247  1.00  0.00     0.261 C 
BRANCH   3   4
ATOM      4  O   UNL A   1      31.625  25.808  22.376  1.00  0.00    -0.463 OA
BRANCH   4   5
ATOM      5  C   UNL A   1      32.969  25.621  22.523  1.00  0.00     0.310 C 
ATOM      6  O   UNL A   1      33.837  26.148  21.840  1.00  0.00    -0.252 OA
BRANCH   5   7
ATOM      7  C   UNL A   1      33.266  24.546  23.557  1.00  0.00     0.118 C 
ATOM      8  C   UNL A   1      37.088  22.617  24.806  1.00  0.00     0.039 C 
ATOM      9  C   UNL A   1      35.845  23.338  24.369  1.00  0.00    -0.076 C 
ATOM     10  C   UNL A   1      35.379  24.412  25.027  1.00  0.00    -0.024 C 
ATOM     11  C   UNL A   1      35.195  22.815  23.123  1.00  0.00     0.044 C 
ATOM     12  C   UNL A   1      34.225  25.244  24.554  1.00  0.00     0.023 C 
ATOM     13  C   UNL A   1      33.738  23.236  22.895  1.00  0.00     0.097 C 
ATOM     14  C   UNL A   1      33.434  25.874  25.712  1.00  0.00     0.013 C 
BRANCH  13  15
ATOM     15  C   UNL A   1      32.737  22.068  23.025  1.00  0.00     0.228 C 
ATOM     16  O   UNL A   1      32.161  21.662  22.007  1.00  0.00    -0.274 OA
ATOM     17  N   UNL A   1      32.536  21.369  24.181  1.00  0.00    -0.324 N 
ATOM     18  H   UNL A   1      32.167  20.464  24.058  1.00  0.00     0.169 HD
BRANCH  17  19
ATOM     19  C   UNL A   1      32.771  21.732  25.510  1.00  0.00     0.059 A 
ATOM     20  C   UNL A   1      33.895  21.300  26.197  1.00  0.00     0.029 A 
ATOM     21  C   UNL A   1      31.925  22.618  26.166  1.00  0.00     0.137 A 
ATOM     22  C   UNL A   1      34.066  21.642  27.536  1.00  0.00     0.022 A 
ATOM     23  N   UNL A   1      32.058  22.969  27.468  1.00  0.00    -0.263 NA
ATOM     24  C   UNL A   1      33.113  22.449  28.132  1.00  0.00     0.111 A 
ENDBRANCH  17  19
ENDBRANCH  13  15
ENDBRANCH   5   7
ENDBRANCH   4   5
ENDBRANCH   3   4
ENDBRANCH   2   3
ENDBRANCH   1   2
BRANCH   1  25
ATOM     25  C   UNL A   1      31.893  29.281  24.849  1.00  0.00     0.202 C 
BRANCH  25  26
ATOM     26  C   UNL A   1      31.706  30.434  25.842  1.00  0.00     0.261 C 
BRANCH  26  27
ATOM     27  O   UNL A   1      32.557  30.322  27.002  1.00  0.00    -0.460 OA
BRANCH  27  28
ATOM     28  C   UNL A   1      33.247  31.446  27.305  1.00  0.00     0.338 C 
ATOM     29  O   UNL A   1      32.811  32.589  27.384  1.00  0.00    -0.246 OA
BRANCH  28  30
ATOM     30  C   UNL A   1      34.622  31.120  27.716  1.00  0.00     0.060 A 
ATOM     31  C   UNL A   1      34.917  29.775  27.976  1.00  0.00     0.016 A 
ATOM     32  C   UNL A   1      35.567  32.116  27.971  1.00  0.00     0.016 A 
ATOM     33  C   UNL A   1      36.136  29.425  28.551  1.00  0.00     0.010 A 
ATOM     34  C   UNL A   1      36.787  31.764  28.557  1.00  0.00     0.010 A 
ATOM     35  C   UNL A   1      37.057  30.423  28.891  1.00  0.00    -0.014 A 
BRANCH  35  36
ATOM     36  C   UNL A   1      38.215  30.074  29.750  1.00  0.00     0.031 A 
ATOM     37  C   UNL A   1      39.250  29.117  29.222  1.00  0.00     0.074 A 
ATOM     38  C   UNL A   1      38.372  30.637  30.960  1.00  0.00     0.049 A 
ATOM     39  N   UNL A   1      40.329  28.654  29.801  1.00  0.00    -0.248 NA
ATOM     40  C   UNL A   1      39.040  28.617  27.855  1.00  0.00     0.031 C 
ATOM     41  C   UNL A   1      37.465  31.613  31.560  1.00  0.00     0.029 A 
ATOM     42  N   UNL A   1      39.355  30.463  31.903  1.00  0.00    -0.354 N 
ATOM     43  C   UNL A   1      40.922  27.809  28.873  1.00  0.00     0.074 A 
ATOM     44  C   UNL A   1      40.068  27.796  27.705  1.00  0.00     0.031 C 
ATOM     45  C   UNL A   1      37.927  31.944  32.778  1.00  0.00     0.029 A 
ATOM     46  C   UNL A   1      39.143  31.179  33.054  1.00  0.00     0.049 A 
ATOM     47  H   UNL A   1      40.136  29.879  31.767  1.00  0.00     0.167 HD
ATOM     48  C   UNL A   1      42.081  27.115  28.981  1.00  0.00     0.037 A 
ATOM     49  C   UNL A   1      39.839  31.197  34.208  1.00  0.00     0.037 A 
ATOM     50  C   UNL A   1      42.929  27.130  30.143  1.00  0.00     0.049 A 
ATOM     51  C   UNL A   1      41.084  30.357  34.331  1.00  0.00     0.074 A 
ATOM     52  C   UNL A   1      44.127  26.468  30.346  1.00  0.00     0.029 A 
ATOM     53  N   UNL A   1      42.662  27.840  31.304  1.00  0.00    -0.354 N 
ATOM     54  N   UNL A   1      41.648  29.573  33.444  1.00  0.00    -0.248 NA
ATOM     55  C   UNL A   1      41.794  30.409  35.618  1.00  0.00     0.031 C 
ATOM     56  C   UNL A   1      44.560  26.738  31.650  1.00  0.00     0.029 A 
ATOM     57  C   UNL A   1      43.661  27.612  32.239  1.00  0.00     0.049 A 
ATOM     58  H   UNL A   1      41.880  28.421  31.445  1.00  0.00     0.167 HD
ATOM     59  C   UNL A   1      42.787  29.061  34.053  1.00  0.00     0.074 A 
ATOM     60  C   UNL A   1      42.843  29.635  35.381  1.00  0.00     0.031 C 
ATOM     61  C   UNL A   1      43.705  28.195  33.555  1.00  0.00     0.037 A 
BRANCH  48  62
ATOM     62  C   UNL A   1      42.485  26.259  27.816  1.00  0.00     0.064 A 
ATOM     63  C   UNL A   1      41.947  24.978  27.620  1.00  0.00     0.173 A 
ATOM     64  C   UNL A   1      43.400  26.738  26.866  1.00  0.00     0.173 A 
ATOM     65  F   UNL A   1      41.079  24.467  28.505  1.00  0.00    -0.203 F 
ATOM     66  C   UNL A   1      42.332  24.199  26.531  1.00  0.00     0.198 A 
ATOM     67  C   UNL A   1      43.759  25.968  25.764  1.00  0.00     0.198 A 
ATOM     68  F   UNL A   1      43.941  27.958  27.004  1.00  0.00    -0.203 F 
ATOM     69  F   UNL A   1      41.842  22.959  26.389  1.00  0.00    -0.200 F 
ATOM     70  C   UNL A   1      43.232  24.696  25.601  1.00  0.00     0.200 A 
ATOM     71  F   UNL A   1      44.620  26.456  24.860  1.00  0.00    -0.200 F 
ATOM     72  F   UNL A   1      43.597  23.947  24.551  1.00  0.00    -0.200 F 
ENDBRANCH  48  62
BRANCH  49  73
ATOM     73  C   UNL A   1      39.364  32.025  35.346  1.00  0.00     0.064 A 
ATOM     74  C   UNL A   1      38.528  31.489  36.336  1.00  0.00     0.173 A 
ATOM     75  C   UNL A   1      39.726  33.375  35.459  1.00  0.00     0.173 A 
ATOM     76  F   UNL A   1      38.133  30.209  36.257  1.00  0.00    -0.203 F 
ATOM     77  C   UNL A   1      38.061  32.276  37.386  1.00  0.00     0.198 A 
ATOM     78  C   UNL A   1      39.281  34.154  36.526  1.00  0.00     0.198 A 
ATOM     79  F   UNL A   1      40.522  33.937  34.538  1.00  0.00    -0.203 F 
ATOM     80  F   UNL A   1      37.226  31.750  38.293  1.00  0.00    -0.200 F 
ATOM     81  C   UNL A   1      38.443  33.606  37.484  1.00  0.00     0.200 A 
ATOM     82  F   UNL A   1      39.664  35.434  36.622  1.00  0.00    -0.200 F 
ATOM     83  F   UNL A   1      37.996  34.361  38.497  1.00  0.00    -0.200 F 
ENDBRANCH  49  73
BRANCH  61  84
ATOM     84  C   UNL A   1      44.868  27.839  34.436  1.00  0.00     0.064 A 
ATOM     85  C   UNL A   1      44.836  26.724  35.286  1.00  0.00     0.173 A 
ATOM     86  C   UNL A   1      46.046  28.601  34.398  1.00  0.00     0.173 A 
ATOM     87  F   UNL A   1      43.728  25.972  35.370  1.00  0.00    -0.203 F 
ATOM     88  C   UNL A   1      45.931  26.399  36.082  1.00  0.00     0.198 A 
ATOM     89  C   UNL A   1      47.150  28.255  35.171  1.00  0.00     0.198 A 
ATOM     90  F   UNL A   1      46.132  29.674  33.596  1.00  0.00    -0.203 F 
ATOM     91  F   UNL A   1      45.860  25.355  36.921  1.00  0.00    -0.200 F 
ATOM     92  C   UNL A   1      47.089  27.158  36.019  1.00  0.00     0.200 A 
ATOM     93  F   UNL A   1      48.273  28.983  35.098  1.00  0.00    -0.200 F 
ATOM     94  F   UNL A   1      48.145  26.839  36.780  1.00  0.00    -0.200 F 
ENDBRANCH  61  84
ENDBRANCH  35  36
ENDBRANCH  28  30
ENDBRANCH  27  28
ENDBRANCH  26  27
ENDBRANCH  25  26
ENDBRANCH   1  25
TORSDOF 16
ENDMDL
MODEL 2
REMARK VINA RESULT:     -12.1      4.260      9.461
REMARK SMILES CC1=C[C@H](C)[C@@H](C(=O)OCCOCCOC(=O)c2ccc(-c3c4nc(c(-c5c(F)c(F)c(F)c(F)c5F)c5ccc([nH]5)c(-c5c(F)c(F)c(F)c(F)c5F)c5nc(c(-c6c(F)c(F)c(F)c(F)c6F)c6ccc3[nH]6)C=C5)C=C4)cc2)[C@H](C(=O)Nc2cccnc2)C1
REMARK SMILES IDX 12 1 11 2 10 3 9 4 7 5 8 6 6 7 1 8 2 9 3 10 91 11 4 12 81 13
REMARK SMILES IDX 5 14 82 15 83 16 84 17 85 19 86 20 90 21 87 22 89 23 88 24
REMARK SMILES IDX 13 25 14 26 15 27 16 28 17 29 18 30 19 31 80 32 20 33 79 34
REMARK SMILES IDX 21 35 22 36 23 37 73 38 24 39 78 40 72 41 74 42 25 43 77 44
REMARK SMILES IDX 71 45 70 46 26 48 58 49 38 50 57 51 39 52 42 53 56 54 75 55
REMARK SMILES IDX 40 56 41 57 55 59 76 60 43 61 27 62 28 63 36 64 29 65 30 66
REMARK SMILES IDX 34 67 37 68 31 69 32 70 35 71 33 72 59 73 60 74 68 75 61 76
REMARK SMILES IDX 62 77 66 78 69 79 63 80 64 81 67 82 65 83 44 84 45 85 53 86
REMARK SMILES IDX 46 87 47 88 51 89 54 90 48 91 49 92 52 93 50 94
REMARK H PARENT 84 18 74 47 42 58
REMARK Flexibility Score: inf
ROOT
ATOM      1  O   UNL A   1      34.963  19.613  24.804  1.00  0.00    -0.374 OA
ENDROOT
BRANCH   1   2
ATOM      2  C   UNL A   1      33.712  20.013  24.259  1.00  0.00     0.202 C 
BRANCH   2   3
ATOM      3  C   UNL A   1      33.292  21.470  24.445  1.00  0.00     0.261 C 
BRANCH   3   4
ATOM      4  O   UNL A   1      33.236  22.203  23.214  1.00  0.00    -0.463 OA
BRANCH   4   5
ATOM      5  C   UNL A   1      34.202  23.153  23.054  1.00  0.00     0.310 C 
ATOM      6  O   UNL A   1      35.385  22.929  22.831  1.00  0.00    -0.252 OA
BRANCH   5   7
ATOM      7  C   UNL A   1      33.661  24.545  23.340  1.00  0.00     0.118 C 
ATOM      8  C   UNL A   1      29.786  25.917  25.069  1.00  0.00     0.039 C 
ATOM      9  C   UNL A   1      31.085  25.384  24.535  1.00  0.00    -0.076 C 
ATOM     10  C   UNL A   1      32.154  25.198  25.326  1.00  0.00    -0.024 C 
ATOM     11  C   UNL A   1      31.091  25.025  23.079  1.00  0.00     0.044 C 
ATOM     12  C   UNL A   1      33.424  24.545  24.871  1.00  0.00     0.023 C 
ATOM     13  C   UNL A   1      32.471  24.891  22.423  1.00  0.00     0.097 C 
ATOM     14  C   UNL A   1      34.663  25.079  25.608  1.00  0.00     0.013 C 
BRANCH  13  15
ATOM     15  C   UNL A   1      32.770  26.003  21.395  1.00  0.00     0.228 C 
ATOM     16  O   UNL A   1      33.062  25.679  20.236  1.00  0.00    -0.274 OA
ATOM     17  N   UNL A   1      32.612  27.335  21.653  1.00  0.00    -0.324 N 
ATOM     18  H   UNL A   1      32.488  27.899  20.856  1.00  0.00     0.169 HD
BRANCH  17  19
ATOM     19  C   UNL A   1      32.599  28.025  22.868  1.00  0.00     0.059 A 
ATOM     20  C   UNL A   1      33.727  28.120  23.667  1.00  0.00     0.029 A 
ATOM     21  C   UNL A   1      31.468  28.720  23.279  1.00  0.00     0.137 A 
ATOM     22  C   UNL A   1      33.658  28.772  24.896  1.00  0.00     0.022 A 
ATOM     23  N   UNL A   1      31.363  29.361  24.469  1.00  0.00    -0.263 NA
ATOM     24  C   UNL A   1      32.455  29.348  25.263  1.00  0.00     0.111 A 
ENDBRANCH  17  19
ENDBRANCH  13  15
ENDBRANCH   5   7
ENDBRANCH   4   5
ENDBRANCH   3   4
ENDBRANCH   2   3
ENDBRANCH   1   2
BRANCH   1  25
ATOM     25  C   UNL A   1      35.884  20.631  25.195  1.00  0.00     0.202 C 
BRANCH  25  26
ATOM     26  C   UNL A   1      37.373  20.366  24.942  1.00  0.00     0.261 C 
BRANCH  26  27
ATOM     27  O   UNL A   1      38.204  21.512  25.222  1.00  0.00    -0.460 OA
BRANCH  27  28
ATOM     28  C   UNL A   1      39.253  21.260  26.039  1.00  0.00     0.338 C 
ATOM     29  O   UNL A   1      39.869  20.207  26.157  1.00  0.00    -0.246 OA
BRANCH  28  30
ATOM     30  C   UNL A   1      39.715  22.496  26.692  1.00  0.00     0.060 A 
ATOM     31  C   UNL A   1      39.169  23.706  26.243  1.00  0.00     0.016 A 
ATOM     32  C   UNL A   1      40.752  22.488  27.626  1.00  0.00     0.016 A 
ATOM     33  C   UNL A   1      39.700  24.917  26.680  1.00  0.00     0.010 A 
ATOM     34  C   UNL A   1      41.291  23.705  28.056  1.00  0.00     0.010 A 
ATOM     35  C   UNL A   1      40.797  24.922  27.551  1.00  0.00    -0.014 A 
BRANCH  35  36
ATOM     36  C   UNL A   1      41.527  26.193  27.784  1.00  0.00     0.031 A 
ATOM     37  C   UNL A   1      40.837  27.300  28.534  1.00  0.00     0.074 A 
ATOM     38  C   UNL A   1      42.801  26.342  27.382  1.00  0.00     0.049 A 
ATOM     39  N   UNL A   1      41.271  28.498  28.835  1.00  0.00    -0.248 NA
ATOM     40  C   UNL A   1      39.475  27.016  29.011  1.00  0.00     0.031 C 
ATOM     41  C   UNL A   1      43.591  25.325  26.690  1.00  0.00     0.029 A 
ATOM     42  N   UNL A   1      43.651  27.413  27.495  1.00  0.00    -0.354 N 
ATOM     43  C   UNL A   1      40.236  29.109  29.531  1.00  0.00     0.074 A 
ATOM     44  C   UNL A   1      39.142  28.165  29.580  1.00  0.00     0.031 C 
ATOM     45  C   UNL A   1      44.809  25.826  26.429  1.00  0.00     0.029 A 
ATOM     46  C   UNL A   1      44.874  27.208  26.906  1.00  0.00     0.049 A 
ATOM     47  H   UNL A   1      43.407  28.249  27.955  1.00  0.00     0.167 HD
ATOM     48  C   UNL A   1      40.207  30.344  30.089  1.00  0.00     0.037 A 
ATOM     49  C   UNL A   1      45.915  28.048  26.751  1.00  0.00     0.037 A 
ATOM     50  C   UNL A   1      41.297  31.283  30.039  1.00  0.00     0.049 A 
ATOM     51  C   UNL A   1      45.830  29.443  27.314  1.00  0.00     0.074 A 
ATOM     52  C   UNL A   1      41.367  32.553  30.581  1.00  0.00     0.029 A 
ATOM     53  N   UNL A   1      42.507  31.051  29.402  1.00  0.00    -0.354 N 
ATOM     54  N   UNL A   1      44.856  30.008  27.985  1.00  0.00    -0.248 NA
ATOM     55  C   UNL A   1      46.994  30.316  27.102  1.00  0.00     0.031 C 
ATOM     56  C   UNL A   1      42.602  33.112  30.228  1.00  0.00     0.029 A 
ATOM     57  C   UNL A   1      43.322  32.167  29.515  1.00  0.00     0.049 A 
ATOM     58  H   UNL A   1      42.752  30.218  28.938  1.00  0.00     0.167 HD
ATOM     59  C   UNL A   1      45.296  31.288  28.296  1.00  0.00     0.074 A 
ATOM     60  C   UNL A   1      46.633  31.413  27.754  1.00  0.00     0.031 C 
ATOM     61  C   UNL A   1      44.653  32.272  28.973  1.00  0.00     0.037 A 
BRANCH  48  62
ATOM     62  C   UNL A   1      38.941  30.760  30.780  1.00  0.00     0.064 A 
ATOM     63  C   UNL A   1      38.782  30.632  32.169  1.00  0.00     0.173 A 
ATOM     64  C   UNL A   1      37.883  31.320  30.048  1.00  0.00     0.173 A 
ATOM     65  F   UNL A   1      39.757  30.090  32.914  1.00  0.00    -0.203 F 
ATOM     66  C   UNL A   1      37.601  31.025  32.794  1.00  0.00     0.198 A 
ATOM     67  C   UNL A   1      36.716  31.739  30.681  1.00  0.00     0.198 A 
ATOM     68  F   UNL A   1      37.985  31.469  28.719  1.00  0.00    -0.203 F 
ATOM     69  F   UNL A   1      37.453  30.850  34.114  1.00  0.00    -0.200 F 
ATOM     70  C   UNL A   1      36.572  31.585  32.051  1.00  0.00     0.200 A 
ATOM     71  F   UNL A   1      35.728  32.291  29.962  1.00  0.00    -0.200 F 
ATOM     72  F   UNL A   1      35.438  31.967  32.654  1.00  0.00    -0.200 F 
ENDBRANCH  48  62
BRANCH  49  73
ATOM     73  C   UNL A   1      47.124  27.598  26.013  1.00  0.00     0.064 A 
ATOM     74  C   UNL A   1      48.231  27.063  26.686  1.00  0.00     0.173 A 
ATOM     75  C   UNL A   1      47.201  27.709  24.617  1.00  0.00     0.173 A 
ATOM     76  F   UNL A   1      48.214  26.962  28.024  1.00  0.00    -0.203 F 
ATOM     77  C   UNL A   1      49.374  26.670  25.994  1.00  0.00     0.198 A 
ATOM     78  C   UNL A   1      48.334  27.288  23.921  1.00  0.00     0.198 A 
ATOM     79  F   UNL A   1      46.171  28.216  23.924  1.00  0.00    -0.203 F 
ATOM     80  F   UNL A   1      50.434  26.204  26.666  1.00  0.00    -0.200 F 
ATOM     81  C   UNL A   1      49.422  26.777  24.611  1.00  0.00     0.200 A 
ATOM     82  F   UNL A   1      48.369  27.382  22.585  1.00  0.00    -0.200 F 
ATOM     83  F   UNL A   1      50.519  26.395  23.945  1.00  0.00    -0.200 F 
ENDBRANCH  49  73
BRANCH  61  84
ATOM     84  C   UNL A   1      45.396  33.559  29.195  1.00  0.00     0.064 A 
ATOM     85  C   UNL A   1      46.226  33.747  30.309  1.00  0.00     0.173 A 
ATOM     86  C   UNL A   1      45.307  34.600  28.259  1.00  0.00     0.173 A 
ATOM     87  F   UNL A   1      46.333  32.787  31.241  1.00  0.00    -0.203 F 
ATOM     88  C   UNL A   1      46.922  34.939  30.490  1.00  0.00     0.198 A 
ATOM     89  C   UNL A   1      46.028  35.779  28.426  1.00  0.00     0.198 A 
ATOM     90  F   UNL A   1      44.533  34.468  27.171  1.00  0.00    -0.203 F 
ATOM     91  F   UNL A   1      47.674  35.115  31.586  1.00  0.00    -0.200 F 
ATOM     92  C   UNL A   1      46.829  35.950  29.546  1.00  0.00     0.200 A 
ATOM     93  F   UNL A   1      45.948  36.749  27.505  1.00  0.00    -0.200 F 
ATOM     94  F   UNL A   1      47.506  37.095  29.717  1.00  0.00    -0.200 F 
ENDBRANCH  61  84
ENDBRANCH  35  36
ENDBRANCH  28  30
ENDBRANCH  27  28
ENDBRANCH  26  27
ENDBRANCH  25  26
ENDBRANCH   1  25
TORSDOF 16
ENDMDL
MODEL 3
REMARK VINA RESULT:     -12.1      1.074      2.210
REMARK SMILES CC1=C[C@H](C)[C@@H](C(=O)OCCOCCOC(=O)c2ccc(-c3c4nc(c(-c5c(F)c(F)c(F)c(F)c5F)c5ccc([nH]5)c(-c5c(F)c(F)c(F)c(F)c5F)c5nc(c(-c6c(F)c(F)c(F)c(F)c6F)c6ccc3[nH]6)C=C5)C=C4)cc2)[C@H](C(=O)Nc2cccnc2)C1
REMARK SMILES IDX 12 1 11 2 10 3 9 4 7 5 8 6 6 7 1 8 2 9 3 10 91 11 4 12 81 13
REMARK SMILES IDX 5 14 82 15 83 16 84 17 85 19 86 20 90 21 87 22 89 23 88 24
REMARK SMILES IDX 13 25 14 26 15 27 16 28 17 29 18 30 19 31 80 32 20 33 79 34
REMARK SMILES IDX 21 35 22 36 23 37 73 38 24 39 78 40 72 41 74 42 25 43 77 44
REMARK SMILES IDX 71 45 70 46 26 48 58 49 38 50 57 51 39 52 42 53 56 54 75 55
REMARK SMILES IDX 40 56 41 57 55 59 76 60 43 61 27 62 28 63 36 64 29 65 30 66
REMARK SMILES IDX 34 67 37 68 31 69 32 70 35 71 33 72 59 73 60 74 68 75 61 76
REMARK SMILES IDX 62 77 66 78 69 79 63 80 64 81 67 82 65 83 44 84 45 85 53 86
REMARK SMILES IDX 46 87 47 88 51 89 54 90 48 91 49 92 52 93 50 94
REMARK H PARENT 84 18 74 47 42 58
REMARK Flexibility Score: inf
ROOT
ATOM      1  O   UNL A   1      31.605  28.830  23.966  1.00  0.00    -0.374 OA
ENDROOT
BRANCH   1   2
ATOM      2  C   UNL A   1      31.826  27.467  23.625  1.00  0.00     0.202 C 
BRANCH   2   3
ATOM      3  C   UNL A   1      31.775  26.437  24.753  1.00  0.00     0.261 C 
BRANCH   3   4
ATOM      4  O   UNL A   1      30.650  25.553  24.658  1.00  0.00    -0.463 OA
BRANCH   4   5
ATOM      5  C   UNL A   1      30.837  24.448  23.880  1.00  0.00     0.310 C 
ATOM      6  O   UNL A   1      30.067  24.053  23.015  1.00  0.00    -0.252 OA
BRANCH   5   7
ATOM      7  C   UNL A   1      32.063  23.664  24.320  1.00  0.00     0.118 C 
ATOM      8  C   UNL A   1      32.981  19.301  24.215  1.00  0.00     0.039 C 
ATOM      9  C   UNL A   1      32.625  20.760  24.180  1.00  0.00    -0.076 C 
ATOM     10  C   UNL A   1      32.999  21.557  23.167  1.00  0.00    -0.024 C 
ATOM     11  C   UNL A   1      31.780  21.251  25.318  1.00  0.00     0.044 C 
ATOM     12  C   UNL A   1      32.555  22.982  23.019  1.00  0.00     0.023 C 
ATOM     13  C   UNL A   1      31.758  22.768  25.537  1.00  0.00     0.097 C 
ATOM     14  C   UNL A   1      33.602  23.859  22.312  1.00  0.00     0.013 C 
BRANCH  13  15
ATOM     15  C   UNL A   1      32.464  23.209  26.837  1.00  0.00     0.228 C 
ATOM     16  O   UNL A   1      31.785  23.711  27.742  1.00  0.00    -0.274 OA
ATOM     17  N   UNL A   1      33.782  22.967  27.102  1.00  0.00    -0.324 N 
ATOM     18  H   UNL A   1      34.019  22.967  28.058  1.00  0.00     0.169 HD
BRANCH  17  19
ATOM     19  C   UNL A   1      34.848  22.718  26.233  1.00  0.00     0.059 A 
ATOM     20  C   UNL A   1      35.460  23.736  25.517  1.00  0.00     0.029 A 
ATOM     21  C   UNL A   1      35.394  21.445  26.122  1.00  0.00     0.137 A 
ATOM     22  C   UNL A   1      36.485  23.438  24.622  1.00  0.00     0.022 A 
ATOM     23  N   UNL A   1      36.386  21.119  25.260  1.00  0.00    -0.263 NA
ATOM     24  C   UNL A   1      36.891  22.121  24.508  1.00  0.00     0.111 A 
ENDBRANCH  17  19
ENDBRANCH  13  15
ENDBRANCH   5   7
ENDBRANCH   4   5
ENDBRANCH   3   4
ENDBRANCH   2   3
ENDBRANCH   1   2
BRANCH   1  25
ATOM     25  C   UNL A   1      32.441  29.419  24.961  1.00  0.00     0.202 C 
BRANCH  25  26
ATOM     26  C   UNL A   1      31.811  30.482  25.869  1.00  0.00     0.261 C 
BRANCH  26  27
ATOM     27  O   UNL A   1      32.452  30.573  27.158  1.00  0.00    -0.460 OA
BRANCH  27  28
ATOM     28  C   UNL A   1      33.228  31.669  27.324  1.00  0.00     0.338 C 
ATOM     29  O   UNL A   1      32.880  32.843  27.278  1.00  0.00    -0.246 OA
BRANCH  28  30
ATOM     30  C   UNL A   1      34.584  31.287  27.754  1.00  0.00     0.060 A 
ATOM     31  C   UNL A   1      34.814  29.935  28.040  1.00  0.00     0.016 A 
ATOM     32  C   UNL A   1      35.571  32.243  28.001  1.00  0.00     0.016 A 
ATOM     33  C   UNL A   1      36.011  29.540  28.633  1.00  0.00     0.010 A 
ATOM     34  C   UNL A   1      36.768  31.846  28.605  1.00  0.00     0.010 A 
ATOM     35  C   UNL A   1      36.974  30.501  28.965  1.00  0.00    -0.014 A 
BRANCH  35  36
ATOM     36  C   UNL A   1      38.107  30.114  29.841  1.00  0.00     0.031 A 
ATOM     37  C   UNL A   1      39.139  29.155  29.314  1.00  0.00     0.074 A 
ATOM     38  C   UNL A   1      38.245  30.647  31.067  1.00  0.00     0.049 A 
ATOM     39  N   UNL A   1      40.198  28.663  29.906  1.00  0.00    -0.248 NA
ATOM     40  C   UNL A   1      38.954  28.690  27.930  1.00  0.00     0.031 C 
ATOM     41  C   UNL A   1      37.338  31.622  31.670  1.00  0.00     0.029 A 
ATOM     42  N   UNL A   1      39.203  30.436  32.028  1.00  0.00    -0.354 N 
ATOM     43  C   UNL A   1      40.800  27.831  28.971  1.00  0.00     0.074 A 
ATOM     44  C   UNL A   1      39.973  27.858  27.785  1.00  0.00     0.031 C 
ATOM     45  C   UNL A   1      37.777  31.917  32.905  1.00  0.00     0.029 A 
ATOM     46  C   UNL A   1      38.975  31.128  33.191  1.00  0.00     0.049 A 
ATOM     47  H   UNL A   1      39.978  29.844  31.895  1.00  0.00     0.167 HD
ATOM     48  C   UNL A   1      41.947  27.117  29.088  1.00  0.00     0.037 A 
ATOM     49  C   UNL A   1      39.645  31.108  34.359  1.00  0.00     0.037 A 
ATOM     50  C   UNL A   1      42.768  27.092  30.269  1.00  0.00     0.049 A 
ATOM     51  C   UNL A   1      40.875  30.248  34.491  1.00  0.00     0.074 A 
ATOM     52  C   UNL A   1      43.952  26.409  30.484  1.00  0.00     0.029 A 
ATOM     53  N   UNL A   1      42.485  27.779  31.441  1.00  0.00    -0.354 N 
ATOM     54  N   UNL A   1      41.447  29.476  33.598  1.00  0.00    -0.248 NA
ATOM     55  C   UNL A   1      41.556  30.259  35.794  1.00  0.00     0.031 C 
ATOM     56  C   UNL A   1      44.359  26.641  31.802  1.00  0.00     0.029 A 
ATOM     57  C   UNL A   1      43.459  27.515  32.391  1.00  0.00     0.049 A 
ATOM     58  H   UNL A   1      41.708  28.368  31.578  1.00  0.00     0.167 HD
ATOM     59  C   UNL A   1      42.565  28.934  34.219  1.00  0.00     0.074 A 
ATOM     60  C   UNL A   1      42.599  29.475  35.562  1.00  0.00     0.031 C 
ATOM     61  C   UNL A   1      43.481  28.066  33.722  1.00  0.00     0.037 A 
BRANCH  48  62
ATOM     62  C   UNL A   1      42.364  26.283  27.912  1.00  0.00     0.064 A 
ATOM     63  C   UNL A   1      41.819  25.012  27.679  1.00  0.00     0.173 A 
ATOM     64  C   UNL A   1      43.302  26.774  26.991  1.00  0.00     0.173 A 
ATOM     65  F   UNL A   1      40.930  24.490  28.536  1.00  0.00    -0.203 F 
ATOM     66  C   UNL A   1      42.217  24.253  26.581  1.00  0.00     0.198 A 
ATOM     67  C   UNL A   1      43.675  26.024  25.879  1.00  0.00     0.198 A 
ATOM     68  F   UNL A   1      43.851  27.986  27.165  1.00  0.00    -0.203 F 
ATOM     69  F   UNL A   1      41.718  23.021  26.403  1.00  0.00    -0.200 F 
ATOM     70  C   UNL A   1      43.139  24.762  25.678  1.00  0.00     0.200 A 
ATOM     71  F   UNL A   1      44.557  26.524  25.002  1.00  0.00    -0.200 F 
ATOM     72  F   UNL A   1      43.517  24.032  24.620  1.00  0.00    -0.200 F 
ENDBRANCH  48  62
BRANCH  49  73
ATOM     73  C   UNL A   1      39.156  31.916  35.506  1.00  0.00     0.064 A 
ATOM     74  C   UNL A   1      39.534  33.256  35.666  1.00  0.00     0.173 A 
ATOM     75  C   UNL A   1      38.310  31.357  36.475  1.00  0.00     0.173 A 
ATOM     76  F   UNL A   1      40.363  33.827  34.779  1.00  0.00    -0.203 F 
ATOM     77  C   UNL A   1      39.097  34.002  36.758  1.00  0.00     0.198 A 
ATOM     78  C   UNL A   1      37.850  32.113  37.552  1.00  0.00     0.198 A 
ATOM     79  F   UNL A   1      37.920  30.079  36.371  1.00  0.00    -0.203 F 
ATOM     80  F   UNL A   1      39.510  35.267  36.911  1.00  0.00    -0.200 F 
ATOM     81  C   UNL A   1      38.250  33.432  37.698  1.00  0.00     0.200 A 
ATOM     82  F   UNL A   1      37.021  31.560  38.449  1.00  0.00    -0.200 F 
ATOM     83  F   UNL A   1      37.827  34.151  38.745  1.00  0.00    -0.200 F 
ENDBRANCH  49  73
BRANCH  61  84
ATOM     84  C   UNL A   1      44.619  27.672  34.620  1.00  0.00     0.064 A 
ATOM     85  C   UNL A   1      44.554  26.534  35.437  1.00  0.00     0.173 A 
ATOM     86  C   UNL A   1      45.806  28.421  34.631  1.00  0.00     0.173 A 
ATOM     87  F   UNL A   1      43.436  25.793  35.474  1.00  0.00    -0.203 F 
ATOM     88  C   UNL A   1      45.626  26.174  36.249  1.00  0.00     0.198 A 
ATOM     89  C   UNL A   1      46.887  28.041  35.421  1.00  0.00     0.198 A 
ATOM     90  F   UNL A   1      45.923  29.515  33.863  1.00  0.00    -0.203 F 
ATOM     91  F   UNL A   1      45.524  25.108  37.057  1.00  0.00    -0.200 F 
ATOM     92  C   UNL A   1      46.793  26.922  36.235  1.00  0.00     0.200 A 
ATOM     93  F   UNL A   1      48.019  28.757  35.395  1.00  0.00    -0.200 F 
ATOM     94  F   UNL A   1      47.828  26.569  37.012  1.00  0.00    -0.200 F 
ENDBRANCH  61  84
ENDBRANCH  35  36
ENDBRANCH  28  30
ENDBRANCH  27  28
ENDBRANCH  26  27
ENDBRANCH  25  26
ENDBRANCH   1  25
TORSDOF 16
ENDMDL
