MODEL 1
REMARK VINA RESULT:     -11.0      0.000      0.000
REMARK SMILES O=C(CC1(Nc2ccc(C(F)(F)F)cc2)CCC1)OCCOCCOC(=O)c1ccc(-c2c3nc(c(-c4c(F)c(F)c(F)c(F)c4F)c4ccc([nH]4)c(-c4c(F)c(F)c(F)c(F)c4F)c4nc(c(-c5c(F)c(F)c(F)c(F)c5F)c5ccc2[nH]5)C=C4)C=C3)cc1
REMARK SMILES IDX 21 1 20 2 19 3 2 4 1 5 3 6 4 7 16 8 18 9 17 10 5 11 6 13
REMARK SMILES IDX 7 14 15 15 8 16 14 17 9 18 10 19 11 20 12 21 13 22 22 23
REMARK SMILES IDX 23 24 24 25 25 26 26 27 27 28 28 29 29 30 90 31 30 32 89 33
REMARK SMILES IDX 31 34 32 35 33 36 83 37 34 38 88 39 82 40 84 41 35 42 87 43
REMARK SMILES IDX 81 44 80 45 36 47 68 48 48 49 67 50 49 51 52 52 66 53 85 54
REMARK SMILES IDX 50 55 51 56 65 58 86 59 53 60 37 61 38 62 46 63 39 64 40 65
REMARK SMILES IDX 44 66 47 67 41 68 42 69 45 70 43 71 69 72 70 73 78 74 71 75
REMARK SMILES IDX 72 76 76 77 79 78 73 79 74 80 77 81 75 82 54 83 55 84 63 85
REMARK SMILES IDX 56 86 57 87 61 88 64 89 58 90 59 91 62 92 60 93
REMARK H PARENT 5 12 84 46 52 57
REMARK Flexibility Score: inf
ROOT
ATOM      1  C   UNL A   1      35.042  23.926  24.546  1.00  0.00     0.202 C 
ENDROOT
BRANCH   1   2
ATOM      2  C   UNL A   1      33.757  24.362  23.868  1.00  0.00     0.261 C 
BRANCH   2   3
ATOM      3  O   UNL A   1      33.979  25.308  22.815  1.00  0.00    -0.463 OA
BRANCH   3   4
ATOM      4  C   UNL A   1      33.005  25.764  22.004  1.00  0.00     0.308 C 
ATOM      5  O   UNL A   1      33.277  25.981  20.820  1.00  0.00    -0.252 OA
BRANCH   4   6
ATOM      6  C   UNL A   1      31.602  26.005  22.501  1.00  0.00     0.151 C 
BRANCH   6   7
ATOM      7  C   UNL A   1      31.220  27.311  23.210  1.00  0.00     0.048 C 
ATOM      8  C   UNL A   1      31.919  28.589  22.650  1.00  0.00     0.029 C 
ATOM      9  C   UNL A   1      29.865  27.941  22.741  1.00  0.00     0.029 C 
ATOM     10  C   UNL A   1      30.556  29.290  22.552  1.00  0.00     0.005 C 
BRANCH   7  11
ATOM     11  N   UNL A   1      31.302  27.297  24.664  1.00  0.00    -0.379 N 
ATOM     12  H   UNL A   1      30.612  26.745  25.099  1.00  0.00     0.161 HD
BRANCH  11  13
ATOM     13  C   UNL A   1      32.186  27.930  25.566  1.00  0.00     0.034 A 
ATOM     14  C   UNL A   1      33.424  27.318  25.824  1.00  0.00     0.026 A 
ATOM     15  C   UNL A   1      31.973  29.209  26.087  1.00  0.00     0.026 A 
ATOM     16  C   UNL A   1      34.442  27.992  26.514  1.00  0.00     0.015 A 
ATOM     17  C   UNL A   1      32.988  29.888  26.778  1.00  0.00     0.015 A 
ATOM     18  C   UNL A   1      34.244  29.298  26.980  1.00  0.00     0.056 A 
BRANCH  18  19
ATOM     19  C   UNL A   1      35.357  30.077  27.643  1.00  0.00     0.416 C 
ATOM     20  F   UNL A   1      36.580  29.884  27.072  1.00  0.00    -0.166 F 
ATOM     21  F   UNL A   1      35.148  31.424  27.660  1.00  0.00    -0.166 F 
ATOM     22  F   UNL A   1      35.513  29.732  28.956  1.00  0.00    -0.166 F 
ENDBRANCH  18  19
ENDBRANCH  11  13
ENDBRANCH   7  11
ENDBRANCH   6   7
ENDBRANCH   4   6
ENDBRANCH   3   4
ENDBRANCH   2   3
ENDBRANCH   1   2
BRANCH   1  23
ATOM     23  O   UNL A   1      35.343  22.555  24.316  1.00  0.00    -0.374 OA
BRANCH  23  24
ATOM     24  C   UNL A   1      36.654  22.292  23.817  1.00  0.00     0.202 C 
BRANCH  24  25
ATOM     25  C   UNL A   1      37.404  21.230  24.626  1.00  0.00     0.261 C 
BRANCH  25  26
ATOM     26  O   UNL A   1      37.818  21.760  25.894  1.00  0.00    -0.460 OA
BRANCH  26  27
ATOM     27  C   UNL A   1      39.107  21.511  26.222  1.00  0.00     0.338 C 
ATOM     28  O   UNL A   1      39.764  20.510  25.985  1.00  0.00    -0.246 OA
BRANCH  27  29
ATOM     29  C   UNL A   1      39.723  22.738  26.754  1.00  0.00     0.060 A 
ATOM     30  C   UNL A   1      39.213  23.965  26.299  1.00  0.00     0.016 A 
ATOM     31  C   UNL A   1      40.756  22.697  27.692  1.00  0.00     0.016 A 
ATOM     32  C   UNL A   1      39.762  25.156  26.748  1.00  0.00     0.010 A 
ATOM     33  C   UNL A   1      41.316  23.891  28.135  1.00  0.00     0.010 A 
ATOM     34  C   UNL A   1      40.843  25.116  27.635  1.00  0.00    -0.014 A 
BRANCH  34  35
ATOM     35  C   UNL A   1      41.610  26.346  27.898  1.00  0.00     0.031 A 
ATOM     36  C   UNL A   1      40.922  27.453  28.636  1.00  0.00     0.074 A 
ATOM     37  C   UNL A   1      42.881  26.452  27.481  1.00  0.00     0.049 A 
ATOM     38  N   UNL A   1      41.332  28.669  28.879  1.00  0.00    -0.248 NA
ATOM     39  C   UNL A   1      39.579  27.151  29.164  1.00  0.00     0.031 C 
ATOM     40  C   UNL A   1      43.638  25.402  26.802  1.00  0.00     0.029 A 
ATOM     41  N   UNL A   1      43.751  27.506  27.552  1.00  0.00    -0.354 N 
ATOM     42  C   UNL A   1      40.292  29.280  29.568  1.00  0.00     0.074 A 
ATOM     43  C   UNL A   1      39.224  28.314  29.684  1.00  0.00     0.031 C 
ATOM     44  C   UNL A   1      44.858  25.874  26.497  1.00  0.00     0.029 A 
ATOM     45  C   UNL A   1      44.945  27.269  26.920  1.00  0.00     0.049 A 
ATOM     46  H   UNL A   1      43.541  28.351  28.011  1.00  0.00     0.167 HD
ATOM     47  C   UNL A   1      40.247  30.539  30.061  1.00  0.00     0.037 A 
ATOM     48  C   UNL A   1      45.971  28.108  26.684  1.00  0.00     0.037 A 
ATOM     49  C   UNL A   1      41.327  31.479  29.927  1.00  0.00     0.049 A 
ATOM     50  C   UNL A   1      45.866  29.525  27.183  1.00  0.00     0.074 A 
ATOM     51  C   UNL A   1      41.406  32.779  30.390  1.00  0.00     0.029 A 
ATOM     52  N   UNL A   1      42.522  31.211  29.272  1.00  0.00    -0.354 N 
ATOM     53  N   UNL A   1      44.888  30.102  27.843  1.00  0.00    -0.248 NA
ATOM     54  C   UNL A   1      47.005  30.408  26.907  1.00  0.00     0.031 C 
ATOM     55  C   UNL A   1      42.625  33.315  29.966  1.00  0.00     0.029 A 
ATOM     56  C   UNL A   1      43.336  32.330  29.296  1.00  0.00     0.049 A 
ATOM     57  H   UNL A   1      42.756  30.353  28.851  1.00  0.00     0.167 HD
ATOM     58  C   UNL A   1      45.306  31.403  28.087  1.00  0.00     0.074 A 
ATOM     59  C   UNL A   1      46.633  31.523  27.518  1.00  0.00     0.031 C 
ATOM     60  C   UNL A   1      44.657  32.411  28.723  1.00  0.00     0.037 A 
BRANCH  47  61
ATOM     61  C   UNL A   1      38.985  30.974  30.747  1.00  0.00     0.064 A 
ATOM     62  C   UNL A   1      37.946  31.616  30.056  1.00  0.00     0.173 A 
ATOM     63  C   UNL A   1      38.802  30.726  32.117  1.00  0.00     0.173 A 
ATOM     64  F   UNL A   1      38.076  31.898  28.751  1.00  0.00    -0.203 F 
ATOM     65  C   UNL A   1      36.785  32.016  30.715  1.00  0.00     0.198 A 
ATOM     66  C   UNL A   1      37.628  31.098  32.765  1.00  0.00     0.198 A 
ATOM     67  F   UNL A   1      39.765  30.118  32.828  1.00  0.00    -0.203 F 
ATOM     68  F   UNL A   1      35.829  32.673  30.044  1.00  0.00    -0.200 F 
ATOM     69  C   UNL A   1      36.623  31.748  32.065  1.00  0.00     0.200 A 
ATOM     70  F   UNL A   1      37.469  30.828  34.069  1.00  0.00    -0.200 F 
ATOM     71  F   UNL A   1      35.501  32.125  32.695  1.00  0.00    -0.200 F 
ENDBRANCH  47  61
BRANCH  48  72
ATOM     72  C   UNL A   1      47.162  27.637  25.931  1.00  0.00     0.064 A 
ATOM     73  C   UNL A   1      48.275  27.107  26.597  1.00  0.00     0.173 A 
ATOM     74  C   UNL A   1      47.218  27.714  24.530  1.00  0.00     0.173 A 
ATOM     75  F   UNL A   1      48.279  27.029  27.935  1.00  0.00    -0.203 F 
ATOM     76  C   UNL A   1      49.406  26.693  25.895  1.00  0.00     0.198 A 
ATOM     77  C   UNL A   1      48.336  27.270  23.827  1.00  0.00     0.198 A 
ATOM     78  F   UNL A   1      46.179  28.209  23.841  1.00  0.00    -0.203 F 
ATOM     79  F   UNL A   1      50.475  26.236  26.561  1.00  0.00    -0.200 F 
ATOM     80  C   UNL A   1      49.434  26.769  24.511  1.00  0.00     0.200 A 
ATOM     81  F   UNL A   1      48.350  27.329  22.488  1.00  0.00    -0.200 F 
ATOM     82  F   UNL A   1      50.519  26.367  23.836  1.00  0.00    -0.200 F 
ENDBRANCH  48  72
BRANCH  60  83
ATOM     83  C   UNL A   1      45.393  33.710  28.871  1.00  0.00     0.064 A 
ATOM     84  C   UNL A   1      45.271  34.740  27.928  1.00  0.00     0.173 A 
ATOM     85  C   UNL A   1      46.205  33.937  29.993  1.00  0.00     0.173 A 
ATOM     86  F   UNL A   1      44.518  34.565  26.831  1.00  0.00    -0.203 F 
ATOM     87  C   UNL A   1      45.960  35.938  28.086  1.00  0.00     0.198 A 
ATOM     88  C   UNL A   1      46.863  35.149  30.167  1.00  0.00     0.198 A 
ATOM     89  F   UNL A   1      46.347  32.986  30.930  1.00  0.00    -0.203 F 
ATOM     90  F   UNL A   1      45.875  36.887  27.144  1.00  0.00    -0.200 F 
ATOM     91  C   UNL A   1      46.749  36.145  29.208  1.00  0.00     0.200 A 
ATOM     92  F   UNL A   1      47.610  35.354  31.260  1.00  0.00    -0.200 F 
ATOM     93  F   UNL A   1      47.407  37.302  29.363  1.00  0.00    -0.200 F 
ENDBRANCH  60  83
ENDBRANCH  34  35
ENDBRANCH  27  29
ENDBRANCH  26  27
ENDBRANCH  25  26
ENDBRANCH  24  25
ENDBRANCH  23  24
ENDBRANCH   1  23
TORSDOF 18
ENDMDL
MODEL 2
REMARK VINA RESULT:     -11.0      2.137      2.995
REMARK SMILES O=C(CC1(Nc2ccc(C(F)(F)F)cc2)CCC1)OCCOCCOC(=O)c1ccc(-c2c3nc(c(-c4c(F)c(F)c(F)c(F)c4F)c4ccc([nH]4)c(-c4c(F)c(F)c(F)c(F)c4F)c4nc(c(-c5c(F)c(F)c(F)c(F)c5F)c5ccc2[nH]5)C=C4)C=C3)cc1
REMARK SMILES IDX 21 1 20 2 19 3 2 4 1 5 3 6 4 7 16 8 18 9 17 10 5 11 6 13
REMARK SMILES IDX 7 14 15 15 8 16 14 17 9 18 10 19 11 20 12 21 13 22 22 23
REMARK SMILES IDX 23 24 24 25 25 26 26 27 27 28 28 29 29 30 90 31 30 32 89 33
REMARK SMILES IDX 31 34 32 35 33 36 83 37 34 38 88 39 82 40 84 41 35 42 87 43
REMARK SMILES IDX 81 44 80 45 36 47 68 48 48 49 67 50 49 51 52 52 66 53 85 54
REMARK SMILES IDX 50 55 51 56 65 58 86 59 53 60 37 61 38 62 46 63 39 64 40 65
REMARK SMILES IDX 44 66 47 67 41 68 42 69 45 70 43 71 69 72 70 73 78 74 71 75
REMARK SMILES IDX 72 76 76 77 79 78 73 79 74 80 77 81 75 82 54 83 55 84 63 85
REMARK SMILES IDX 56 86 57 87 61 88 64 89 58 90 59 91 62 92 60 93
REMARK H PARENT 5 12 84 46 52 57
REMARK Flexibility Score: inf
ROOT
ATOM      1  C   UNL A   1      33.977  21.280  26.862  1.00  0.00     0.202 C 
ENDROOT
BRANCH   1   2
ATOM      2  C   UNL A   1      33.436  22.439  27.678  1.00  0.00     0.261 C 
BRANCH   2   3
ATOM      3  O   UNL A   1      32.017  22.586  27.559  1.00  0.00    -0.463 OA
BRANCH   3   4
ATOM      4  C   UNL A   1      31.423  23.441  26.703  1.00  0.00     0.308 C 
ATOM      5  O   UNL A   1      30.741  24.359  27.164  1.00  0.00    -0.252 OA
BRANCH   4   6
ATOM      6  C   UNL A   1      31.581  23.308  25.208  1.00  0.00     0.151 C 
BRANCH   6   7
ATOM      7  C   UNL A   1      32.373  24.340  24.395  1.00  0.00     0.048 C 
ATOM      8  C   UNL A   1      33.924  24.221  24.519  1.00  0.00     0.029 C 
ATOM      9  C   UNL A   1      32.545  23.989  22.879  1.00  0.00     0.029 C 
ATOM     10  C   UNL A   1      34.047  24.245  22.988  1.00  0.00     0.005 C 
BRANCH   7  11
ATOM     11  N   UNL A   1      31.967  25.729  24.556  1.00  0.00    -0.379 N 
ATOM     12  H   UNL A   1      32.485  26.223  25.231  1.00  0.00     0.161 HD
BRANCH  11  13
ATOM     13  C   UNL A   1      30.964  26.498  23.924  1.00  0.00     0.034 A 
ATOM     14  C   UNL A   1      29.621  26.215  24.221  1.00  0.00     0.026 A 
ATOM     15  C   UNL A   1      31.233  27.630  23.150  1.00  0.00     0.026 A 
ATOM     16  C   UNL A   1      28.588  27.075  23.824  1.00  0.00     0.015 A 
ATOM     17  C   UNL A   1      30.203  28.495  22.749  1.00  0.00     0.015 A 
ATOM     18  C   UNL A   1      28.869  28.242  23.102  1.00  0.00     0.056 A 
BRANCH  18  19
ATOM     19  C   UNL A   1      27.783  29.230  22.744  1.00  0.00     0.416 C 
ATOM     20  F   UNL A   1      27.817  29.638  21.443  1.00  0.00    -0.166 F 
ATOM     21  F   UNL A   1      26.522  28.763  22.967  1.00  0.00    -0.166 F 
ATOM     22  F   UNL A   1      27.867  30.376  23.484  1.00  0.00    -0.166 F 
ENDBRANCH  18  19
ENDBRANCH  11  13
ENDBRANCH   7  11
ENDBRANCH   6   7
ENDBRANCH   4   6
ENDBRANCH   3   4
ENDBRANCH   2   3
ENDBRANCH   1   2
BRANCH   1  23
ATOM     23  O   UNL A   1      35.284  21.529  26.359  1.00  0.00    -0.374 OA
BRANCH  23  24
ATOM     24  C   UNL A   1      35.665  20.744  25.230  1.00  0.00     0.202 C 
BRANCH  24  25
ATOM     25  C   UNL A   1      37.180  20.704  25.008  1.00  0.00     0.261 C 
BRANCH  25  26
ATOM     26  O   UNL A   1      37.824  21.766  25.727  1.00  0.00    -0.460 OA
BRANCH  26  27
ATOM     27  C   UNL A   1      39.081  21.491  26.145  1.00  0.00     0.338 C 
ATOM     28  O   UNL A   1      39.727  20.471  25.965  1.00  0.00    -0.246 OA
BRANCH  27  29
ATOM     29  C   UNL A   1      39.691  22.710  26.700  1.00  0.00     0.060 A 
ATOM     30  C   UNL A   1      39.242  23.942  26.198  1.00  0.00     0.016 A 
ATOM     31  C   UNL A   1      40.661  22.658  27.704  1.00  0.00     0.016 A 
ATOM     32  C   UNL A   1      39.790  25.126  26.667  1.00  0.00     0.010 A 
ATOM     33  C   UNL A   1      41.219  23.844  28.167  1.00  0.00     0.010 A 
ATOM     34  C   UNL A   1      40.810  25.073  27.623  1.00  0.00    -0.014 A 
BRANCH  34  35
ATOM     35  C   UNL A   1      41.588  26.288  27.920  1.00  0.00     0.031 A 
ATOM     36  C   UNL A   1      40.913  27.376  28.698  1.00  0.00     0.074 A 
ATOM     37  C   UNL A   1      42.857  26.398  27.499  1.00  0.00     0.049 A 
ATOM     38  N   UNL A   1      41.333  28.581  28.977  1.00  0.00    -0.248 NA
ATOM     39  C   UNL A   1      39.571  27.067  29.224  1.00  0.00     0.031 C 
ATOM     40  C   UNL A   1      43.602  25.364  26.782  1.00  0.00     0.029 A 
ATOM     41  N   UNL A   1      43.736  27.443  27.598  1.00  0.00    -0.354 N 
ATOM     42  C   UNL A   1      40.302  29.177  29.692  1.00  0.00     0.074 A 
ATOM     43  C   UNL A   1      39.228  28.216  29.783  1.00  0.00     0.031 C 
ATOM     44  C   UNL A   1      44.823  25.837  26.484  1.00  0.00     0.029 A 
ATOM     45  C   UNL A   1      44.924  27.216  26.951  1.00  0.00     0.049 A 
ATOM     46  H   UNL A   1      43.535  28.274  28.085  1.00  0.00     0.167 HD
ATOM     47  C   UNL A   1      40.270  30.420  30.224  1.00  0.00     0.037 A 
ATOM     48  C   UNL A   1      45.954  28.055  26.736  1.00  0.00     0.037 A 
ATOM     49  C   UNL A   1      41.357  31.355  30.114  1.00  0.00     0.049 A 
ATOM     50  C   UNL A   1      45.863  29.456  27.281  1.00  0.00     0.074 A 
ATOM     51  C   UNL A   1      41.448  32.639  30.618  1.00  0.00     0.029 A 
ATOM     52  N   UNL A   1      42.545  31.099  29.444  1.00  0.00    -0.354 N 
ATOM     53  N   UNL A   1      44.895  30.019  27.965  1.00  0.00    -0.248 NA
ATOM     54  C   UNL A   1      47.008  30.339  27.026  1.00  0.00     0.031 C 
ATOM     55  C   UNL A   1      42.669  33.180  30.204  1.00  0.00     0.029 A 
ATOM     56  C   UNL A   1      43.368  32.211  29.498  1.00  0.00     0.049 A 
ATOM     57  H   UNL A   1      42.770  30.253  28.994  1.00  0.00     0.167 HD
ATOM     58  C   UNL A   1      45.323  31.308  28.248  1.00  0.00     0.074 A 
ATOM     59  C   UNL A   1      46.648  31.437  27.674  1.00  0.00     0.031 C 
ATOM     60  C   UNL A   1      44.686  32.300  28.920  1.00  0.00     0.037 A 
BRANCH  47  61
ATOM     61  C   UNL A   1      39.015  30.842  30.932  1.00  0.00     0.064 A 
ATOM     62  C   UNL A   1      37.942  31.437  30.252  1.00  0.00     0.173 A 
ATOM     63  C   UNL A   1      38.876  30.629  32.313  1.00  0.00     0.173 A 
ATOM     64  F   UNL A   1      38.030  31.684  28.936  1.00  0.00    -0.203 F 
ATOM     65  C   UNL A   1      36.788  31.826  30.930  1.00  0.00     0.198 A 
ATOM     66  C   UNL A   1      37.709  30.990  32.982  1.00  0.00     0.198 A 
ATOM     67  F   UNL A   1      39.873  30.068  33.015  1.00  0.00    -0.203 F 
ATOM     68  F   UNL A   1      35.798  32.439  30.267  1.00  0.00    -0.200 F 
ATOM     69  C   UNL A   1      36.669  31.594  32.292  1.00  0.00     0.200 A 
ATOM     70  F   UNL A   1      37.592  30.755  34.296  1.00  0.00    -0.200 F 
ATOM     71  F   UNL A   1      35.556  31.960  32.940  1.00  0.00    -0.200 F 
ENDBRANCH  47  61
BRANCH  48  72
ATOM     72  C   UNL A   1      47.138  27.599  25.961  1.00  0.00     0.064 A 
ATOM     73  C   UNL A   1      48.254  27.048  26.603  1.00  0.00     0.173 A 
ATOM     74  C   UNL A   1      47.182  27.712  24.562  1.00  0.00     0.173 A 
ATOM     75  F   UNL A   1      48.269  26.936  27.939  1.00  0.00    -0.203 F 
ATOM     76  C   UNL A   1      49.378  26.649  25.881  1.00  0.00     0.198 A 
ATOM     77  C   UNL A   1      48.292  27.283  23.838  1.00  0.00     0.198 A 
ATOM     78  F   UNL A   1      46.139  28.229  23.895  1.00  0.00    -0.203 F 
ATOM     79  F   UNL A   1      50.450  26.170  26.526  1.00  0.00    -0.200 F 
ATOM     80  C   UNL A   1      49.394  26.761  24.500  1.00  0.00     0.200 A 
ATOM     81  F   UNL A   1      48.296  27.376  22.501  1.00  0.00    -0.200 F 
ATOM     82  F   UNL A   1      50.472  26.372  23.806  1.00  0.00    -0.200 F 
ENDBRANCH  48  72
BRANCH  60  83
ATOM     83  C   UNL A   1      45.434  33.588  29.105  1.00  0.00     0.064 A 
ATOM     84  C   UNL A   1      45.316  34.648  28.194  1.00  0.00     0.173 A 
ATOM     85  C   UNL A   1      46.251  33.775  30.230  1.00  0.00     0.173 A 
ATOM     86  F   UNL A   1      44.558  34.513  27.095  1.00  0.00    -0.203 F 
ATOM     87  C   UNL A   1      46.015  35.835  28.386  1.00  0.00     0.198 A 
ATOM     88  C   UNL A   1      46.919  34.976  30.438  1.00  0.00     0.198 A 
ATOM     89  F   UNL A   1      46.390  32.794  31.136  1.00  0.00    -0.203 F 
ATOM     90  F   UNL A   1      45.934  36.813  27.474  1.00  0.00    -0.200 F 
ATOM     91  C   UNL A   1      46.810  36.001  29.511  1.00  0.00     0.200 A 
ATOM     92  F   UNL A   1      47.672  35.141  31.534  1.00  0.00    -0.200 F 
ATOM     93  F   UNL A   1      47.478  37.148  29.698  1.00  0.00    -0.200 F 
ENDBRANCH  60  83
ENDBRANCH  34  35
ENDBRANCH  27  29
ENDBRANCH  26  27
ENDBRANCH  25  26
ENDBRANCH  24  25
ENDBRANCH  23  24
ENDBRANCH   1  23
TORSDOF 18
ENDMDL
MODEL 3
REMARK VINA RESULT:     -11.0      5.076     10.241
REMARK SMILES O=C(CC1(Nc2ccc(C(F)(F)F)cc2)CCC1)OCCOCCOC(=O)c1ccc(-c2c3nc(c(-c4c(F)c(F)c(F)c(F)c4F)c4ccc([nH]4)c(-c4c(F)c(F)c(F)c(F)c4F)c4nc(c(-c5c(F)c(F)c(F)c(F)c5F)c5ccc2[nH]5)C=C4)C=C3)cc1
REMARK SMILES IDX 21 1 20 2 19 3 2 4 1 5 3 6 4 7 16 8 18 9 17 10 5 11 6 13
REMARK SMILES IDX 7 14 15 15 8 16 14 17 9 18 10 19 11 20 12 21 13 22 22 23
REMARK SMILES IDX 23 24 24 25 25 26 26 27 27 28 28 29 29 30 90 31 30 32 89 33
REMARK SMILES IDX 31 34 32 35 33 36 83 37 34 38 88 39 82 40 84 41 35 42 87 43
REMARK SMILES IDX 81 44 80 45 36 47 68 48 48 49 67 50 49 51 52 52 66 53 85 54
REMARK SMILES IDX 50 55 51 56 65 58 86 59 53 60 37 61 38 62 46 63 39 64 40 65
REMARK SMILES IDX 44 66 47 67 41 68 42 69 45 70 43 71 69 72 70 73 78 74 71 75
REMARK SMILES IDX 72 76 76 77 79 78 73 79 74 80 77 81 75 82 54 83 55 84 63 85
REMARK SMILES IDX 56 86 57 87 61 88 64 89 58 90 59 91 62 92 60 93
REMARK H PARENT 5 12 84 46 52 57
REMARK Flexibility Score: inf
ROOT
ATOM      1  C   UNL A   1      32.303  28.399  23.102  1.00  0.00     0.202 C 
ENDROOT
BRANCH   1   2
ATOM      2  C   UNL A   1      32.198  26.964  23.583  1.00  0.00     0.261 C 
BRANCH   2   3
ATOM      3  O   UNL A   1      33.450  26.438  24.036  1.00  0.00    -0.463 OA
BRANCH   3   4
ATOM      4  C   UNL A   1      33.680  26.041  25.303  1.00  0.00     0.308 C 
ATOM      5  O   UNL A   1      33.578  26.872  26.209  1.00  0.00    -0.252 OA
BRANCH   4   6
ATOM      6  C   UNL A   1      34.044  24.616  25.637  1.00  0.00     0.151 C 
BRANCH   6   7
ATOM      7  C   UNL A   1      32.990  23.501  25.630  1.00  0.00     0.048 C 
ATOM      8  C   UNL A   1      32.759  22.808  27.009  1.00  0.00     0.029 C 
ATOM      9  C   UNL A   1      31.508  23.999  25.720  1.00  0.00     0.029 C 
ATOM     10  C   UNL A   1      31.245  23.015  26.859  1.00  0.00     0.005 C 
BRANCH   7  11
ATOM     11  N   UNL A   1      33.130  22.496  24.585  1.00  0.00    -0.379 N 
ATOM     12  H   UNL A   1      33.033  22.851  23.672  1.00  0.00     0.161 HD
BRANCH  11  13
ATOM     13  C   UNL A   1      33.377  21.107  24.640  1.00  0.00     0.034 A 
ATOM     14  C   UNL A   1      32.324  20.231  24.327  1.00  0.00     0.026 A 
ATOM     15  C   UNL A   1      34.647  20.555  24.823  1.00  0.00     0.026 A 
ATOM     16  C   UNL A   1      32.547  18.861  24.129  1.00  0.00     0.015 A 
ATOM     17  C   UNL A   1      34.877  19.184  24.627  1.00  0.00     0.015 A 
ATOM     18  C   UNL A   1      33.835  18.323  24.254  1.00  0.00     0.056 A 
BRANCH  18  19
ATOM     19  C   UNL A   1      34.115  16.868  23.954  1.00  0.00     0.416 C 
ATOM     20  F   UNL A   1      34.398  16.620  22.644  1.00  0.00    -0.166 F 
ATOM     21  F   UNL A   1      35.149  16.350  24.676  1.00  0.00    -0.166 F 
ATOM     22  F   UNL A   1      33.048  16.068  24.251  1.00  0.00    -0.166 F 
ENDBRANCH  18  19
ENDBRANCH  11  13
ENDBRANCH   7  11
ENDBRANCH   6   7
ENDBRANCH   4   6
ENDBRANCH   3   4
ENDBRANCH   2   3
ENDBRANCH   1   2
BRANCH   1  23
ATOM     23  O   UNL A   1      32.543  29.315  24.163  1.00  0.00    -0.374 OA
BRANCH  23  24
ATOM     24  C   UNL A   1      31.423  29.582  25.006  1.00  0.00     0.202 C 
BRANCH  24  25
ATOM     25  C   UNL A   1      31.817  30.190  26.354  1.00  0.00     0.261 C 
BRANCH  25  26
ATOM     26  O   UNL A   1      33.227  30.449  26.401  1.00  0.00    -0.460 OA
BRANCH  26  27
ATOM     27  C   UNL A   1      33.598  31.443  27.240  1.00  0.00     0.338 C 
ATOM     28  O   UNL A   1      32.932  32.391  27.623  1.00  0.00    -0.246 OA
BRANCH  27  29
ATOM     29  C   UNL A   1      34.907  31.122  27.831  1.00  0.00     0.060 A 
ATOM     30  C   UNL A   1      35.141  29.786  28.195  1.00  0.00     0.016 A 
ATOM     31  C   UNL A   1      35.895  32.094  28.006  1.00  0.00     0.016 A 
ATOM     32  C   UNL A   1      36.348  29.423  28.773  1.00  0.00     0.010 A 
ATOM     33  C   UNL A   1      37.101  31.734  28.597  1.00  0.00     0.010 A 
ATOM     34  C   UNL A   1      37.312  30.408  29.012  1.00  0.00    -0.014 A 
BRANCH  34  35
ATOM     35  C   UNL A   1      38.468  30.098  29.870  1.00  0.00     0.031 A 
ATOM     36  C   UNL A   1      39.500  29.152  29.337  1.00  0.00     0.074 A 
ATOM     37  C   UNL A   1      38.574  30.651  31.088  1.00  0.00     0.049 A 
ATOM     38  N   UNL A   1      40.533  28.625  29.936  1.00  0.00    -0.248 NA
ATOM     39  C   UNL A   1      39.336  28.732  27.933  1.00  0.00     0.031 C 
ATOM     40  C   UNL A   1      37.641  31.620  31.660  1.00  0.00     0.029 A 
ATOM     41  N   UNL A   1      39.510  30.460  32.069  1.00  0.00    -0.354 N 
ATOM     42  C   UNL A   1      41.129  27.799  28.991  1.00  0.00     0.074 A 
ATOM     43  C   UNL A   1      40.332  27.873  27.789  1.00  0.00     0.031 C 
ATOM     44  C   UNL A   1      38.039  31.922  32.907  1.00  0.00     0.029 A 
ATOM     45  C   UNL A   1      39.225  31.135  33.229  1.00  0.00     0.049 A 
ATOM     46  H   UNL A   1      40.306  29.894  31.954  1.00  0.00     0.167 HD
ATOM     47  C   UNL A   1      42.248  27.051  29.127  1.00  0.00     0.037 A 
ATOM     48  C   UNL A   1      39.845  31.083  34.423  1.00  0.00     0.037 A 
ATOM     49  C   UNL A   1      43.020  26.998  30.340  1.00  0.00     0.049 A 
ATOM     50  C   UNL A   1      41.049  30.190  34.568  1.00  0.00     0.074 A 
ATOM     51  C   UNL A   1      44.176  26.287  30.599  1.00  0.00     0.029 A 
ATOM     52  N   UNL A   1      42.701  27.687  31.502  1.00  0.00    -0.354 N 
ATOM     53  N   UNL A   1      41.619  29.416  33.674  1.00  0.00    -0.248 NA
ATOM     54  C   UNL A   1      41.695  30.163  35.885  1.00  0.00     0.031 C 
ATOM     55  C   UNL A   1      44.525  26.502  31.936  1.00  0.00     0.029 A 
ATOM     56  C   UNL A   1      43.624  27.399  32.492  1.00  0.00     0.049 A 
ATOM     57  H   UNL A   1      41.931  28.291  31.609  1.00  0.00     0.167 HD
ATOM     58  C   UNL A   1      42.708  28.834  34.309  1.00  0.00     0.074 A 
ATOM     59  C   UNL A   1      42.725  29.359  35.660  1.00  0.00     0.031 C 
ATOM     60  C   UNL A   1      43.614  27.947  33.826  1.00  0.00     0.037 A 
BRANCH  47  61
ATOM     61  C   UNL A   1      42.673  26.214  27.956  1.00  0.00     0.064 A 
ATOM     62  C   UNL A   1      42.184  24.914  27.755  1.00  0.00     0.173 A 
ATOM     63  C   UNL A   1      43.571  26.728  27.008  1.00  0.00     0.173 A 
ATOM     64  F   UNL A   1      41.340  24.366  28.643  1.00  0.00    -0.203 F 
ATOM     65  C   UNL A   1      42.596  24.153  26.664  1.00  0.00     0.198 A 
ATOM     66  C   UNL A   1      43.957  25.976  25.901  1.00  0.00     0.198 A 
ATOM     67  F   UNL A   1      44.075  27.964  27.153  1.00  0.00    -0.203 F 
ATOM     68  F   UNL A   1      42.154  22.896  26.521  1.00  0.00    -0.200 F 
ATOM     69  C   UNL A   1      43.474  24.687  25.733  1.00  0.00     0.200 A 
ATOM     70  F   UNL A   1      44.798  26.499  24.997  1.00  0.00    -0.200 F 
ATOM     71  F   UNL A   1      43.862  23.956  24.679  1.00  0.00    -0.200 F 
ENDBRANCH  47  61
BRANCH  48  72
ATOM     72  C   UNL A   1      39.328  31.880  35.567  1.00  0.00     0.064 A 
ATOM     73  C   UNL A   1      39.749  33.200  35.776  1.00  0.00     0.173 A 
ATOM     74  C   UNL A   1      38.410  31.337  36.479  1.00  0.00     0.173 A 
ATOM     75  F   UNL A   1      40.639  33.758  34.944  1.00  0.00    -0.203 F 
ATOM     76  C   UNL A   1      39.290  33.938  36.866  1.00  0.00     0.198 A 
ATOM     77  C   UNL A   1      37.926  32.087  37.549  1.00  0.00     0.198 A 
ATOM     78  F   UNL A   1      37.970  30.080  36.323  1.00  0.00    -0.203 F 
ATOM     79  F   UNL A   1      39.747  35.182  37.069  1.00  0.00    -0.200 F 
ATOM     80  C   UNL A   1      38.375  33.385  37.748  1.00  0.00     0.200 A 
ATOM     81  F   UNL A   1      37.028  31.553  38.388  1.00  0.00    -0.200 F 
ATOM     82  F   UNL A   1      37.930  34.097  38.791  1.00  0.00    -0.200 F 
ENDBRANCH  48  72
BRANCH  60  83
ATOM     83  C   UNL A   1      44.718  27.527  34.751  1.00  0.00     0.064 A 
ATOM     84  C   UNL A   1      45.901  28.270  34.873  1.00  0.00     0.173 A 
ATOM     85  C   UNL A   1      44.571  26.385  35.553  1.00  0.00     0.173 A 
ATOM     86  F   UNL A   1      46.095  29.362  34.118  1.00  0.00    -0.203 F 
ATOM     87  C   UNL A   1      46.911  27.865  35.741  1.00  0.00     0.198 A 
ATOM     88  C   UNL A   1      45.566  26.004  36.445  1.00  0.00     0.198 A 
ATOM     89  F   UNL A   1      43.453  25.646  35.480  1.00  0.00    -0.203 F 
ATOM     90  F   UNL A   1      48.058  28.556  35.800  1.00  0.00    -0.200 F 
ATOM     91  C   UNL A   1      46.740  26.737  36.531  1.00  0.00     0.200 A 
ATOM     92  F   UNL A   1      45.392  24.925  37.221  1.00  0.00    -0.200 F 
ATOM     93  F   UNL A   1      47.711  26.352  37.371  1.00  0.00    -0.200 F 
ENDBRANCH  60  83
ENDBRANCH  34  35
ENDBRANCH  27  29
ENDBRANCH  26  27
ENDBRANCH  25  26
ENDBRANCH  24  25
ENDBRANCH  23  24
ENDBRANCH   1  23
TORSDOF 18
ENDMDL
