MODEL 1
REMARK VINA RESULT:     -11.4      0.000      0.000
REMARK SMILES Cc1cccc(C)c1Nc1ccccc1CC(=O)OCCOCCOC(=O)c1ccc(-c2c3nc(c(-c4c(F)c(F)c(F)c(F)c4F)c4ccc([nH]4)c(-c4c(F)c(F)c(F)c(F)c4F)c4nc(c(-c5c(F)c(F)c(F)c(F)c5F)c5ccc2[nH]5)C=C4)C=C3)cc1
REMARK SMILES IDX 21 1 20 2 19 3 17 4 18 5 16 6 15 7 10 8 11 9 12 10 14 11
REMARK SMILES IDX 13 12 9 13 8 15 1 16 2 17 3 18 4 19 6 20 5 21 7 22 22 23
REMARK SMILES IDX 23 24 24 25 25 26 26 27 27 28 28 29 29 30 90 31 30 32 89 33
REMARK SMILES IDX 31 34 32 35 33 36 83 37 34 38 88 39 82 40 84 41 35 42 87 43
REMARK SMILES IDX 81 44 80 45 36 47 68 48 48 49 67 50 49 51 52 52 66 53 85 54
REMARK SMILES IDX 50 55 51 56 65 58 86 59 53 60 37 61 38 62 46 63 39 64 40 65
REMARK SMILES IDX 44 66 47 67 41 68 42 69 45 70 43 71 69 72 70 73 78 74 71 75
REMARK SMILES IDX 72 76 76 77 79 78 73 79 74 80 77 81 75 82 54 83 55 84 63 85
REMARK SMILES IDX 56 86 57 87 61 88 64 89 58 90 59 91 62 92 60 93
REMARK H PARENT 9 14 84 46 52 57
REMARK Flexibility Score: inf
ROOT
ATOM      1  C   UNL A   1      40.974  21.141  26.687  1.00  0.00     0.202 C 
ENDROOT
BRANCH   1   2
ATOM      2  C   UNL A   1      40.019  22.326  26.870  1.00  0.00     0.261 C 
BRANCH   2   3
ATOM      3  O   UNL A   1      38.845  22.247  26.038  1.00  0.00    -0.463 OA
BRANCH   3   4
ATOM      4  C   UNL A   1      38.053  23.351  26.070  1.00  0.00     0.310 C 
ATOM      5  O   UNL A   1      38.292  24.349  26.749  1.00  0.00    -0.252 OA
BRANCH   4   6
ATOM      6  C   UNL A   1      36.827  23.302  25.195  1.00  0.00     0.160 C 
BRANCH   6   7
ATOM      7  C   UNL A   1      35.441  23.183  25.803  1.00  0.00    -0.013 A 
ATOM      8  C   UNL A   1      34.437  24.162  25.646  1.00  0.00     0.042 A 
ATOM      9  C   UNL A   1      33.200  23.983  26.301  1.00  0.00     0.026 A 
ATOM     10  C   UNL A   1      32.916  22.827  27.025  1.00  0.00     0.002 A 
ATOM     11  C   UNL A   1      35.110  21.998  26.492  1.00  0.00     0.006 A 
ATOM     12  C   UNL A   1      33.866  21.820  27.099  1.00  0.00     0.000 A 
BRANCH   8  13
ATOM     13  N   UNL A   1      34.514  25.240  24.742  1.00  0.00    -0.355 N 
ATOM     14  H   UNL A   1      35.434  25.501  24.507  1.00  0.00     0.167 HD
BRANCH  13  15
ATOM     15  C   UNL A   1      33.515  26.018  24.108  1.00  0.00     0.044 A 
ATOM     16  C   UNL A   1      33.795  27.724  25.988  1.00  0.00     0.046 C 
ATOM     17  C   UNL A   1      33.212  27.285  24.670  1.00  0.00    -0.027 A 
ATOM     18  C   UNL A   1      32.391  28.186  23.972  1.00  0.00     0.005 A 
ATOM     19  C   UNL A   1      31.859  27.848  22.735  1.00  0.00     0.001 A 
ATOM     20  C   UNL A   1      32.894  25.649  22.887  1.00  0.00    -0.027 A 
ATOM     21  C   UNL A   1      32.100  26.588  22.202  1.00  0.00     0.005 A 
ATOM     22  C   UNL A   1      33.038  24.295  22.242  1.00  0.00     0.046 C 
ENDBRANCH  13  15
ENDBRANCH   8  13
ENDBRANCH   6   7
ENDBRANCH   4   6
ENDBRANCH   3   4
ENDBRANCH   2   3
ENDBRANCH   1   2
BRANCH   1  23
ATOM     23  O   UNL A   1      42.371  21.389  26.825  1.00  0.00    -0.374 OA
BRANCH  23  24
ATOM     24  C   UNL A   1      43.208  21.037  25.725  1.00  0.00     0.202 C 
BRANCH  24  25
ATOM     25  C   UNL A   1      44.106  22.142  25.157  1.00  0.00     0.261 C 
BRANCH  25  26
ATOM     26  O   UNL A   1      43.354  23.317  24.802  1.00  0.00    -0.460 OA
BRANCH  26  27
ATOM     27  C   UNL A   1      44.003  24.485  25.008  1.00  0.00     0.338 C 
ATOM     28  O   UNL A   1      45.035  24.868  24.467  1.00  0.00    -0.246 OA
BRANCH  27  29
ATOM     29  C   UNL A   1      43.200  25.379  25.859  1.00  0.00     0.060 A 
ATOM     30  C   UNL A   1      43.770  26.611  26.207  1.00  0.00     0.016 A 
ATOM     31  C   UNL A   1      41.971  24.989  26.393  1.00  0.00     0.016 A 
ATOM     32  C   UNL A   1      43.148  27.428  27.144  1.00  0.00     0.010 A 
ATOM     33  C   UNL A   1      41.350  25.807  27.345  1.00  0.00     0.010 A 
ATOM     34  C   UNL A   1      41.961  27.007  27.757  1.00  0.00    -0.014 A 
BRANCH  34  35
ATOM     35  C   UNL A   1      41.473  27.746  28.947  1.00  0.00     0.031 A 
ATOM     36  C   UNL A   1      42.232  27.622  30.239  1.00  0.00     0.074 A 
ATOM     37  C   UNL A   1      40.413  28.569  28.861  1.00  0.00     0.049 A 
ATOM     38  N   UNL A   1      42.010  28.197  31.394  1.00  0.00    -0.248 NA
ATOM     39  C   UNL A   1      43.404  26.731  30.226  1.00  0.00     0.031 C 
ATOM     40  C   UNL A   1      39.626  28.805  27.654  1.00  0.00     0.029 A 
ATOM     41  N   UNL A   1      39.825  29.364  29.812  1.00  0.00    -0.354 N 
ATOM     42  C   UNL A   1      43.012  27.740  32.241  1.00  0.00     0.074 A 
ATOM     43  C   UNL A   1      43.823  26.815  31.481  1.00  0.00     0.031 C 
ATOM     44  C   UNL A   1      38.650  29.686  27.937  1.00  0.00     0.029 A 
ATOM     45  C   UNL A   1      38.731  30.054  29.350  1.00  0.00     0.049 A 
ATOM     46  H   UNL A   1      40.154  29.433  30.737  1.00  0.00     0.167 HD
ATOM     47  C   UNL A   1      43.241  28.070  33.535  1.00  0.00     0.037 A 
ATOM     48  C   UNL A   1      37.886  30.878  30.001  1.00  0.00     0.037 A 
ATOM     49  C   UNL A   1      42.434  28.992  34.290  1.00  0.00     0.049 A 
ATOM     50  C   UNL A   1      38.124  31.179  31.458  1.00  0.00     0.074 A 
ATOM     51  C   UNL A   1      42.593  29.406  35.601  1.00  0.00     0.029 A 
ATOM     52  N   UNL A   1      41.309  29.639  33.799  1.00  0.00    -0.354 N 
ATOM     53  N   UNL A   1      39.088  30.762  32.244  1.00  0.00    -0.248 NA
ATOM     54  C   UNL A   1      37.156  32.068  32.117  1.00  0.00     0.031 C 
ATOM     55  C   UNL A   1      41.537  30.267  35.918  1.00  0.00     0.029 A 
ATOM     56  C   UNL A   1      40.749  30.428  34.790  1.00  0.00     0.049 A 
ATOM     57  H   UNL A   1      40.961  29.549  32.883  1.00  0.00     0.167 HD
ATOM     58  C   UNL A   1      38.859  31.357  33.478  1.00  0.00     0.074 A 
ATOM     59  C   UNL A   1      37.672  32.174  33.334  1.00  0.00     0.031 C 
ATOM     60  C   UNL A   1      39.568  31.237  34.628  1.00  0.00     0.037 A 
BRANCH  47  61
ATOM     61  C   UNL A   1      44.397  27.409  34.224  1.00  0.00     0.064 A 
ATOM     62  C   UNL A   1      45.669  28.000  34.263  1.00  0.00     0.173 A 
ATOM     63  C   UNL A   1      44.224  26.182  34.882  1.00  0.00     0.173 A 
ATOM     64  F   UNL A   1      45.890  29.165  33.636  1.00  0.00    -0.203 F 
ATOM     65  C   UNL A   1      46.730  27.375  34.914  1.00  0.00     0.198 A 
ATOM     66  C   UNL A   1      45.279  25.573  35.555  1.00  0.00     0.198 A 
ATOM     67  F   UNL A   1      43.026  25.576  34.878  1.00  0.00    -0.203 F 
ATOM     68  F   UNL A   1      47.946  27.937  34.902  1.00  0.00    -0.200 F 
ATOM     69  C   UNL A   1      46.532  26.166  35.566  1.00  0.00     0.200 A 
ATOM     70  F   UNL A   1      45.084  24.410  36.193  1.00  0.00    -0.200 F 
ATOM     71  F   UNL A   1      47.552  25.569  36.197  1.00  0.00    -0.200 F 
ENDBRANCH  47  61
BRANCH  48  72
ATOM     72  C   UNL A   1      36.730  31.471  29.281  1.00  0.00     0.064 A 
ATOM     73  C   UNL A   1      35.630  30.688  28.904  1.00  0.00     0.173 A 
ATOM     74  C   UNL A   1      36.710  32.831  28.940  1.00  0.00     0.173 A 
ATOM     75  F   UNL A   1      35.614  29.377  29.183  1.00  0.00    -0.203 F 
ATOM     76  C   UNL A   1      34.560  31.241  28.203  1.00  0.00     0.198 A 
ATOM     77  C   UNL A   1      35.628  33.390  28.262  1.00  0.00     0.198 A 
ATOM     78  F   UNL A   1      37.740  33.623  29.274  1.00  0.00    -0.203 F 
ATOM     79  F   UNL A   1      33.540  30.462  27.817  1.00  0.00    -0.200 F 
ATOM     80  C   UNL A   1      34.558  32.593  27.888  1.00  0.00     0.200 A 
ATOM     81  F   UNL A   1      35.625  34.697  27.970  1.00  0.00    -0.200 F 
ATOM     82  F   UNL A   1      33.527  33.124  27.217  1.00  0.00    -0.200 F 
ENDBRANCH  48  72
BRANCH  60  83
ATOM     83  C   UNL A   1      39.097  32.029  35.814  1.00  0.00     0.064 A 
ATOM     84  C   UNL A   1      38.257  31.466  36.785  1.00  0.00     0.173 A 
ATOM     85  C   UNL A   1      39.528  33.351  36.002  1.00  0.00     0.173 A 
ATOM     86  F   UNL A   1      37.808  30.210  36.643  1.00  0.00    -0.203 F 
ATOM     87  C   UNL A   1      37.847  32.206  37.892  1.00  0.00     0.198 A 
ATOM     88  C   UNL A   1      39.139  34.078  37.123  1.00  0.00     0.198 A 
ATOM     89  F   UNL A   1      40.339  33.932  35.105  1.00  0.00    -0.203 F 
ATOM     90  F   UNL A   1      37.009  31.663  38.785  1.00  0.00    -0.200 F 
ATOM     91  C   UNL A   1      38.293  33.508  38.063  1.00  0.00     0.200 A 
ATOM     92  F   UNL A   1      39.581  35.332  37.294  1.00  0.00    -0.200 F 
ATOM     93  F   UNL A   1      37.903  34.216  39.131  1.00  0.00    -0.200 F 
ENDBRANCH  60  83
ENDBRANCH  34  35
ENDBRANCH  27  29
ENDBRANCH  26  27
ENDBRANCH  25  26
ENDBRANCH  24  25
ENDBRANCH  23  24
ENDBRANCH   1  23
TORSDOF 17
ENDMDL
MODEL 2
REMARK VINA RESULT:     -11.2      4.378      7.062
REMARK SMILES Cc1cccc(C)c1Nc1ccccc1CC(=O)OCCOCCOC(=O)c1ccc(-c2c3nc(c(-c4c(F)c(F)c(F)c(F)c4F)c4ccc([nH]4)c(-c4c(F)c(F)c(F)c(F)c4F)c4nc(c(-c5c(F)c(F)c(F)c(F)c5F)c5ccc2[nH]5)C=C4)C=C3)cc1
REMARK SMILES IDX 21 1 20 2 19 3 17 4 18 5 16 6 15 7 10 8 11 9 12 10 14 11
REMARK SMILES IDX 13 12 9 13 8 15 1 16 2 17 3 18 4 19 6 20 5 21 7 22 22 23
REMARK SMILES IDX 23 24 24 25 25 26 26 27 27 28 28 29 29 30 90 31 30 32 89 33
REMARK SMILES IDX 31 34 32 35 33 36 83 37 34 38 88 39 82 40 84 41 35 42 87 43
REMARK SMILES IDX 81 44 80 45 36 47 68 48 48 49 67 50 49 51 52 52 66 53 85 54
REMARK SMILES IDX 50 55 51 56 65 58 86 59 53 60 37 61 38 62 46 63 39 64 40 65
REMARK SMILES IDX 44 66 47 67 41 68 42 69 45 70 43 71 69 72 70 73 78 74 71 75
REMARK SMILES IDX 72 76 76 77 79 78 73 79 74 80 77 81 75 82 54 83 55 84 63 85
REMARK SMILES IDX 56 86 57 87 61 88 64 89 58 90 59 91 62 92 60 93
REMARK H PARENT 9 14 84 46 52 57
REMARK Flexibility Score: inf
ROOT
ATOM      1  C   UNL A   1      35.076  21.846  26.536  1.00  0.00     0.202 C 
ENDROOT
BRANCH   1   2
ATOM      2  C   UNL A   1      33.683  22.142  25.968  1.00  0.00     0.261 C 
BRANCH   2   3
ATOM      3  O   UNL A   1      32.909  23.038  26.789  1.00  0.00    -0.463 OA
BRANCH   3   4
ATOM      4  C   UNL A   1      32.678  24.257  26.237  1.00  0.00     0.310 C 
ATOM      5  O   UNL A   1      31.554  24.726  26.055  1.00  0.00    -0.252 OA
BRANCH   4   6
ATOM      6  C   UNL A   1      33.903  25.045  25.852  1.00  0.00     0.160 C 
BRANCH   6   7
ATOM      7  C   UNL A   1      33.826  26.143  24.806  1.00  0.00    -0.013 A 
ATOM      8  C   UNL A   1      33.932  27.516  25.111  1.00  0.00     0.042 A 
ATOM      9  C   UNL A   1      33.789  28.461  24.072  1.00  0.00     0.026 A 
ATOM     10  C   UNL A   1      33.631  28.069  22.745  1.00  0.00     0.002 A 
ATOM     11  C   UNL A   1      33.724  25.771  23.449  1.00  0.00     0.006 A 
ATOM     12  C   UNL A   1      33.625  26.719  22.430  1.00  0.00     0.000 A 
BRANCH   8  13
ATOM     13  N   UNL A   1      34.339  28.022  26.362  1.00  0.00    -0.355 N 
ATOM     14  H   UNL A   1      34.850  27.380  26.906  1.00  0.00     0.167 HD
BRANCH  13  15
ATOM     15  C   UNL A   1      34.150  29.282  26.981  1.00  0.00     0.044 A 
ATOM     16  C   UNL A   1      36.668  29.336  27.404  1.00  0.00     0.046 C 
ATOM     17  C   UNL A   1      35.305  29.977  27.425  1.00  0.00    -0.027 A 
ATOM     18  C   UNL A   1      35.202  31.311  27.850  1.00  0.00     0.005 A 
ATOM     19  C   UNL A   1      33.976  31.962  27.852  1.00  0.00     0.001 A 
ATOM     20  C   UNL A   1      32.890  29.927  27.072  1.00  0.00    -0.027 A 
ATOM     21  C   UNL A   1      32.829  31.274  27.476  1.00  0.00     0.005 A 
ATOM     22  C   UNL A   1      31.577  29.266  26.744  1.00  0.00     0.046 C 
ENDBRANCH  13  15
ENDBRANCH   8  13
ENDBRANCH   6   7
ENDBRANCH   4   6
ENDBRANCH   3   4
ENDBRANCH   2   3
ENDBRANCH   1   2
BRANCH   1  23
ATOM     23  O   UNL A   1      36.173  21.838  25.627  1.00  0.00    -0.374 OA
BRANCH  23  24
ATOM     24  C   UNL A   1      36.474  20.604  24.979  1.00  0.00     0.202 C 
BRANCH  24  25
ATOM     25  C   UNL A   1      37.928  20.124  25.043  1.00  0.00     0.261 C 
BRANCH  25  26
ATOM     26  O   UNL A   1      38.842  21.209  25.292  1.00  0.00    -0.460 OA
BRANCH  26  27
ATOM     27  C   UNL A   1      39.734  20.980  26.281  1.00  0.00     0.338 C 
ATOM     28  O   UNL A   1      40.321  19.930  26.523  1.00  0.00    -0.246 OA
BRANCH  27  29
ATOM     29  C   UNL A   1      40.088  22.236  26.960  1.00  0.00     0.060 A 
ATOM     30  C   UNL A   1      39.406  23.393  26.560  1.00  0.00     0.016 A 
ATOM     31  C   UNL A   1      41.130  22.310  27.887  1.00  0.00     0.016 A 
ATOM     32  C   UNL A   1      39.808  24.638  27.032  1.00  0.00     0.010 A 
ATOM     33  C   UNL A   1      41.540  23.565  28.353  1.00  0.00     0.010 A 
ATOM     34  C   UNL A   1      40.909  24.736  27.891  1.00  0.00    -0.014 A 
BRANCH  34  35
ATOM     35  C   UNL A   1      41.495  26.075  28.149  1.00  0.00     0.031 A 
ATOM     36  C   UNL A   1      42.860  26.386  27.602  1.00  0.00     0.074 A 
ATOM     37  C   UNL A   1      40.793  27.021  28.796  1.00  0.00     0.049 A 
ATOM     38  N   UNL A   1      43.555  27.494  27.676  1.00  0.00    -0.248 NA
ATOM     39  C   UNL A   1      43.535  25.303  26.869  1.00  0.00     0.031 C 
ATOM     40  C   UNL A   1      39.444  26.851  29.332  1.00  0.00     0.029 A 
ATOM     41  N   UNL A   1      41.120  28.317  29.106  1.00  0.00    -0.354 N 
ATOM     42  C   UNL A   1      44.742  27.241  27.001  1.00  0.00     0.074 A 
ATOM     43  C   UNL A   1      44.692  25.867  26.552  1.00  0.00     0.031 C 
ATOM     44  C   UNL A   1      39.059  28.002  29.910  1.00  0.00     0.029 A 
ATOM     45  C   UNL A   1      40.142  28.978  29.806  1.00  0.00     0.049 A 
ATOM     46  H   UNL A   1      41.976  28.733  28.851  1.00  0.00     0.167 HD
ATOM     47  C   UNL A   1      45.777  28.083  26.767  1.00  0.00     0.037 A 
ATOM     48  C   UNL A   1      40.133  30.226  30.316  1.00  0.00     0.037 A 
ATOM     49  C   UNL A   1      45.825  29.451  27.212  1.00  0.00     0.049 A 
ATOM     50  C   UNL A   1      41.324  31.122  30.098  1.00  0.00     0.074 A 
ATOM     51  C   UNL A   1      46.821  30.391  27.010  1.00  0.00     0.029 A 
ATOM     52  N   UNL A   1      44.832  30.072  27.956  1.00  0.00    -0.354 N 
ATOM     53  N   UNL A   1      42.431  30.883  29.437  1.00  0.00    -0.248 NA
ATOM     54  C   UNL A   1      41.262  32.463  30.696  1.00  0.00     0.031 C 
ATOM     55  C   UNL A   1      46.452  31.566  27.673  1.00  0.00     0.029 A 
ATOM     56  C   UNL A   1      45.204  31.375  28.244  1.00  0.00     0.049 A 
ATOM     57  H   UNL A   1      43.989  29.649  28.236  1.00  0.00     0.167 HD
ATOM     58  C   UNL A   1      43.183  32.048  29.515  1.00  0.00     0.074 A 
ATOM     59  C   UNL A   1      42.401  32.999  30.279  1.00  0.00     0.031 C 
ATOM     60  C   UNL A   1      44.411  32.308  29.003  1.00  0.00     0.037 A 
BRANCH  47  61
ATOM     61  C   UNL A   1      46.956  27.539  26.015  1.00  0.00     0.064 A 
ATOM     62  C   UNL A   1      47.052  27.642  24.620  1.00  0.00     0.173 A 
ATOM     63  C   UNL A   1      48.017  26.933  26.704  1.00  0.00     0.173 A 
ATOM     64  F   UNL A   1      46.056  28.200  23.914  1.00  0.00    -0.203 F 
ATOM     65  C   UNL A   1      48.158  27.139  23.939  1.00  0.00     0.198 A 
ATOM     66  C   UNL A   1      49.133  26.455  26.023  1.00  0.00     0.198 A 
ATOM     67  F   UNL A   1      47.976  26.812  28.040  1.00  0.00    -0.203 F 
ATOM     68  F   UNL A   1      48.210  27.210  22.602  1.00  0.00    -0.200 F 
ATOM     69  C   UNL A   1      49.201  26.552  24.642  1.00  0.00     0.200 A 
ATOM     70  F   UNL A   1      50.144  25.897  26.704  1.00  0.00    -0.200 F 
ATOM     71  F   UNL A   1      50.267  26.073  23.986  1.00  0.00    -0.200 F 
ENDBRANCH  47  61
BRANCH  48  72
ATOM     72  C   UNL A   1      38.957  30.699  31.091  1.00  0.00     0.064 A 
ATOM     73  C   UNL A   1      37.945  31.457  30.485  1.00  0.00     0.173 A 
ATOM     74  C   UNL A   1      38.828  30.413  32.458  1.00  0.00     0.173 A 
ATOM     75  F   UNL A   1      38.036  31.779  29.186  1.00  0.00    -0.203 F 
ATOM     76  C   UNL A   1      36.858  31.924  31.221  1.00  0.00     0.198 A 
ATOM     77  C   UNL A   1      37.727  30.857  33.187  1.00  0.00     0.198 A 
ATOM     78  F   UNL A   1      39.770  29.694  33.085  1.00  0.00    -0.203 F 
ATOM     79  F   UNL A   1      35.927  32.684  30.628  1.00  0.00    -0.200 F 
ATOM     80  C   UNL A   1      36.747  31.619  32.570  1.00  0.00     0.200 A 
ATOM     81  F   UNL A   1      37.619  30.551  34.486  1.00  0.00    -0.200 F 
ATOM     82  F   UNL A   1      35.698  32.065  33.276  1.00  0.00    -0.200 F 
ENDBRANCH  48  72
BRANCH  60  83
ATOM     83  C   UNL A   1      44.974  33.682  29.224  1.00  0.00     0.064 A 
ATOM     84  C   UNL A   1      45.815  33.965  30.310  1.00  0.00     0.173 A 
ATOM     85  C   UNL A   1      44.704  34.716  28.315  1.00  0.00     0.173 A 
ATOM     86  F   UNL A   1      46.092  33.013  31.215  1.00  0.00    -0.203 F 
ATOM     87  C   UNL A   1      46.347  35.239  30.490  1.00  0.00     0.198 A 
ATOM     88  C   UNL A   1      45.260  35.980  28.481  1.00  0.00     0.198 A 
ATOM     89  F   UNL A   1      43.912  34.494  27.255  1.00  0.00    -0.203 F 
ATOM     90  F   UNL A   1      47.113  35.498  31.559  1.00  0.00    -0.200 F 
ATOM     91  C   UNL A   1      46.076  36.243  29.572  1.00  0.00     0.200 A 
ATOM     92  F   UNL A   1      45.008  36.946  27.587  1.00  0.00    -0.200 F 
ATOM     93  F   UNL A   1      46.594  37.467  29.742  1.00  0.00    -0.200 F 
ENDBRANCH  60  83
ENDBRANCH  34  35
ENDBRANCH  27  29
ENDBRANCH  26  27
ENDBRANCH  25  26
ENDBRANCH  24  25
ENDBRANCH  23  24
ENDBRANCH   1  23
TORSDOF 17
ENDMDL
MODEL 3
REMARK VINA RESULT:     -11.2      4.406      6.873
REMARK SMILES Cc1cccc(C)c1Nc1ccccc1CC(=O)OCCOCCOC(=O)c1ccc(-c2c3nc(c(-c4c(F)c(F)c(F)c(F)c4F)c4ccc([nH]4)c(-c4c(F)c(F)c(F)c(F)c4F)c4nc(c(-c5c(F)c(F)c(F)c(F)c5F)c5ccc2[nH]5)C=C4)C=C3)cc1
REMARK SMILES IDX 21 1 20 2 19 3 17 4 18 5 16 6 15 7 10 8 11 9 12 10 14 11
REMARK SMILES IDX 13 12 9 13 8 15 1 16 2 17 3 18 4 19 6 20 5 21 7 22 22 23
REMARK SMILES IDX 23 24 24 25 25 26 26 27 27 28 28 29 29 30 90 31 30 32 89 33
REMARK SMILES IDX 31 34 32 35 33 36 83 37 34 38 88 39 82 40 84 41 35 42 87 43
REMARK SMILES IDX 81 44 80 45 36 47 68 48 48 49 67 50 49 51 52 52 66 53 85 54
REMARK SMILES IDX 50 55 51 56 65 58 86 59 53 60 37 61 38 62 46 63 39 64 40 65
REMARK SMILES IDX 44 66 47 67 41 68 42 69 45 70 43 71 69 72 70 73 78 74 71 75
REMARK SMILES IDX 72 76 76 77 79 78 73 79 74 80 77 81 75 82 54 83 55 84 63 85
REMARK SMILES IDX 56 86 57 87 61 88 64 89 58 90 59 91 62 92 60 93
REMARK H PARENT 9 14 84 46 52 57
REMARK Flexibility Score: inf
ROOT
ATOM      1  C   UNL A   1      35.103  22.637  26.179  1.00  0.00     0.202 C 
ENDROOT
BRANCH   1   2
ATOM      2  C   UNL A   1      33.853  23.036  26.972  1.00  0.00     0.261 C 
BRANCH   2   3
ATOM      3  O   UNL A   1      32.666  22.331  26.560  1.00  0.00    -0.463 OA
BRANCH   3   4
ATOM      4  C   UNL A   1      31.570  23.116  26.390  1.00  0.00     0.310 C 
ATOM      5  O   UNL A   1      31.092  23.828  27.272  1.00  0.00    -0.252 OA
BRANCH   4   6
ATOM      6  C   UNL A   1      30.948  23.083  25.018  1.00  0.00     0.160 C 
BRANCH   6   7
ATOM      7  C   UNL A   1      31.674  23.667  23.819  1.00  0.00    -0.013 A 
ATOM      8  C   UNL A   1      31.540  25.009  23.408  1.00  0.00     0.042 A 
ATOM      9  C   UNL A   1      32.214  25.438  22.244  1.00  0.00     0.026 A 
ATOM     10  C   UNL A   1      33.072  24.594  21.543  1.00  0.00     0.002 A 
ATOM     11  C   UNL A   1      32.591  22.849  23.127  1.00  0.00     0.006 A 
ATOM     12  C   UNL A   1      33.281  23.303  22.002  1.00  0.00     0.000 A 
BRANCH   8  13
ATOM     13  N   UNL A   1      30.910  26.014  24.169  1.00  0.00    -0.355 N 
ATOM     14  H   UNL A   1      30.036  25.748  24.536  1.00  0.00     0.167 HD
BRANCH  13  15
ATOM     15  C   UNL A   1      31.299  27.333  24.504  1.00  0.00     0.044 A 
ATOM     16  C   UNL A   1      29.553  28.163  22.836  1.00  0.00     0.046 C 
ATOM     17  C   UNL A   1      30.578  28.403  23.914  1.00  0.00    -0.027 A 
ATOM     18  C   UNL A   1      30.774  29.718  24.366  1.00  0.00     0.005 A 
ATOM     19  C   UNL A   1      31.678  29.990  25.383  1.00  0.00     0.001 A 
ATOM     20  C   UNL A   1      32.284  27.634  25.480  1.00  0.00    -0.027 A 
ATOM     21  C   UNL A   1      32.433  28.959  25.929  1.00  0.00     0.005 A 
ATOM     22  C   UNL A   1      33.197  26.609  26.101  1.00  0.00     0.046 C 
ENDBRANCH  13  15
ENDBRANCH   8  13
ENDBRANCH   6   7
ENDBRANCH   4   6
ENDBRANCH   3   4
ENDBRANCH   2   3
ENDBRANCH   1   2
BRANCH   1  23
ATOM     23  O   UNL A   1      34.981  21.564  25.249  1.00  0.00    -0.374 OA
BRANCH  23  24
ATOM     24  C   UNL A   1      36.179  21.097  24.631  1.00  0.00     0.202 C 
BRANCH  24  25
ATOM     25  C   UNL A   1      37.330  20.700  25.564  1.00  0.00     0.261 C 
BRANCH  25  26
ATOM     26  O   UNL A   1      38.519  21.470  25.309  1.00  0.00    -0.460 OA
BRANCH  26  27
ATOM     27  C   UNL A   1      39.532  21.247  26.175  1.00  0.00     0.338 C 
ATOM     28  O   UNL A   1      40.193  20.221  26.297  1.00  0.00    -0.246 OA
BRANCH  27  29
ATOM     29  C   UNL A   1      39.903  22.490  26.869  1.00  0.00     0.060 A 
ATOM     30  C   UNL A   1      39.223  23.658  26.496  1.00  0.00     0.016 A 
ATOM     31  C   UNL A   1      40.957  22.543  27.784  1.00  0.00     0.016 A 
ATOM     32  C   UNL A   1      39.639  24.893  26.982  1.00  0.00     0.010 A 
ATOM     33  C   UNL A   1      41.382  23.789  28.263  1.00  0.00     0.010 A 
ATOM     34  C   UNL A   1      40.753  24.970  27.827  1.00  0.00    -0.014 A 
BRANCH  34  35
ATOM     35  C   UNL A   1      41.350  26.301  28.098  1.00  0.00     0.031 A 
ATOM     36  C   UNL A   1      42.740  26.587  27.600  1.00  0.00     0.074 A 
ATOM     37  C   UNL A   1      40.641  27.263  28.715  1.00  0.00     0.049 A 
ATOM     38  N   UNL A   1      43.449  27.684  27.692  1.00  0.00    -0.248 NA
ATOM     39  C   UNL A   1      43.422  25.488  26.898  1.00  0.00     0.031 C 
ATOM     40  C   UNL A   1      39.272  27.118  29.202  1.00  0.00     0.029 A 
ATOM     41  N   UNL A   1      40.979  28.555  29.028  1.00  0.00    -0.354 N 
ATOM     42  C   UNL A   1      44.655  27.408  27.061  1.00  0.00     0.074 A 
ATOM     43  C   UNL A   1      44.599  26.032  26.619  1.00  0.00     0.031 C 
ATOM     44  C   UNL A   1      38.884  28.279  29.759  1.00  0.00     0.029 A 
ATOM     45  C   UNL A   1      39.987  29.237  29.689  1.00  0.00     0.049 A 
ATOM     46  H   UNL A   1      41.849  28.956  28.801  1.00  0.00     0.167 HD
ATOM     47  C   UNL A   1      45.712  28.231  26.859  1.00  0.00     0.037 A 
ATOM     48  C   UNL A   1      39.979  30.488  30.190  1.00  0.00     0.037 A 
ATOM     49  C   UNL A   1      45.766  29.601  27.297  1.00  0.00     0.049 A 
ATOM     50  C   UNL A   1      41.193  31.363  30.010  1.00  0.00     0.074 A 
ATOM     51  C   UNL A   1      46.783  30.523  27.126  1.00  0.00     0.029 A 
ATOM     52  N   UNL A   1      44.757  30.243  28.001  1.00  0.00    -0.354 N 
ATOM     53  N   UNL A   1      42.318  31.102  29.390  1.00  0.00    -0.248 NA
ATOM     54  C   UNL A   1      41.131  32.709  30.597  1.00  0.00     0.031 C 
ATOM     55  C   UNL A   1      46.410  31.709  27.769  1.00  0.00     0.029 A 
ATOM     56  C   UNL A   1      45.140  31.541  28.296  1.00  0.00     0.049 A 
ATOM     57  H   UNL A   1      43.897  29.836  28.254  1.00  0.00     0.167 HD
ATOM     58  C   UNL A   1      43.086  32.256  29.489  1.00  0.00     0.074 A 
ATOM     59  C   UNL A   1      42.292  33.224  30.218  1.00  0.00     0.031 C 
ATOM     60  C   UNL A   1      44.335  32.492  29.020  1.00  0.00     0.037 A 
BRANCH  47  61
ATOM     61  C   UNL A   1      46.908  27.664  26.154  1.00  0.00     0.064 A 
ATOM     62  C   UNL A   1      47.029  27.706  24.757  1.00  0.00     0.173 A 
ATOM     63  C   UNL A   1      47.960  27.097  26.887  1.00  0.00     0.173 A 
ATOM     64  F   UNL A   1      46.042  28.223  24.010  1.00  0.00    -0.203 F 
ATOM     65  C   UNL A   1      48.150  27.181  24.119  1.00  0.00     0.198 A 
ATOM     66  C   UNL A   1      49.092  26.598  26.249  1.00  0.00     0.198 A 
ATOM     67  F   UNL A   1      47.895  27.035  28.227  1.00  0.00    -0.203 F 
ATOM     68  F   UNL A   1      48.226  27.193  22.782  1.00  0.00    -0.200 F 
ATOM     69  C   UNL A   1      49.184  26.633  24.866  1.00  0.00     0.200 A 
ATOM     70  F   UNL A   1      50.094  26.078  26.972  1.00  0.00    -0.200 F 
ATOM     71  F   UNL A   1      50.265  26.134  24.252  1.00  0.00    -0.200 F 
ENDBRANCH  47  61
BRANCH  48  72
ATOM     72  C   UNL A   1      38.784  30.984  30.919  1.00  0.00     0.064 A 
ATOM     73  C   UNL A   1      38.694  30.891  32.315  1.00  0.00     0.173 A 
ATOM     74  C   UNL A   1      37.700  31.550  30.232  1.00  0.00     0.173 A 
ATOM     75  F   UNL A   1      39.693  30.334  33.015  1.00  0.00    -0.203 F 
ATOM     76  C   UNL A   1      37.559  31.331  32.994  1.00  0.00     0.198 A 
ATOM     77  C   UNL A   1      36.577  32.014  30.913  1.00  0.00     0.198 A 
ATOM     78  F   UNL A   1      37.735  31.659  28.896  1.00  0.00    -0.203 F 
ATOM     79  F   UNL A   1      37.480  31.191  34.324  1.00  0.00    -0.200 F 
ATOM     80  C   UNL A   1      36.504  31.898  32.292  1.00  0.00     0.200 A 
ATOM     81  F   UNL A   1      35.566  32.570  30.233  1.00  0.00    -0.200 F 
ATOM     82  F   UNL A   1      35.415  32.325  32.946  1.00  0.00    -0.200 F 
ENDBRANCH  48  72
BRANCH  60  83
ATOM     83  C   UNL A   1      44.913  33.859  29.253  1.00  0.00     0.064 A 
ATOM     84  C   UNL A   1      45.807  34.108  30.303  1.00  0.00     0.173 A 
ATOM     85  C   UNL A   1      44.600  34.919  28.388  1.00  0.00     0.173 A 
ATOM     86  F   UNL A   1      46.126  33.130  31.164  1.00  0.00    -0.203 F 
ATOM     87  C   UNL A   1      46.351  35.376  30.493  1.00  0.00     0.198 A 
ATOM     88  C   UNL A   1      45.167  36.177  28.564  1.00  0.00     0.198 A 
ATOM     89  F   UNL A   1      43.756  34.730  27.363  1.00  0.00    -0.203 F 
ATOM     90  F   UNL A   1      47.170  35.603  31.530  1.00  0.00    -0.200 F 
ATOM     91  C   UNL A   1      46.037  36.407  29.620  1.00  0.00     0.200 A 
ATOM     92  F   UNL A   1      44.873  37.170  27.712  1.00  0.00    -0.200 F 
ATOM     93  F   UNL A   1      46.567  37.624  29.800  1.00  0.00    -0.200 F 
ENDBRANCH  60  83
ENDBRANCH  34  35
ENDBRANCH  27  29
ENDBRANCH  26  27
ENDBRANCH  25  26
ENDBRANCH  24  25
ENDBRANCH  23  24
ENDBRANCH   1  23
TORSDOF 17
ENDMDL
