MODEL 1
REMARK VINA RESULT:     -11.2      0.000      0.000
REMARK SMILES CC(C)[NH2+][C@]1(C(=O)OCCOCCOC(=O)c2ccc(-c3c4nc(c(-c5c(F)c(F)c(F)c(F)c5F)c5ccc([nH]5)c(-c5c(F)c(F)c(F)c(F)c5F)c5nc(c(-c6c(F)c(F)c(F)c(F)c6F)c6ccc3[nH]6)C=C5)C=C4)cc2)CCC[C@@H](Sc2ccc(Cl)cc2)C1
REMARK SMILES IDX 11 1 10 2 9 3 8 4 6 5 7 6 5 7 80 8 92 9 81 10 83 11 82 12
REMARK SMILES IDX 4 13 2 16 1 17 3 18 84 19 85 20 86 21 91 22 87 23 90 24
REMARK SMILES IDX 88 25 89 26 12 27 13 28 14 29 15 30 16 31 17 32 18 33 79 34
REMARK SMILES IDX 19 35 78 36 20 37 21 38 22 39 72 40 23 41 77 42 71 43 73 44
REMARK SMILES IDX 24 45 76 46 70 47 69 48 25 50 57 51 37 52 56 53 38 54 41 55
REMARK SMILES IDX 55 56 74 57 39 58 40 59 54 61 75 62 42 63 26 64 27 65 35 66
REMARK SMILES IDX 28 67 29 68 33 69 36 70 30 71 31 72 34 73 32 74 58 75 59 76
REMARK SMILES IDX 67 77 60 78 61 79 65 80 68 81 62 82 63 83 66 84 64 85 43 86
REMARK SMILES IDX 44 87 52 88 45 89 46 90 50 91 53 92 47 93 48 94 51 95 49 96
REMARK H PARENT 4 14 4 15 73 49 41 60
REMARK Flexibility Score: inf
ROOT
ATOM      1  O   UNL A   1      32.249  30.755  27.148  1.00  0.00    -0.374 OA
ENDROOT
BRANCH   1   2
ATOM      2  C   UNL A   1      32.402  29.707  26.194  1.00  0.00     0.202 C 
BRANCH   2   3
ATOM      3  C   UNL A   1      33.831  29.255  25.896  1.00  0.00     0.261 C 
BRANCH   3   4
ATOM      4  O   UNL A   1      33.842  28.080  25.062  1.00  0.00    -0.459 OA
BRANCH   4   5
ATOM      5  C   UNL A   1      33.431  28.260  23.773  1.00  0.00     0.368 C 
ATOM      6  O   UNL A   1      33.695  29.255  23.105  1.00  0.00    -0.245 OA
BRANCH   5   7
ATOM      7  C   UNL A   1      32.609  27.037  23.221  1.00  0.00     0.195 C 
ATOM      8  C   UNL A   1      33.320  26.420  21.986  1.00  0.00     0.081 C 
ATOM      9  C   UNL A   1      32.683  26.037  24.397  1.00  0.00     0.096 C 
ATOM     10  C   UNL A   1      32.900  24.990  21.653  1.00  0.00     0.008 C 
ATOM     11  C   UNL A   1      32.273  24.606  24.080  1.00  0.00     0.058 C 
ATOM     12  C   UNL A   1      33.006  24.052  22.858  1.00  0.00     0.015 C 
BRANCH   7  13
ATOM     13  N   UNL A   1      31.282  27.565  22.833  1.00  0.00    -0.330 N 
ATOM     14  H   UNL A   1      31.466  28.421  22.308  1.00  0.00     0.347 HD
ATOM     15  H   UNL A   1      30.872  26.754  22.371  1.00  0.00     0.347 HD
BRANCH  13  16
ATOM     16  C   UNL A   1      30.241  27.902  23.791  1.00  0.00     0.176 C 
ATOM     17  C   UNL A   1      29.753  29.325  23.485  1.00  0.00     0.075 C 
ATOM     18  C   UNL A   1      29.039  26.961  23.678  1.00  0.00     0.075 C 
ENDBRANCH  13  16
ENDBRANCH   7  13
BRANCH  11  19
ATOM     19  S   UNL A   1      32.387  23.536  25.586  1.00  0.00    -0.122 SA
BRANCH  19  20
ATOM     20  C   UNL A   1      34.073  22.958  25.560  1.00  0.00     0.008 A 
ATOM     21  C   UNL A   1      35.087  23.860  25.898  1.00  0.00     0.016 A 
ATOM     22  C   UNL A   1      34.419  21.666  25.153  1.00  0.00     0.016 A 
ATOM     23  C   UNL A   1      36.424  23.455  25.892  1.00  0.00     0.021 A 
ATOM     24  C   UNL A   1      35.753  21.248  25.175  1.00  0.00     0.021 A 
ATOM     25  C   UNL A   1      36.750  22.145  25.548  1.00  0.00     0.041 A 
ATOM     26  Cl  UNL A   1      38.392  21.637  25.571  1.00  0.00    -0.084 Cl
ENDBRANCH  19  20
ENDBRANCH  11  19
ENDBRANCH   5   7
ENDBRANCH   4   5
ENDBRANCH   3   4
ENDBRANCH   2   3
ENDBRANCH   1   2
BRANCH   1  27
ATOM     27  C   UNL A   1      31.496  31.903  26.762  1.00  0.00     0.202 C 
BRANCH  27  28
ATOM     28  C   UNL A   1      32.166  33.265  26.977  1.00  0.00     0.261 C 
BRANCH  28  29
ATOM     29  O   UNL A   1      32.998  33.297  28.149  1.00  0.00    -0.460 OA
BRANCH  29  30
ATOM     30  C   UNL A   1      34.164  33.966  27.992  1.00  0.00     0.338 C 
ATOM     31  O   UNL A   1      34.311  35.158  27.742  1.00  0.00    -0.246 OA
BRANCH  30  32
ATOM     32  C   UNL A   1      35.304  33.089  28.308  1.00  0.00     0.060 A 
ATOM     33  C   UNL A   1      35.035  31.746  28.604  1.00  0.00     0.016 A 
ATOM     34  C   UNL A   1      36.600  33.593  28.414  1.00  0.00     0.016 A 
ATOM     35  C   UNL A   1      36.051  30.911  29.064  1.00  0.00     0.010 A 
ATOM     36  C   UNL A   1      37.619  32.761  28.885  1.00  0.00     0.010 A 
ATOM     37  C   UNL A   1      37.339  31.431  29.251  1.00  0.00    -0.014 A 
BRANCH  37  38
ATOM     38  C   UNL A   1      38.351  30.659  30.010  1.00  0.00     0.031 A 
ATOM     39  C   UNL A   1      38.566  30.998  31.459  1.00  0.00     0.074 A 
ATOM     40  C   UNL A   1      39.070  29.686  29.425  1.00  0.00     0.049 A 
ATOM     41  N   UNL A   1      39.489  30.576  32.286  1.00  0.00    -0.248 NA
ATOM     42  C   UNL A   1      37.613  31.949  32.054  1.00  0.00     0.031 C 
ATOM     43  C   UNL A   1      38.904  29.224  28.049  1.00  0.00     0.029 A 
ATOM     44  N   UNL A   1      40.102  28.926  29.917  1.00  0.00    -0.354 N 
ATOM     45  C   UNL A   1      39.238  31.223  33.489  1.00  0.00     0.074 A 
ATOM     46  C   UNL A   1      38.091  32.080  33.282  1.00  0.00     0.031 C 
ATOM     47  C   UNL A   1      39.820  28.272  27.798  1.00  0.00     0.029 A 
ATOM     48  C   UNL A   1      40.662  28.095  28.980  1.00  0.00     0.049 A 
ATOM     49  H   UNL A   1      40.409  28.973  30.851  1.00  0.00     0.167 HD
ATOM     50  C   UNL A   1      39.903  31.108  34.662  1.00  0.00     0.037 A 
ATOM     51  C   UNL A   1      41.755  27.309  29.063  1.00  0.00     0.037 A 
ATOM     52  C   UNL A   1      41.042  30.252  34.860  1.00  0.00     0.049 A 
ATOM     53  C   UNL A   1      42.533  27.263  30.354  1.00  0.00     0.074 A 
ATOM     54  C   UNL A   1      41.796  30.068  36.005  1.00  0.00     0.029 A 
ATOM     55  N   UNL A   1      41.588  29.433  33.883  1.00  0.00    -0.354 N 
ATOM     56  N   UNL A   1      42.300  27.884  31.486  1.00  0.00    -0.248 NA
ATOM     57  C   UNL A   1      43.730  26.409  30.378  1.00  0.00     0.031 C 
ATOM     58  C   UNL A   1      42.827  29.171  35.709  1.00  0.00     0.029 A 
ATOM     59  C   UNL A   1      42.680  28.753  34.395  1.00  0.00     0.049 A 
ATOM     60  H   UNL A   1      41.251  29.349  32.962  1.00  0.00     0.167 HD
ATOM     61  C   UNL A   1      43.289  27.461  32.366  1.00  0.00     0.074 A 
ATOM     62  C   UNL A   1      44.129  26.535  31.636  1.00  0.00     0.031 C 
ATOM     63  C   UNL A   1      43.482  27.806  33.662  1.00  0.00     0.037 A 
BRANCH  50  64
ATOM     64  C   UNL A   1      39.435  31.949  35.813  1.00  0.00     0.064 A 
ATOM     65  C   UNL A   1      38.460  31.492  36.712  1.00  0.00     0.173 A 
ATOM     66  C   UNL A   1      39.991  33.218  36.037  1.00  0.00     0.173 A 
ATOM     67  F   UNL A   1      37.886  30.293  36.533  1.00  0.00    -0.203 F 
ATOM     68  C   UNL A   1      38.043  32.284  37.780  1.00  0.00     0.198 A 
ATOM     69  C   UNL A   1      39.593  33.994  37.122  1.00  0.00     0.198 A 
ATOM     70  F   UNL A   1      40.928  33.702  35.208  1.00  0.00    -0.203 F 
ATOM     71  F   UNL A   1      37.078  31.845  38.599  1.00  0.00    -0.200 F 
ATOM     72  C   UNL A   1      38.614  33.530  37.988  1.00  0.00     0.200 A 
ATOM     73  F   UNL A   1      40.155  35.193  37.328  1.00  0.00    -0.200 F 
ATOM     74  F   UNL A   1      38.218  34.287  39.019  1.00  0.00    -0.200 F 
ENDBRANCH  50  64
BRANCH  51  75
ATOM     75  C   UNL A   1      42.194  26.515  27.885  1.00  0.00     0.064 A 
ATOM     76  C   UNL A   1      43.127  27.029  26.975  1.00  0.00     0.173 A 
ATOM     77  C   UNL A   1      41.669  25.239  27.629  1.00  0.00     0.173 A 
ATOM     78  F   UNL A   1      43.638  28.255  27.162  1.00  0.00    -0.203 F 
ATOM     79  C   UNL A   1      43.505  26.307  25.845  1.00  0.00     0.198 A 
ATOM     80  C   UNL A   1      42.069  24.506  26.514  1.00  0.00     0.198 A 
ATOM     81  F   UNL A   1      40.770  24.702  28.466  1.00  0.00    -0.203 F 
ATOM     82  F   UNL A   1      44.361  26.845  24.965  1.00  0.00    -0.200 F 
ATOM     83  C   UNL A   1      42.979  25.044  25.618  1.00  0.00     0.200 A 
ATOM     84  F   UNL A   1      41.567  23.282  26.305  1.00  0.00    -0.200 F 
ATOM     85  F   UNL A   1      43.342  24.351  24.529  1.00  0.00    -0.200 F 
ENDBRANCH  51  75
BRANCH  63  86
ATOM     86  C   UNL A   1      44.593  27.128  34.407  1.00  0.00     0.064 A 
ATOM     87  C   UNL A   1      45.868  27.699  34.519  1.00  0.00     0.173 A 
ATOM     88  C   UNL A   1      44.350  25.920  35.082  1.00  0.00     0.173 A 
ATOM     89  F   UNL A   1      46.153  28.845  33.882  1.00  0.00    -0.203 F 
ATOM     90  C   UNL A   1      46.864  27.079  35.268  1.00  0.00     0.198 A 
ATOM     91  C   UNL A   1      45.340  25.319  35.852  1.00  0.00     0.198 A 
ATOM     92  F   UNL A   1      43.144  25.338  35.012  1.00  0.00    -0.203 F 
ATOM     93  F   UNL A   1      48.087  27.625  35.335  1.00  0.00    -0.200 F 
ATOM     94  C   UNL A   1      46.597  25.896  35.942  1.00  0.00     0.200 A 
ATOM     95  F   UNL A   1      45.074  24.184  36.514  1.00  0.00    -0.200 F 
ATOM     96  F   UNL A   1      47.553  25.310  36.676  1.00  0.00    -0.200 F 
ENDBRANCH  63  86
ENDBRANCH  37  38
ENDBRANCH  30  32
ENDBRANCH  29  30
ENDBRANCH  28  29
ENDBRANCH  27  28
ENDBRANCH   1  27
TORSDOF 18
ENDMDL
MODEL 2
REMARK VINA RESULT:     -10.9      4.391      6.493
REMARK SMILES CC(C)[NH2+][C@]1(C(=O)OCCOCCOC(=O)c2ccc(-c3c4nc(c(-c5c(F)c(F)c(F)c(F)c5F)c5ccc([nH]5)c(-c5c(F)c(F)c(F)c(F)c5F)c5nc(c(-c6c(F)c(F)c(F)c(F)c6F)c6ccc3[nH]6)C=C5)C=C4)cc2)CCC[C@@H](Sc2ccc(Cl)cc2)C1
REMARK SMILES IDX 11 1 10 2 9 3 8 4 6 5 7 6 5 7 80 8 92 9 81 10 83 11 82 12
REMARK SMILES IDX 4 13 2 16 1 17 3 18 84 19 85 20 86 21 91 22 87 23 90 24
REMARK SMILES IDX 88 25 89 26 12 27 13 28 14 29 15 30 16 31 17 32 18 33 79 34
REMARK SMILES IDX 19 35 78 36 20 37 21 38 22 39 72 40 23 41 77 42 71 43 73 44
REMARK SMILES IDX 24 45 76 46 70 47 69 48 25 50 57 51 37 52 56 53 38 54 41 55
REMARK SMILES IDX 55 56 74 57 39 58 40 59 54 61 75 62 42 63 26 64 27 65 35 66
REMARK SMILES IDX 28 67 29 68 33 69 36 70 30 71 31 72 34 73 32 74 58 75 59 76
REMARK SMILES IDX 67 77 60 78 61 79 65 80 68 81 62 82 63 83 66 84 64 85 43 86
REMARK SMILES IDX 44 87 52 88 45 89 46 90 50 91 53 92 47 93 48 94 51 95 49 96
REMARK H PARENT 4 14 4 15 73 49 41 60
REMARK Flexibility Score: inf
ROOT
ATOM      1  O   UNL A   1      34.780  31.837  27.765  1.00  0.00    -0.374 OA
ENDROOT
BRANCH   1   2
ATOM      2  C   UNL A   1      34.043  30.719  27.273  1.00  0.00     0.202 C 
BRANCH   2   3
ATOM      3  C   UNL A   1      32.538  30.911  27.101  1.00  0.00     0.261 C 
BRANCH   3   4
ATOM      4  O   UNL A   1      32.108  30.503  25.788  1.00  0.00    -0.459 OA
BRANCH   4   5
ATOM      5  C   UNL A   1      31.761  29.190  25.655  1.00  0.00     0.368 C 
ATOM      6  O   UNL A   1      31.392  28.484  26.589  1.00  0.00    -0.245 OA
BRANCH   5   7
ATOM      7  C   UNL A   1      31.851  28.684  24.168  1.00  0.00     0.195 C 
ATOM      8  C   UNL A   1      33.335  28.557  23.728  1.00  0.00     0.081 C 
ATOM      9  C   UNL A   1      31.231  27.273  24.266  1.00  0.00     0.096 C 
ATOM     10  C   UNL A   1      33.569  27.657  22.517  1.00  0.00     0.008 C 
ATOM     11  C   UNL A   1      31.460  26.362  23.069  1.00  0.00     0.058 C 
ATOM     12  C   UNL A   1      32.937  26.273  22.683  1.00  0.00     0.015 C 
BRANCH   7  13
ATOM     13  N   UNL A   1      31.161  29.698  23.339  1.00  0.00    -0.330 N 
ATOM     14  H   UNL A   1      31.399  30.602  23.748  1.00  0.00     0.347 HD
ATOM     15  H   UNL A   1      31.489  29.450  22.406  1.00  0.00     0.347 HD
BRANCH  13  16
ATOM     16  C   UNL A   1      29.720  29.722  23.135  1.00  0.00     0.176 C 
ATOM     17  C   UNL A   1      29.160  30.968  23.832  1.00  0.00     0.075 C 
ATOM     18  C   UNL A   1      29.359  29.811  21.650  1.00  0.00     0.075 C 
ENDBRANCH  13  16
ENDBRANCH   7  13
BRANCH  11  19
ATOM     19  S   UNL A   1      30.639  24.721  23.318  1.00  0.00    -0.122 SA
BRANCH  19  20
ATOM     20  C   UNL A   1      31.949  23.691  23.948  1.00  0.00     0.008 A 
ATOM     21  C   UNL A   1      32.265  22.520  23.252  1.00  0.00     0.016 A 
ATOM     22  C   UNL A   1      32.623  23.975  25.140  1.00  0.00     0.016 A 
ATOM     23  C   UNL A   1      33.283  21.679  23.706  1.00  0.00     0.021 A 
ATOM     24  C   UNL A   1      33.663  23.153  25.582  1.00  0.00     0.021 A 
ATOM     25  C   UNL A   1      33.991  22.009  24.859  1.00  0.00     0.041 A 
ATOM     26  Cl  UNL A   1      35.266  20.992  25.402  1.00  0.00    -0.084 Cl
ENDBRANCH  19  20
ENDBRANCH  11  19
ENDBRANCH   5   7
ENDBRANCH   4   5
ENDBRANCH   3   4
ENDBRANCH   2   3
ENDBRANCH   1   2
BRANCH   1  27
ATOM     27  C   UNL A   1      34.054  32.878  28.415  1.00  0.00     0.202 C 
BRANCH  27  28
ATOM     28  C   UNL A   1      34.470  33.206  29.854  1.00  0.00     0.261 C 
BRANCH  28  29
ATOM     29  O   UNL A   1      34.438  32.058  30.718  1.00  0.00    -0.460 OA
BRANCH  29  30
ATOM     30  C   UNL A   1      35.415  32.033  31.655  1.00  0.00     0.338 C 
ATOM     31  O   UNL A   1      35.392  32.549  32.768  1.00  0.00    -0.246 OA
BRANCH  30  32
ATOM     32  C   UNL A   1      36.513  31.151  31.227  1.00  0.00     0.060 A 
ATOM     33  C   UNL A   1      37.632  31.043  32.065  1.00  0.00     0.016 A 
ATOM     34  C   UNL A   1      36.496  30.522  29.982  1.00  0.00     0.016 A 
ATOM     35  C   UNL A   1      38.764  30.353  31.639  1.00  0.00     0.010 A 
ATOM     36  C   UNL A   1      37.635  29.838  29.548  1.00  0.00     0.010 A 
ATOM     37  C   UNL A   1      38.786  29.787  30.357  1.00  0.00    -0.014 A 
BRANCH  37  38
ATOM     38  C   UNL A   1      40.063  29.314  29.772  1.00  0.00     0.031 A 
ATOM     39  C   UNL A   1      41.187  30.302  29.622  1.00  0.00     0.074 A 
ATOM     40  C   UNL A   1      40.219  28.040  29.375  1.00  0.00     0.049 A 
ATOM     41  N   UNL A   1      42.334  30.172  29.006  1.00  0.00    -0.248 NA
ATOM     42  C   UNL A   1      40.983  31.620  30.246  1.00  0.00     0.031 C 
ATOM     43  C   UNL A   1      39.228  26.978  29.531  1.00  0.00     0.029 A 
ATOM     44  N   UNL A   1      41.271  27.432  28.737  1.00  0.00    -0.354 N 
ATOM     45  C   UNL A   1      42.979  31.394  29.154  1.00  0.00     0.074 A 
ATOM     46  C   UNL A   1      42.089  32.259  29.899  1.00  0.00     0.031 C 
ATOM     47  C   UNL A   1      39.710  25.850  28.981  1.00  0.00     0.029 A 
ATOM     48  C   UNL A   1      41.022  26.126  28.397  1.00  0.00     0.049 A 
ATOM     49  H   UNL A   1      42.122  27.888  28.543  1.00  0.00     0.167 HD
ATOM     50  C   UNL A   1      44.205  31.758  28.711  1.00  0.00     0.037 A 
ATOM     51  C   UNL A   1      41.758  25.267  27.664  1.00  0.00     0.037 A 
ATOM     52  C   UNL A   1      45.084  30.890  27.974  1.00  0.00     0.049 A 
ATOM     53  C   UNL A   1      43.084  25.722  27.107  1.00  0.00     0.074 A 
ATOM     54  C   UNL A   1      46.343  31.162  27.469  1.00  0.00     0.029 A 
ATOM     55  N   UNL A   1      44.791  29.577  27.637  1.00  0.00    -0.354 N 
ATOM     56  N   UNL A   1      43.685  26.880  27.238  1.00  0.00    -0.248 NA
ATOM     57  C   UNL A   1      43.831  24.752  26.294  1.00  0.00     0.031 C 
ATOM     58  C   UNL A   1      46.794  30.027  26.788  1.00  0.00     0.029 A 
ATOM     59  C   UNL A   1      45.839  29.030  26.918  1.00  0.00     0.049 A 
ATOM     60  H   UNL A   1      43.960  29.104  27.874  1.00  0.00     0.167 HD
ATOM     61  C   UNL A   1      44.897  26.762  26.567  1.00  0.00     0.074 A 
ATOM     62  C   UNL A   1      44.943  25.421  26.024  1.00  0.00     0.031 C 
ATOM     63  C   UNL A   1      45.883  27.679  26.418  1.00  0.00     0.037 A 
BRANCH  50  64
ATOM     64  C   UNL A   1      44.655  33.162  28.987  1.00  0.00     0.064 A 
ATOM     65  C   UNL A   1      45.379  33.491  30.142  1.00  0.00     0.173 A 
ATOM     66  C   UNL A   1      44.385  34.187  28.068  1.00  0.00     0.173 A 
ATOM     67  F   UNL A   1      45.650  32.550  31.060  1.00  0.00    -0.203 F 
ATOM     68  C   UNL A   1      45.796  34.799  30.379  1.00  0.00     0.198 A 
ATOM     69  C   UNL A   1      44.829  35.487  28.293  1.00  0.00     0.198 A 
ATOM     70  F   UNL A   1      43.697  33.926  26.946  1.00  0.00    -0.203 F 
ATOM     71  F   UNL A   1      46.448  35.098  31.511  1.00  0.00    -0.200 F 
ATOM     72  C   UNL A   1      45.527  35.794  29.451  1.00  0.00     0.200 A 
ATOM     73  F   UNL A   1      44.578  36.445  27.389  1.00  0.00    -0.200 F 
ATOM     74  F   UNL A   1      45.935  37.050  29.675  1.00  0.00    -0.200 F 
ENDBRANCH  50  64
BRANCH  51  75
ATOM     75  C   UNL A   1      41.256  23.893  27.396  1.00  0.00     0.064 A 
ATOM     76  C   UNL A   1      41.884  22.773  27.957  1.00  0.00     0.173 A 
ATOM     77  C   UNL A   1      40.157  23.670  26.553  1.00  0.00     0.173 A 
ATOM     78  F   UNL A   1      42.954  22.933  28.749  1.00  0.00    -0.203 F 
ATOM     79  C   UNL A   1      41.445  21.482  27.669  1.00  0.00     0.198 A 
ATOM     80  C   UNL A   1      39.702  22.381  26.289  1.00  0.00     0.198 A 
ATOM     81  F   UNL A   1      39.522  24.708  25.987  1.00  0.00    -0.203 F 
ATOM     82  F   UNL A   1      42.097  20.427  28.179  1.00  0.00    -0.200 F 
ATOM     83  C   UNL A   1      40.351  21.287  26.840  1.00  0.00     0.200 A 
ATOM     84  F   UNL A   1      38.638  22.198  25.495  1.00  0.00    -0.200 F 
ATOM     85  F   UNL A   1      39.931  20.045  26.562  1.00  0.00    -0.200 F 
ENDBRANCH  51  75
BRANCH  63  86
ATOM     86  C   UNL A   1      47.133  27.252  25.707  1.00  0.00     0.064 A 
ATOM     87  C   UNL A   1      47.350  27.537  24.352  1.00  0.00     0.173 A 
ATOM     88  C   UNL A   1      48.160  26.611  26.419  1.00  0.00     0.173 A 
ATOM     89  F   UNL A   1      46.394  28.136  23.627  1.00  0.00    -0.203 F 
ATOM     90  C   UNL A   1      48.545  27.183  23.731  1.00  0.00     0.198 A 
ATOM     91  C   UNL A   1      49.363  26.285  25.801  1.00  0.00     0.198 A 
ATOM     92  F   UNL A   1      48.003  26.323  27.719  1.00  0.00    -0.203 F 
ATOM     93  F   UNL A   1      48.720  27.436  22.427  1.00  0.00    -0.200 F 
ATOM     94  C   UNL A   1      49.553  26.568  24.458  1.00  0.00     0.200 A 
ATOM     95  F   UNL A   1      50.341  25.703  26.509  1.00  0.00    -0.200 F 
ATOM     96  F   UNL A   1      50.709  26.244  23.862  1.00  0.00    -0.200 F 
ENDBRANCH  63  86
ENDBRANCH  37  38
ENDBRANCH  30  32
ENDBRANCH  29  30
ENDBRANCH  28  29
ENDBRANCH  27  28
ENDBRANCH   1  27
TORSDOF 18
ENDMDL
MODEL 3
REMARK VINA RESULT:     -10.8      5.227      8.734
REMARK SMILES CC(C)[NH2+][C@]1(C(=O)OCCOCCOC(=O)c2ccc(-c3c4nc(c(-c5c(F)c(F)c(F)c(F)c5F)c5ccc([nH]5)c(-c5c(F)c(F)c(F)c(F)c5F)c5nc(c(-c6c(F)c(F)c(F)c(F)c6F)c6ccc3[nH]6)C=C5)C=C4)cc2)CCC[C@@H](Sc2ccc(Cl)cc2)C1
REMARK SMILES IDX 11 1 10 2 9 3 8 4 6 5 7 6 5 7 80 8 92 9 81 10 83 11 82 12
REMARK SMILES IDX 4 13 2 16 1 17 3 18 84 19 85 20 86 21 91 22 87 23 90 24
REMARK SMILES IDX 88 25 89 26 12 27 13 28 14 29 15 30 16 31 17 32 18 33 79 34
REMARK SMILES IDX 19 35 78 36 20 37 21 38 22 39 72 40 23 41 77 42 71 43 73 44
REMARK SMILES IDX 24 45 76 46 70 47 69 48 25 50 57 51 37 52 56 53 38 54 41 55
REMARK SMILES IDX 55 56 74 57 39 58 40 59 54 61 75 62 42 63 26 64 27 65 35 66
REMARK SMILES IDX 28 67 29 68 33 69 36 70 30 71 31 72 34 73 32 74 58 75 59 76
REMARK SMILES IDX 67 77 60 78 61 79 65 80 68 81 62 82 63 83 66 84 64 85 43 86
REMARK SMILES IDX 44 87 52 88 45 89 46 90 50 91 53 92 47 93 48 94 51 95 49 96
REMARK H PARENT 4 14 4 15 73 49 41 60
REMARK Flexibility Score: inf
ROOT
ATOM      1  O   UNL A   1      36.338  20.634  25.351  1.00  0.00    -0.374 OA
ENDROOT
BRANCH   1   2
ATOM      2  C   UNL A   1      35.539  19.593  24.791  1.00  0.00     0.202 C 
BRANCH   2   3
ATOM      3  C   UNL A   1      34.051  19.608  25.141  1.00  0.00     0.261 C 
BRANCH   3   4
ATOM      4  O   UNL A   1      33.288  20.308  24.140  1.00  0.00    -0.459 OA
BRANCH   4   5
ATOM      5  C   UNL A   1      32.479  21.308  24.598  1.00  0.00     0.368 C 
ATOM      6  O   UNL A   1      31.507  21.121  25.324  1.00  0.00    -0.245 OA
BRANCH   5   7
ATOM      7  C   UNL A   1      32.949  22.734  24.126  1.00  0.00     0.195 C 
ATOM      8  C   UNL A   1      32.972  22.810  22.576  1.00  0.00     0.081 C 
ATOM      9  C   UNL A   1      31.818  23.642  24.660  1.00  0.00     0.096 C 
ATOM     10  C   UNL A   1      32.948  24.226  22.004  1.00  0.00     0.008 C 
ATOM     11  C   UNL A   1      31.777  25.054  24.096  1.00  0.00     0.058 C 
ATOM     12  C   UNL A   1      31.800  25.067  22.567  1.00  0.00     0.015 C 
BRANCH   7  13
ATOM     13  N   UNL A   1      34.314  22.925  24.665  1.00  0.00    -0.330 N 
ATOM     14  H   UNL A   1      34.657  21.991  24.892  1.00  0.00     0.347 HD
ATOM     15  H   UNL A   1      34.748  23.467  23.919  1.00  0.00     0.347 HD
BRANCH  13  16
ATOM     16  C   UNL A   1      34.610  23.751  25.825  1.00  0.00     0.176 C 
ATOM     17  C   UNL A   1      34.343  22.918  27.085  1.00  0.00     0.075 C 
ATOM     18  C   UNL A   1      36.078  24.185  25.853  1.00  0.00     0.075 C 
ENDBRANCH  13  16
ENDBRANCH   7  13
BRANCH  11  19
ATOM     19  S   UNL A   1      30.392  26.027  24.844  1.00  0.00    -0.122 SA
BRANCH  19  20
ATOM     20  C   UNL A   1      31.209  27.449  25.540  1.00  0.00     0.008 A 
ATOM     21  C   UNL A   1      31.631  27.386  26.872  1.00  0.00     0.016 A 
ATOM     22  C   UNL A   1      31.385  28.640  24.828  1.00  0.00     0.016 A 
ATOM     23  C   UNL A   1      32.275  28.475  27.463  1.00  0.00     0.021 A 
ATOM     24  C   UNL A   1      32.056  29.722  25.405  1.00  0.00     0.021 A 
ATOM     25  C   UNL A   1      32.502  29.632  26.721  1.00  0.00     0.041 A 
ATOM     26  Cl  UNL A   1      33.324  30.961  27.438  1.00  0.00    -0.084 Cl
ENDBRANCH  19  20
ENDBRANCH  11  19
ENDBRANCH   5   7
ENDBRANCH   4   5
ENDBRANCH   3   4
ENDBRANCH   2   3
ENDBRANCH   1   2
BRANCH   1  27
ATOM     27  C   UNL A   1      37.610  20.888  24.759  1.00  0.00     0.202 C 
BRANCH  27  28
ATOM     28  C   UNL A   1      38.704  21.420  25.691  1.00  0.00     0.261 C 
BRANCH  28  29
ATOM     29  O   UNL A   1      39.277  20.394  26.520  1.00  0.00    -0.460 OA
BRANCH  29  30
ATOM     30  C   UNL A   1      40.553  20.067  26.208  1.00  0.00     0.338 C 
ATOM     31  O   UNL A   1      40.939  19.082  25.587  1.00  0.00    -0.246 OA
BRANCH  30  32
ATOM     32  C   UNL A   1      41.469  21.153  26.595  1.00  0.00     0.060 A 
ATOM     33  C   UNL A   1      41.666  21.388  27.963  1.00  0.00     0.016 A 
ATOM     34  C   UNL A   1      42.046  21.991  25.641  1.00  0.00     0.016 A 
ATOM     35  C   UNL A   1      42.393  22.499  28.387  1.00  0.00     0.010 A 
ATOM     36  C   UNL A   1      42.767  23.111  26.064  1.00  0.00     0.010 A 
ATOM     37  C   UNL A   1      42.906  23.391  27.436  1.00  0.00    -0.014 A 
BRANCH  37  38
ATOM     38  C   UNL A   1      43.417  24.717  27.858  1.00  0.00     0.031 A 
ATOM     39  C   UNL A   1      42.419  25.786  28.208  1.00  0.00     0.074 A 
ATOM     40  C   UNL A   1      44.735  24.970  27.920  1.00  0.00     0.049 A 
ATOM     41  N   UNL A   1      42.611  27.057  28.454  1.00  0.00    -0.248 NA
ATOM     42  C   UNL A   1      41.011  25.363  28.283  1.00  0.00     0.031 C 
ATOM     43  C   UNL A   1      45.795  23.996  27.670  1.00  0.00     0.029 A 
ATOM     44  N   UNL A   1      45.403  26.137  28.194  1.00  0.00    -0.354 N 
ATOM     45  C   UNL A   1      41.350  27.586  28.695  1.00  0.00     0.074 A 
ATOM     46  C   UNL A   1      40.398  26.507  28.546  1.00  0.00     0.031 C 
ATOM     47  C   UNL A   1      46.985  24.612  27.780  1.00  0.00     0.029 A 
ATOM     48  C   UNL A   1      46.765  26.030  28.062  1.00  0.00     0.049 A 
ATOM     49  H   UNL A   1      44.950  26.969  28.460  1.00  0.00     0.167 HD
ATOM     50  C   UNL A   1      41.017  28.859  29.016  1.00  0.00     0.037 A 
ATOM     51  C   UNL A   1      47.718  26.981  28.127  1.00  0.00     0.037 A 
ATOM     52  C   UNL A   1      41.971  29.926  29.165  1.00  0.00     0.049 A 
ATOM     53  C   UNL A   1      47.317  28.410  28.400  1.00  0.00     0.074 A 
ATOM     54  C   UNL A   1      41.741  31.253  29.477  1.00  0.00     0.029 A 
ATOM     55  N   UNL A   1      43.342  29.781  29.011  1.00  0.00    -0.354 N 
ATOM     56  N   UNL A   1      46.123  28.909  28.615  1.00  0.00    -0.248 NA
ATOM     57  C   UNL A   1      48.395  29.408  28.433  1.00  0.00     0.031 C 
ATOM     58  C   UNL A   1      42.968  31.923  29.469  1.00  0.00     0.029 A 
ATOM     59  C   UNL A   1      43.969  30.999  29.207  1.00  0.00     0.049 A 
ATOM     60  H   UNL A   1      43.801  28.937  28.793  1.00  0.00     0.167 HD
ATOM     61  C   UNL A   1      46.312  30.264  28.855  1.00  0.00     0.074 A 
ATOM     62  C   UNL A   1      47.735  30.512  28.753  1.00  0.00     0.031 C 
ATOM     63  C   UNL A   1      45.391  31.217  29.138  1.00  0.00     0.037 A 
BRANCH  50  64
ATOM     64  C   UNL A   1      39.562  29.172  29.198  1.00  0.00     0.064 A 
ATOM     65  C   UNL A   1      38.737  29.505  28.114  1.00  0.00     0.173 A 
ATOM     66  C   UNL A   1      38.977  29.109  30.472  1.00  0.00     0.173 A 
ATOM     67  F   UNL A   1      39.252  29.593  26.877  1.00  0.00    -0.203 F 
ATOM     68  C   UNL A   1      37.386  29.785  28.300  1.00  0.00     0.198 A 
ATOM     69  C   UNL A   1      37.620  29.362  30.651  1.00  0.00     0.198 A 
ATOM     70  F   UNL A   1      39.720  28.795  31.544  1.00  0.00    -0.203 F 
ATOM     71  F   UNL A   1      36.627  30.144  27.255  1.00  0.00    -0.200 F 
ATOM     72  C   UNL A   1      36.827  29.706  29.567  1.00  0.00     0.200 A 
ATOM     73  F   UNL A   1      37.079  29.273  31.875  1.00  0.00    -0.200 F 
ATOM     74  F   UNL A   1      35.525  29.969  29.745  1.00  0.00    -0.200 F 
ENDBRANCH  50  64
BRANCH  51  75
ATOM     75  C   UNL A   1      49.146  26.624  27.912  1.00  0.00     0.064 A 
ATOM     76  C   UNL A   1      49.661  26.457  26.620  1.00  0.00     0.173 A 
ATOM     77  C   UNL A   1      50.015  26.413  28.993  1.00  0.00     0.173 A 
ATOM     78  F   UNL A   1      48.862  26.622  25.555  1.00  0.00    -0.203 F 
ATOM     79  C   UNL A   1      50.985  26.075  26.416  1.00  0.00     0.198 A 
ATOM     80  C   UNL A   1      51.347  26.059  28.787  1.00  0.00     0.198 A 
ATOM     81  F   UNL A   1      49.572  26.555  30.250  1.00  0.00    -0.203 F 
ATOM     82  F   UNL A   1      51.438  25.874  25.170  1.00  0.00    -0.200 F 
ATOM     83  C   UNL A   1      51.829  25.881  27.500  1.00  0.00     0.200 A 
ATOM     84  F   UNL A   1      52.160  25.883  29.837  1.00  0.00    -0.200 F 
ATOM     85  F   UNL A   1      53.102  25.512  27.303  1.00  0.00    -0.200 F 
ENDBRANCH  51  75
BRANCH  63  86
ATOM     86  C   UNL A   1      45.888  32.602  29.437  1.00  0.00     0.064 A 
ATOM     87  C   UNL A   1      46.272  32.990  30.727  1.00  0.00     0.173 A 
ATOM     88  C   UNL A   1      46.050  33.528  28.393  1.00  0.00     0.173 A 
ATOM     89  F   UNL A   1      46.124  32.145  31.758  1.00  0.00    -0.203 F 
ATOM     90  C   UNL A   1      46.787  34.261  30.966  1.00  0.00     0.198 A 
ATOM     91  C   UNL A   1      46.592  34.787  28.632  1.00  0.00     0.198 A 
ATOM     92  F   UNL A   1      45.705  33.201  27.139  1.00  0.00    -0.203 F 
ATOM     93  F   UNL A   1      47.117  34.624  32.213  1.00  0.00    -0.200 F 
ATOM     94  C   UNL A   1      46.957  35.154  29.918  1.00  0.00     0.200 A 
ATOM     95  F   UNL A   1      46.768  35.642  27.615  1.00  0.00    -0.200 F 
ATOM     96  F   UNL A   1      47.469  36.370  30.148  1.00  0.00    -0.200 F 
ENDBRANCH  63  86
ENDBRANCH  37  38
ENDBRANCH  30  32
ENDBRANCH  29  30
ENDBRANCH  28  29
ENDBRANCH  27  28
ENDBRANCH   1  27
TORSDOF 18
ENDMDL
