MODEL 1
REMARK VINA RESULT:     -11.2      0.000      0.000
REMARK SMILES C[C@@H](C(=O)OCCOCCOC(=O)c1ccc(-c2c3nc(c(-c4c(F)c(F)c(F)c(F)c4F)c4ccc([nH]4)c(-c4c(F)c(F)c(F)c(F)c4F)c4nc(c(-c5c(F)c(F)c(F)c(F)c5F)c5ccc2[nH]5)C=C4)C=C3)cc1)c1ccc(OC2CCCC2)cc1F
REMARK SMILES IDX 7 1 6 2 5 3 3 4 4 5 2 6 1 7 77 8 78 9 88 10 79 11 87 12
REMARK SMILES IDX 89 13 80 14 81 15 82 16 83 17 86 18 84 19 85 20 8 21 9 22
REMARK SMILES IDX 10 23 11 24 12 25 13 26 14 27 15 28 76 29 16 30 75 31 17 32
REMARK SMILES IDX 18 33 19 34 69 35 20 36 74 37 68 38 70 39 21 40 73 41 67 42
REMARK SMILES IDX 66 43 22 45 54 46 34 47 53 48 35 49 38 50 52 51 71 52 36 53
REMARK SMILES IDX 37 54 51 56 72 57 39 58 23 59 24 60 32 61 25 62 26 63 30 64
REMARK SMILES IDX 33 65 27 66 28 67 31 68 29 69 55 70 56 71 64 72 57 73 58 74
REMARK SMILES IDX 62 75 65 76 59 77 60 78 63 79 61 80 40 81 41 82 49 83 42 84
REMARK SMILES IDX 43 85 47 86 50 87 44 88 45 89 48 90 46 91
REMARK H PARENT 70 44 38 55
REMARK Flexibility Score: inf
ROOT
ATOM      1  C   UNL A   1      33.236  29.250  25.421  1.00  0.00     0.202 C 
ENDROOT
BRANCH   1   2
ATOM      2  C   UNL A   1      33.793  27.846  25.670  1.00  0.00     0.261 C 
BRANCH   2   3
ATOM      3  O   UNL A   1      32.748  26.866  25.791  1.00  0.00    -0.463 OA
BRANCH   3   4
ATOM      4  C   UNL A   1      33.090  25.612  25.382  1.00  0.00     0.313 C 
ATOM      5  O   UNL A   1      33.674  24.806  26.100  1.00  0.00    -0.252 OA
BRANCH   4   6
ATOM      6  C   UNL A   1      32.624  25.290  23.950  1.00  0.00     0.129 C 
ATOM      7  C   UNL A   1      33.769  25.144  22.941  1.00  0.00     0.025 C 
BRANCH   6   8
ATOM      8  C   UNL A   1      31.518  26.252  23.526  1.00  0.00     0.002 A 
ATOM      9  C   UNL A   1      31.695  27.336  22.656  1.00  0.00     0.011 A 
ATOM     10  C   UNL A   1      30.244  26.080  24.081  1.00  0.00     0.130 A 
ATOM     11  C   UNL A   1      30.630  28.210  22.383  1.00  0.00     0.047 A 
ATOM     12  C   UNL A   1      29.202  26.972  23.849  1.00  0.00     0.086 A 
ATOM     13  F   UNL A   1      29.992  25.018  24.860  1.00  0.00    -0.207 F 
ATOM     14  C   UNL A   1      29.376  28.036  22.978  1.00  0.00     0.122 A 
BRANCH  14  15
ATOM     15  O   UNL A   1      28.434  28.954  22.615  1.00  0.00    -0.490 OA
BRANCH  15  16
ATOM     16  C   UNL A   1      28.771  30.275  22.201  1.00  0.00     0.173 C 
ATOM     17  C   UNL A   1      28.011  30.835  21.001  1.00  0.00     0.045 C 
ATOM     18  C   UNL A   1      28.732  31.333  23.304  1.00  0.00     0.045 C 
ATOM     19  C   UNL A   1      28.147  32.343  21.138  1.00  0.00     0.004 C 
ATOM     20  C   UNL A   1      28.302  32.632  22.628  1.00  0.00     0.004 C 
ENDBRANCH  15  16
ENDBRANCH  14  15
ENDBRANCH   6   8
ENDBRANCH   4   6
ENDBRANCH   3   4
ENDBRANCH   2   3
ENDBRANCH   1   2
BRANCH   1  21
ATOM     21  O   UNL A   1      32.150  29.670  26.241  1.00  0.00    -0.374 OA
BRANCH  21  22
ATOM     22  C   UNL A   1      31.393  30.804  25.817  1.00  0.00     0.202 C 
BRANCH  22  23
ATOM     23  C   UNL A   1      31.639  32.124  26.560  1.00  0.00     0.261 C 
BRANCH  23  24
ATOM     24  O   UNL A   1      32.560  31.972  27.658  1.00  0.00    -0.460 OA
BRANCH  24  25
ATOM     25  C   UNL A   1      33.518  32.928  27.731  1.00  0.00     0.338 C 
ATOM     26  O   UNL A   1      33.361  34.140  27.679  1.00  0.00    -0.246 OA
BRANCH  25  27
ATOM     27  C   UNL A   1      34.817  32.327  28.080  1.00  0.00     0.060 A 
ATOM     28  C   UNL A   1      34.839  30.953  28.356  1.00  0.00     0.016 A 
ATOM     29  C   UNL A   1      35.968  33.100  28.235  1.00  0.00     0.016 A 
ATOM     30  C   UNL A   1      36.002  30.354  28.835  1.00  0.00     0.010 A 
ATOM     31  C   UNL A   1      37.132  32.500  28.729  1.00  0.00     0.010 A 
ATOM     32  C   UNL A   1      37.144  31.134  29.066  1.00  0.00    -0.014 A 
BRANCH  32  33
ATOM     33  C   UNL A   1      38.283  30.545  29.810  1.00  0.00     0.031 A 
ATOM     34  C   UNL A   1      38.499  30.942  31.245  1.00  0.00     0.074 A 
ATOM     35  C   UNL A   1      39.088  29.636  29.234  1.00  0.00     0.049 A 
ATOM     36  N   UNL A   1      39.431  30.565  32.082  1.00  0.00    -0.248 NA
ATOM     37  C   UNL A   1      37.529  31.892  31.812  1.00  0.00     0.031 C 
ATOM     38  C   UNL A   1      38.957  29.140  27.866  1.00  0.00     0.029 A 
ATOM     39  N   UNL A   1      40.181  28.972  29.732  1.00  0.00    -0.354 N 
ATOM     40  C   UNL A   1      39.161  31.229  33.272  1.00  0.00     0.074 A 
ATOM     41  C   UNL A   1      37.998  32.056  33.041  1.00  0.00     0.031 C 
ATOM     42  C   UNL A   1      39.942  28.256  27.628  1.00  0.00     0.029 A 
ATOM     43  C   UNL A   1      40.785  28.145  28.818  1.00  0.00     0.049 A 
ATOM     44  H   UNL A   1      40.502  29.079  30.657  1.00  0.00     0.167 HD
ATOM     45  C   UNL A   1      39.818  31.146  34.453  1.00  0.00     0.037 A 
ATOM     46  C   UNL A   1      41.902  27.400  28.926  1.00  0.00     0.037 A 
ATOM     47  C   UNL A   1      40.976  30.323  34.683  1.00  0.00     0.049 A 
ATOM     48  C   UNL A   1      42.655  27.378  30.230  1.00  0.00     0.074 A 
ATOM     49  C   UNL A   1      41.705  30.165  35.848  1.00  0.00     0.029 A 
ATOM     50  N   UNL A   1      41.578  29.524  33.722  1.00  0.00    -0.354 N 
ATOM     51  N   UNL A   1      42.382  27.992  31.355  1.00  0.00    -0.248 NA
ATOM     52  C   UNL A   1      43.872  26.555  30.280  1.00  0.00     0.031 C 
ATOM     53  C   UNL A   1      42.774  29.303  35.581  1.00  0.00     0.029 A 
ATOM     54  C   UNL A   1      42.684  28.888  34.262  1.00  0.00     0.049 A 
ATOM     55  H   UNL A   1      41.265  29.425  32.794  1.00  0.00     0.167 HD
ATOM     56  C   UNL A   1      43.373  27.612  32.251  1.00  0.00     0.074 A 
ATOM     57  C   UNL A   1      44.250  26.704  31.542  1.00  0.00     0.031 C 
ATOM     58  C   UNL A   1      43.543  27.982  33.544  1.00  0.00     0.037 A 
BRANCH  45  59
ATOM     59  C   UNL A   1      39.309  31.988  35.585  1.00  0.00     0.064 A 
ATOM     60  C   UNL A   1      38.439  31.468  36.555  1.00  0.00     0.173 A 
ATOM     61  C   UNL A   1      39.720  33.323  35.717  1.00  0.00     0.173 A 
ATOM     62  F   UNL A   1      38.006  30.202  36.464  1.00  0.00    -0.203 F 
ATOM     63  C   UNL A   1      37.980  32.262  37.604  1.00  0.00     0.198 A 
ATOM     64  C   UNL A   1      39.280  34.105  36.781  1.00  0.00     0.198 A 
ATOM     65  F   UNL A   1      40.553  33.867  34.818  1.00  0.00    -0.203 F 
ATOM     66  F   UNL A   1      37.116  31.757  38.495  1.00  0.00    -0.200 F 
ATOM     67  C   UNL A   1      38.406  33.577  37.719  1.00  0.00     0.200 A 
ATOM     68  F   UNL A   1      39.698  35.374  36.897  1.00  0.00    -0.200 F 
ATOM     69  F   UNL A   1      37.967  34.338  38.732  1.00  0.00    -0.200 F 
ENDBRANCH  45  59
BRANCH  46  70
ATOM     70  C   UNL A   1      42.385  26.619  27.758  1.00  0.00     0.064 A 
ATOM     71  C   UNL A   1      43.320  27.155  26.863  1.00  0.00     0.173 A 
ATOM     72  C   UNL A   1      41.908  25.324  27.506  1.00  0.00     0.173 A 
ATOM     73  F   UNL A   1      43.784  28.400  27.046  1.00  0.00    -0.203 F 
ATOM     74  C   UNL A   1      43.747  26.432  25.751  1.00  0.00     0.198 A 
ATOM     75  C   UNL A   1      42.356  24.592  26.410  1.00  0.00     0.198 A 
ATOM     76  F   UNL A   1      41.009  24.768  28.331  1.00  0.00    -0.203 F 
ATOM     77  F   UNL A   1      44.609  26.985  24.886  1.00  0.00    -0.200 F 
ATOM     78  C   UNL A   1      43.270  25.149  25.528  1.00  0.00     0.200 A 
ATOM     79  F   UNL A   1      41.899  23.349  26.204  1.00  0.00    -0.200 F 
ATOM     80  F   UNL A   1      43.685  24.453  24.462  1.00  0.00    -0.200 F 
ENDBRANCH  46  70
BRANCH  58  81
ATOM     81  C   UNL A   1      44.700  27.382  34.287  1.00  0.00     0.064 A 
ATOM     82  C   UNL A   1      45.949  28.019  34.341  1.00  0.00     0.173 A 
ATOM     83  C   UNL A   1      44.545  26.179  34.992  1.00  0.00     0.173 A 
ATOM     84  F   UNL A   1      46.152  29.164  33.673  1.00  0.00    -0.203 F 
ATOM     85  C   UNL A   1      47.006  27.461  35.055  1.00  0.00     0.198 A 
ATOM     86  C   UNL A   1      45.597  25.638  35.727  1.00  0.00     0.198 A 
ATOM     87  F   UNL A   1      43.369  25.534  34.979  1.00  0.00    -0.203 F 
ATOM     88  F   UNL A   1      48.203  28.065  35.058  1.00  0.00    -0.200 F 
ATOM     89  C   UNL A   1      46.827  26.276  35.752  1.00  0.00     0.200 A 
ATOM     90  F   UNL A   1      45.419  24.499  36.411  1.00  0.00    -0.200 F 
ATOM     91  F   UNL A   1      47.845  25.744  36.445  1.00  0.00    -0.200 F 
ENDBRANCH  58  81
ENDBRANCH  32  33
ENDBRANCH  25  27
ENDBRANCH  24  25
ENDBRANCH  23  24
ENDBRANCH  22  23
ENDBRANCH  21  22
ENDBRANCH   1  21
TORSDOF 17
ENDMDL
MODEL 2
REMARK VINA RESULT:     -11.1      2.337      4.499
REMARK SMILES C[C@@H](C(=O)OCCOCCOC(=O)c1ccc(-c2c3nc(c(-c4c(F)c(F)c(F)c(F)c4F)c4ccc([nH]4)c(-c4c(F)c(F)c(F)c(F)c4F)c4nc(c(-c5c(F)c(F)c(F)c(F)c5F)c5ccc2[nH]5)C=C4)C=C3)cc1)c1ccc(OC2CCCC2)cc1F
REMARK SMILES IDX 7 1 6 2 5 3 3 4 4 5 2 6 1 7 77 8 78 9 88 10 79 11 87 12
REMARK SMILES IDX 89 13 80 14 81 15 82 16 83 17 86 18 84 19 85 20 8 21 9 22
REMARK SMILES IDX 10 23 11 24 12 25 13 26 14 27 15 28 76 29 16 30 75 31 17 32
REMARK SMILES IDX 18 33 19 34 69 35 20 36 74 37 68 38 70 39 21 40 73 41 67 42
REMARK SMILES IDX 66 43 22 45 54 46 34 47 53 48 35 49 38 50 52 51 71 52 36 53
REMARK SMILES IDX 37 54 51 56 72 57 39 58 23 59 24 60 32 61 25 62 26 63 30 64
REMARK SMILES IDX 33 65 27 66 28 67 31 68 29 69 55 70 56 71 64 72 57 73 58 74
REMARK SMILES IDX 62 75 65 76 59 77 60 78 63 79 61 80 40 81 41 82 49 83 42 84
REMARK SMILES IDX 43 85 47 86 50 87 44 88 45 89 48 90 46 91
REMARK H PARENT 70 44 38 55
REMARK Flexibility Score: inf
ROOT
ATOM      1  C   UNL A   1      33.427  28.854  23.720  1.00  0.00     0.202 C 
ENDROOT
BRANCH   1   2
ATOM      2  C   UNL A   1      33.609  27.339  23.606  1.00  0.00     0.261 C 
BRANCH   2   3
ATOM      3  O   UNL A   1      34.000  26.749  24.857  1.00  0.00    -0.463 OA
BRANCH   3   4
ATOM      4  C   UNL A   1      33.860  25.395  24.919  1.00  0.00     0.313 C 
ATOM      5  O   UNL A   1      34.810  24.619  24.926  1.00  0.00    -0.252 OA
BRANCH   4   6
ATOM      6  C   UNL A   1      32.393  24.939  25.032  1.00  0.00     0.129 C 
ATOM      7  C   UNL A   1      31.715  25.344  26.346  1.00  0.00     0.025 C 
BRANCH   6   8
ATOM      8  C   UNL A   1      32.271  23.459  24.681  1.00  0.00     0.002 A 
ATOM      9  C   UNL A   1      32.262  22.416  25.616  1.00  0.00     0.011 A 
ATOM     10  C   UNL A   1      32.219  23.103  23.327  1.00  0.00     0.130 A 
ATOM     11  C   UNL A   1      32.220  21.079  25.190  1.00  0.00     0.047 A 
ATOM     12  C   UNL A   1      32.226  21.779  22.902  1.00  0.00     0.086 A 
ATOM     13  F   UNL A   1      32.148  24.058  22.388  1.00  0.00    -0.207 F 
ATOM     14  C   UNL A   1      32.202  20.749  23.830  1.00  0.00     0.122 A 
BRANCH  14  15
ATOM     15  O   UNL A   1      32.153  19.413  23.562  1.00  0.00    -0.490 OA
BRANCH  15  16
ATOM     16  C   UNL A   1      33.073  18.483  24.129  1.00  0.00     0.173 C 
ATOM     17  C   UNL A   1      32.586  17.679  25.332  1.00  0.00     0.045 C 
ATOM     18  C   UNL A   1      33.695  17.497  23.139  1.00  0.00     0.045 C 
ATOM     19  C   UNL A   1      33.488  16.455  25.358  1.00  0.00     0.004 C 
ATOM     20  C   UNL A   1      33.922  16.205  23.917  1.00  0.00     0.004 C 
ENDBRANCH  15  16
ENDBRANCH  14  15
ENDBRANCH   6   8
ENDBRANCH   4   6
ENDBRANCH   3   4
ENDBRANCH   2   3
ENDBRANCH   1   2
BRANCH   1  21
ATOM     21  O   UNL A   1      33.261  29.390  25.029  1.00  0.00    -0.374 OA
BRANCH  21  22
ATOM     22  C   UNL A   1      31.939  29.726  25.451  1.00  0.00     0.202 C 
BRANCH  22  23
ATOM     23  C   UNL A   1      31.770  31.027  26.247  1.00  0.00     0.261 C 
BRANCH  23  24
ATOM     24  O   UNL A   1      32.541  31.030  27.464  1.00  0.00    -0.460 OA
BRANCH  24  25
ATOM     25  C   UNL A   1      33.404  32.067  27.586  1.00  0.00     0.338 C 
ATOM     26  O   UNL A   1      33.138  33.261  27.564  1.00  0.00    -0.246 OA
BRANCH  25  27
ATOM     27  C   UNL A   1      34.746  31.577  27.950  1.00  0.00     0.060 A 
ATOM     28  C   UNL A   1      34.889  30.203  28.187  1.00  0.00     0.016 A 
ATOM     29  C   UNL A   1      35.817  32.448  28.153  1.00  0.00     0.016 A 
ATOM     30  C   UNL A   1      36.092  29.700  28.677  1.00  0.00     0.010 A 
ATOM     31  C   UNL A   1      37.021  31.942  28.658  1.00  0.00     0.010 A 
ATOM     32  C   UNL A   1      37.151  30.573  28.957  1.00  0.00    -0.014 A 
BRANCH  32  33
ATOM     33  C   UNL A   1      38.324  30.069  29.712  1.00  0.00     0.031 A 
ATOM     34  C   UNL A   1      38.549  30.556  31.117  1.00  0.00     0.074 A 
ATOM     35  C   UNL A   1      39.152  29.159  29.173  1.00  0.00     0.049 A 
ATOM     36  N   UNL A   1      39.508  30.261  31.956  1.00  0.00    -0.248 NA
ATOM     37  C   UNL A   1      37.554  31.502  31.648  1.00  0.00     0.031 C 
ATOM     38  C   UNL A   1      39.017  28.581  27.838  1.00  0.00     0.029 A 
ATOM     39  N   UNL A   1      40.278  28.564  29.687  1.00  0.00    -0.354 N 
ATOM     40  C   UNL A   1      39.235  30.982  33.112  1.00  0.00     0.074 A 
ATOM     41  C   UNL A   1      38.038  31.753  32.856  1.00  0.00     0.031 C 
ATOM     42  C   UNL A   1      40.029  27.721  27.632  1.00  0.00     0.029 A 
ATOM     43  C   UNL A   1      40.896  27.709  28.810  1.00  0.00     0.049 A 
ATOM     44  H   UNL A   1      40.610  28.736  30.598  1.00  0.00     0.167 HD
ATOM     45  C   UNL A   1      39.914  30.991  34.283  1.00  0.00     0.037 A 
ATOM     46  C   UNL A   1      42.041  27.011  28.939  1.00  0.00     0.037 A 
ATOM     47  C   UNL A   1      41.105  30.225  34.537  1.00  0.00     0.049 A 
ATOM     48  C   UNL A   1      42.816  27.091  30.228  1.00  0.00     0.074 A 
ATOM     49  C   UNL A   1      41.859  30.159  35.696  1.00  0.00     0.029 A 
ATOM     50  N   UNL A   1      41.720  29.394  33.612  1.00  0.00    -0.354 N 
ATOM     51  N   UNL A   1      42.540  27.759  31.321  1.00  0.00    -0.248 NA
ATOM     52  C   UNL A   1      44.064  26.317  30.300  1.00  0.00     0.031 C 
ATOM     53  C   UNL A   1      42.955  29.323  35.457  1.00  0.00     0.029 A 
ATOM     54  C   UNL A   1      42.858  28.830  34.166  1.00  0.00     0.049 A 
ATOM     55  H   UNL A   1      41.396  29.230  32.697  1.00  0.00     0.167 HD
ATOM     56  C   UNL A   1      43.560  27.467  32.217  1.00  0.00     0.074 A 
ATOM     57  C   UNL A   1      44.457  26.551  31.545  1.00  0.00     0.031 C 
ATOM     58  C   UNL A   1      43.738  27.916  33.484  1.00  0.00     0.037 A 
BRANCH  45  59
ATOM     59  C   UNL A   1      39.393  31.877  35.375  1.00  0.00     0.064 A 
ATOM     60  C   UNL A   1      39.739  33.235  35.448  1.00  0.00     0.173 A 
ATOM     61  C   UNL A   1      38.514  31.369  36.343  1.00  0.00     0.173 A 
ATOM     62  F   UNL A   1      40.587  33.765  34.555  1.00  0.00    -0.203 F 
ATOM     63  C   UNL A   1      39.241  34.046  36.465  1.00  0.00     0.198 A 
ATOM     64  C   UNL A   1      37.999  32.189  37.343  1.00  0.00     0.198 A 
ATOM     65  F   UNL A   1      38.151  30.078  36.316  1.00  0.00    -0.203 F 
ATOM     66  F   UNL A   1      39.618  35.330  36.542  1.00  0.00    -0.200 F 
ATOM     67  C   UNL A   1      38.367  33.524  37.407  1.00  0.00     0.200 A 
ATOM     68  F   UNL A   1      37.147  31.685  38.248  1.00  0.00    -0.200 F 
ATOM     69  F   UNL A   1      37.885  34.307  38.383  1.00  0.00    -0.200 F 
ENDBRANCH  45  59
BRANCH  46  70
ATOM     70  C   UNL A   1      42.533  26.183  27.808  1.00  0.00     0.064 A 
ATOM     71  C   UNL A   1      43.490  26.674  26.911  1.00  0.00     0.173 A 
ATOM     72  C   UNL A   1      42.042  24.886  27.593  1.00  0.00     0.173 A 
ATOM     73  F   UNL A   1      43.969  27.918  27.058  1.00  0.00    -0.203 F 
ATOM     74  C   UNL A   1      43.927  25.906  25.833  1.00  0.00     0.198 A 
ATOM     75  C   UNL A   1      42.498  24.109  26.532  1.00  0.00     0.198 A 
ATOM     76  F   UNL A   1      41.121  24.372  28.422  1.00  0.00    -0.203 F 
ATOM     77  F   UNL A   1      44.810  26.416  24.964  1.00  0.00    -0.200 F 
ATOM     78  C   UNL A   1      43.435  24.622  25.648  1.00  0.00     0.200 A 
ATOM     79  F   UNL A   1      42.027  22.867  26.362  1.00  0.00    -0.200 F 
ATOM     80  F   UNL A   1      43.858  23.883  24.614  1.00  0.00    -0.200 F 
ENDBRANCH  46  70
BRANCH  58  81
ATOM     81  C   UNL A   1      44.929  27.402  34.238  1.00  0.00     0.064 A 
ATOM     82  C   UNL A   1      44.874  26.206  34.971  1.00  0.00     0.173 A 
ATOM     83  C   UNL A   1      46.151  28.088  34.190  1.00  0.00     0.173 A 
ATOM     84  F   UNL A   1      43.725  25.521  35.059  1.00  0.00    -0.203 F 
ATOM     85  C   UNL A   1      45.996  25.730  35.645  1.00  0.00     0.198 A 
ATOM     86  C   UNL A   1      47.277  27.594  34.844  1.00  0.00     0.198 A 
ATOM     87  F   UNL A   1      46.257  29.232  33.497  1.00  0.00    -0.203 F 
ATOM     88  F   UNL A   1      45.910  24.608  36.374  1.00  0.00    -0.200 F 
ATOM     89  C   UNL A   1      47.196  26.420  35.576  1.00  0.00     0.200 A 
ATOM     90  F   UNL A   1      48.440  28.256  34.765  1.00  0.00    -0.200 F 
ATOM     91  F   UNL A   1      48.276  25.955  36.221  1.00  0.00    -0.200 F 
ENDBRANCH  58  81
ENDBRANCH  32  33
ENDBRANCH  25  27
ENDBRANCH  24  25
ENDBRANCH  23  24
ENDBRANCH  22  23
ENDBRANCH  21  22
ENDBRANCH   1  21
TORSDOF 17
ENDMDL
MODEL 3
REMARK VINA RESULT:     -11.1      1.960      4.124
REMARK SMILES C[C@@H](C(=O)OCCOCCOC(=O)c1ccc(-c2c3nc(c(-c4c(F)c(F)c(F)c(F)c4F)c4ccc([nH]4)c(-c4c(F)c(F)c(F)c(F)c4F)c4nc(c(-c5c(F)c(F)c(F)c(F)c5F)c5ccc2[nH]5)C=C4)C=C3)cc1)c1ccc(OC2CCCC2)cc1F
REMARK SMILES IDX 7 1 6 2 5 3 3 4 4 5 2 6 1 7 77 8 78 9 88 10 79 11 87 12
REMARK SMILES IDX 89 13 80 14 81 15 82 16 83 17 86 18 84 19 85 20 8 21 9 22
REMARK SMILES IDX 10 23 11 24 12 25 13 26 14 27 15 28 76 29 16 30 75 31 17 32
REMARK SMILES IDX 18 33 19 34 69 35 20 36 74 37 68 38 70 39 21 40 73 41 67 42
REMARK SMILES IDX 66 43 22 45 54 46 34 47 53 48 35 49 38 50 52 51 71 52 36 53
REMARK SMILES IDX 37 54 51 56 72 57 39 58 23 59 24 60 32 61 25 62 26 63 30 64
REMARK SMILES IDX 33 65 27 66 28 67 31 68 29 69 55 70 56 71 64 72 57 73 58 74
REMARK SMILES IDX 62 75 65 76 59 77 60 78 63 79 61 80 40 81 41 82 49 83 42 84
REMARK SMILES IDX 43 85 47 86 50 87 44 88 45 89 48 90 46 91
REMARK H PARENT 70 44 38 55
REMARK Flexibility Score: inf
ROOT
ATOM      1  C   UNL A   1      32.354  29.462  25.723  1.00  0.00     0.202 C 
ENDROOT
BRANCH   1   2
ATOM      2  C   UNL A   1      31.321  28.967  24.708  1.00  0.00     0.261 C 
BRANCH   2   3
ATOM      3  O   UNL A   1      31.182  27.537  24.734  1.00  0.00    -0.463 OA
BRANCH   3   4
ATOM      4  C   UNL A   1      32.239  26.850  24.218  1.00  0.00     0.313 C 
ATOM      5  O   UNL A   1      32.710  27.074  23.107  1.00  0.00    -0.252 OA
BRANCH   4   6
ATOM      6  C   UNL A   1      32.817  25.803  25.188  1.00  0.00     0.129 C 
ATOM      7  C   UNL A   1      34.206  26.159  25.734  1.00  0.00     0.025 C 
BRANCH   6   8
ATOM      8  C   UNL A   1      32.708  24.406  24.584  1.00  0.00     0.002 A 
ATOM      9  C   UNL A   1      33.404  23.973  23.448  1.00  0.00     0.011 A 
ATOM     10  C   UNL A   1      31.811  23.503  25.167  1.00  0.00     0.130 A 
ATOM     11  C   UNL A   1      33.181  22.689  22.925  1.00  0.00     0.047 A 
ATOM     12  C   UNL A   1      31.553  22.249  24.622  1.00  0.00     0.086 A 
ATOM     13  F   UNL A   1      31.173  23.832  26.300  1.00  0.00    -0.207 F 
ATOM     14  C   UNL A   1      32.253  21.818  23.506  1.00  0.00     0.122 A 
BRANCH  14  15
ATOM     15  O   UNL A   1      32.146  20.602  22.897  1.00  0.00    -0.490 OA
BRANCH  15  16
ATOM     16  C   UNL A   1      32.456  19.380  23.564  1.00  0.00     0.173 C 
ATOM     17  C   UNL A   1      32.496  18.119  22.704  1.00  0.00     0.045 C 
ATOM     18  C   UNL A   1      33.732  19.404  24.406  1.00  0.00     0.045 C 
ATOM     19  C   UNL A   1      33.354  17.148  23.500  1.00  0.00     0.004 C 
ATOM     20  C   UNL A   1      34.313  17.995  24.331  1.00  0.00     0.004 C 
ENDBRANCH  15  16
ENDBRANCH  14  15
ENDBRANCH   6   8
ENDBRANCH   4   6
ENDBRANCH   3   4
ENDBRANCH   2   3
ENDBRANCH   1   2
BRANCH   1  21
ATOM     21  O   UNL A   1      31.896  30.362  26.728  1.00  0.00    -0.374 OA
BRANCH  21  22
ATOM     22  C   UNL A   1      31.272  31.574  26.304  1.00  0.00     0.202 C 
BRANCH  22  23
ATOM     23  C   UNL A   1      31.884  32.887  26.811  1.00  0.00     0.261 C 
BRANCH  23  24
ATOM     24  O   UNL A   1      32.811  32.678  27.894  1.00  0.00    -0.460 OA
BRANCH  24  25
ATOM     25  C   UNL A   1      33.865  33.529  27.912  1.00  0.00     0.338 C 
ATOM     26  O   UNL A   1      33.834  34.749  27.827  1.00  0.00    -0.246 OA
BRANCH  25  27
ATOM     27  C   UNL A   1      35.104  32.804  28.243  1.00  0.00     0.060 A 
ATOM     28  C   UNL A   1      34.987  31.452  28.593  1.00  0.00     0.016 A 
ATOM     29  C   UNL A   1      36.339  33.450  28.309  1.00  0.00     0.016 A 
ATOM     30  C   UNL A   1      36.097  30.751  29.058  1.00  0.00     0.010 A 
ATOM     31  C   UNL A   1      37.451  32.748  28.790  1.00  0.00     0.010 A 
ATOM     32  C   UNL A   1      37.327  31.408  29.201  1.00  0.00    -0.014 A 
BRANCH  32  33
ATOM     33  C   UNL A   1      38.427  30.733  29.931  1.00  0.00     0.031 A 
ATOM     34  C   UNL A   1      38.656  31.073  31.379  1.00  0.00     0.074 A 
ATOM     35  C   UNL A   1      39.184  29.799  29.331  1.00  0.00     0.049 A 
ATOM     36  N   UNL A   1      39.560  30.619  32.208  1.00  0.00    -0.248 NA
ATOM     37  C   UNL A   1      37.738  32.059  31.971  1.00  0.00     0.031 C 
ATOM     38  C   UNL A   1      39.033  29.354  27.947  1.00  0.00     0.029 A 
ATOM     39  N   UNL A   1      40.235  29.060  29.812  1.00  0.00    -0.354 N 
ATOM     40  C   UNL A   1      39.321  31.259  33.416  1.00  0.00     0.074 A 
ATOM     41  C   UNL A   1      38.207  32.158  33.206  1.00  0.00     0.031 C 
ATOM     42  C   UNL A   1      39.968  28.423  27.686  1.00  0.00     0.029 A 
ATOM     43  C   UNL A   1      40.796  28.229  28.876  1.00  0.00     0.049 A 
ATOM     44  H   UNL A   1      40.555  29.120  30.742  1.00  0.00     0.167 HD
ATOM     45  C   UNL A   1      39.965  31.103  34.597  1.00  0.00     0.037 A 
ATOM     46  C   UNL A   1      41.869  27.418  28.965  1.00  0.00     0.037 A 
ATOM     47  C   UNL A   1      41.073  30.210  34.807  1.00  0.00     0.049 A 
ATOM     48  C   UNL A   1      42.611  27.314  30.272  1.00  0.00     0.074 A 
ATOM     49  C   UNL A   1      41.785  29.975  35.970  1.00  0.00     0.029 A 
ATOM     50  N   UNL A   1      41.635  29.409  33.824  1.00  0.00    -0.354 N 
ATOM     51  N   UNL A   1      42.367  27.908  31.414  1.00  0.00    -0.248 NA
ATOM     52  C   UNL A   1      43.780  26.422  30.301  1.00  0.00     0.031 C 
ATOM     53  C   UNL A   1      42.806  29.063  35.680  1.00  0.00     0.029 A 
ATOM     54  C   UNL A   1      42.701  28.694  34.349  1.00  0.00     0.049 A 
ATOM     55  H   UNL A   1      41.323  29.355  32.892  1.00  0.00     0.167 HD
ATOM     56  C   UNL A   1      43.329  27.445  32.301  1.00  0.00     0.074 A 
ATOM     57  C   UNL A   1      44.158  26.511  31.569  1.00  0.00     0.031 C 
ATOM     58  C   UNL A   1      43.512  27.765  33.606  1.00  0.00     0.037 A 
BRANCH  45  59
ATOM     59  C   UNL A   1      39.497  31.937  35.753  1.00  0.00     0.064 A 
ATOM     60  C   UNL A   1      40.046  33.201  36.020  1.00  0.00     0.173 A 
ATOM     61  C   UNL A   1      38.465  31.479  36.586  1.00  0.00     0.173 A 
ATOM     62  F   UNL A   1      41.044  33.676  35.261  1.00  0.00    -0.203 F 
ATOM     63  C   UNL A   1      39.596  33.965  37.093  1.00  0.00     0.198 A 
ATOM     64  C   UNL A   1      38.000  32.257  37.642  1.00  0.00     0.198 A 
ATOM     65  F   UNL A   1      37.905  30.280  36.373  1.00  0.00    -0.203 F 
ATOM     66  F   UNL A   1      40.164  35.149  37.355  1.00  0.00    -0.200 F 
ATOM     67  C   UNL A   1      38.569  33.496  37.899  1.00  0.00     0.200 A 
ATOM     68  F   UNL A   1      37.002  31.807  38.416  1.00  0.00    -0.200 F 
ATOM     69  F   UNL A   1      38.133  34.235  38.929  1.00  0.00    -0.200 F 
ENDBRANCH  45  59
BRANCH  46  70
ATOM     70  C   UNL A   1      42.314  26.649  27.776  1.00  0.00     0.064 A 
ATOM     71  C   UNL A   1      41.806  25.371  27.505  1.00  0.00     0.173 A 
ATOM     72  C   UNL A   1      43.271  27.171  26.893  1.00  0.00     0.173 A 
ATOM     73  F   UNL A   1      40.909  24.818  28.336  1.00  0.00    -0.203 F 
ATOM     74  C   UNL A   1      42.249  24.639  26.405  1.00  0.00     0.198 A 
ATOM     75  C   UNL A   1      43.693  26.449  25.779  1.00  0.00     0.198 A 
ATOM     76  F   UNL A   1      43.792  28.387  27.110  1.00  0.00    -0.203 F 
ATOM     77  F   UNL A   1      41.778  23.402  26.194  1.00  0.00    -0.200 F 
ATOM     78  C   UNL A   1      43.187  25.181  25.540  1.00  0.00     0.200 A 
ATOM     79  F   UNL A   1      44.594  26.980  24.941  1.00  0.00    -0.200 F 
ATOM     80  F   UNL A   1      43.610  24.478  24.481  1.00  0.00    -0.200 F 
ENDBRANCH  46  70
BRANCH  58  81
ATOM     81  C   UNL A   1      44.629  27.077  34.336  1.00  0.00     0.064 A 
ATOM     82  C   UNL A   1      45.932  27.598  34.342  1.00  0.00     0.173 A 
ATOM     83  C   UNL A   1      44.384  25.910  35.074  1.00  0.00     0.173 A 
ATOM     84  F   UNL A   1      46.220  28.704  33.641  1.00  0.00    -0.203 F 
ATOM     85  C   UNL A   1      46.952  26.961  35.044  1.00  0.00     0.198 A 
ATOM     86  C   UNL A   1      45.401  25.292  35.796  1.00  0.00     0.198 A 
ATOM     87  F   UNL A   1      43.154  25.376  35.106  1.00  0.00    -0.203 F 
ATOM     88  F   UNL A   1      48.199  27.452  35.002  1.00  0.00    -0.200 F 
ATOM     89  C   UNL A   1      46.685  25.814  35.775  1.00  0.00     0.200 A 
ATOM     90  F   UNL A   1      45.138  24.190  36.512  1.00  0.00    -0.200 F 
ATOM     91  F   UNL A   1      47.668  25.207  36.455  1.00  0.00    -0.200 F 
ENDBRANCH  58  81
ENDBRANCH  32  33
ENDBRANCH  25  27
ENDBRANCH  24  25
ENDBRANCH  23  24
ENDBRANCH  22  23
ENDBRANCH  21  22
ENDBRANCH   1  21
TORSDOF 17
ENDMDL
