MODEL 1
REMARK VINA RESULT:      -9.1      0.000      0.000
REMARK SMILES Cc1cc(C(=O)N[C@@H]2C(=O)N3C(C(=O)OCCOCCOC(=O)c4ccc(-c5c6nc(c(-c7c(F)c(F)c(F)c(F)c7F)c7ccc([nH]7)c(-c7c(F)c(F)c(F)c(F)c7F)c7nc(c(-c8c(F)c(F)c(F)c(F)c8F)c8ccc5[nH]8)C=C7)C=C6)cc4)=C(CSc4nnc(C)s4)CS[C@H]23)n(C)n1
REMARK SMILES IDX 17 1 16 2 15 3 13 4 14 5 12 6 8 7 9 8 98 9 10 10 11 11 97 12
REMARK SMILES IDX 96 13 87 14 7 15 5 16 6 17 4 19 1 20 2 21 3 22 101 23 99 24
REMARK SMILES IDX 100 25 88 26 89 27 90 28 91 29 95 30 92 31 93 32 94 33 18 34
REMARK SMILES IDX 19 35 20 36 21 37 22 38 23 39 24 40 25 41 86 42 26 43 85 44
REMARK SMILES IDX 27 45 28 46 29 47 79 48 30 49 84 50 78 51 80 52 31 53 83 54
REMARK SMILES IDX 77 55 76 56 32 58 64 59 44 60 63 61 45 62 48 63 62 64 81 65
REMARK SMILES IDX 46 66 47 67 61 69 82 70 49 71 33 72 34 73 42 74 35 75 36 76
REMARK SMILES IDX 40 77 43 78 37 79 38 80 41 81 39 82 65 83 66 84 74 85 67 86
REMARK SMILES IDX 68 87 72 88 75 89 69 90 70 91 73 92 71 93 50 94 51 95 59 96
REMARK SMILES IDX 52 97 53 98 57 99 60 100 54 101 55 102 58 103 56 104
REMARK H PARENT 7 18 80 57 48 68
REMARK Flexibility Score: inf
ROOT
ATOM      1  C   UNL A   1      49.959  22.046  35.903  1.00  0.00     0.202 C 
ENDROOT
BRANCH   1   2
ATOM      2  C   UNL A   1      49.813  22.425  34.431  1.00  0.00     0.261 C 
BRANCH   2   3
ATOM      3  O   UNL A   1      50.825  23.376  34.054  1.00  0.00    -0.459 OA
BRANCH   3   4
ATOM      4  C   UNL A   1      51.383  23.154  32.847  1.00  0.00     0.355 C 
ATOM      5  O   UNL A   1      51.532  22.056  32.321  1.00  0.00    -0.244 OA
BRANCH   4   6
ATOM      6  C   UNL A   1      51.813  24.406  32.144  1.00  0.00     0.132 C 
ATOM      7  C   UNL A   1      49.511  25.804  30.049  1.00  0.00     0.206 C 
ATOM      8  C   UNL A   1      49.529  25.328  31.537  1.00  0.00     0.253 C 
ATOM      9  C   UNL A   1      51.055  25.602  30.135  1.00  0.00     0.181 C 
ATOM     10  O   UNL A   1      48.762  25.296  32.467  1.00  0.00    -0.272 OA
ATOM     11  N   UNL A   1      50.825  24.963  31.393  1.00  0.00    -0.289 N 
ATOM     12  S   UNL A   1      52.109  27.027  30.486  1.00  0.00    -0.129 SA
ATOM     13  C   UNL A   1      53.471  25.962  31.025  1.00  0.00     0.106 C 
ATOM     14  C   UNL A   1      53.079  24.893  32.051  1.00  0.00    -0.019 C 
BRANCH   7  15
ATOM     15  N   UNL A   1      49.003  27.140  29.666  1.00  0.00    -0.336 N 
ATOM     16  C   UNL A   1      48.003  27.428  28.750  1.00  0.00     0.270 C 
ATOM     17  O   UNL A   1      47.721  28.610  28.565  1.00  0.00    -0.268 OA
ATOM     18  H   UNL A   1      49.424  27.912  30.111  1.00  0.00     0.164 HD
BRANCH  16  19
ATOM     19  C   UNL A   1      47.403  26.335  28.005  1.00  0.00     0.126 A 
ATOM     20  C   UNL A   1      45.408  23.296  27.747  1.00  0.00     0.069 C 
ATOM     21  C   UNL A   1      46.294  24.468  27.545  1.00  0.00     0.060 A 
ATOM     22  C   UNL A   1      46.134  25.776  28.051  1.00  0.00     0.059 A 
ATOM     23  N   UNL A   1      47.452  24.350  26.897  1.00  0.00    -0.178 NA
ATOM     24  N   UNL A   1      48.049  25.552  27.074  1.00  0.00    -0.263 N 
ATOM     25  C   UNL A   1      49.242  25.826  26.308  1.00  0.00     0.174 C 
ENDBRANCH  16  19
ENDBRANCH   7  15
BRANCH  14  26
ATOM     26  C   UNL A   1      54.278  24.401  32.822  1.00  0.00     0.111 C 
BRANCH  26  27
ATOM     27  S   UNL A   1      54.176  24.482  34.627  1.00  0.00    -0.089 SA
BRANCH  27  28
ATOM     28  C   UNL A   1      55.519  23.595  35.303  1.00  0.00     0.174 A 
ATOM     29  N   UNL A   1      55.580  22.291  35.421  1.00  0.00    -0.132 NA
ATOM     30  S   UNL A   1      56.967  24.370  35.805  1.00  0.00    -0.091 S 
ATOM     31  N   UNL A   1      56.839  21.835  35.765  1.00  0.00    -0.143 NA
ATOM     32  C   UNL A   1      57.696  22.824  35.893  1.00  0.00     0.115 A 
ATOM     33  C   UNL A   1      59.163  22.679  36.063  1.00  0.00     0.081 C 
ENDBRANCH  27  28
ENDBRANCH  26  27
ENDBRANCH  14  26
ENDBRANCH   4   6
ENDBRANCH   3   4
ENDBRANCH   2   3
ENDBRANCH   1   2
BRANCH   1  34
ATOM     34  O   UNL A   1      48.915  21.285  36.503  1.00  0.00    -0.374 OA
BRANCH  34  35
ATOM     35  C   UNL A   1      47.988  21.958  37.352  1.00  0.00     0.202 C 
BRANCH  35  36
ATOM     36  C   UNL A   1      47.964  23.492  37.329  1.00  0.00     0.261 C 
BRANCH  36  37
ATOM     37  O   UNL A   1      47.187  24.049  36.257  1.00  0.00    -0.460 OA
BRANCH  37  38
ATOM     38  C   UNL A   1      47.605  25.266  35.825  1.00  0.00     0.338 C 
ATOM     39  O   UNL A   1      48.747  25.668  35.701  1.00  0.00    -0.246 OA
BRANCH  38  40
ATOM     40  C   UNL A   1      46.429  26.036  35.377  1.00  0.00     0.060 A 
ATOM     41  C   UNL A   1      45.151  25.497  35.550  1.00  0.00     0.016 A 
ATOM     42  C   UNL A   1      46.596  27.261  34.742  1.00  0.00     0.016 A 
ATOM     43  C   UNL A   1      44.039  26.186  35.068  1.00  0.00     0.010 A 
ATOM     44  C   UNL A   1      45.483  27.980  34.312  1.00  0.00     0.010 A 
ATOM     45  C   UNL A   1      44.201  27.422  34.423  1.00  0.00    -0.014 A 
BRANCH  45  46
ATOM     46  C   UNL A   1      43.066  28.053  33.703  1.00  0.00     0.031 A 
ATOM     47  C   UNL A   1      42.868  27.734  32.244  1.00  0.00     0.074 A 
ATOM     48  C   UNL A   1      42.230  28.897  34.332  1.00  0.00     0.049 A 
ATOM     49  N   UNL A   1      41.989  28.210  31.397  1.00  0.00    -0.248 NA
ATOM     50  C   UNL A   1      43.800  26.761  31.651  1.00  0.00     0.031 C 
ATOM     51  C   UNL A   1      42.318  29.281  35.739  1.00  0.00     0.029 A 
ATOM     52  N   UNL A   1      41.143  29.589  33.861  1.00  0.00    -0.354 N 
ATOM     53  C   UNL A   1      42.278  27.610  30.178  1.00  0.00     0.074 A 
ATOM     54  C   UNL A   1      43.447  26.783  30.377  1.00  0.00     0.031 C 
ATOM     55  C   UNL A   1      41.319  30.136  36.020  1.00  0.00     0.029 A 
ATOM     56  C   UNL A   1      40.548  30.388  34.805  1.00  0.00     0.049 A 
ATOM     57  H   UNL A   1      40.821  29.520  32.933  1.00  0.00     0.167 HD
ATOM     58  C   UNL A   1      41.615  27.720  29.002  1.00  0.00     0.037 A 
ATOM     59  C   UNL A   1      39.508  31.238  34.693  1.00  0.00     0.037 A 
ATOM     60  C   UNL A   1      40.440  28.528  28.817  1.00  0.00     0.049 A 
ATOM     61  C   UNL A   1      38.813  31.380  33.363  1.00  0.00     0.074 A 
ATOM     62  C   UNL A   1      39.665  28.676  27.680  1.00  0.00     0.029 A 
ATOM     63  N   UNL A   1      39.873  29.332  29.795  1.00  0.00    -0.354 N 
ATOM     64  N   UNL A   1      39.064  30.774  32.227  1.00  0.00    -0.248 NA
ATOM     65  C   UNL A   1      37.687  32.322  33.302  1.00  0.00     0.031 C 
ATOM     66  C   UNL A   1      38.668  29.618  27.951  1.00  0.00     0.029 A 
ATOM     67  C   UNL A   1      38.778  30.004  29.278  1.00  0.00     0.049 A 
ATOM     68  H   UNL A   1      40.201  29.413  30.719  1.00  0.00     0.167 HD
ATOM     69  C   UNL A   1      38.109  31.233  31.328  1.00  0.00     0.074 A 
ATOM     70  C   UNL A   1      37.266  32.159  32.056  1.00  0.00     0.031 C 
ATOM     71  C   UNL A   1      37.943  30.917  30.019  1.00  0.00     0.037 A 
BRANCH  58  72
ATOM     72  C   UNL A   1      42.156  26.958  27.824  1.00  0.00     0.064 A 
ATOM     73  C   UNL A   1      41.776  25.633  27.559  1.00  0.00     0.173 A 
ATOM     74  C   UNL A   1      43.050  27.571  26.934  1.00  0.00     0.173 A 
ATOM     75  F   UNL A   1      40.934  24.993  28.385  1.00  0.00    -0.203 F 
ATOM     76  C   UNL A   1      42.301  24.940  26.471  1.00  0.00     0.198 A 
ATOM     77  C   UNL A   1      43.543  26.888  25.826  1.00  0.00     0.198 A 
ATOM     78  F   UNL A   1      43.444  28.838  27.135  1.00  0.00    -0.203 F 
ATOM     79  F   UNL A   1      41.972  23.655  26.275  1.00  0.00    -0.200 F 
ATOM     80  C   UNL A   1      43.176  25.570  25.600  1.00  0.00     0.200 A 
ATOM     81  F   UNL A   1      44.377  27.505  24.976  1.00  0.00    -0.200 F 
ATOM     82  F   UNL A   1      43.675  24.904  24.550  1.00  0.00    -0.200 F 
ENDBRANCH  58  72
BRANCH  59  83
ATOM     83  C   UNL A   1      39.055  32.017  35.877  1.00  0.00     0.064 A 
ATOM     84  C   UNL A   1      39.488  33.333  36.086  1.00  0.00     0.173 A 
ATOM     85  C   UNL A   1      38.185  31.459  36.826  1.00  0.00     0.173 A 
ATOM     86  F   UNL A   1      40.338  33.904  35.219  1.00  0.00    -0.203 F 
ATOM     87  C   UNL A   1      39.087  34.054  37.210  1.00  0.00     0.198 A 
ATOM     88  C   UNL A   1      37.759  32.193  37.932  1.00  0.00     0.198 A 
ATOM     89  F   UNL A   1      37.737  30.204  36.673  1.00  0.00    -0.203 F 
ATOM     90  F   UNL A   1      39.556  35.294  37.409  1.00  0.00    -0.200 F 
ATOM     91  C   UNL A   1      38.217  33.487  38.127  1.00  0.00     0.200 A 
ATOM     92  F   UNL A   1      36.903  31.646  38.806  1.00  0.00    -0.200 F 
ATOM     93  F   UNL A   1      37.826  34.183  39.203  1.00  0.00    -0.200 F 
ENDBRANCH  59  83
BRANCH  71  94
ATOM     94  C   UNL A   1      36.782  31.541  29.297  1.00  0.00     0.064 A 
ATOM     95  C   UNL A   1      35.648  30.799  28.937  1.00  0.00     0.173 A 
ATOM     96  C   UNL A   1      36.789  32.913  29.001  1.00  0.00     0.173 A 
ATOM     97  F   UNL A   1      35.595  29.481  29.186  1.00  0.00    -0.203 F 
ATOM     98  C   UNL A   1      34.576  31.401  28.282  1.00  0.00     0.198 A 
ATOM     99  C   UNL A   1      35.701  33.519  28.380  1.00  0.00     0.198 A 
ATOM    100  F   UNL A   1      37.845  33.672  29.332  1.00  0.00    -0.203 F 
ATOM    101  F   UNL A   1      33.527  30.662  27.899  1.00  0.00    -0.200 F 
ATOM    102  C   UNL A   1      34.600  32.762  28.013  1.00  0.00     0.200 A 
ATOM    103  F   UNL A   1      35.718  34.838  28.138  1.00  0.00    -0.200 F 
ATOM    104  F   UNL A   1      33.564  33.341  27.391  1.00  0.00    -0.200 F 
ENDBRANCH  71  94
ENDBRANCH  45  46
ENDBRANCH  38  40
ENDBRANCH  37  38
ENDBRANCH  36  37
ENDBRANCH  35  36
ENDBRANCH  34  35
ENDBRANCH   1  34
TORSDOF 19
ENDMDL
MODEL 2
REMARK VINA RESULT:      -9.1      8.506     14.798
REMARK SMILES Cc1cc(C(=O)N[C@@H]2C(=O)N3C(C(=O)OCCOCCOC(=O)c4ccc(-c5c6nc(c(-c7c(F)c(F)c(F)c(F)c7F)c7ccc([nH]7)c(-c7c(F)c(F)c(F)c(F)c7F)c7nc(c(-c8c(F)c(F)c(F)c(F)c8F)c8ccc5[nH]8)C=C7)C=C6)cc4)=C(CSc4nnc(C)s4)CS[C@H]23)n(C)n1
REMARK SMILES IDX 17 1 16 2 15 3 13 4 14 5 12 6 8 7 9 8 98 9 10 10 11 11 97 12
REMARK SMILES IDX 96 13 87 14 7 15 5 16 6 17 4 19 1 20 2 21 3 22 101 23 99 24
REMARK SMILES IDX 100 25 88 26 89 27 90 28 91 29 95 30 92 31 93 32 94 33 18 34
REMARK SMILES IDX 19 35 20 36 21 37 22 38 23 39 24 40 25 41 86 42 26 43 85 44
REMARK SMILES IDX 27 45 28 46 29 47 79 48 30 49 84 50 78 51 80 52 31 53 83 54
REMARK SMILES IDX 77 55 76 56 32 58 64 59 44 60 63 61 45 62 48 63 62 64 81 65
REMARK SMILES IDX 46 66 47 67 61 69 82 70 49 71 33 72 34 73 42 74 35 75 36 76
REMARK SMILES IDX 40 77 43 78 37 79 38 80 41 81 39 82 65 83 66 84 74 85 67 86
REMARK SMILES IDX 68 87 72 88 75 89 69 90 70 91 73 92 71 93 50 94 51 95 59 96
REMARK SMILES IDX 52 97 53 98 57 99 60 100 54 101 55 102 58 103 56 104
REMARK H PARENT 7 18 80 57 48 68
REMARK Flexibility Score: inf
ROOT
ATOM      1  C   UNL A   1      50.138  39.730  29.475  1.00  0.00     0.202 C 
ENDROOT
BRANCH   1   2
ATOM      2  C   UNL A   1      49.465  39.712  28.105  1.00  0.00     0.261 C 
BRANCH   2   3
ATOM      3  O   UNL A   1      48.297  40.553  28.107  1.00  0.00    -0.459 OA
BRANCH   3   4
ATOM      4  C   UNL A   1      48.556  41.875  28.153  1.00  0.00     0.355 C 
ATOM      5  O   UNL A   1      49.647  42.396  27.941  1.00  0.00    -0.244 OA
BRANCH   4   6
ATOM      6  C   UNL A   1      47.356  42.713  28.475  1.00  0.00     0.132 C 
ATOM      7  C   UNL A   1      46.221  42.517  31.686  1.00  0.00     0.206 C 
ATOM      8  C   UNL A   1      47.594  42.800  30.998  1.00  0.00     0.253 C 
ATOM      9  C   UNL A   1      45.650  42.672  30.243  1.00  0.00     0.181 C 
ATOM     10  O   UNL A   1      48.720  43.061  31.341  1.00  0.00    -0.272 OA
ATOM     11  N   UNL A   1      47.005  42.661  29.787  1.00  0.00    -0.289 N 
ATOM     12  S   UNL A   1      44.967  44.266  29.734  1.00  0.00    -0.129 SA
ATOM     13  C   UNL A   1      45.145  43.851  27.981  1.00  0.00     0.106 C 
ATOM     14  C   UNL A   1      46.531  43.328  27.586  1.00  0.00    -0.019 C 
BRANCH   7  15
ATOM     15  N   UNL A   1      45.684  43.400  32.746  1.00  0.00    -0.336 N 
ATOM     16  C   UNL A   1      44.638  43.130  33.615  1.00  0.00     0.270 C 
ATOM     17  O   UNL A   1      44.337  43.997  34.432  1.00  0.00    -0.268 OA
ATOM     18  H   UNL A   1      46.120  44.278  32.845  1.00  0.00     0.164 HD
BRANCH  16  19
ATOM     19  C   UNL A   1      43.908  41.885  33.462  1.00  0.00     0.126 A 
ATOM     20  C   UNL A   1      43.700  38.252  33.252  1.00  0.00     0.069 C 
ATOM     21  C   UNL A   1      43.475  39.718  33.248  1.00  0.00     0.060 A 
ATOM     22  C   UNL A   1      43.990  40.678  34.144  1.00  0.00     0.059 A 
ATOM     23  N   UNL A   1      42.792  40.305  32.266  1.00  0.00    -0.178 NA
ATOM     24  N   UNL A   1      42.955  41.628  32.501  1.00  0.00    -0.263 N 
ATOM     25  C   UNL A   1      42.154  42.548  31.729  1.00  0.00     0.174 C 
ENDBRANCH  16  19
ENDBRANCH   7  15
BRANCH  14  26
ATOM     26  C   UNL A   1      46.779  43.486  26.107  1.00  0.00     0.111 C 
BRANCH  26  27
ATOM     27  S   UNL A   1      46.560  42.010  25.082  1.00  0.00    -0.089 SA
BRANCH  27  28
ATOM     28  C   UNL A   1      44.936  42.012  24.440  1.00  0.00     0.174 A 
ATOM     29  N   UNL A   1      43.935  41.312  24.916  1.00  0.00    -0.132 NA
ATOM     30  S   UNL A   1      44.466  43.035  23.143  1.00  0.00    -0.091 S 
ATOM     31  N   UNL A   1      42.714  41.675  24.378  1.00  0.00    -0.143 NA
ATOM     32  C   UNL A   1      42.838  42.651  23.506  1.00  0.00     0.115 A 
ATOM     33  C   UNL A   1      41.719  43.406  22.890  1.00  0.00     0.081 C 
ENDBRANCH  27  28
ENDBRANCH  26  27
ENDBRANCH  14  26
ENDBRANCH   4   6
ENDBRANCH   3   4
ENDBRANCH   2   3
ENDBRANCH   1   2
BRANCH   1  34
ATOM     34  O   UNL A   1      49.640  38.846  30.475  1.00  0.00    -0.374 OA
BRANCH  34  35
ATOM     35  C   UNL A   1      48.499  39.251  31.229  1.00  0.00     0.202 C 
BRANCH  35  36
ATOM     36  C   UNL A   1      47.280  38.318  31.258  1.00  0.00     0.261 C 
BRANCH  36  37
ATOM     37  O   UNL A   1      46.889  37.827  29.967  1.00  0.00    -0.460 OA
BRANCH  37  38
ATOM     38  C   UNL A   1      45.556  37.613  29.820  1.00  0.00     0.338 C 
ATOM     39  O   UNL A   1      44.655  38.429  29.859  1.00  0.00    -0.246 OA
BRANCH  38  40
ATOM     40  C   UNL A   1      45.344  36.199  29.460  1.00  0.00     0.060 A 
ATOM     41  C   UNL A   1      44.784  35.884  28.219  1.00  0.00     0.016 A 
ATOM     42  C   UNL A   1      45.648  35.192  30.370  1.00  0.00     0.016 A 
ATOM     43  C   UNL A   1      44.515  34.554  27.897  1.00  0.00     0.010 A 
ATOM     44  C   UNL A   1      45.436  33.858  30.029  1.00  0.00     0.010 A 
ATOM     45  C   UNL A   1      44.817  33.534  28.812  1.00  0.00    -0.014 A 
BRANCH  45  46
ATOM     46  C   UNL A   1      44.329  32.150  28.588  1.00  0.00     0.031 A 
ATOM     47  C   UNL A   1      42.995  31.751  29.163  1.00  0.00     0.074 A 
ATOM     48  C   UNL A   1      45.059  31.262  27.890  1.00  0.00     0.049 A 
ATOM     49  N   UNL A   1      42.395  30.587  29.150  1.00  0.00    -0.248 NA
ATOM     50  C   UNL A   1      42.242  32.802  29.868  1.00  0.00     0.031 C 
ATOM     51  C   UNL A   1      46.361  31.529  27.285  1.00  0.00     0.029 A 
ATOM     52  N   UNL A   1      44.807  29.949  27.581  1.00  0.00    -0.354 N 
ATOM     53  C   UNL A   1      41.213  30.765  29.858  1.00  0.00     0.074 A 
ATOM     54  C   UNL A   1      41.205  32.128  30.338  1.00  0.00     0.031 C 
ATOM     55  C   UNL A   1      46.792  30.415  26.667  1.00  0.00     0.029 A 
ATOM     56  C   UNL A   1      45.815  29.348  26.869  1.00  0.00     0.049 A 
ATOM     57  H   UNL A   1      43.981  29.482  27.846  1.00  0.00     0.167 HD
ATOM     58  C   UNL A   1      40.211  29.879  30.070  1.00  0.00     0.037 A 
ATOM     59  C   UNL A   1      45.938  28.076  26.444  1.00  0.00     0.037 A 
ATOM     60  C   UNL A   1      40.214  28.530  29.571  1.00  0.00     0.049 A 
ATOM     61  C   UNL A   1      44.831  27.093  26.731  1.00  0.00     0.074 A 
ATOM     62  C   UNL A   1      39.231  27.564  29.689  1.00  0.00     0.029 A 
ATOM     63  N   UNL A   1      41.259  27.954  28.862  1.00  0.00    -0.354 N 
ATOM     64  N   UNL A   1      43.696  27.283  27.360  1.00  0.00    -0.248 NA
ATOM     65  C   UNL A   1      45.023  25.720  26.243  1.00  0.00     0.031 C 
ATOM     66  C   UNL A   1      39.708  26.384  29.110  1.00  0.00     0.029 A 
ATOM     67  C   UNL A   1      40.958  26.635  28.566  1.00  0.00     0.049 A 
ATOM     68  H   UNL A   1      42.091  28.415  28.608  1.00  0.00     0.167 HD
ATOM     69  C   UNL A   1      43.024  26.067  27.314  1.00  0.00     0.074 A 
ATOM     70  C   UNL A   1      43.875  25.150  26.583  1.00  0.00     0.031 C 
ATOM     71  C   UNL A   1      41.813  25.738  27.829  1.00  0.00     0.037 A 
BRANCH  58  72
ATOM     72  C   UNL A   1      39.035  30.339  30.887  1.00  0.00     0.064 A 
ATOM     73  C   UNL A   1      38.981  30.155  32.279  1.00  0.00     0.173 A 
ATOM     74  C   UNL A   1      37.958  30.993  30.273  1.00  0.00     0.173 A 
ATOM     75  F   UNL A   1      39.978  29.523  32.916  1.00  0.00    -0.203 F 
ATOM     76  C   UNL A   1      37.876  30.574  33.015  1.00  0.00     0.198 A 
ATOM     77  C   UNL A   1      36.872  31.445  31.018  1.00  0.00     0.198 A 
ATOM     78  F   UNL A   1      37.958  31.200  28.947  1.00  0.00    -0.203 F 
ATOM     79  F   UNL A   1      37.820  30.330  34.332  1.00  0.00    -0.200 F 
ATOM     80  C   UNL A   1      36.827  31.227  32.386  1.00  0.00     0.200 A 
ATOM     81  F   UNL A   1      35.865  32.090  30.411  1.00  0.00    -0.200 F 
ATOM     82  F   UNL A   1      35.768  31.636  33.098  1.00  0.00    -0.200 F 
ENDBRANCH  58  72
BRANCH  59  83
ATOM     83  C   UNL A   1      47.153  27.658  25.694  1.00  0.00     0.064 A 
ATOM     84  C   UNL A   1      48.293  27.193  26.365  1.00  0.00     0.173 A 
ATOM     85  C   UNL A   1      47.203  27.721  24.294  1.00  0.00     0.173 A 
ATOM     86  F   UNL A   1      48.303  27.134  27.705  1.00  0.00    -0.203 F 
ATOM     87  C   UNL A   1      49.442  26.827  25.666  1.00  0.00     0.198 A 
ATOM     88  C   UNL A   1      48.342  27.324  23.595  1.00  0.00     0.198 A 
ATOM     89  F   UNL A   1      46.140  28.155  23.601  1.00  0.00    -0.203 F 
ATOM     90  F   UNL A   1      50.533  26.433  26.337  1.00  0.00    -0.200 F 
ATOM     91  C   UNL A   1      49.463  26.886  24.282  1.00  0.00     0.200 A 
ATOM     92  F   UNL A   1      48.350  27.366  22.255  1.00  0.00    -0.200 F 
ATOM     93  F   UNL A   1      50.565  26.528  23.610  1.00  0.00    -0.200 F 
ENDBRANCH  59  83
BRANCH  71  94
ATOM     94  C   UNL A   1      41.311  24.342  27.585  1.00  0.00     0.064 A 
ATOM     95  C   UNL A   1      40.246  24.080  26.711  1.00  0.00     0.173 A 
ATOM     96  C   UNL A   1      41.938  23.248  28.202  1.00  0.00     0.173 A 
ATOM     97  F   UNL A   1      39.605  25.091  26.105  1.00  0.00    -0.203 F 
ATOM     98  C   UNL A   1      39.808  22.777  26.487  1.00  0.00     0.198 A 
ATOM     99  C   UNL A   1      41.521  21.945  27.946  1.00  0.00     0.198 A 
ATOM    100  F   UNL A   1      42.968  23.441  29.039  1.00  0.00    -0.203 F 
ATOM    101  F   UNL A   1      38.753  22.555  25.691  1.00  0.00    -0.200 F 
ATOM    102  C   UNL A   1      40.452  21.711  27.097  1.00  0.00     0.200 A 
ATOM    103  F   UNL A   1      42.157  20.915  28.522  1.00  0.00    -0.200 F 
ATOM    104  F   UNL A   1      40.034  20.458  26.872  1.00  0.00    -0.200 F 
ENDBRANCH  71  94
ENDBRANCH  45  46
ENDBRANCH  38  40
ENDBRANCH  37  38
ENDBRANCH  36  37
ENDBRANCH  35  36
ENDBRANCH  34  35
ENDBRANCH   1  34
TORSDOF 19
ENDMDL
MODEL 3
REMARK VINA RESULT:      -8.7      1.394      2.369
REMARK SMILES Cc1cc(C(=O)N[C@@H]2C(=O)N3C(C(=O)OCCOCCOC(=O)c4ccc(-c5c6nc(c(-c7c(F)c(F)c(F)c(F)c7F)c7ccc([nH]7)c(-c7c(F)c(F)c(F)c(F)c7F)c7nc(c(-c8c(F)c(F)c(F)c(F)c8F)c8ccc5[nH]8)C=C7)C=C6)cc4)=C(CSc4nnc(C)s4)CS[C@H]23)n(C)n1
REMARK SMILES IDX 17 1 16 2 15 3 13 4 14 5 12 6 8 7 9 8 98 9 10 10 11 11 97 12
REMARK SMILES IDX 96 13 87 14 7 15 5 16 6 17 4 19 1 20 2 21 3 22 101 23 99 24
REMARK SMILES IDX 100 25 88 26 89 27 90 28 91 29 95 30 92 31 93 32 94 33 18 34
REMARK SMILES IDX 19 35 20 36 21 37 22 38 23 39 24 40 25 41 86 42 26 43 85 44
REMARK SMILES IDX 27 45 28 46 29 47 79 48 30 49 84 50 78 51 80 52 31 53 83 54
REMARK SMILES IDX 77 55 76 56 32 58 64 59 44 60 63 61 45 62 48 63 62 64 81 65
REMARK SMILES IDX 46 66 47 67 61 69 82 70 49 71 33 72 34 73 42 74 35 75 36 76
REMARK SMILES IDX 40 77 43 78 37 79 38 80 41 81 39 82 65 83 66 84 74 85 67 86
REMARK SMILES IDX 68 87 72 88 75 89 69 90 70 91 73 92 71 93 50 94 51 95 59 96
REMARK SMILES IDX 52 97 53 98 57 99 60 100 54 101 55 102 58 103 56 104
REMARK H PARENT 7 18 80 57 48 68
REMARK Flexibility Score: inf
ROOT
ATOM      1  C   UNL A   1      49.730  21.573  35.266  1.00  0.00     0.202 C 
ENDROOT
BRANCH   1   2
ATOM      2  C   UNL A   1      49.626  22.381  33.974  1.00  0.00     0.261 C 
BRANCH   2   3
ATOM      3  O   UNL A   1      50.563  23.474  33.989  1.00  0.00    -0.459 OA
BRANCH   3   4
ATOM      4  C   UNL A   1      50.697  24.114  32.809  1.00  0.00     0.355 C 
ATOM      5  O   UNL A   1      50.890  23.576  31.724  1.00  0.00    -0.244 OA
BRANCH   4   6
ATOM      6  C   UNL A   1      50.567  25.603  32.916  1.00  0.00     0.132 C 
ATOM      7  C   UNL A   1      48.369  27.066  30.755  1.00  0.00     0.206 C 
ATOM      8  C   UNL A   1      48.317  25.891  31.783  1.00  0.00     0.253 C 
ATOM      9  C   UNL A   1      49.745  27.373  31.423  1.00  0.00     0.181 C 
ATOM     10  O   UNL A   1      47.498  25.104  32.188  1.00  0.00    -0.272 OA
ATOM     11  N   UNL A   1      49.615  26.117  32.092  1.00  0.00    -0.289 N 
ATOM     12  S   UNL A   1      49.831  28.624  32.724  1.00  0.00    -0.129 SA
ATOM     13  C   UNL A   1      51.398  27.960  33.342  1.00  0.00     0.106 C 
ATOM     14  C   UNL A   1      51.399  26.446  33.584  1.00  0.00    -0.019 C 
BRANCH   7  15
ATOM     15  N   UNL A   1      47.346  28.136  30.743  1.00  0.00    -0.336 N 
ATOM     16  C   UNL A   1      46.443  28.423  29.731  1.00  0.00     0.270 C 
ATOM     17  O   UNL A   1      45.667  29.359  29.908  1.00  0.00    -0.268 OA
ATOM     18  H   UNL A   1      47.303  28.708  31.544  1.00  0.00     0.164 HD
BRANCH  16  19
ATOM     19  C   UNL A   1      46.514  27.663  28.496  1.00  0.00     0.126 A 
ATOM     20  C   UNL A   1      46.791  24.557  26.610  1.00  0.00     0.069 C 
ATOM     21  C   UNL A   1      46.719  25.959  27.088  1.00  0.00     0.060 A 
ATOM     22  C   UNL A   1      45.888  26.490  28.097  1.00  0.00     0.059 A 
ATOM     23  N   UNL A   1      47.565  26.883  26.635  1.00  0.00    -0.178 NA
ATOM     24  N   UNL A   1      47.321  27.960  27.419  1.00  0.00    -0.263 N 
ATOM     25  C   UNL A   1      47.932  29.213  27.044  1.00  0.00     0.174 C 
ENDBRANCH  16  19
ENDBRANCH   7  15
BRANCH  14  26
ATOM     26  C   UNL A   1      52.491  26.042  34.543  1.00  0.00     0.111 C 
BRANCH  26  27
ATOM     27  S   UNL A   1      53.973  25.294  33.821  1.00  0.00    -0.089 SA
BRANCH  27  28
ATOM     28  C   UNL A   1      53.824  23.557  33.916  1.00  0.00     0.174 A 
ATOM     29  N   UNL A   1      53.988  22.729  32.913  1.00  0.00    -0.132 NA
ATOM     30  S   UNL A   1      53.532  22.744  35.401  1.00  0.00    -0.091 S 
ATOM     31  N   UNL A   1      54.049  21.405  33.307  1.00  0.00    -0.143 NA
ATOM     32  C   UNL A   1      53.930  21.279  34.610  1.00  0.00     0.115 A 
ATOM     33  C   UNL A   1      54.143  20.028  35.380  1.00  0.00     0.081 C 
ENDBRANCH  27  28
ENDBRANCH  26  27
ENDBRANCH  14  26
ENDBRANCH   4   6
ENDBRANCH   3   4
ENDBRANCH   2   3
ENDBRANCH   1   2
BRANCH   1  34
ATOM     34  O   UNL A   1      48.593  20.818  35.674  1.00  0.00    -0.374 OA
BRANCH  34  35
ATOM     35  C   UNL A   1      47.562  21.485  36.399  1.00  0.00     0.202 C 
BRANCH  35  36
ATOM     36  C   UNL A   1      47.702  22.996  36.635  1.00  0.00     0.261 C 
BRANCH  36  37
ATOM     37  O   UNL A   1      46.919  23.802  35.741  1.00  0.00    -0.460 OA
BRANCH  37  38
ATOM     38  C   UNL A   1      47.296  25.104  35.672  1.00  0.00     0.338 C 
ATOM     39  O   UNL A   1      48.411  25.571  35.805  1.00  0.00    -0.246 OA
BRANCH  38  40
ATOM     40  C   UNL A   1      46.130  25.911  35.266  1.00  0.00     0.060 A 
ATOM     41  C   UNL A   1      44.848  25.365  35.373  1.00  0.00     0.016 A 
ATOM     42  C   UNL A   1      46.311  27.182  34.732  1.00  0.00     0.016 A 
ATOM     43  C   UNL A   1      43.746  26.093  34.926  1.00  0.00     0.010 A 
ATOM     44  C   UNL A   1      45.207  27.936  34.341  1.00  0.00     0.010 A 
ATOM     45  C   UNL A   1      43.922  27.375  34.384  1.00  0.00    -0.014 A 
BRANCH  45  46
ATOM     46  C   UNL A   1      42.802  28.065  33.696  1.00  0.00     0.031 A 
ATOM     47  C   UNL A   1      42.582  27.802  32.229  1.00  0.00     0.074 A 
ATOM     48  C   UNL A   1      41.997  28.912  34.361  1.00  0.00     0.049 A 
ATOM     49  N   UNL A   1      41.712  28.333  31.407  1.00  0.00    -0.248 NA
ATOM     50  C   UNL A   1      43.479  26.821  31.595  1.00  0.00     0.031 C 
ATOM     51  C   UNL A   1      42.108  29.246  35.779  1.00  0.00     0.029 A 
ATOM     52  N   UNL A   1      40.928  29.654  33.923  1.00  0.00    -0.354 N 
ATOM     53  C   UNL A   1      41.972  27.767  30.166  1.00  0.00     0.074 A 
ATOM     54  C   UNL A   1      43.116  26.898  30.326  1.00  0.00     0.031 C 
ATOM     55  C   UNL A   1      41.138  30.121  36.098  1.00  0.00     0.029 A 
ATOM     56  C   UNL A   1      40.366  30.438  34.899  1.00  0.00     0.049 A 
ATOM     57  H   UNL A   1      40.597  29.626  32.996  1.00  0.00     0.167 HD
ATOM     58  C   UNL A   1      41.304  27.937  29.000  1.00  0.00     0.037 A 
ATOM     59  C   UNL A   1      39.353  31.323  34.825  1.00  0.00     0.037 A 
ATOM     60  C   UNL A   1      40.153  28.786  28.852  1.00  0.00     0.049 A 
ATOM     61  C   UNL A   1      38.652  31.531  33.507  1.00  0.00     0.074 A 
ATOM     62  C   UNL A   1      39.374  28.996  27.728  1.00  0.00     0.029 A 
ATOM     63  N   UNL A   1      39.619  29.574  29.862  1.00  0.00    -0.354 N 
ATOM     64  N   UNL A   1      38.875  30.956  32.349  1.00  0.00    -0.248 NA
ATOM     65  C   UNL A   1      37.555  32.509  33.487  1.00  0.00     0.031 C 
ATOM     66  C   UNL A   1      38.409  29.960  28.040  1.00  0.00     0.029 A 
ATOM     67  C   UNL A   1      38.541  30.296  29.378  1.00  0.00     0.049 A 
ATOM     68  H   UNL A   1      39.957  29.613  30.786  1.00  0.00     0.167 HD
ATOM     69  C   UNL A   1      37.927  31.475  31.474  1.00  0.00     0.074 A 
ATOM     70  C   UNL A   1      37.119  32.401  32.240  1.00  0.00     0.031 C 
ATOM     71  C   UNL A   1      37.741  31.209  30.157  1.00  0.00     0.037 A 
BRANCH  58  72
ATOM     72  C   UNL A   1      41.811  27.199  27.792  1.00  0.00     0.064 A 
ATOM     73  C   UNL A   1      42.786  27.748  26.942  1.00  0.00     0.173 A 
ATOM     74  C   UNL A   1      41.333  25.916  27.493  1.00  0.00     0.173 A 
ATOM     75  F   UNL A   1      43.268  28.978  27.173  1.00  0.00    -0.203 F 
ATOM     76  C   UNL A   1      43.230  27.054  25.820  1.00  0.00     0.198 A 
ATOM     77  C   UNL A   1      41.808  25.209  26.391  1.00  0.00     0.198 A 
ATOM     78  F   UNL A   1      40.405  25.340  28.273  1.00  0.00    -0.203 F 
ATOM     79  F   UNL A   1      44.114  27.626  24.989  1.00  0.00    -0.200 F 
ATOM     80  C   UNL A   1      42.749  25.783  25.550  1.00  0.00     0.200 A 
ATOM     81  F   UNL A   1      41.352  23.973  26.141  1.00  0.00    -0.200 F 
ATOM     82  F   UNL A   1      43.183  25.114  24.473  1.00  0.00    -0.200 F 
ENDBRANCH  58  72
BRANCH  59  83
ATOM     83  C   UNL A   1      38.933  32.074  36.039  1.00  0.00     0.064 A 
ATOM     84  C   UNL A   1      38.082  31.494  36.989  1.00  0.00     0.173 A 
ATOM     85  C   UNL A   1      39.367  33.388  36.269  1.00  0.00     0.173 A 
ATOM     86  F   UNL A   1      37.620  30.248  36.804  1.00  0.00    -0.203 F 
ATOM     87  C   UNL A   1      37.664  32.206  38.113  1.00  0.00     0.198 A 
ATOM     88  C   UNL A   1      38.975  34.086  37.410  1.00  0.00     0.198 A 
ATOM     89  F   UNL A   1      40.186  33.990  35.394  1.00  0.00    -0.203 F 
ATOM     90  F   UNL A   1      36.811  31.643  38.979  1.00  0.00    -0.200 F 
ATOM     91  C   UNL A   1      38.117  33.498  38.326  1.00  0.00     0.200 A 
ATOM     92  F   UNL A   1      39.431  35.330  37.620  1.00  0.00    -0.200 F 
ATOM     93  F   UNL A   1      37.722  34.180  39.409  1.00  0.00    -0.200 F 
ENDBRANCH  59  83
BRANCH  71  94
ATOM     94  C   UNL A   1      36.595  31.892  29.467  1.00  0.00     0.064 A 
ATOM     95  C   UNL A   1      36.611  33.267  29.187  1.00  0.00     0.173 A 
ATOM     96  C   UNL A   1      35.483  31.150  29.038  1.00  0.00     0.173 A 
ATOM     97  F   UNL A   1      37.644  34.025  29.585  1.00  0.00    -0.203 F 
ATOM     98  C   UNL A   1      35.545  33.877  28.531  1.00  0.00     0.198 A 
ATOM     99  C   UNL A   1      34.436  31.756  28.350  1.00  0.00     0.198 A 
ATOM    100  F   UNL A   1      35.421  29.830  29.271  1.00  0.00    -0.203 F 
ATOM    101  F   UNL A   1      35.558  35.201  28.324  1.00  0.00    -0.200 F 
ATOM    102  C   UNL A   1      34.463  33.120  28.105  1.00  0.00     0.200 A 
ATOM    103  F   UNL A   1      33.401  31.019  27.923  1.00  0.00    -0.200 F 
ATOM    104  F   UNL A   1      33.443  33.707  27.466  1.00  0.00    -0.200 F 
ENDBRANCH  71  94
ENDBRANCH  45  46
ENDBRANCH  38  40
ENDBRANCH  37  38
ENDBRANCH  36  37
ENDBRANCH  35  36
ENDBRANCH  34  35
ENDBRANCH   1  34
TORSDOF 19
ENDMDL
