MODEL 1
REMARK VINA RESULT:     -11.6      0.000      0.000
REMARK SMILES CC[C@](C)(C(=O)OCCOCCOC(=O)c1ccc(-c2c3nc(c(-c4c(F)c(F)c(F)c(F)c4F)c4ccc([nH]4)c(-c4c(F)c(F)c(F)c(F)c4F)c4nc(c(-c5c(F)c(F)c(F)c(F)c5F)c5ccc2[nH]5)C=C4)C=C3)cc1)n1nnnc1-c1ccc(C)cc1C
REMARK SMILES IDX 10 1 9 2 8 3 7 4 5 5 6 6 3 7 4 8 2 9 1 10 79 11 80 12 83 13
REMARK SMILES IDX 81 14 82 15 84 16 85 17 90 18 86 19 89 20 91 21 87 22 88 23
REMARK SMILES IDX 11 24 12 25 13 26 14 27 15 28 16 29 17 30 78 31 18 32 77 33
REMARK SMILES IDX 19 34 20 35 21 36 71 37 22 38 76 39 70 40 72 41 23 42 75 43
REMARK SMILES IDX 69 44 68 45 24 47 56 48 36 49 55 50 37 51 40 52 54 53 73 54
REMARK SMILES IDX 38 55 39 56 53 58 74 59 41 60 25 61 26 62 34 63 27 64 28 65
REMARK SMILES IDX 32 66 35 67 29 68 30 69 33 70 31 71 57 72 58 73 66 74 59 75
REMARK SMILES IDX 60 76 64 77 67 78 61 79 62 80 65 81 63 82 42 83 43 84 51 85
REMARK SMILES IDX 44 86 45 87 49 88 52 89 46 90 47 91 50 92 48 93
REMARK H PARENT 72 46 40 57
REMARK Flexibility Score: inf
ROOT
ATOM      1  O   UNL A   1      32.323  30.536  26.200  1.00  0.00    -0.374 OA
ENDROOT
BRANCH   1   2
ATOM      2  C   UNL A   1      32.394  29.423  27.079  1.00  0.00     0.202 C 
BRANCH   2   3
ATOM      3  C   UNL A   1      31.588  28.175  26.706  1.00  0.00     0.261 C 
BRANCH   3   4
ATOM      4  O   UNL A   1      32.207  27.358  25.698  1.00  0.00    -0.461 OA
BRANCH   4   5
ATOM      5  C   UNL A   1      31.331  26.798  24.801  1.00  0.00     0.334 C 
ATOM      6  O   UNL A   1      30.317  27.381  24.442  1.00  0.00    -0.249 OA
BRANCH   5   7
ATOM      7  C   UNL A   1      31.696  25.319  24.465  1.00  0.00     0.161 C 
ATOM      8  C   UNL A   1      30.874  24.842  23.246  1.00  0.00     0.050 C 
BRANCH   7   9
ATOM      9  C   UNL A   1      33.201  25.453  24.081  1.00  0.00     0.039 C 
ATOM     10  C   UNL A   1      33.653  24.792  22.796  1.00  0.00     0.007 C 
ENDBRANCH   7   9
BRANCH   7  11
ATOM     11  N   UNL A   1      31.475  24.477  25.653  1.00  0.00    -0.208 N 
ATOM     12  N   UNL A   1      30.439  24.759  26.476  1.00  0.00    -0.044 NA
ATOM     13  C   UNL A   1      32.093  23.332  26.149  1.00  0.00     0.183 A 
ATOM     14  N   UNL A   1      30.280  23.704  27.251  1.00  0.00    -0.023 NA
ATOM     15  N   UNL A   1      31.290  22.813  27.062  1.00  0.00    -0.108 NA
BRANCH  13  16
ATOM     16  C   UNL A   1      33.415  22.776  25.869  1.00  0.00     0.024 A 
ATOM     17  C   UNL A   1      34.543  23.367  26.461  1.00  0.00     0.012 A 
ATOM     18  C   UNL A   1      33.612  21.784  24.888  1.00  0.00    -0.040 A 
ATOM     19  C   UNL A   1      35.835  22.929  26.149  1.00  0.00     0.004 A 
ATOM     20  C   UNL A   1      34.913  21.315  24.625  1.00  0.00     0.007 A 
ATOM     21  C   UNL A   1      32.518  21.259  23.998  1.00  0.00     0.045 C 
ATOM     22  C   UNL A   1      36.028  21.874  25.256  1.00  0.00    -0.051 A 
ATOM     23  C   UNL A   1      37.407  21.419  24.874  1.00  0.00     0.044 C 
ENDBRANCH  13  16
ENDBRANCH   7  11
ENDBRANCH   5   7
ENDBRANCH   4   5
ENDBRANCH   3   4
ENDBRANCH   2   3
ENDBRANCH   1   2
BRANCH   1  24
ATOM     24  C   UNL A   1      31.404  31.584  26.504  1.00  0.00     0.202 C 
BRANCH  24  25
ATOM     25  C   UNL A   1      32.006  32.943  26.877  1.00  0.00     0.261 C 
BRANCH  25  26
ATOM     26  O   UNL A   1      32.854  32.854  28.039  1.00  0.00    -0.460 OA
BRANCH  26  27
ATOM     27  C   UNL A   1      33.947  33.657  28.000  1.00  0.00     0.338 C 
ATOM     28  O   UNL A   1      33.972  34.871  27.900  1.00  0.00    -0.246 OA
BRANCH  27  29
ATOM     29  C   UNL A   1      35.168  32.876  28.269  1.00  0.00     0.060 A 
ATOM     30  C   UNL A   1      35.008  31.536  28.645  1.00  0.00     0.016 A 
ATOM     31  C   UNL A   1      36.428  33.476  28.290  1.00  0.00     0.016 A 
ATOM     32  C   UNL A   1      36.102  30.805  29.103  1.00  0.00     0.010 A 
ATOM     33  C   UNL A   1      37.523  32.743  28.761  1.00  0.00     0.010 A 
ATOM     34  C   UNL A   1      37.356  31.421  29.210  1.00  0.00    -0.014 A 
BRANCH  34  35
ATOM     35  C   UNL A   1      38.439  30.730  29.952  1.00  0.00     0.031 A 
ATOM     36  C   UNL A   1      38.664  31.074  31.400  1.00  0.00     0.074 A 
ATOM     37  C   UNL A   1      39.184  29.780  29.361  1.00  0.00     0.049 A 
ATOM     38  N   UNL A   1      39.555  30.607  32.237  1.00  0.00    -0.248 NA
ATOM     39  C   UNL A   1      37.759  32.078  31.981  1.00  0.00     0.031 C 
ATOM     40  C   UNL A   1      39.035  29.328  27.981  1.00  0.00     0.029 A 
ATOM     41  N   UNL A   1      40.218  29.025  29.856  1.00  0.00    -0.354 N 
ATOM     42  C   UNL A   1      39.318  31.258  33.441  1.00  0.00     0.074 A 
ATOM     43  C   UNL A   1      38.222  32.175  33.219  1.00  0.00     0.031 C 
ATOM     44  C   UNL A   1      39.953  28.380  27.732  1.00  0.00     0.029 A 
ATOM     45  C   UNL A   1      40.771  28.177  28.928  1.00  0.00     0.049 A 
ATOM     46  H   UNL A   1      40.534  29.086  30.786  1.00  0.00     0.167 HD
ATOM     47  C   UNL A   1      39.951  31.098  34.627  1.00  0.00     0.037 A 
ATOM     48  C   UNL A   1      41.826  27.348  29.031  1.00  0.00     0.037 A 
ATOM     49  C   UNL A   1      41.042  30.187  34.850  1.00  0.00     0.049 A 
ATOM     50  C   UNL A   1      42.559  27.238  30.342  1.00  0.00     0.074 A 
ATOM     51  C   UNL A   1      41.742  29.944  36.020  1.00  0.00     0.029 A 
ATOM     52  N   UNL A   1      41.597  29.370  33.876  1.00  0.00    -0.354 N 
ATOM     53  N   UNL A   1      42.317  27.843  31.480  1.00  0.00    -0.248 NA
ATOM     54  C   UNL A   1      43.711  26.325  30.383  1.00  0.00     0.031 C 
ATOM     55  C   UNL A   1      42.748  29.012  35.742  1.00  0.00     0.029 A 
ATOM     56  C   UNL A   1      42.646  28.641  34.412  1.00  0.00     0.049 A 
ATOM     57  H   UNL A   1      41.291  29.316  32.942  1.00  0.00     0.167 HD
ATOM     58  C   UNL A   1      43.267  27.369  32.375  1.00  0.00     0.074 A 
ATOM     59  C   UNL A   1      44.083  26.416  31.653  1.00  0.00     0.031 C 
ATOM     60  C   UNL A   1      43.446  27.692  33.679  1.00  0.00     0.037 A 
BRANCH  47  61
ATOM     61  C   UNL A   1      39.491  31.948  35.774  1.00  0.00     0.064 A 
ATOM     62  C   UNL A   1      40.037  33.216  36.014  1.00  0.00     0.173 A 
ATOM     63  C   UNL A   1      38.471  31.498  36.626  1.00  0.00     0.173 A 
ATOM     64  F   UNL A   1      41.025  33.685  35.237  1.00  0.00    -0.203 F 
ATOM     65  C   UNL A   1      39.595  33.995  37.082  1.00  0.00     0.198 A 
ATOM     66  C   UNL A   1      38.014  32.291  37.676  1.00  0.00     0.198 A 
ATOM     67  F   UNL A   1      37.914  30.293  36.436  1.00  0.00    -0.203 F 
ATOM     68  F   UNL A   1      40.161  35.188  37.319  1.00  0.00    -0.200 F 
ATOM     69  C   UNL A   1      38.580  33.535  37.907  1.00  0.00     0.200 A 
ATOM     70  F   UNL A   1      37.027  31.847  38.468  1.00  0.00    -0.200 F 
ATOM     71  F   UNL A   1      38.153  34.287  38.931  1.00  0.00    -0.200 F 
ENDBRANCH  47  61
BRANCH  48  72
ATOM     72  C   UNL A   1      42.263  26.561  27.849  1.00  0.00     0.064 A 
ATOM     73  C   UNL A   1      43.236  27.054  26.970  1.00  0.00     0.173 A 
ATOM     74  C   UNL A   1      41.707  25.304  27.571  1.00  0.00     0.173 A 
ATOM     75  F   UNL A   1      43.778  28.262  27.179  1.00  0.00    -0.203 F 
ATOM     76  C   UNL A   1      43.627  26.323  25.849  1.00  0.00     0.198 A 
ATOM     77  C   UNL A   1      42.116  24.564  26.465  1.00  0.00     0.198 A 
ATOM     78  F   UNL A   1      40.769  24.791  28.382  1.00  0.00    -0.203 F 
ATOM     79  F   UNL A   1      44.531  26.833  25.001  1.00  0.00    -0.200 F 
ATOM     80  C   UNL A   1      43.071  25.077  25.601  1.00  0.00     0.200 A 
ATOM     81  F   UNL A   1      41.584  23.355  26.236  1.00  0.00    -0.200 F 
ATOM     82  F   UNL A   1      43.452  24.372  24.526  1.00  0.00    -0.200 F 
ENDBRANCH  48  72
BRANCH  60  83
ATOM     83  C   UNL A   1      44.549  26.994  34.419  1.00  0.00     0.064 A 
ATOM     84  C   UNL A   1      45.837  27.541  34.505  1.00  0.00     0.173 A 
ATOM     85  C   UNL A   1      44.302  25.784  35.086  1.00  0.00     0.173 A 
ATOM     86  F   UNL A   1      46.126  28.688  33.872  1.00  0.00    -0.203 F 
ATOM     87  C   UNL A   1      46.844  26.892  35.214  1.00  0.00     0.198 A 
ATOM     88  C   UNL A   1      45.303  25.151  35.816  1.00  0.00     0.198 A 
ATOM     89  F   UNL A   1      43.084  25.223  35.040  1.00  0.00    -0.203 F 
ATOM     90  F   UNL A   1      48.078  27.411  35.249  1.00  0.00    -0.200 F 
ATOM     91  C   UNL A   1      46.575  25.702  35.875  1.00  0.00     0.200 A 
ATOM     92  F   UNL A   1      45.039  24.008  36.464  1.00  0.00    -0.200 F 
ATOM     93  F   UNL A   1      47.543  25.082  36.563  1.00  0.00    -0.200 F 
ENDBRANCH  60  83
ENDBRANCH  34  35
ENDBRANCH  27  29
ENDBRANCH  26  27
ENDBRANCH  25  26
ENDBRANCH  24  25
ENDBRANCH   1  24
TORSDOF 17
ENDMDL
MODEL 2
REMARK VINA RESULT:     -11.5      0.247      1.944
REMARK SMILES CC[C@](C)(C(=O)OCCOCCOC(=O)c1ccc(-c2c3nc(c(-c4c(F)c(F)c(F)c(F)c4F)c4ccc([nH]4)c(-c4c(F)c(F)c(F)c(F)c4F)c4nc(c(-c5c(F)c(F)c(F)c(F)c5F)c5ccc2[nH]5)C=C4)C=C3)cc1)n1nnnc1-c1ccc(C)cc1C
REMARK SMILES IDX 10 1 9 2 8 3 7 4 5 5 6 6 3 7 4 8 2 9 1 10 79 11 80 12 83 13
REMARK SMILES IDX 81 14 82 15 84 16 85 17 90 18 86 19 89 20 91 21 87 22 88 23
REMARK SMILES IDX 11 24 12 25 13 26 14 27 15 28 16 29 17 30 78 31 18 32 77 33
REMARK SMILES IDX 19 34 20 35 21 36 71 37 22 38 76 39 70 40 72 41 23 42 75 43
REMARK SMILES IDX 69 44 68 45 24 47 56 48 36 49 55 50 37 51 40 52 54 53 73 54
REMARK SMILES IDX 38 55 39 56 53 58 74 59 41 60 25 61 26 62 34 63 27 64 28 65
REMARK SMILES IDX 32 66 35 67 29 68 30 69 33 70 31 71 57 72 58 73 66 74 59 75
REMARK SMILES IDX 60 76 64 77 67 78 61 79 62 80 65 81 63 82 42 83 43 84 51 85
REMARK SMILES IDX 44 86 45 87 49 88 52 89 46 90 47 91 50 92 48 93
REMARK H PARENT 72 46 40 57
REMARK Flexibility Score: inf
ROOT
ATOM      1  O   UNL A   1      32.329  30.539  26.205  1.00  0.00    -0.374 OA
ENDROOT
BRANCH   1   2
ATOM      2  C   UNL A   1      32.514  29.497  27.152  1.00  0.00     0.202 C 
BRANCH   2   3
ATOM      3  C   UNL A   1      31.750  28.190  26.926  1.00  0.00     0.261 C 
BRANCH   3   4
ATOM      4  O   UNL A   1      32.353  27.321  25.952  1.00  0.00    -0.461 OA
BRANCH   4   5
ATOM      5  C   UNL A   1      31.516  26.936  24.934  1.00  0.00     0.334 C 
ATOM      6  O   UNL A   1      30.639  27.676  24.509  1.00  0.00    -0.249 OA
BRANCH   5   7
ATOM      7  C   UNL A   1      31.710  25.439  24.544  1.00  0.00     0.161 C 
ATOM      8  C   UNL A   1      30.887  25.119  23.275  1.00  0.00     0.050 C 
BRANCH   7   9
ATOM      9  C   UNL A   1      33.234  25.399  24.222  1.00  0.00     0.039 C 
ATOM     10  C   UNL A   1      33.650  25.649  22.788  1.00  0.00     0.007 C 
ENDBRANCH   7   9
BRANCH   7  11
ATOM     11  N   UNL A   1      31.336  24.582  25.683  1.00  0.00    -0.208 N 
ATOM     12  N   UNL A   1      30.305  24.955  26.475  1.00  0.00    -0.044 NA
ATOM     13  C   UNL A   1      31.791  23.352  26.151  1.00  0.00     0.183 A 
ATOM     14  N   UNL A   1      29.986  23.896  27.195  1.00  0.00    -0.023 NA
ATOM     15  N   UNL A   1      30.891  22.898  27.007  1.00  0.00    -0.108 NA
BRANCH  13  16
ATOM     16  C   UNL A   1      33.049  22.654  25.900  1.00  0.00     0.024 A 
ATOM     17  C   UNL A   1      34.172  22.966  26.684  1.00  0.00     0.012 A 
ATOM     18  C   UNL A   1      33.221  21.809  24.785  1.00  0.00    -0.040 A 
ATOM     19  C   UNL A   1      35.421  22.391  26.419  1.00  0.00     0.004 A 
ATOM     20  C   UNL A   1      34.468  21.195  24.564  1.00  0.00     0.007 A 
ATOM     21  C   UNL A   1      32.175  21.603  23.724  1.00  0.00     0.045 C 
ATOM     22  C   UNL A   1      35.570  21.472  25.379  1.00  0.00    -0.051 A 
ATOM     23  C   UNL A   1      36.909  20.878  25.051  1.00  0.00     0.044 C 
ENDBRANCH  13  16
ENDBRANCH   7  11
ENDBRANCH   5   7
ENDBRANCH   4   5
ENDBRANCH   3   4
ENDBRANCH   2   3
ENDBRANCH   1   2
BRANCH   1  24
ATOM     24  C   UNL A   1      31.395  31.574  26.508  1.00  0.00     0.202 C 
BRANCH  24  25
ATOM     25  C   UNL A   1      31.976  32.949  26.854  1.00  0.00     0.261 C 
BRANCH  25  26
ATOM     26  O   UNL A   1      32.809  32.897  28.031  1.00  0.00    -0.460 OA
BRANCH  26  27
ATOM     27  C   UNL A   1      33.889  33.717  27.990  1.00  0.00     0.338 C 
ATOM     28  O   UNL A   1      33.896  34.931  27.891  1.00  0.00    -0.246 OA
BRANCH  27  29
ATOM     29  C   UNL A   1      35.123  32.954  28.255  1.00  0.00     0.060 A 
ATOM     30  C   UNL A   1      34.985  31.599  28.586  1.00  0.00     0.016 A 
ATOM     31  C   UNL A   1      36.369  33.579  28.317  1.00  0.00     0.016 A 
ATOM     32  C   UNL A   1      36.087  30.878  29.039  1.00  0.00     0.010 A 
ATOM     33  C   UNL A   1      37.472  32.856  28.784  1.00  0.00     0.010 A 
ATOM     34  C   UNL A   1      37.326  31.516  29.188  1.00  0.00    -0.014 A 
BRANCH  34  35
ATOM     35  C   UNL A   1      38.411  30.825  29.926  1.00  0.00     0.031 A 
ATOM     36  C   UNL A   1      38.630  31.157  31.378  1.00  0.00     0.074 A 
ATOM     37  C   UNL A   1      39.162  29.884  29.329  1.00  0.00     0.049 A 
ATOM     38  N   UNL A   1      39.522  30.688  32.213  1.00  0.00    -0.248 NA
ATOM     39  C   UNL A   1      37.718  32.152  31.966  1.00  0.00     0.031 C 
ATOM     40  C   UNL A   1      39.019  29.443  27.945  1.00  0.00     0.029 A 
ATOM     41  N   UNL A   1      40.199  29.131  29.820  1.00  0.00    -0.354 N 
ATOM     42  C   UNL A   1      39.279  31.328  33.422  1.00  0.00     0.074 A 
ATOM     43  C   UNL A   1      38.178  32.240  33.206  1.00  0.00     0.031 C 
ATOM     44  C   UNL A   1      39.943  28.503  27.690  1.00  0.00     0.029 A 
ATOM     45  C   UNL A   1      40.759  28.294  28.886  1.00  0.00     0.049 A 
ATOM     46  H   UNL A   1      40.513  29.185  30.751  1.00  0.00     0.167 HD
ATOM     47  C   UNL A   1      39.910  31.161  34.608  1.00  0.00     0.037 A 
ATOM     48  C   UNL A   1      41.819  27.469  28.984  1.00  0.00     0.037 A 
ATOM     49  C   UNL A   1      41.005  30.254  34.826  1.00  0.00     0.049 A 
ATOM     50  C   UNL A   1      42.549  27.352  30.296  1.00  0.00     0.074 A 
ATOM     51  C   UNL A   1      41.703  30.005  35.995  1.00  0.00     0.029 A 
ATOM     52  N   UNL A   1      41.567  29.448  33.846  1.00  0.00    -0.354 N 
ATOM     53  N   UNL A   1      42.301  27.946  31.438  1.00  0.00    -0.248 NA
ATOM     54  C   UNL A   1      43.706  26.445  30.332  1.00  0.00     0.031 C 
ATOM     55  C   UNL A   1      42.715  29.081  35.712  1.00  0.00     0.029 A 
ATOM     56  C   UNL A   1      42.618  28.720  34.378  1.00  0.00     0.049 A 
ATOM     57  H   UNL A   1      41.263  29.401  32.911  1.00  0.00     0.167 HD
ATOM     58  C   UNL A   1      43.252  27.470  32.332  1.00  0.00     0.074 A 
ATOM     59  C   UNL A   1      44.075  26.527  31.604  1.00  0.00     0.031 C 
ATOM     60  C   UNL A   1      43.426  27.783  33.639  1.00  0.00     0.037 A 
BRANCH  47  61
ATOM     61  C   UNL A   1      39.443  31.998  35.761  1.00  0.00     0.064 A 
ATOM     62  C   UNL A   1      38.448  31.548  36.641  1.00  0.00     0.173 A 
ATOM     63  C   UNL A   1      40.018  33.255  36.006  1.00  0.00     0.173 A 
ATOM     64  F   UNL A   1      37.857  30.360  36.440  1.00  0.00    -0.203 F 
ATOM     65  C   UNL A   1      38.028  32.336  37.710  1.00  0.00     0.198 A 
ATOM     66  C   UNL A   1      39.613  34.028  37.091  1.00  0.00     0.198 A 
ATOM     67  F   UNL A   1      40.975  33.729  35.195  1.00  0.00    -0.203 F 
ATOM     68  F   UNL A   1      37.045  31.904  38.513  1.00  0.00    -0.200 F 
ATOM     69  C   UNL A   1      38.615  33.572  37.938  1.00  0.00     0.200 A 
ATOM     70  F   UNL A   1      40.189  35.218  37.314  1.00  0.00    -0.200 F 
ATOM     71  F   UNL A   1      38.213  34.326  38.970  1.00  0.00    -0.200 F 
ENDBRANCH  47  61
BRANCH  48  72
ATOM     72  C   UNL A   1      42.263  26.696  27.797  1.00  0.00     0.064 A 
ATOM     73  C   UNL A   1      41.748  25.421  27.529  1.00  0.00     0.173 A 
ATOM     74  C   UNL A   1      43.220  27.214  26.912  1.00  0.00     0.173 A 
ATOM     75  F   UNL A   1      40.850  24.872  28.360  1.00  0.00    -0.203 F 
ATOM     76  C   UNL A   1      42.184  24.688  26.426  1.00  0.00     0.198 A 
ATOM     77  C   UNL A   1      43.636  26.491  25.797  1.00  0.00     0.198 A 
ATOM     78  F   UNL A   1      43.745  28.429  27.128  1.00  0.00    -0.203 F 
ATOM     79  F   UNL A   1      41.705  23.454  26.213  1.00  0.00    -0.200 F 
ATOM     80  C   UNL A   1      43.122  25.226  25.559  1.00  0.00     0.200 A 
ATOM     81  F   UNL A   1      44.535  27.020  24.955  1.00  0.00    -0.200 F 
ATOM     82  F   UNL A   1      43.537  24.522  24.495  1.00  0.00    -0.200 F 
ENDBRANCH  48  72
BRANCH  60  83
ATOM     83  C   UNL A   1      44.531  27.084  34.376  1.00  0.00     0.064 A 
ATOM     84  C   UNL A   1      44.340  25.826  34.964  1.00  0.00     0.173 A 
ATOM     85  C   UNL A   1      45.807  27.661  34.457  1.00  0.00     0.173 A 
ATOM     86  F   UNL A   1      43.134  25.239  34.927  1.00  0.00    -0.203 F 
ATOM     87  C   UNL A   1      45.381  25.180  35.625  1.00  0.00     0.198 A 
ATOM     88  C   UNL A   1      46.853  27.001  35.095  1.00  0.00     0.198 A 
ATOM     89  F   UNL A   1      46.043  28.861  33.904  1.00  0.00    -0.203 F 
ATOM     90  F   UNL A   1      45.166  23.996  36.215  1.00  0.00    -0.200 F 
ATOM     91  C   UNL A   1      46.638  25.764  35.683  1.00  0.00     0.200 A 
ATOM     92  F   UNL A   1      48.069  27.562  35.141  1.00  0.00    -0.200 F 
ATOM     93  F   UNL A   1      47.641  25.137  36.314  1.00  0.00    -0.200 F 
ENDBRANCH  60  83
ENDBRANCH  34  35
ENDBRANCH  27  29
ENDBRANCH  26  27
ENDBRANCH  25  26
ENDBRANCH  24  25
ENDBRANCH   1  24
TORSDOF 17
ENDMDL
MODEL 3
REMARK VINA RESULT:     -11.5      1.117      7.320
REMARK SMILES CC[C@](C)(C(=O)OCCOCCOC(=O)c1ccc(-c2c3nc(c(-c4c(F)c(F)c(F)c(F)c4F)c4ccc([nH]4)c(-c4c(F)c(F)c(F)c(F)c4F)c4nc(c(-c5c(F)c(F)c(F)c(F)c5F)c5ccc2[nH]5)C=C4)C=C3)cc1)n1nnnc1-c1ccc(C)cc1C
REMARK SMILES IDX 10 1 9 2 8 3 7 4 5 5 6 6 3 7 4 8 2 9 1 10 79 11 80 12 83 13
REMARK SMILES IDX 81 14 82 15 84 16 85 17 90 18 86 19 89 20 91 21 87 22 88 23
REMARK SMILES IDX 11 24 12 25 13 26 14 27 15 28 16 29 17 30 78 31 18 32 77 33
REMARK SMILES IDX 19 34 20 35 21 36 71 37 22 38 76 39 70 40 72 41 23 42 75 43
REMARK SMILES IDX 69 44 68 45 24 47 56 48 36 49 55 50 37 51 40 52 54 53 73 54
REMARK SMILES IDX 38 55 39 56 53 58 74 59 41 60 25 61 26 62 34 63 27 64 28 65
REMARK SMILES IDX 32 66 35 67 29 68 30 69 33 70 31 71 57 72 58 73 66 74 59 75
REMARK SMILES IDX 60 76 64 77 67 78 61 79 62 80 65 81 63 82 42 83 43 84 51 85
REMARK SMILES IDX 44 86 45 87 49 88 52 89 46 90 47 91 50 92 48 93
REMARK H PARENT 72 46 40 57
REMARK Flexibility Score: inf
ROOT
ATOM      1  O   UNL A   1      30.544  29.604  24.232  1.00  0.00    -0.374 OA
ENDROOT
BRANCH   1   2
ATOM      2  C   UNL A   1      30.499  28.518  23.318  1.00  0.00     0.202 C 
BRANCH   2   3
ATOM      3  C   UNL A   1      31.782  27.706  23.120  1.00  0.00     0.261 C 
BRANCH   3   4
ATOM      4  O   UNL A   1      31.775  26.430  23.783  1.00  0.00    -0.461 OA
BRANCH   4   5
ATOM      5  C   UNL A   1      32.998  26.030  24.263  1.00  0.00     0.334 C 
ATOM      6  O   UNL A   1      33.862  26.839  24.576  1.00  0.00    -0.249 OA
BRANCH   5   7
ATOM      7  C   UNL A   1      33.186  24.484  24.184  1.00  0.00     0.161 C 
ATOM      8  C   UNL A   1      32.507  23.939  22.907  1.00  0.00     0.050 C 
BRANCH   7   9
ATOM      9  C   UNL A   1      34.736  24.368  24.062  1.00  0.00     0.039 C 
ATOM     10  C   UNL A   1      35.283  23.318  23.119  1.00  0.00     0.007 C 
ENDBRANCH   7   9
BRANCH   7  11
ATOM     11  N   UNL A   1      32.654  23.862  25.409  1.00  0.00    -0.208 N 
ATOM     12  N   UNL A   1      32.216  24.657  26.413  1.00  0.00    -0.044 NA
ATOM     13  C   UNL A   1      32.424  22.545  25.797  1.00  0.00     0.183 A 
ATOM     14  N   UNL A   1      31.522  23.883  27.226  1.00  0.00    -0.023 NA
ATOM     15  N   UNL A   1      31.639  22.578  26.861  1.00  0.00    -0.108 NA
BRANCH  13  16
ATOM     16  C   UNL A   1      32.976  21.297  25.276  1.00  0.00     0.024 A 
ATOM     17  C   UNL A   1      32.125  20.399  24.610  1.00  0.00     0.012 A 
ATOM     18  C   UNL A   1      34.291  20.884  25.573  1.00  0.00    -0.040 A 
ATOM     19  C   UNL A   1      32.590  19.152  24.176  1.00  0.00     0.004 A 
ATOM     20  C   UNL A   1      34.759  19.651  25.082  1.00  0.00     0.007 A 
ATOM     21  C   UNL A   1      35.213  21.632  26.497  1.00  0.00     0.045 C 
ATOM     22  C   UNL A   1      33.920  18.783  24.377  1.00  0.00    -0.051 A 
ATOM     23  C   UNL A   1      34.426  17.433  23.958  1.00  0.00     0.044 C 
ENDBRANCH  13  16
ENDBRANCH   7  11
ENDBRANCH   5   7
ENDBRANCH   4   5
ENDBRANCH   3   4
ENDBRANCH   2   3
ENDBRANCH   1   2
BRANCH   1  24
ATOM     24  C   UNL A   1      31.677  29.724  25.090  1.00  0.00     0.202 C 
BRANCH  24  25
ATOM     25  C   UNL A   1      31.684  30.907  26.064  1.00  0.00     0.261 C 
BRANCH  25  26
ATOM     26  O   UNL A   1      32.651  30.727  27.119  1.00  0.00    -0.460 OA
BRANCH  26  27
ATOM     27  C   UNL A   1      33.434  31.810  27.352  1.00  0.00     0.338 C 
ATOM     28  O   UNL A   1      33.098  32.981  27.356  1.00  0.00    -0.246 OA
BRANCH  27  29
ATOM     29  C   UNL A   1      34.778  31.388  27.788  1.00  0.00     0.060 A 
ATOM     30  C   UNL A   1      34.966  30.031  28.079  1.00  0.00     0.016 A 
ATOM     31  C   UNL A   1      35.789  32.317  28.041  1.00  0.00     0.016 A 
ATOM     32  C   UNL A   1      36.147  29.604  28.682  1.00  0.00     0.010 A 
ATOM     33  C   UNL A   1      36.970  31.888  28.656  1.00  0.00     0.010 A 
ATOM     34  C   UNL A   1      37.135  30.539  29.019  1.00  0.00    -0.014 A 
BRANCH  34  35
ATOM     35  C   UNL A   1      38.253  30.123  29.901  1.00  0.00     0.031 A 
ATOM     36  C   UNL A   1      39.275  29.152  29.372  1.00  0.00     0.074 A 
ATOM     37  C   UNL A   1      38.385  30.635  31.136  1.00  0.00     0.049 A 
ATOM     38  N   UNL A   1      40.324  28.644  29.966  1.00  0.00    -0.248 NA
ATOM     39  C   UNL A   1      39.086  28.696  27.986  1.00  0.00     0.031 C 
ATOM     40  C   UNL A   1      37.488  31.613  31.744  1.00  0.00     0.029 A 
ATOM     41  N   UNL A   1      39.331  30.395  32.101  1.00  0.00    -0.354 N 
ATOM     42  C   UNL A   1      40.921  27.811  29.029  1.00  0.00     0.074 A 
ATOM     43  C   UNL A   1      40.101  27.856  27.838  1.00  0.00     0.031 C 
ATOM     44  C   UNL A   1      37.919  31.885  32.988  1.00  0.00     0.029 A 
ATOM     45  C   UNL A   1      39.107  31.079  33.270  1.00  0.00     0.049 A 
ATOM     46  H   UNL A   1      40.096  29.791  31.969  1.00  0.00     0.167 HD
ATOM     47  C   UNL A   1      42.056  27.082  29.147  1.00  0.00     0.037 A 
ATOM     48  C   UNL A   1      39.776  31.044  34.439  1.00  0.00     0.037 A 
ATOM     49  C   UNL A   1      42.873  27.036  30.330  1.00  0.00     0.049 A 
ATOM     50  C   UNL A   1      40.997  30.171  34.569  1.00  0.00     0.074 A 
ATOM     51  C   UNL A   1      44.048  26.336  30.543  1.00  0.00     0.029 A 
ATOM     52  N   UNL A   1      42.594  27.716  31.506  1.00  0.00    -0.354 N 
ATOM     53  N   UNL A   1      41.564  29.401  33.672  1.00  0.00    -0.248 NA
ATOM     54  C   UNL A   1      41.673  30.167  35.874  1.00  0.00     0.031 C 
ATOM     55  C   UNL A   1      44.457  26.558  31.863  1.00  0.00     0.029 A 
ATOM     56  C   UNL A   1      43.561  27.432  32.457  1.00  0.00     0.049 A 
ATOM     57  H   UNL A   1      41.822  28.311  31.645  1.00  0.00     0.167 HD
ATOM     58  C   UNL A   1      42.672  28.841  34.294  1.00  0.00     0.074 A 
ATOM     59  C   UNL A   1      42.706  29.369  35.642  1.00  0.00     0.031 C 
ATOM     60  C   UNL A   1      43.582  27.970  33.794  1.00  0.00     0.037 A 
BRANCH  47  61
ATOM     61  C   UNL A   1      42.469  26.254  27.966  1.00  0.00     0.064 A 
ATOM     62  C   UNL A   1      43.372  26.738  27.009  1.00  0.00     0.173 A 
ATOM     63  C   UNL A   1      41.977  24.949  27.807  1.00  0.00     0.173 A 
ATOM     64  F   UNL A   1      43.858  27.984  27.109  1.00  0.00    -0.203 F 
ATOM     65  C   UNL A   1      43.750  25.955  25.921  1.00  0.00     0.198 A 
ATOM     66  C   UNL A   1      42.378  24.160  26.732  1.00  0.00     0.198 A 
ATOM     67  F   UNL A   1      41.114  24.439  28.698  1.00  0.00    -0.203 F 
ATOM     68  F   UNL A   1      44.581  26.453  24.994  1.00  0.00    -0.200 F 
ATOM     69  C   UNL A   1      43.257  24.665  25.787  1.00  0.00     0.200 A 
ATOM     70  F   UNL A   1      41.907  22.911  26.609  1.00  0.00    -0.200 F 
ATOM     71  F   UNL A   1      43.625  23.910  24.742  1.00  0.00    -0.200 F 
ENDBRANCH  47  61
BRANCH  48  72
ATOM     72  C   UNL A   1      39.296  31.853  35.587  1.00  0.00     0.064 A 
ATOM     73  C   UNL A   1      39.745  33.165  35.787  1.00  0.00     0.173 A 
ATOM     74  C   UNL A   1      38.385  31.325  36.515  1.00  0.00     0.173 A 
ATOM     75  F   UNL A   1      40.635  33.705  34.942  1.00  0.00    -0.203 F 
ATOM     76  C   UNL A   1      39.310  33.915  36.879  1.00  0.00     0.198 A 
ATOM     77  C   UNL A   1      37.933  32.084  37.591  1.00  0.00     0.198 A 
ATOM     78  F   UNL A   1      37.929  30.073  36.368  1.00  0.00    -0.203 F 
ATOM     79  F   UNL A   1      39.785  35.154  37.070  1.00  0.00    -0.200 F 
ATOM     80  C   UNL A   1      38.400  33.375  37.776  1.00  0.00     0.200 A 
ATOM     81  F   UNL A   1      37.045  31.562  38.449  1.00  0.00    -0.200 F 
ATOM     82  F   UNL A   1      37.978  34.099  38.823  1.00  0.00    -0.200 F 
ENDBRANCH  48  72
BRANCH  60  83
ATOM     83  C   UNL A   1      44.705  27.550  34.695  1.00  0.00     0.064 A 
ATOM     84  C   UNL A   1      45.893  28.291  34.782  1.00  0.00     0.173 A 
ATOM     85  C   UNL A   1      44.575  26.417  35.513  1.00  0.00     0.173 A 
ATOM     86  F   UNL A   1      46.071  29.373  34.009  1.00  0.00    -0.203 F 
ATOM     87  C   UNL A   1      46.917  27.901  35.640  1.00  0.00     0.198 A 
ATOM     88  C   UNL A   1      45.591  26.046  36.389  1.00  0.00     0.198 A 
ATOM     89  F   UNL A   1      43.456  25.679  35.472  1.00  0.00    -0.203 F 
ATOM     90  F   UNL A   1      48.060  28.600  35.678  1.00  0.00    -0.200 F 
ATOM     91  C   UNL A   1      46.763  26.784  36.448  1.00  0.00     0.200 A 
ATOM     92  F   UNL A   1      45.435  24.973  37.177  1.00  0.00    -0.200 F 
ATOM     93  F   UNL A   1      47.748  26.415  37.278  1.00  0.00    -0.200 F 
ENDBRANCH  60  83
ENDBRANCH  34  35
ENDBRANCH  27  29
ENDBRANCH  26  27
ENDBRANCH  25  26
ENDBRANCH  24  25
ENDBRANCH   1  24
TORSDOF 17
ENDMDL
