MODEL 1
REMARK VINA RESULT:     -12.3      0.000      0.000
REMARK SMILES COc1cccc(-c2c(C(=O)OCCOCCOC(=O)c3ccc(-c4c5nc(c(-c6c(F)c(F)c(F)c(F)c6F)c6ccc([nH]6)c(-c6c(F)c(F)c(F)c(F)c6F)c6nc(c(-c7c(F)c(F)c(F)c(F)c7F)c7ccc4[nH]7)C=C6)C=C5)cc3)nnn2-c2ccc(OC(F)(F)F)cc2)c1
REMARK SMILES IDX 14 1 13 2 12 3 10 4 11 5 9 6 8 7 86 8 84 9 85 10 7 11 3 12
REMARK SMILES IDX 4 13 98 14 5 15 6 16 2 17 1 18 87 19 88 20 97 21 89 22 96 23
REMARK SMILES IDX 90 24 91 25 92 26 93 27 94 28 95 29 15 30 16 31 17 32 18 33
REMARK SMILES IDX 19 34 20 35 21 36 22 37 83 38 23 39 82 40 24 41 25 42 26 43
REMARK SMILES IDX 76 44 27 45 81 46 75 47 77 48 28 49 80 50 74 51 73 52 29 54
REMARK SMILES IDX 61 55 41 56 60 57 42 58 45 59 59 60 78 61 43 62 44 63 58 65
REMARK SMILES IDX 79 66 46 67 30 68 31 69 39 70 32 71 33 72 37 73 40 74 34 75
REMARK SMILES IDX 35 76 38 77 36 78 62 79 63 80 71 81 64 82 65 83 69 84 72 85
REMARK SMILES IDX 66 86 67 87 70 88 68 89 47 90 48 91 56 92 49 93 50 94 54 95
REMARK SMILES IDX 57 96 51 97 52 98 55 99 53 100
REMARK H PARENT 77 53 45 64
REMARK Flexibility Score: inf
ROOT
ATOM      1  C   UNL A   1      31.592  28.312  27.167  1.00  0.00     0.202 C 
ENDROOT
BRANCH   1   2
ATOM      2  C   UNL A   1      31.189  26.928  26.654  1.00  0.00     0.261 C 
BRANCH   2   3
ATOM      3  O   UNL A   1      32.319  26.151  26.223  1.00  0.00    -0.458 OA
BRANCH   3   4
ATOM      4  C   UNL A   1      32.452  26.019  24.871  1.00  0.00     0.361 C 
ATOM      5  O   UNL A   1      32.865  26.906  24.126  1.00  0.00    -0.244 OA
BRANCH   4   6
ATOM      6  C   UNL A   1      32.169  24.678  24.394  1.00  0.00     0.198 A 
ATOM      7  C   UNL A   1      33.017  23.598  24.189  1.00  0.00     0.109 A 
ATOM      8  N   UNL A   1      32.121  22.571  23.894  1.00  0.00    -0.212 N 
ATOM      9  N   UNL A   1      30.899  24.337  23.981  1.00  0.00    -0.122 NA
ATOM     10  N   UNL A   1      30.924  23.088  23.547  1.00  0.00    -0.061 NA
BRANCH   7  11
ATOM     11  C   UNL A   1      34.469  23.424  24.249  1.00  0.00     0.007 A 
ATOM     12  C   UNL A   1      36.554  23.692  25.486  1.00  0.00     0.119 A 
ATOM     13  C   UNL A   1      37.265  23.303  24.354  1.00  0.00     0.046 A 
ATOM     14  C   UNL A   1      35.162  23.749  25.434  1.00  0.00     0.056 A 
ATOM     15  C   UNL A   1      36.589  22.936  23.188  1.00  0.00     0.005 A 
ATOM     16  C   UNL A   1      35.196  22.994  23.136  1.00  0.00     0.011 A 
BRANCH  12  17
ATOM     17  O   UNL A   1      37.315  24.073  26.557  1.00  0.00    -0.497 OA
ATOM     18  C   UNL A   1      38.694  23.725  26.492  1.00  0.00     0.278 C 
ENDBRANCH  12  17
ENDBRANCH   7  11
BRANCH   8  19
ATOM     19  C   UNL A   1      32.302  21.176  24.014  1.00  0.00     0.067 A 
ATOM     20  C   UNL A   1      32.194  20.353  22.892  1.00  0.00     0.032 A 
ATOM     21  C   UNL A   1      32.558  20.618  25.273  1.00  0.00     0.032 A 
ATOM     22  C   UNL A   1      32.421  18.980  23.029  1.00  0.00     0.049 A 
ATOM     23  C   UNL A   1      32.735  19.240  25.407  1.00  0.00     0.049 A 
ATOM     24  C   UNL A   1      32.694  18.417  24.282  1.00  0.00     0.129 A 
BRANCH  24  25
ATOM     25  O   UNL A   1      32.900  17.066  24.268  1.00  0.00    -0.406 OA
BRANCH  25  26
ATOM     26  C   UNL A   1      34.231  16.607  24.091  1.00  0.00     0.573 C 
ATOM     27  F   UNL A   1      35.126  17.595  24.312  1.00  0.00    -0.132 F 
ATOM     28  F   UNL A   1      34.497  15.568  24.912  1.00  0.00    -0.132 F 
ATOM     29  F   UNL A   1      34.380  16.187  22.816  1.00  0.00    -0.132 F 
ENDBRANCH  25  26
ENDBRANCH  24  25
ENDBRANCH   8  19
ENDBRANCH   4   6
ENDBRANCH   3   4
ENDBRANCH   2   3
ENDBRANCH   1   2
BRANCH   1  30
ATOM     30  O   UNL A   1      31.508  29.410  26.261  1.00  0.00    -0.374 OA
BRANCH  30  31
ATOM     31  C   UNL A   1      32.441  30.479  26.351  1.00  0.00     0.202 C 
BRANCH  31  32
ATOM     32  C   UNL A   1      33.363  30.537  27.559  1.00  0.00     0.261 C 
BRANCH  32  33
ATOM     33  O   UNL A   1      34.739  30.418  27.230  1.00  0.00    -0.460 OA
BRANCH  33  34
ATOM     34  C   UNL A   1      35.504  31.368  27.816  1.00  0.00     0.338 C 
ATOM     35  O   UNL A   1      35.376  32.579  27.736  1.00  0.00    -0.246 OA
BRANCH  34  36
ATOM     36  C   UNL A   1      36.679  30.725  28.403  1.00  0.00     0.060 A 
ATOM     37  C   UNL A   1      37.650  31.563  28.957  1.00  0.00     0.016 A 
ATOM     38  C   UNL A   1      36.925  29.372  28.133  1.00  0.00     0.016 A 
ATOM     39  C   UNL A   1      38.932  31.080  29.097  1.00  0.00     0.010 A 
ATOM     40  C   UNL A   1      38.209  28.903  28.235  1.00  0.00     0.010 A 
ATOM     41  C   UNL A   1      39.206  29.777  28.668  1.00  0.00    -0.014 A 
BRANCH  41  42
ATOM     42  C   UNL A   1      40.527  29.233  28.909  1.00  0.00     0.031 A 
ATOM     43  C   UNL A   1      40.797  29.132  30.368  1.00  0.00     0.074 A 
ATOM     44  C   UNL A   1      41.283  28.748  27.903  1.00  0.00     0.049 A 
ATOM     45  N   UNL A   1      41.753  29.691  31.028  1.00  0.00    -0.248 NA
ATOM     46  C   UNL A   1      39.777  28.498  31.231  1.00  0.00     0.031 C 
ATOM     47  C   UNL A   1      40.897  28.633  26.492  1.00  0.00     0.029 A 
ATOM     48  N   UNL A   1      42.505  28.142  27.931  1.00  0.00    -0.354 N 
ATOM     49  C   UNL A   1      41.584  29.277  32.348  1.00  0.00     0.074 A 
ATOM     50  C   UNL A   1      40.259  28.743  32.448  1.00  0.00     0.031 C 
ATOM     51  C   UNL A   1      41.750  27.800  25.856  1.00  0.00     0.029 A 
ATOM     52  C   UNL A   1      42.802  27.411  26.778  1.00  0.00     0.049 A 
ATOM     53  H   UNL A   1      43.123  28.212  28.694  1.00  0.00     0.167 HD
ATOM     54  C   UNL A   1      42.681  29.072  33.125  1.00  0.00     0.037 A 
ATOM     55  C   UNL A   1      43.801  26.501  26.636  1.00  0.00     0.037 A 
ATOM     56  C   UNL A   1      43.802  29.804  32.589  1.00  0.00     0.049 A 
ATOM     57  C   UNL A   1      44.774  26.754  27.723  1.00  0.00     0.074 A 
ATOM     58  C   UNL A   1      44.149  31.131  32.457  1.00  0.00     0.029 A 
ATOM     59  N   UNL A   1      44.538  29.095  31.680  1.00  0.00    -0.354 N 
ATOM     60  N   UNL A   1      45.534  27.810  27.777  1.00  0.00    -0.248 NA
ATOM     61  C   UNL A   1      44.640  26.013  28.971  1.00  0.00     0.031 C 
ATOM     62  C   UNL A   1      44.969  31.206  31.291  1.00  0.00     0.029 A 
ATOM     63  C   UNL A   1      45.155  29.919  30.785  1.00  0.00     0.049 A 
ATOM     64  H   UNL A   1      44.613  28.113  31.672  1.00  0.00     0.167 HD
ATOM     65  C   UNL A   1      45.596  28.116  29.123  1.00  0.00     0.074 A 
ATOM     66  C   UNL A   1      45.187  26.896  29.811  1.00  0.00     0.031 C 
ATOM     67  C   UNL A   1      45.655  29.420  29.524  1.00  0.00     0.037 A 
BRANCH  54  68
ATOM     68  C   UNL A   1      42.892  27.807  33.946  1.00  0.00     0.064 A 
ATOM     69  C   UNL A   1      42.952  27.926  35.352  1.00  0.00     0.173 A 
ATOM     70  C   UNL A   1      43.365  26.576  33.433  1.00  0.00     0.173 A 
ATOM     71  F   UNL A   1      42.550  29.053  35.958  1.00  0.00    -0.203 F 
ATOM     72  C   UNL A   1      43.522  26.936  36.159  1.00  0.00     0.198 A 
ATOM     73  C   UNL A   1      43.891  25.573  34.246  1.00  0.00     0.198 A 
ATOM     74  F   UNL A   1      43.448  26.320  32.125  1.00  0.00    -0.203 F 
ATOM     75  F   UNL A   1      43.675  27.156  37.472  1.00  0.00    -0.200 F 
ATOM     76  C   UNL A   1      43.999  25.765  35.605  1.00  0.00     0.200 A 
ATOM     77  F   UNL A   1      44.371  24.455  33.682  1.00  0.00    -0.200 F 
ATOM     78  F   UNL A   1      44.603  24.843  36.365  1.00  0.00    -0.200 F 
ENDBRANCH  54  68
BRANCH  55  79
ATOM     79  C   UNL A   1      43.864  25.266  25.811  1.00  0.00     0.064 A 
ATOM     80  C   UNL A   1      45.014  24.954  25.060  1.00  0.00     0.173 A 
ATOM     81  C   UNL A   1      42.930  24.225  25.972  1.00  0.00     0.173 A 
ATOM     82  F   UNL A   1      45.976  25.872  24.886  1.00  0.00    -0.203 F 
ATOM     83  C   UNL A   1      45.235  23.673  24.544  1.00  0.00     0.198 A 
ATOM     84  C   UNL A   1      43.147  22.948  25.450  1.00  0.00     0.198 A 
ATOM     85  F   UNL A   1      41.835  24.394  26.726  1.00  0.00    -0.203 F 
ATOM     86  F   UNL A   1      46.378  23.397  23.901  1.00  0.00    -0.200 F 
ATOM     87  C   UNL A   1      44.307  22.666  24.752  1.00  0.00     0.200 A 
ATOM     88  F   UNL A   1      42.259  21.974  25.690  1.00  0.00    -0.200 F 
ATOM     89  F   UNL A   1      44.548  21.420  24.321  1.00  0.00    -0.200 F 
ENDBRANCH  55  79
BRANCH  67  90
ATOM     90  C   UNL A   1      46.145  30.423  28.525  1.00  0.00     0.064 A 
ATOM     91  C   UNL A   1      45.333  31.110  27.606  1.00  0.00     0.173 A 
ATOM     92  C   UNL A   1      47.506  30.759  28.566  1.00  0.00     0.173 A 
ATOM     93  F   UNL A   1      44.009  30.908  27.568  1.00  0.00    -0.203 F 
ATOM     94  C   UNL A   1      45.877  32.055  26.736  1.00  0.00     0.198 A 
ATOM     95  C   UNL A   1      48.035  31.733  27.729  1.00  0.00     0.198 A 
ATOM     96  F   UNL A   1      48.318  30.164  29.454  1.00  0.00    -0.203 F 
ATOM     97  F   UNL A   1      45.092  32.680  25.847  1.00  0.00    -0.200 F 
ATOM     98  C   UNL A   1      47.225  32.370  26.805  1.00  0.00     0.200 A 
ATOM     99  F   UNL A   1      49.329  32.068  27.836  1.00  0.00    -0.200 F 
ATOM    100  F   UNL A   1      47.740  33.305  25.995  1.00  0.00    -0.200 F 
ENDBRANCH  67  90
ENDBRANCH  41  42
ENDBRANCH  34  36
ENDBRANCH  33  34
ENDBRANCH  32  33
ENDBRANCH  31  32
ENDBRANCH  30  31
ENDBRANCH   1  30
TORSDOF 19
ENDMDL
MODEL 2
REMARK VINA RESULT:     -11.5      1.533      2.158
REMARK SMILES COc1cccc(-c2c(C(=O)OCCOCCOC(=O)c3ccc(-c4c5nc(c(-c6c(F)c(F)c(F)c(F)c6F)c6ccc([nH]6)c(-c6c(F)c(F)c(F)c(F)c6F)c6nc(c(-c7c(F)c(F)c(F)c(F)c7F)c7ccc4[nH]7)C=C6)C=C5)cc3)nnn2-c2ccc(OC(F)(F)F)cc2)c1
REMARK SMILES IDX 14 1 13 2 12 3 10 4 11 5 9 6 8 7 86 8 84 9 85 10 7 11 3 12
REMARK SMILES IDX 4 13 98 14 5 15 6 16 2 17 1 18 87 19 88 20 97 21 89 22 96 23
REMARK SMILES IDX 90 24 91 25 92 26 93 27 94 28 95 29 15 30 16 31 17 32 18 33
REMARK SMILES IDX 19 34 20 35 21 36 22 37 83 38 23 39 82 40 24 41 25 42 26 43
REMARK SMILES IDX 76 44 27 45 81 46 75 47 77 48 28 49 80 50 74 51 73 52 29 54
REMARK SMILES IDX 61 55 41 56 60 57 42 58 45 59 59 60 78 61 43 62 44 63 58 65
REMARK SMILES IDX 79 66 46 67 30 68 31 69 39 70 32 71 33 72 37 73 40 74 34 75
REMARK SMILES IDX 35 76 38 77 36 78 62 79 63 80 71 81 64 82 65 83 69 84 72 85
REMARK SMILES IDX 66 86 67 87 70 88 68 89 47 90 48 91 56 92 49 93 50 94 54 95
REMARK SMILES IDX 57 96 51 97 52 98 55 99 53 100
REMARK H PARENT 77 53 45 64
REMARK Flexibility Score: inf
ROOT
ATOM      1  C   UNL A   1      33.134  28.971  24.446  1.00  0.00     0.202 C 
ENDROOT
BRANCH   1   2
ATOM      2  C   UNL A   1      32.116  28.518  23.397  1.00  0.00     0.261 C 
BRANCH   2   3
ATOM      3  O   UNL A   1      32.708  27.696  22.377  1.00  0.00    -0.458 OA
BRANCH   3   4
ATOM      4  C   UNL A   1      31.953  26.630  21.979  1.00  0.00     0.361 C 
ATOM      5  O   UNL A   1      30.877  26.725  21.392  1.00  0.00    -0.244 OA
BRANCH   4   6
ATOM      6  C   UNL A   1      32.600  25.352  22.207  1.00  0.00     0.198 A 
ATOM      7  C   UNL A   1      32.478  24.456  23.262  1.00  0.00     0.109 A 
ATOM      8  N   UNL A   1      33.216  23.364  22.809  1.00  0.00    -0.212 N 
ATOM      9  N   UNL A   1      33.564  24.891  21.337  1.00  0.00    -0.122 NA
ATOM     10  N   UNL A   1      34.028  23.742  21.799  1.00  0.00    -0.061 NA
BRANCH   7  11
ATOM     11  C   UNL A   1      31.782  24.496  24.549  1.00  0.00     0.007 A 
ATOM     12  C   UNL A   1      31.673  23.808  26.886  1.00  0.00     0.119 A 
ATOM     13  C   UNL A   1      30.403  24.370  26.982  1.00  0.00     0.046 A 
ATOM     14  C   UNL A   1      32.360  23.874  25.674  1.00  0.00     0.056 A 
ATOM     15  C   UNL A   1      29.837  25.028  25.889  1.00  0.00     0.005 A 
ATOM     16  C   UNL A   1      30.525  25.094  24.676  1.00  0.00     0.011 A 
BRANCH  12  17
ATOM     17  O   UNL A   1      32.112  23.150  28.002  1.00  0.00    -0.497 OA
ATOM     18  C   UNL A   1      33.155  22.204  27.793  1.00  0.00     0.278 C 
ENDBRANCH  12  17
ENDBRANCH   7  11
BRANCH   8  19
ATOM     19  C   UNL A   1      33.128  22.010  23.201  1.00  0.00     0.067 A 
ATOM     20  C   UNL A   1      32.142  21.183  22.659  1.00  0.00     0.032 A 
ATOM     21  C   UNL A   1      34.015  21.511  24.162  1.00  0.00     0.032 A 
ATOM     22  C   UNL A   1      32.104  19.836  23.030  1.00  0.00     0.049 A 
ATOM     23  C   UNL A   1      33.936  20.175  24.562  1.00  0.00     0.049 A 
ATOM     24  C   UNL A   1      32.999  19.324  23.979  1.00  0.00     0.129 A 
BRANCH  24  25
ATOM     25  O   UNL A   1      32.851  17.992  24.242  1.00  0.00    -0.406 OA
BRANCH  25  26
ATOM     26  C   UNL A   1      33.799  17.101  23.672  1.00  0.00     0.573 C 
ATOM     27  F   UNL A   1      33.929  17.305  22.343  1.00  0.00    -0.132 F 
ATOM     28  F   UNL A   1      35.003  17.232  24.268  1.00  0.00    -0.132 F 
ATOM     29  F   UNL A   1      33.371  15.833  23.859  1.00  0.00    -0.132 F 
ENDBRANCH  25  26
ENDBRANCH  24  25
ENDBRANCH   8  19
ENDBRANCH   4   6
ENDBRANCH   3   4
ENDBRANCH   2   3
ENDBRANCH   1   2
BRANCH   1  30
ATOM     30  O   UNL A   1      32.697  29.885  25.450  1.00  0.00    -0.374 OA
BRANCH  30  31
ATOM     31  C   UNL A   1      33.337  29.908  26.719  1.00  0.00     0.202 C 
BRANCH  31  32
ATOM     32  C   UNL A   1      33.434  31.233  27.458  1.00  0.00     0.261 C 
BRANCH  32  33
ATOM     33  O   UNL A   1      34.762  31.594  27.805  1.00  0.00    -0.460 OA
BRANCH  33  34
ATOM     34  C   UNL A   1      34.897  31.907  29.115  1.00  0.00     0.338 C 
ATOM     35  O   UNL A   1      34.230  32.695  29.763  1.00  0.00    -0.246 OA
BRANCH  34  36
ATOM     36  C   UNL A   1      36.136  31.310  29.613  1.00  0.00     0.060 A 
ATOM     37  C   UNL A   1      37.223  32.168  29.801  1.00  0.00     0.016 A 
ATOM     38  C   UNL A   1      36.279  29.916  29.595  1.00  0.00     0.016 A 
ATOM     39  C   UNL A   1      38.490  31.630  29.816  1.00  0.00     0.010 A 
ATOM     40  C   UNL A   1      37.543  29.383  29.569  1.00  0.00     0.010 A 
ATOM     41  C   UNL A   1      38.633  30.250  29.629  1.00  0.00    -0.014 A 
BRANCH  41  42
ATOM     42  C   UNL A   1      39.955  29.670  29.747  1.00  0.00     0.031 A 
ATOM     43  C   UNL A   1      40.390  29.633  31.169  1.00  0.00     0.074 A 
ATOM     44  C   UNL A   1      40.574  29.107  28.689  1.00  0.00     0.049 A 
ATOM     45  N   UNL A   1      41.433  30.189  31.684  1.00  0.00    -0.248 NA
ATOM     46  C   UNL A   1      39.457  29.082  32.176  1.00  0.00     0.031 C 
ATOM     47  C   UNL A   1      40.024  28.936  27.340  1.00  0.00     0.029 A 
ATOM     48  N   UNL A   1      41.772  28.458  28.610  1.00  0.00    -0.354 N 
ATOM     49  C   UNL A   1      41.406  29.848  33.035  1.00  0.00     0.074 A 
ATOM     50  C   UNL A   1      40.085  29.370  33.315  1.00  0.00     0.031 C 
ATOM     51  C   UNL A   1      40.770  28.040  26.656  1.00  0.00     0.029 A 
ATOM     52  C   UNL A   1      41.909  27.660  27.472  1.00  0.00     0.049 A 
ATOM     53  H   UNL A   1      42.476  28.544  29.293  1.00  0.00     0.167 HD
ATOM     54  C   UNL A   1      42.579  29.642  33.691  1.00  0.00     0.037 A 
ATOM     55  C   UNL A   1      42.856  26.707  27.266  1.00  0.00     0.037 A 
ATOM     56  C   UNL A   1      43.652  30.303  32.992  1.00  0.00     0.049 A 
ATOM     57  C   UNL A   1      43.956  26.977  28.220  1.00  0.00     0.074 A 
ATOM     58  C   UNL A   1      44.023  31.608  32.749  1.00  0.00     0.029 A 
ATOM     59  N   UNL A   1      44.254  29.522  32.044  1.00  0.00    -0.354 N 
ATOM     60  N   UNL A   1      44.750  28.006  28.129  1.00  0.00    -0.248 NA
ATOM     61  C   UNL A   1      43.945  26.306  29.513  1.00  0.00     0.031 C 
ATOM     62  C   UNL A   1      44.704  31.593  31.495  1.00  0.00     0.029 A 
ATOM     63  C   UNL A   1      44.789  30.277  31.041  1.00  0.00     0.049 A 
ATOM     64  H   UNL A   1      44.297  28.539  32.081  1.00  0.00     0.167 HD
ATOM     65  C   UNL A   1      44.978  28.377  29.441  1.00  0.00     0.074 A 
ATOM     66  C   UNL A   1      44.613  27.209  30.236  1.00  0.00     0.031 C 
ATOM     67  C   UNL A   1      45.123  29.696  29.760  1.00  0.00     0.037 A 
BRANCH  54  68
ATOM     68  C   UNL A   1      42.844  28.412  34.551  1.00  0.00     0.064 A 
ATOM     69  C   UNL A   1      43.300  28.608  35.873  1.00  0.00     0.173 A 
ATOM     70  C   UNL A   1      42.998  27.096  34.057  1.00  0.00     0.173 A 
ATOM     71  F   UNL A   1      43.225  29.818  36.447  1.00  0.00    -0.203 F 
ATOM     72  C   UNL A   1      43.938  27.597  36.597  1.00  0.00     0.198 A 
ATOM     73  C   UNL A   1      43.595  26.078  34.800  1.00  0.00     0.198 A 
ATOM     74  F   UNL A   1      42.688  26.749  32.805  1.00  0.00    -0.203 F 
ATOM     75  F   UNL A   1      44.471  27.872  37.795  1.00  0.00    -0.200 F 
ATOM     76  C   UNL A   1      44.094  26.335  36.057  1.00  0.00     0.200 A 
ATOM     77  F   UNL A   1      43.756  24.868  34.244  1.00  0.00    -0.200 F 
ATOM     78  F   UNL A   1      44.760  25.382  36.721  1.00  0.00    -0.200 F 
ENDBRANCH  54  68
BRANCH  55  79
ATOM     79  C   UNL A   1      42.784  25.430  26.508  1.00  0.00     0.064 A 
ATOM     80  C   UNL A   1      43.681  25.160  25.456  1.00  0.00     0.173 A 
ATOM     81  C   UNL A   1      42.041  24.333  26.984  1.00  0.00     0.173 A 
ATOM     82  F   UNL A   1      44.458  26.137  24.965  1.00  0.00    -0.203 F 
ATOM     83  C   UNL A   1      43.855  23.869  24.947  1.00  0.00     0.198 A 
ATOM     84  C   UNL A   1      42.210  23.046  26.469  1.00  0.00     0.198 A 
ATOM     85  F   UNL A   1      41.210  24.465  28.027  1.00  0.00    -0.203 F 
ATOM     86  F   UNL A   1      44.775  23.641  23.998  1.00  0.00    -0.200 F 
ATOM     87  C   UNL A   1      43.129  22.809  25.463  1.00  0.00     0.200 A 
ATOM     88  F   UNL A   1      41.527  22.024  27.003  1.00  0.00    -0.200 F 
ATOM     89  F   UNL A   1      43.345  21.561  25.027  1.00  0.00    -0.200 F 
ENDBRANCH  55  79
BRANCH  67  90
ATOM     90  C   UNL A   1      45.526  30.629  28.659  1.00  0.00     0.064 A 
ATOM     91  C   UNL A   1      44.636  31.272  27.782  1.00  0.00     0.173 A 
ATOM     92  C   UNL A   1      46.887  30.943  28.549  1.00  0.00     0.173 A 
ATOM     93  F   UNL A   1      43.313  31.090  27.883  1.00  0.00    -0.203 F 
ATOM     94  C   UNL A   1      45.104  32.153  26.807  1.00  0.00     0.198 A 
ATOM     95  C   UNL A   1      47.344  31.856  27.606  1.00  0.00     0.198 A 
ATOM     96  F   UNL A   1      47.775  30.389  29.389  1.00  0.00    -0.203 F 
ATOM     97  F   UNL A   1      44.243  32.737  25.960  1.00  0.00    -0.200 F 
ATOM     98  C   UNL A   1      46.455  32.450  26.727  1.00  0.00     0.200 A 
ATOM     99  F   UNL A   1      48.646  32.174  27.567  1.00  0.00    -0.200 F 
ATOM    100  F   UNL A   1      46.900  33.325  25.814  1.00  0.00    -0.200 F 
ENDBRANCH  67  90
ENDBRANCH  41  42
ENDBRANCH  34  36
ENDBRANCH  33  34
ENDBRANCH  32  33
ENDBRANCH  31  32
ENDBRANCH  30  31
ENDBRANCH   1  30
TORSDOF 19
ENDMDL
MODEL 3
REMARK VINA RESULT:     -11.5      2.593      6.954
REMARK SMILES COc1cccc(-c2c(C(=O)OCCOCCOC(=O)c3ccc(-c4c5nc(c(-c6c(F)c(F)c(F)c(F)c6F)c6ccc([nH]6)c(-c6c(F)c(F)c(F)c(F)c6F)c6nc(c(-c7c(F)c(F)c(F)c(F)c7F)c7ccc4[nH]7)C=C6)C=C5)cc3)nnn2-c2ccc(OC(F)(F)F)cc2)c1
REMARK SMILES IDX 14 1 13 2 12 3 10 4 11 5 9 6 8 7 86 8 84 9 85 10 7 11 3 12
REMARK SMILES IDX 4 13 98 14 5 15 6 16 2 17 1 18 87 19 88 20 97 21 89 22 96 23
REMARK SMILES IDX 90 24 91 25 92 26 93 27 94 28 95 29 15 30 16 31 17 32 18 33
REMARK SMILES IDX 19 34 20 35 21 36 22 37 83 38 23 39 82 40 24 41 25 42 26 43
REMARK SMILES IDX 76 44 27 45 81 46 75 47 77 48 28 49 80 50 74 51 73 52 29 54
REMARK SMILES IDX 61 55 41 56 60 57 42 58 45 59 59 60 78 61 43 62 44 63 58 65
REMARK SMILES IDX 79 66 46 67 30 68 31 69 39 70 32 71 33 72 37 73 40 74 34 75
REMARK SMILES IDX 35 76 38 77 36 78 62 79 63 80 71 81 64 82 65 83 69 84 72 85
REMARK SMILES IDX 66 86 67 87 70 88 68 89 47 90 48 91 56 92 49 93 50 94 54 95
REMARK SMILES IDX 57 96 51 97 52 98 55 99 53 100
REMARK H PARENT 77 53 45 64
REMARK Flexibility Score: inf
ROOT
ATOM      1  C   UNL A   1      31.677  29.241  26.073  1.00  0.00     0.202 C 
ENDROOT
BRANCH   1   2
ATOM      2  C   UNL A   1      31.239  27.826  25.691  1.00  0.00     0.261 C 
BRANCH   2   3
ATOM      3  O   UNL A   1      31.275  26.919  26.806  1.00  0.00    -0.458 OA
BRANCH   3   4
ATOM      4  C   UNL A   1      30.749  25.683  26.567  1.00  0.00     0.361 C 
ATOM      5  O   UNL A   1      29.566  25.472  26.306  1.00  0.00    -0.244 OA
BRANCH   4   6
ATOM      6  C   UNL A   1      31.749  24.631  26.532  1.00  0.00     0.198 A 
ATOM      7  C   UNL A   1      32.681  24.307  25.554  1.00  0.00     0.109 A 
ATOM      8  N   UNL A   1      33.444  23.327  26.187  1.00  0.00    -0.212 N 
ATOM      9  N   UNL A   1      31.824  23.704  27.548  1.00  0.00    -0.122 NA
ATOM     10  N   UNL A   1      32.773  22.833  27.248  1.00  0.00    -0.061 NA
BRANCH   7  11
ATOM     11  C   UNL A   1      32.932  24.789  24.195  1.00  0.00     0.007 A 
ATOM     12  C   UNL A   1      33.612  26.605  22.716  1.00  0.00     0.119 A 
ATOM     13  C   UNL A   1      33.243  25.835  21.616  1.00  0.00     0.046 A 
ATOM     14  C   UNL A   1      33.460  26.082  23.999  1.00  0.00     0.056 A 
ATOM     15  C   UNL A   1      32.760  24.537  21.794  1.00  0.00     0.005 A 
ATOM     16  C   UNL A   1      32.607  24.013  23.079  1.00  0.00     0.011 A 
BRANCH  12  17
ATOM     17  O   UNL A   1      34.030  27.876  22.431  1.00  0.00    -0.497 OA
ATOM     18  C   UNL A   1      33.062  28.902  22.620  1.00  0.00     0.278 C 
ENDBRANCH  12  17
ENDBRANCH   7  11
BRANCH   8  19
ATOM     19  C   UNL A   1      34.766  22.916  25.910  1.00  0.00     0.067 A 
ATOM     20  C   UNL A   1      35.762  23.865  25.669  1.00  0.00     0.032 A 
ATOM     21  C   UNL A   1      35.065  21.550  25.845  1.00  0.00     0.032 A 
ATOM     22  C   UNL A   1      37.072  23.434  25.441  1.00  0.00     0.049 A 
ATOM     23  C   UNL A   1      36.367  21.130  25.568  1.00  0.00     0.049 A 
ATOM     24  C   UNL A   1      37.383  22.068  25.391  1.00  0.00     0.129 A 
BRANCH  24  25
ATOM     25  O   UNL A   1      38.702  21.791  25.166  1.00  0.00    -0.406 OA
BRANCH  25  26
ATOM     26  C   UNL A   1      39.600  21.945  26.254  1.00  0.00     0.573 C 
ATOM     27  F   UNL A   1      39.827  20.767  26.875  1.00  0.00    -0.132 F 
ATOM     28  F   UNL A   1      40.775  22.469  25.841  1.00  0.00    -0.132 F 
ATOM     29  F   UNL A   1      39.053  22.792  27.153  1.00  0.00    -0.132 F 
ENDBRANCH  25  26
ENDBRANCH  24  25
ENDBRANCH   8  19
ENDBRANCH   4   6
ENDBRANCH   3   4
ENDBRANCH   2   3
ENDBRANCH   1   2
BRANCH   1  30
ATOM     30  O   UNL A   1      33.032  29.438  26.468  1.00  0.00    -0.374 OA
BRANCH  30  31
ATOM     31  C   UNL A   1      33.375  30.524  27.319  1.00  0.00     0.202 C 
BRANCH  31  32
ATOM     32  C   UNL A   1      34.845  30.780  27.611  1.00  0.00     0.261 C 
BRANCH  32  33
ATOM     33  O   UNL A   1      35.552  29.622  28.027  1.00  0.00    -0.460 OA
BRANCH  33  34
ATOM     34  C   UNL A   1      36.353  29.848  29.094  1.00  0.00     0.338 C 
ATOM     35  O   UNL A   1      36.172  30.640  30.004  1.00  0.00    -0.246 OA
BRANCH  34  36
ATOM     36  C   UNL A   1      37.617  29.143  28.887  1.00  0.00     0.060 A 
ATOM     37  C   UNL A   1      38.090  28.365  29.947  1.00  0.00     0.016 A 
ATOM     38  C   UNL A   1      38.427  29.496  27.799  1.00  0.00     0.016 A 
ATOM     39  C   UNL A   1      39.434  28.068  29.995  1.00  0.00     0.010 A 
ATOM     40  C   UNL A   1      39.772  29.235  27.867  1.00  0.00     0.010 A 
ATOM     41  C   UNL A   1      40.266  28.568  28.987  1.00  0.00    -0.014 A 
BRANCH  41  42
ATOM     42  C   UNL A   1      41.659  28.171  28.981  1.00  0.00     0.031 A 
ATOM     43  C   UNL A   1      41.823  26.834  28.352  1.00  0.00     0.074 A 
ATOM     44  C   UNL A   1      42.636  29.023  29.355  1.00  0.00     0.049 A 
ATOM     45  N   UNL A   1      42.326  25.773  28.887  1.00  0.00    -0.248 NA
ATOM     46  C   UNL A   1      41.176  26.585  27.046  1.00  0.00     0.031 C 
ATOM     47  C   UNL A   1      42.473  30.428  29.745  1.00  0.00     0.029 A 
ATOM     48  N   UNL A   1      43.992  28.866  29.356  1.00  0.00    -0.354 N 
ATOM     49  C   UNL A   1      42.274  24.797  27.893  1.00  0.00     0.074 A 
ATOM     50  C   UNL A   1      41.375  25.278  26.887  1.00  0.00     0.031 C 
ATOM     51  C   UNL A   1      43.674  31.049  29.714  1.00  0.00     0.029 A 
ATOM     52  C   UNL A   1      44.701  30.068  29.415  1.00  0.00     0.049 A 
ATOM     53  H   UNL A   1      44.431  27.986  29.318  1.00  0.00     0.167 HD
ATOM     54  C   UNL A   1      43.262  23.866  27.824  1.00  0.00     0.037 A 
ATOM     55  C   UNL A   1      46.025  30.235  29.160  1.00  0.00     0.037 A 
ATOM     56  C   UNL A   1      43.921  23.760  29.102  1.00  0.00     0.049 A 
ATOM     57  C   UNL A   1      46.657  28.900  29.264  1.00  0.00     0.074 A 
ATOM     58  C   UNL A   1      43.586  23.302  30.357  1.00  0.00     0.029 A 
ATOM     59  N   UNL A   1      44.982  24.612  29.246  1.00  0.00    -0.354 N 
ATOM     60  N   UNL A   1      46.796  28.256  30.388  1.00  0.00    -0.248 NA
ATOM     61  C   UNL A   1      46.800  28.094  28.058  1.00  0.00     0.031 C 
ATOM     62  C   UNL A   1      44.357  24.077  31.275  1.00  0.00     0.029 A 
ATOM     63  C   UNL A   1      45.189  24.935  30.555  1.00  0.00     0.049 A 
ATOM     64  H   UNL A   1      45.528  24.949  28.499  1.00  0.00     0.167 HD
ATOM     65  C   UNL A   1      46.590  26.931  30.049  1.00  0.00     0.074 A 
ATOM     66  C   UNL A   1      46.774  26.875  28.603  1.00  0.00     0.031 C 
ATOM     67  C   UNL A   1      45.971  26.092  30.929  1.00  0.00     0.037 A 
BRANCH  54  68
ATOM     68  C   UNL A   1      43.996  23.529  26.533  1.00  0.00     0.064 A 
ATOM     69  C   UNL A   1      44.074  22.174  26.143  1.00  0.00     0.173 A 
ATOM     70  C   UNL A   1      44.891  24.394  25.859  1.00  0.00     0.173 A 
ATOM     71  F   UNL A   1      43.289  21.253  26.722  1.00  0.00    -0.203 F 
ATOM     72  C   UNL A   1      45.027  21.716  25.229  1.00  0.00     0.198 A 
ATOM     73  C   UNL A   1      45.810  23.940  24.915  1.00  0.00     0.198 A 
ATOM     74  F   UNL A   1      45.004  25.693  26.152  1.00  0.00    -0.203 F 
ATOM     75  F   UNL A   1      45.146  20.403  24.994  1.00  0.00    -0.200 F 
ATOM     76  C   UNL A   1      45.901  22.598  24.622  1.00  0.00     0.200 A 
ATOM     77  F   UNL A   1      46.663  24.811  24.358  1.00  0.00    -0.200 F 
ATOM     78  F   UNL A   1      46.856  22.156  23.795  1.00  0.00    -0.200 F 
ENDBRANCH  54  68
BRANCH  55  79
ATOM     79  C   UNL A   1      46.752  31.392  28.575  1.00  0.00     0.064 A 
ATOM     80  C   UNL A   1      46.295  32.016  27.399  1.00  0.00     0.173 A 
ATOM     81  C   UNL A   1      47.728  32.094  29.308  1.00  0.00     0.173 A 
ATOM     82  F   UNL A   1      45.338  31.439  26.656  1.00  0.00    -0.203 F 
ATOM     83  C   UNL A   1      46.750  33.280  27.007  1.00  0.00     0.198 A 
ATOM     84  C   UNL A   1      48.188  33.351  28.912  1.00  0.00     0.198 A 
ATOM     85  F   UNL A   1      48.181  31.622  30.478  1.00  0.00    -0.203 F 
ATOM     86  F   UNL A   1      46.233  33.873  25.922  1.00  0.00    -0.200 F 
ATOM     87  C   UNL A   1      47.687  33.953  27.773  1.00  0.00     0.200 A 
ATOM     88  F   UNL A   1      49.068  34.007  29.682  1.00  0.00    -0.200 F 
ATOM     89  F   UNL A   1      48.073  35.193  27.440  1.00  0.00    -0.200 F 
ENDBRANCH  55  79
BRANCH  67  90
ATOM     90  C   UNL A   1      45.989  26.479  32.376  1.00  0.00     0.064 A 
ATOM     91  C   UNL A   1      44.987  27.222  33.025  1.00  0.00     0.173 A 
ATOM     92  C   UNL A   1      47.046  25.995  33.159  1.00  0.00     0.173 A 
ATOM     93  F   UNL A   1      43.901  27.644  32.362  1.00  0.00    -0.203 F 
ATOM     94  C   UNL A   1      45.074  27.506  34.387  1.00  0.00     0.198 A 
ATOM     95  C   UNL A   1      47.106  26.241  34.524  1.00  0.00     0.198 A 
ATOM     96  F   UNL A   1      48.008  25.244  32.598  1.00  0.00    -0.203 F 
ATOM     97  F   UNL A   1      44.123  28.240  34.983  1.00  0.00    -0.200 F 
ATOM     98  C   UNL A   1      46.129  27.007  35.136  1.00  0.00     0.200 A 
ATOM     99  F   UNL A   1      48.103  25.714  35.250  1.00  0.00    -0.200 F 
ATOM    100  F   UNL A   1      46.193  27.248  36.453  1.00  0.00    -0.200 F 
ENDBRANCH  67  90
ENDBRANCH  41  42
ENDBRANCH  34  36
ENDBRANCH  33  34
ENDBRANCH  32  33
ENDBRANCH  31  32
ENDBRANCH  30  31
ENDBRANCH   1  30
TORSDOF 19
ENDMDL
