MODEL 1
REMARK VINA RESULT:     -10.6      0.000      0.000
REMARK SMILES CCOC(=O)[C@H](c1ccccc1)N1C(=O)/C(=C/c2ccc(C(=O)OCCOCCOC(=O)c3ccc(-c4c5nc(c(-c6c(F)c(F)c(F)c(F)c6F)c6ccc([nH]6)c(-c6c(F)c(F)c(F)c(F)c6F)c6nc(c(-c7c(F)c(F)c(F)c(F)c7F)c7ccc4[nH]7)C=C6)C=C5)cc3)cc2)SC1=S
REMARK SMILES IDX 25 1 24 2 22 3 23 4 21 5 18 6 19 7 97 8 20 9 96 10 17 11
REMARK SMILES IDX 13 12 14 13 99 14 15 15 16 16 98 17 100 18 6 19 4 20 5 21
REMARK SMILES IDX 3 22 2 23 1 24 7 25 8 26 12 27 9 28 11 29 10 30 26 31 27 32
REMARK SMILES IDX 28 33 29 34 30 35 31 36 32 37 33 38 34 39 95 40 35 41 94 42
REMARK SMILES IDX 36 43 37 44 38 45 88 46 39 47 93 48 87 49 89 50 40 51 92 52
REMARK SMILES IDX 86 53 85 54 41 56 73 57 53 58 72 59 54 60 57 61 71 62 90 63
REMARK SMILES IDX 55 64 56 65 70 67 91 68 58 69 42 70 43 71 51 72 44 73 45 74
REMARK SMILES IDX 49 75 52 76 46 77 47 78 50 79 48 80 74 81 75 82 83 83 76 84
REMARK SMILES IDX 77 85 81 86 84 87 78 88 79 89 82 90 80 91 59 92 60 93 68 94
REMARK SMILES IDX 61 95 62 96 66 97 69 98 63 99 64 100 67 101 65 102
REMARK H PARENT 89 55 57 66
REMARK Flexibility Score: inf
ROOT
ATOM      1  C   UNL A   1      30.590  26.154  24.991  1.00  0.00     0.261 C 
ENDROOT
BRANCH   1   2
ATOM      2  O   UNL A   1      31.509  25.863  26.055  1.00  0.00    -0.460 OA
BRANCH   2   3
ATOM      3  C   UNL A   1      31.486  24.583  26.492  1.00  0.00     0.338 C 
ATOM      4  O   UNL A   1      30.494  23.919  26.755  1.00  0.00    -0.246 OA
BRANCH   3   5
ATOM      5  C   UNL A   1      32.852  24.012  26.493  1.00  0.00     0.060 A 
ATOM      6  C   UNL A   1      35.379  22.863  26.224  1.00  0.00    -0.024 A 
ATOM      7  C   UNL A   1      35.024  23.953  25.426  1.00  0.00     0.009 A 
ATOM      8  C   UNL A   1      34.511  22.419  27.232  1.00  0.00     0.009 A 
ATOM      9  C   UNL A   1      33.761  24.523  25.560  1.00  0.00     0.016 A 
ATOM     10  C   UNL A   1      33.243  22.988  27.364  1.00  0.00     0.016 A 
BRANCH   6  11
ATOM     11  C   UNL A   1      36.548  22.067  25.837  1.00  0.00     0.029 C 
ATOM     12  N   UNL A   1      40.133  22.318  26.358  1.00  0.00    -0.274 N 
ATOM     13  C   UNL A   1      39.013  21.696  25.821  1.00  0.00     0.267 C 
ATOM     14  C   UNL A   1      39.954  23.674  26.547  1.00  0.00     0.149 C 
ATOM     15  O   UNL A   1      39.000  20.682  25.136  1.00  0.00    -0.268 OA
ATOM     16  C   UNL A   1      37.793  22.495  26.095  1.00  0.00     0.081 C 
ATOM     17  S   UNL A   1      38.248  24.003  26.782  1.00  0.00    -0.054 SA
ATOM     18  S   UNL A   1      41.043  24.935  26.493  1.00  0.00    -0.052 S 
BRANCH  12  19
ATOM     19  C   UNL A   1      41.438  21.615  26.277  1.00  0.00     0.232 C 
BRANCH  19  20
ATOM     20  C   UNL A   1      41.264  20.106  26.590  1.00  0.00     0.333 C 
ATOM     21  O   UNL A   1      40.737  19.659  27.605  1.00  0.00    -0.249 OA
BRANCH  20  22
ATOM     22  O   UNL A   1      41.757  19.351  25.564  1.00  0.00    -0.464 OA
BRANCH  22  23
ATOM     23  C   UNL A   1      42.971  18.644  25.854  1.00  0.00     0.229 C 
ATOM     24  C   UNL A   1      44.107  19.174  25.001  1.00  0.00     0.049 C 
ENDBRANCH  22  23
ENDBRANCH  20  22
ENDBRANCH  19  20
BRANCH  19  25
ATOM     25  C   UNL A   1      42.473  22.160  27.263  1.00  0.00    -0.014 A 
ATOM     26  C   UNL A   1      42.128  22.429  28.602  1.00  0.00     0.006 A 
ATOM     27  C   UNL A   1      43.780  22.446  26.835  1.00  0.00     0.006 A 
ATOM     28  C   UNL A   1      43.054  22.998  29.477  1.00  0.00     0.000 A 
ATOM     29  C   UNL A   1      44.699  23.029  27.712  1.00  0.00     0.000 A 
ATOM     30  C   UNL A   1      44.335  23.308  29.027  1.00  0.00     0.000 A 
ENDBRANCH  19  25
ENDBRANCH  12  19
ENDBRANCH   6  11
ENDBRANCH   3   5
ENDBRANCH   2   3
ENDBRANCH   1   2
BRANCH   1  31
ATOM     31  C   UNL A   1      30.751  27.599  24.514  1.00  0.00     0.202 C 
BRANCH  31  32
ATOM     32  O   UNL A   1      30.989  28.572  25.530  1.00  0.00    -0.374 OA
BRANCH  32  33
ATOM     33  C   UNL A   1      31.797  29.697  25.180  1.00  0.00     0.202 C 
BRANCH  33  34
ATOM     34  C   UNL A   1      33.236  29.684  25.710  1.00  0.00     0.261 C 
BRANCH  34  35
ATOM     35  O   UNL A   1      33.277  29.890  27.135  1.00  0.00    -0.460 OA
BRANCH  35  36
ATOM     36  C   UNL A   1      33.781  31.083  27.525  1.00  0.00     0.338 C 
ATOM     37  O   UNL A   1      33.170  32.129  27.695  1.00  0.00    -0.246 OA
BRANCH  36  38
ATOM     38  C   UNL A   1      35.197  30.930  27.904  1.00  0.00     0.060 A 
ATOM     39  C   UNL A   1      35.640  29.646  28.248  1.00  0.00     0.016 A 
ATOM     40  C   UNL A   1      36.058  32.025  27.994  1.00  0.00     0.016 A 
ATOM     41  C   UNL A   1      36.931  29.460  28.737  1.00  0.00     0.010 A 
ATOM     42  C   UNL A   1      37.351  31.839  28.495  1.00  0.00     0.010 A 
ATOM     43  C   UNL A   1      37.779  30.563  28.903  1.00  0.00    -0.014 A 
BRANCH  43  44
ATOM     44  C   UNL A   1      39.049  30.407  29.652  1.00  0.00     0.031 A 
ATOM     45  C   UNL A   1      39.106  30.873  31.082  1.00  0.00     0.074 A 
ATOM     46  C   UNL A   1      40.127  29.845  29.079  1.00  0.00     0.049 A 
ATOM     47  N   UNL A   1      40.123  30.913  31.904  1.00  0.00    -0.248 NA
ATOM     48  C   UNL A   1      37.844  31.360  31.662  1.00  0.00     0.031 C 
ATOM     49  C   UNL A   1      40.180  29.315  27.718  1.00  0.00     0.029 A 
ATOM     50  N   UNL A   1      41.392  29.639  29.572  1.00  0.00    -0.354 N 
ATOM     51  C   UNL A   1      39.625  31.427  33.093  1.00  0.00     0.074 A 
ATOM     52  C   UNL A   1      38.224  31.716  32.879  1.00  0.00     0.031 C 
ATOM     53  C   UNL A   1      41.425  28.868  27.475  1.00  0.00     0.029 A 
ATOM     54  C   UNL A   1      42.260  29.109  28.650  1.00  0.00     0.049 A 
ATOM     55  H   UNL A   1      41.651  29.853  30.497  1.00  0.00     0.167 HD
ATOM     56  C   UNL A   1      40.277  31.629  34.263  1.00  0.00     0.037 A 
ATOM     57  C   UNL A   1      43.583  28.875  28.740  1.00  0.00     0.037 A 
ATOM     58  C   UNL A   1      41.671  31.347  34.473  1.00  0.00     0.049 A 
ATOM     59  C   UNL A   1      44.303  29.178  30.031  1.00  0.00     0.074 A 
ATOM     60  C   UNL A   1      42.429  31.533  35.616  1.00  0.00     0.029 A 
ATOM     61  N   UNL A   1      42.520  30.816  33.513  1.00  0.00    -0.354 N 
ATOM     62  N   UNL A   1      43.825  29.662  31.151  1.00  0.00    -0.248 NA
ATOM     63  C   UNL A   1      45.746  28.898  30.069  1.00  0.00     0.031 C 
ATOM     64  C   UNL A   1      43.745  31.150  35.337  1.00  0.00     0.029 A 
ATOM     65  C   UNL A   1      43.795  30.679  34.034  1.00  0.00     0.049 A 
ATOM     66  H   UNL A   1      42.255  30.573  32.597  1.00  0.00     0.167 HD
ATOM     67  C   UNL A   1      44.897  29.713  32.034  1.00  0.00     0.074 A 
ATOM     68  C   UNL A   1      46.048  29.202  31.323  1.00  0.00     0.031 C 
ATOM     69  C   UNL A   1      44.925  30.147  33.318  1.00  0.00     0.037 A 
BRANCH  56  70
ATOM     70  C   UNL A   1      39.489  32.195  35.406  1.00  0.00     0.064 A 
ATOM     71  C   UNL A   1      38.717  31.373  36.241  1.00  0.00     0.173 A 
ATOM     72  C   UNL A   1      39.540  33.565  35.700  1.00  0.00     0.173 A 
ATOM     73  F   UNL A   1      38.623  30.057  35.993  1.00  0.00    -0.203 F 
ATOM     74  C   UNL A   1      38.012  31.905  37.318  1.00  0.00     0.198 A 
ATOM     75  C   UNL A   1      38.856  34.091  36.793  1.00  0.00     0.198 A 
ATOM     76  F   UNL A   1      40.265  34.394  34.934  1.00  0.00    -0.203 F 
ATOM     77  F   UNL A   1      37.251  31.107  38.080  1.00  0.00    -0.200 F 
ATOM     78  C   UNL A   1      38.089  33.261  37.597  1.00  0.00     0.200 A 
ATOM     79  F   UNL A   1      38.939  35.399  37.067  1.00  0.00    -0.200 F 
ATOM     80  F   UNL A   1      37.418  33.771  38.640  1.00  0.00    -0.200 F 
ENDBRANCH  56  70
BRANCH  57  81
ATOM     81  C   UNL A   1      44.330  28.353  27.564  1.00  0.00     0.064 A 
ATOM     82  C   UNL A   1      44.308  26.991  27.236  1.00  0.00     0.173 A 
ATOM     83  C   UNL A   1      45.112  29.203  26.768  1.00  0.00     0.173 A 
ATOM     84  F   UNL A   1      43.597  26.133  27.982  1.00  0.00    -0.203 F 
ATOM     85  C   UNL A   1      45.061  26.495  26.172  1.00  0.00     0.198 A 
ATOM     86  C   UNL A   1      45.840  28.711  25.687  1.00  0.00     0.198 A 
ATOM     87  F   UNL A   1      45.168  30.515  27.041  1.00  0.00    -0.203 F 
ATOM     88  F   UNL A   1      45.068  25.179  25.916  1.00  0.00    -0.200 F 
ATOM     89  C   UNL A   1      45.823  27.356  25.398  1.00  0.00     0.200 A 
ATOM     90  F   UNL A   1      46.566  29.549  24.935  1.00  0.00    -0.200 F 
ATOM     91  F   UNL A   1      46.550  26.878  24.379  1.00  0.00    -0.200 F 
ENDBRANCH  57  81
BRANCH  69  92
ATOM     92  C   UNL A   1      46.227  30.040  34.057  1.00  0.00     0.064 A 
ATOM     93  C   UNL A   1      47.154  31.092  34.073  1.00  0.00     0.173 A 
ATOM     94  C   UNL A   1      46.525  28.888  34.801  1.00  0.00     0.173 A 
ATOM     95  F   UNL A   1      46.921  32.208  33.367  1.00  0.00    -0.203 F 
ATOM     96  C   UNL A   1      48.342  30.986  34.791  1.00  0.00     0.198 A 
ATOM     97  C   UNL A   1      47.701  28.797  35.540  1.00  0.00     0.198 A 
ATOM     98  F   UNL A   1      45.667  27.857  34.824  1.00  0.00    -0.203 F 
ATOM     99  F   UNL A   1      49.233  31.987  34.760  1.00  0.00    -0.200 F 
ATOM    100  C   UNL A   1      48.610  29.843  35.530  1.00  0.00     0.200 A 
ATOM    101  F   UNL A   1      47.952  27.698  36.264  1.00  0.00    -0.200 F 
ATOM    102  F   UNL A   1      49.750  29.748  36.229  1.00  0.00    -0.200 F 
ENDBRANCH  69  92
ENDBRANCH  43  44
ENDBRANCH  36  38
ENDBRANCH  35  36
ENDBRANCH  34  35
ENDBRANCH  33  34
ENDBRANCH  32  33
ENDBRANCH  31  32
ENDBRANCH   1  31
TORSDOF 20
ENDMDL
MODEL 2
REMARK VINA RESULT:     -10.4      0.555      7.015
REMARK SMILES CCOC(=O)[C@H](c1ccccc1)N1C(=O)/C(=C/c2ccc(C(=O)OCCOCCOC(=O)c3ccc(-c4c5nc(c(-c6c(F)c(F)c(F)c(F)c6F)c6ccc([nH]6)c(-c6c(F)c(F)c(F)c(F)c6F)c6nc(c(-c7c(F)c(F)c(F)c(F)c7F)c7ccc4[nH]7)C=C6)C=C5)cc3)cc2)SC1=S
REMARK SMILES IDX 25 1 24 2 22 3 23 4 21 5 18 6 19 7 97 8 20 9 96 10 17 11
REMARK SMILES IDX 13 12 14 13 99 14 15 15 16 16 98 17 100 18 6 19 4 20 5 21
REMARK SMILES IDX 3 22 2 23 1 24 7 25 8 26 12 27 9 28 11 29 10 30 26 31 27 32
REMARK SMILES IDX 28 33 29 34 30 35 31 36 32 37 33 38 34 39 95 40 35 41 94 42
REMARK SMILES IDX 36 43 37 44 38 45 88 46 39 47 93 48 87 49 89 50 40 51 92 52
REMARK SMILES IDX 86 53 85 54 41 56 73 57 53 58 72 59 54 60 57 61 71 62 90 63
REMARK SMILES IDX 55 64 56 65 70 67 91 68 58 69 42 70 43 71 51 72 44 73 45 74
REMARK SMILES IDX 49 75 52 76 46 77 47 78 50 79 48 80 74 81 75 82 83 83 76 84
REMARK SMILES IDX 77 85 81 86 84 87 78 88 79 89 82 90 80 91 59 92 60 93 68 94
REMARK SMILES IDX 61 95 62 96 66 97 69 98 63 99 64 100 67 101 65 102
REMARK H PARENT 89 55 57 66
REMARK Flexibility Score: inf
ROOT
ATOM      1  C   UNL A   1      30.583  26.272  24.736  1.00  0.00     0.261 C 
ENDROOT
BRANCH   1   2
ATOM      2  O   UNL A   1      31.661  25.843  25.582  1.00  0.00    -0.460 OA
BRANCH   2   3
ATOM      3  C   UNL A   1      31.600  24.547  25.967  1.00  0.00     0.338 C 
ATOM      4  O   UNL A   1      30.589  23.873  26.105  1.00  0.00    -0.246 OA
BRANCH   3   5
ATOM      5  C   UNL A   1      32.961  23.978  26.084  1.00  0.00     0.060 A 
ATOM      6  C   UNL A   1      35.495  22.812  26.037  1.00  0.00    -0.024 A 
ATOM      7  C   UNL A   1      35.187  23.838  25.140  1.00  0.00     0.009 A 
ATOM      8  C   UNL A   1      34.573  22.446  27.029  1.00  0.00     0.009 A 
ATOM      9  C   UNL A   1      33.921  24.417  25.163  1.00  0.00     0.016 A 
ATOM     10  C   UNL A   1      33.302  23.023  27.049  1.00  0.00     0.016 A 
BRANCH   6  11
ATOM     11  C   UNL A   1      36.679  21.988  25.774  1.00  0.00     0.029 C 
ATOM     12  N   UNL A   1      40.240  22.304  26.414  1.00  0.00    -0.274 N 
ATOM     13  C   UNL A   1      39.143  21.629  25.892  1.00  0.00     0.267 C 
ATOM     14  C   UNL A   1      40.052  23.670  26.468  1.00  0.00     0.149 C 
ATOM     15  O   UNL A   1      39.159  20.556  25.306  1.00  0.00    -0.268 OA
ATOM     16  C   UNL A   1      37.912  22.445  26.040  1.00  0.00     0.081 C 
ATOM     17  S   UNL A   1      38.337  24.013  26.602  1.00  0.00    -0.054 SA
ATOM     18  S   UNL A   1      41.142  24.926  26.340  1.00  0.00    -0.052 S 
BRANCH  12  19
ATOM     19  C   UNL A   1      41.548  21.602  26.452  1.00  0.00     0.232 C 
BRANCH  19  20
ATOM     20  C   UNL A   1      41.366  20.136  26.925  1.00  0.00     0.333 C 
ATOM     21  O   UNL A   1      40.912  19.805  28.016  1.00  0.00    -0.249 OA
BRANCH  20  22
ATOM     22  O   UNL A   1      41.758  19.271  25.943  1.00  0.00    -0.464 OA
BRANCH  22  23
ATOM     23  C   UNL A   1      43.106  18.795  26.051  1.00  0.00     0.229 C 
ATOM     24  C   UNL A   1      43.864  19.053  24.763  1.00  0.00     0.049 C 
ENDBRANCH  22  23
ENDBRANCH  20  22
ENDBRANCH  19  20
BRANCH  19  25
ATOM     25  C   UNL A   1      42.550  22.258  27.404  1.00  0.00    -0.014 A 
ATOM     26  C   UNL A   1      43.868  22.533  26.993  1.00  0.00     0.006 A 
ATOM     27  C   UNL A   1      42.181  22.559  28.726  1.00  0.00     0.006 A 
ATOM     28  C   UNL A   1      44.799  23.061  27.889  1.00  0.00     0.000 A 
ATOM     29  C   UNL A   1      43.121  23.074  29.622  1.00  0.00     0.000 A 
ATOM     30  C   UNL A   1      44.427  23.320  29.205  1.00  0.00     0.000 A 
ENDBRANCH  19  25
ENDBRANCH  12  19
ENDBRANCH   6  11
ENDBRANCH   3   5
ENDBRANCH   2   3
ENDBRANCH   1   2
BRANCH   1  31
ATOM     31  C   UNL A   1      30.727  27.753  24.382  1.00  0.00     0.202 C 
BRANCH  31  32
ATOM     32  O   UNL A   1      31.074  28.625  25.457  1.00  0.00    -0.374 OA
BRANCH  32  33
ATOM     33  C   UNL A   1      32.039  29.643  25.187  1.00  0.00     0.202 C 
BRANCH  33  34
ATOM     34  C   UNL A   1      33.451  29.395  25.730  1.00  0.00     0.261 C 
BRANCH  34  35
ATOM     35  O   UNL A   1      33.520  29.620  27.150  1.00  0.00    -0.460 OA
BRANCH  35  36
ATOM     36  C   UNL A   1      33.915  30.861  27.513  1.00  0.00     0.338 C 
ATOM     37  O   UNL A   1      33.232  31.874  27.568  1.00  0.00    -0.246 OA
BRANCH  36  38
ATOM     38  C   UNL A   1      35.297  30.818  28.024  1.00  0.00     0.060 A 
ATOM     39  C   UNL A   1      35.760  29.599  28.538  1.00  0.00     0.016 A 
ATOM     40  C   UNL A   1      36.102  31.958  28.071  1.00  0.00     0.016 A 
ATOM     41  C   UNL A   1      37.009  29.528  29.150  1.00  0.00     0.010 A 
ATOM     42  C   UNL A   1      37.351  31.888  28.696  1.00  0.00     0.010 A 
ATOM     43  C   UNL A   1      37.794  30.682  29.270  1.00  0.00    -0.014 A 
BRANCH  43  44
ATOM     44  C   UNL A   1      38.997  30.667  30.135  1.00  0.00     0.031 A 
ATOM     45  C   UNL A   1      40.285  30.132  29.573  1.00  0.00     0.074 A 
ATOM     46  C   UNL A   1      38.951  31.137  31.394  1.00  0.00     0.049 A 
ATOM     47  N   UNL A   1      41.437  29.945  30.164  1.00  0.00    -0.248 NA
ATOM     48  C   UNL A   1      40.271  29.755  28.150  1.00  0.00     0.031 C 
ATOM     49  C   UNL A   1      37.774  31.720  32.034  1.00  0.00     0.029 A 
ATOM     50  N   UNL A   1      39.922  31.183  32.363  1.00  0.00    -0.354 N 
ATOM     51  C   UNL A   1      42.281  29.432  29.188  1.00  0.00     0.074 A 
ATOM     52  C   UNL A   1      41.504  29.305  27.976  1.00  0.00     0.031 C 
ATOM     53  C   UNL A   1      38.086  32.043  33.302  1.00  0.00     0.029 A 
ATOM     54  C   UNL A   1      39.471  31.660  33.569  1.00  0.00     0.049 A 
ATOM     55  H   UNL A   1      40.852  30.901  32.208  1.00  0.00     0.167 HD
ATOM     56  C   UNL A   1      43.592  29.107  29.293  1.00  0.00     0.037 A 
ATOM     57  C   UNL A   1      40.099  31.747  34.757  1.00  0.00     0.037 A 
ATOM     58  C   UNL A   1      44.363  29.229  30.501  1.00  0.00     0.049 A 
ATOM     59  C   UNL A   1      41.539  31.310  34.866  1.00  0.00     0.074 A 
ATOM     60  C   UNL A   1      45.693  28.910  30.714  1.00  0.00     0.029 A 
ATOM     61  N   UNL A   1      43.869  29.710  31.704  1.00  0.00    -0.354 N 
ATOM     62  N   UNL A   1      42.330  30.827  33.939  1.00  0.00    -0.248 NA
ATOM     63  C   UNL A   1      42.172  31.432  36.188  1.00  0.00     0.031 C 
ATOM     64  C   UNL A   1      45.994  29.163  32.056  1.00  0.00     0.029 A 
ATOM     65  C   UNL A   1      44.865  29.686  32.666  1.00  0.00     0.049 A 
ATOM     66  H   UNL A   1      42.948  30.023  31.852  1.00  0.00     0.167 HD
ATOM     67  C   UNL A   1      43.559  30.621  34.555  1.00  0.00     0.074 A 
ATOM     68  C   UNL A   1      43.412  31.039  35.932  1.00  0.00     0.031 C 
ATOM     69  C   UNL A   1      44.706  30.127  34.027  1.00  0.00     0.037 A 
BRANCH  56  70
ATOM     70  C   UNL A   1      44.274  28.576  28.068  1.00  0.00     0.064 A 
ATOM     71  C   UNL A   1      45.097  29.392  27.276  1.00  0.00     0.173 A 
ATOM     72  C   UNL A   1      44.143  27.228  27.705  1.00  0.00     0.173 A 
ATOM     73  F   UNL A   1      45.243  30.693  27.572  1.00  0.00    -0.203 F 
ATOM     74  C   UNL A   1      45.748  28.881  26.157  1.00  0.00     0.198 A 
ATOM     75  C   UNL A   1      44.817  26.713  26.601  1.00  0.00     0.198 A 
ATOM     76  F   UNL A   1      43.370  26.405  28.430  1.00  0.00    -0.203 F 
ATOM     77  F   UNL A   1      46.499  29.688  25.393  1.00  0.00    -0.200 F 
ATOM     78  C   UNL A   1      45.614  27.541  25.825  1.00  0.00     0.200 A 
ATOM     79  F   UNL A   1      44.695  25.416  26.288  1.00  0.00    -0.200 F 
ATOM     80  F   UNL A   1      46.250  27.048  24.753  1.00  0.00    -0.200 F 
ENDBRANCH  56  70
BRANCH  57  81
ATOM     81  C   UNL A   1      39.368  32.240  35.954  1.00  0.00     0.064 A 
ATOM     82  C   UNL A   1      38.541  31.392  36.702  1.00  0.00     0.173 A 
ATOM     83  C   UNL A   1      39.451  33.584  36.350  1.00  0.00     0.173 A 
ATOM     84  F   UNL A   1      38.407  30.105  36.349  1.00  0.00    -0.203 F 
ATOM     85  C   UNL A   1      37.806  31.873  37.784  1.00  0.00     0.198 A 
ATOM     86  C   UNL A   1      38.740  34.057  37.450  1.00  0.00     0.198 A 
ATOM     87  F   UNL A   1      40.227  34.439  35.666  1.00  0.00    -0.203 F 
ATOM     88  F   UNL A   1      36.979  31.053  38.447  1.00  0.00    -0.200 F 
ATOM     89  C   UNL A   1      37.909  33.204  38.159  1.00  0.00     0.200 A 
ATOM     90  F   UNL A   1      38.851  35.341  37.814  1.00  0.00    -0.200 F 
ATOM     91  F   UNL A   1      37.199  33.667  39.196  1.00  0.00    -0.200 F 
ENDBRANCH  57  81
BRANCH  69  92
ATOM     92  C   UNL A   1      45.909  30.060  34.924  1.00  0.00     0.064 A 
ATOM     93  C   UNL A   1      46.180  28.931  35.709  1.00  0.00     0.173 A 
ATOM     94  C   UNL A   1      46.827  31.121  34.955  1.00  0.00     0.173 A 
ATOM     95  F   UNL A   1      45.326  27.897  35.723  1.00  0.00    -0.203 F 
ATOM     96  C   UNL A   1      47.318  28.875  36.509  1.00  0.00     0.198 A 
ATOM     97  C   UNL A   1      47.977  31.049  35.734  1.00  0.00     0.198 A 
ATOM     98  F   UNL A   1      46.616  32.220  34.215  1.00  0.00    -0.203 F 
ATOM     99  F   UNL A   1      47.538  27.802  37.283  1.00  0.00    -0.200 F 
ATOM    100  C   UNL A   1      48.219  29.929  36.515  1.00  0.00     0.200 A 
ATOM    101  F   UNL A   1      48.854  32.063  35.728  1.00  0.00    -0.200 F 
ATOM    102  F   UNL A   1      49.319  29.868  37.278  1.00  0.00    -0.200 F 
ENDBRANCH  69  92
ENDBRANCH  43  44
ENDBRANCH  36  38
ENDBRANCH  35  36
ENDBRANCH  34  35
ENDBRANCH  33  34
ENDBRANCH  32  33
ENDBRANCH  31  32
ENDBRANCH   1  31
TORSDOF 20
ENDMDL
MODEL 3
REMARK VINA RESULT:     -10.0      1.371      7.101
REMARK SMILES CCOC(=O)[C@H](c1ccccc1)N1C(=O)/C(=C/c2ccc(C(=O)OCCOCCOC(=O)c3ccc(-c4c5nc(c(-c6c(F)c(F)c(F)c(F)c6F)c6ccc([nH]6)c(-c6c(F)c(F)c(F)c(F)c6F)c6nc(c(-c7c(F)c(F)c(F)c(F)c7F)c7ccc4[nH]7)C=C6)C=C5)cc3)cc2)SC1=S
REMARK SMILES IDX 25 1 24 2 22 3 23 4 21 5 18 6 19 7 97 8 20 9 96 10 17 11
REMARK SMILES IDX 13 12 14 13 99 14 15 15 16 16 98 17 100 18 6 19 4 20 5 21
REMARK SMILES IDX 3 22 2 23 1 24 7 25 8 26 12 27 9 28 11 29 10 30 26 31 27 32
REMARK SMILES IDX 28 33 29 34 30 35 31 36 32 37 33 38 34 39 95 40 35 41 94 42
REMARK SMILES IDX 36 43 37 44 38 45 88 46 39 47 93 48 87 49 89 50 40 51 92 52
REMARK SMILES IDX 86 53 85 54 41 56 73 57 53 58 72 59 54 60 57 61 71 62 90 63
REMARK SMILES IDX 55 64 56 65 70 67 91 68 58 69 42 70 43 71 51 72 44 73 45 74
REMARK SMILES IDX 49 75 52 76 46 77 47 78 50 79 48 80 74 81 75 82 83 83 76 84
REMARK SMILES IDX 77 85 81 86 84 87 78 88 79 89 82 90 80 91 59 92 60 93 68 94
REMARK SMILES IDX 61 95 62 96 66 97 69 98 63 99 64 100 67 101 65 102
REMARK H PARENT 89 55 57 66
REMARK Flexibility Score: inf
ROOT
ATOM      1  C   UNL A   1      31.491  25.068  24.732  1.00  0.00     0.261 C 
ENDROOT
BRANCH   1   2
ATOM      2  O   UNL A   1      31.689  23.978  25.645  1.00  0.00    -0.460 OA
BRANCH   2   3
ATOM      3  C   UNL A   1      32.312  22.900  25.115  1.00  0.00     0.338 C 
ATOM      4  O   UNL A   1      31.790  21.989  24.487  1.00  0.00    -0.246 OA
BRANCH   3   5
ATOM      5  C   UNL A   1      33.778  23.017  25.280  1.00  0.00     0.060 A 
ATOM      6  C   UNL A   1      36.490  23.460  25.764  1.00  0.00    -0.024 A 
ATOM      7  C   UNL A   1      35.641  23.131  26.824  1.00  0.00     0.009 A 
ATOM      8  C   UNL A   1      36.003  23.458  24.449  1.00  0.00     0.009 A 
ATOM      9  C   UNL A   1      34.287  22.913  26.581  1.00  0.00     0.016 A 
ATOM     10  C   UNL A   1      34.645  23.244  24.205  1.00  0.00     0.016 A 
BRANCH   6  11
ATOM     11  C   UNL A   1      37.807  24.022  26.075  1.00  0.00     0.029 C 
ATOM     12  N   UNL A   1      41.204  22.740  26.179  1.00  0.00    -0.274 N 
ATOM     13  C   UNL A   1      40.271  23.755  26.346  1.00  0.00     0.267 C 
ATOM     14  C   UNL A   1      40.664  21.482  26.359  1.00  0.00     0.149 C 
ATOM     15  O   UNL A   1      40.500  24.903  26.704  1.00  0.00    -0.268 OA
ATOM     16  C   UNL A   1      38.896  23.240  26.135  1.00  0.00     0.081 C 
ATOM     17  S   UNL A   1      38.952  21.528  25.980  1.00  0.00    -0.054 SA
ATOM     18  S   UNL A   1      41.350  20.073  26.929  1.00  0.00    -0.052 S 
BRANCH  12  19
ATOM     19  C   UNL A   1      42.646  23.086  26.246  1.00  0.00     0.232 C 
BRANCH  19  20
ATOM     20  C   UNL A   1      43.504  21.976  25.583  1.00  0.00     0.333 C 
ATOM     21  O   UNL A   1      44.050  21.060  26.190  1.00  0.00    -0.249 OA
BRANCH  20  22
ATOM     22  O   UNL A   1      43.540  22.153  24.229  1.00  0.00    -0.464 OA
BRANCH  22  23
ATOM     23  C   UNL A   1      44.853  22.208  23.655  1.00  0.00     0.229 C 
ATOM     24  C   UNL A   1      45.666  23.314  24.299  1.00  0.00     0.049 C 
ENDBRANCH  22  23
ENDBRANCH  20  22
ENDBRANCH  19  20
BRANCH  19  25
ATOM     25  C   UNL A   1      43.155  23.250  27.679  1.00  0.00    -0.014 A 
ATOM     26  C   UNL A   1      44.455  23.724  27.938  1.00  0.00     0.006 A 
ATOM     27  C   UNL A   1      42.343  22.885  28.766  1.00  0.00     0.006 A 
ATOM     28  C   UNL A   1      44.940  23.800  29.244  1.00  0.00     0.000 A 
ATOM     29  C   UNL A   1      42.839  22.950  30.071  1.00  0.00     0.000 A 
ATOM     30  C   UNL A   1      44.136  23.401  30.308  1.00  0.00     0.000 A 
ENDBRANCH  19  25
ENDBRANCH  12  19
ENDBRANCH   6  11
ENDBRANCH   3   5
ENDBRANCH   2   3
ENDBRANCH   1   2
BRANCH   1  31
ATOM     31  C   UNL A   1      32.430  26.230  25.063  1.00  0.00     0.202 C 
BRANCH  31  32
ATOM     32  O   UNL A   1      31.966  27.150  26.051  1.00  0.00    -0.374 OA
BRANCH  32  33
ATOM     33  C   UNL A   1      31.740  28.498  25.632  1.00  0.00     0.202 C 
BRANCH  33  34
ATOM     34  C   UNL A   1      32.926  29.458  25.783  1.00  0.00     0.261 C 
BRANCH  34  35
ATOM     35  O   UNL A   1      33.198  29.750  27.166  1.00  0.00    -0.460 OA
BRANCH  35  36
ATOM     36  C   UNL A   1      33.657  31.000  27.405  1.00  0.00     0.338 C 
ATOM     37  O   UNL A   1      33.025  32.047  27.357  1.00  0.00    -0.246 OA
BRANCH  36  38
ATOM     38  C   UNL A   1      35.036  30.938  27.922  1.00  0.00     0.060 A 
ATOM     39  C   UNL A   1      35.493  29.702  28.399  1.00  0.00     0.016 A 
ATOM     40  C   UNL A   1      35.842  32.074  28.009  1.00  0.00     0.016 A 
ATOM     41  C   UNL A   1      36.739  29.609  29.015  1.00  0.00     0.010 A 
ATOM     42  C   UNL A   1      37.088  31.981  28.638  1.00  0.00     0.010 A 
ATOM     43  C   UNL A   1      37.525  30.758  29.175  1.00  0.00    -0.014 A 
BRANCH  43  44
ATOM     44  C   UNL A   1      38.723  30.712  30.046  1.00  0.00     0.031 A 
ATOM     45  C   UNL A   1      40.007  30.167  29.482  1.00  0.00     0.074 A 
ATOM     46  C   UNL A   1      38.678  31.164  31.311  1.00  0.00     0.049 A 
ATOM     47  N   UNL A   1      41.154  29.955  30.076  1.00  0.00    -0.248 NA
ATOM     48  C   UNL A   1      39.994  29.811  28.054  1.00  0.00     0.031 C 
ATOM     49  C   UNL A   1      37.507  31.755  31.955  1.00  0.00     0.029 A 
ATOM     50  N   UNL A   1      39.645  31.182  32.286  1.00  0.00    -0.354 N 
ATOM     51  C   UNL A   1      41.995  29.444  29.097  1.00  0.00     0.074 A 
ATOM     52  C   UNL A   1      41.222  29.346  27.879  1.00  0.00     0.031 C 
ATOM     53  C   UNL A   1      37.817  32.055  33.229  1.00  0.00     0.029 A 
ATOM     54  C   UNL A   1      39.195  31.648  33.497  1.00  0.00     0.049 A 
ATOM     55  H   UNL A   1      40.572  30.889  32.132  1.00  0.00     0.167 HD
ATOM     56  C   UNL A   1      43.300  29.099  29.203  1.00  0.00     0.037 A 
ATOM     57  C   UNL A   1      39.818  31.708  34.689  1.00  0.00     0.037 A 
ATOM     58  C   UNL A   1      44.067  29.192  30.416  1.00  0.00     0.049 A 
ATOM     59  C   UNL A   1      41.251  31.249  34.799  1.00  0.00     0.074 A 
ATOM     60  C   UNL A   1      45.392  28.850  30.631  1.00  0.00     0.029 A 
ATOM     61  N   UNL A   1      43.574  29.662  31.624  1.00  0.00    -0.354 N 
ATOM     62  N   UNL A   1      42.040  30.769  33.868  1.00  0.00    -0.248 NA
ATOM     63  C   UNL A   1      41.879  31.342  36.125  1.00  0.00     0.031 C 
ATOM     64  C   UNL A   1      45.689  29.080  31.978  1.00  0.00     0.029 A 
ATOM     65  C   UNL A   1      44.565  29.609  32.591  1.00  0.00     0.049 A 
ATOM     66  H   UNL A   1      42.657  29.986  31.772  1.00  0.00     0.167 HD
ATOM     67  C   UNL A   1      43.263  30.535  34.486  1.00  0.00     0.074 A 
ATOM     68  C   UNL A   1      43.115  30.936  35.869  1.00  0.00     0.031 C 
ATOM     69  C   UNL A   1      44.405  30.033  33.957  1.00  0.00     0.037 A 
BRANCH  56  70
ATOM     70  C   UNL A   1      43.981  28.577  27.973  1.00  0.00     0.064 A 
ATOM     71  C   UNL A   1      43.638  27.335  27.417  1.00  0.00     0.173 A 
ATOM     72  C   UNL A   1      44.954  29.344  27.316  1.00  0.00     0.173 A 
ATOM     73  F   UNL A   1      42.723  26.557  28.017  1.00  0.00    -0.203 F 
ATOM     74  C   UNL A   1      44.257  26.873  26.259  1.00  0.00     0.198 A 
ATOM     75  C   UNL A   1      45.553  28.891  26.143  1.00  0.00     0.198 A 
ATOM     76  F   UNL A   1      45.317  30.539  27.806  1.00  0.00    -0.203 F 
ATOM     77  F   UNL A   1      43.940  25.667  25.766  1.00  0.00    -0.200 F 
ATOM     78  C   UNL A   1      45.207  27.655  25.618  1.00  0.00     0.200 A 
ATOM     79  F   UNL A   1      46.462  29.652  25.520  1.00  0.00    -0.200 F 
ATOM     80  F   UNL A   1      45.794  27.214  24.497  1.00  0.00    -0.200 F 
ENDBRANCH  56  70
BRANCH  57  81
ATOM     81  C   UNL A   1      39.088  32.194  35.889  1.00  0.00     0.064 A 
ATOM     82  C   UNL A   1      39.209  33.520  36.327  1.00  0.00     0.173 A 
ATOM     83  C   UNL A   1      38.283  31.330  36.645  1.00  0.00     0.173 A 
ATOM     84  F   UNL A   1      39.989  34.379  35.653  1.00  0.00    -0.203 F 
ATOM     85  C   UNL A   1      38.575  33.956  37.489  1.00  0.00     0.198 A 
ATOM     86  C   UNL A   1      37.625  31.774  37.790  1.00  0.00     0.198 A 
ATOM     87  F   UNL A   1      38.134  30.050  36.271  1.00  0.00    -0.203 F 
ATOM     88  F   UNL A   1      38.755  35.213  37.917  1.00  0.00    -0.200 F 
ATOM     89  C   UNL A   1      37.781  33.083  38.217  1.00  0.00     0.200 A 
ATOM     90  F   UNL A   1      36.850  30.930  38.485  1.00  0.00    -0.200 F 
ATOM     91  F   UNL A   1      37.175  33.501  39.337  1.00  0.00    -0.200 F 
ENDBRANCH  57  81
BRANCH  69  92
ATOM     92  C   UNL A   1      45.602  29.936  34.858  1.00  0.00     0.064 A 
ATOM     93  C   UNL A   1      46.517  30.991  34.985  1.00  0.00     0.173 A 
ATOM     94  C   UNL A   1      45.805  28.790  35.643  1.00  0.00     0.173 A 
ATOM     95  F   UNL A   1      46.374  32.100  34.245  1.00  0.00    -0.203 F 
ATOM     96  C   UNL A   1      47.604  30.893  35.850  1.00  0.00     0.198 A 
ATOM     97  C   UNL A   1      46.876  28.708  36.527  1.00  0.00     0.198 A 
ATOM     98  F   UNL A   1      44.953  27.757  35.563  1.00  0.00    -0.203 F 
ATOM     99  F   UNL A   1      48.489  31.897  35.925  1.00  0.00    -0.200 F 
ATOM    100  C   UNL A   1      47.778  29.757  36.626  1.00  0.00     0.200 A 
ATOM    101  F   UNL A   1      47.035  27.615  37.286  1.00  0.00    -0.200 F 
ATOM    102  F   UNL A   1      48.819  29.670  37.465  1.00  0.00    -0.200 F 
ENDBRANCH  69  92
ENDBRANCH  43  44
ENDBRANCH  36  38
ENDBRANCH  35  36
ENDBRANCH  34  35
ENDBRANCH  33  34
ENDBRANCH  32  33
ENDBRANCH  31  32
ENDBRANCH   1  31
TORSDOF 20
ENDMDL
