MODEL 1
REMARK VINA RESULT:     -10.9      0.000      0.000
REMARK SMILES CC[C@@H](C)N(C)C(=O)N1[C@@H](C(=O)OCCOCCOC(=O)c2ccc(-c3c4nc(c(-c5c(F)c(F)c(F)c(F)c5F)c5ccc([nH]5)c(-c5c(F)c(F)c(F)c(F)c5F)c5nc(c(-c6c(F)c(F)c(F)c(F)c6F)c6ccc3[nH]6)C=C5)C=C4)cc2)CC[C@H]2CCCC[C@H]21
REMARK SMILES IDX 15 1 14 2 13 3 11 4 12 5 10 6 9 7 92 8 85 9 87 10 91 11
REMARK SMILES IDX 86 12 88 13 90 14 89 15 7 16 8 17 5 18 6 19 3 20 4 21 2 22
REMARK SMILES IDX 1 23 16 24 17 25 18 26 19 27 20 28 21 29 22 30 23 31 84 32
REMARK SMILES IDX 24 33 83 34 25 35 26 36 27 37 77 38 28 39 82 40 76 41 78 42
REMARK SMILES IDX 29 43 81 44 75 45 74 46 30 48 62 49 42 50 61 51 43 52 46 53
REMARK SMILES IDX 60 54 79 55 44 56 45 57 59 59 80 60 47 61 31 62 32 63 40 64
REMARK SMILES IDX 33 65 34 66 38 67 41 68 35 69 36 70 39 71 37 72 63 73 64 74
REMARK SMILES IDX 72 75 65 76 66 77 70 78 73 79 67 80 68 81 71 82 69 83 48 84
REMARK SMILES IDX 49 85 57 86 50 87 51 88 55 89 58 90 52 91 53 92 56 93 54 94
REMARK H PARENT 78 47 46 58
REMARK Flexibility Score: inf
ROOT
ATOM      1  C   UNL A   1      37.395  22.408  24.468  1.00  0.00     0.202 C 
ENDROOT
BRANCH   1   2
ATOM      2  C   UNL A   1      36.126  23.244  24.306  1.00  0.00     0.261 C 
BRANCH   2   3
ATOM      3  O   UNL A   1      35.135  22.582  23.505  1.00  0.00    -0.462 OA
BRANCH   3   4
ATOM      4  C   UNL A   1      34.339  23.400  22.762  1.00  0.00     0.329 C 
ATOM      5  O   UNL A   1      33.993  23.185  21.606  1.00  0.00    -0.250 OA
BRANCH   4   6
ATOM      6  C   UNL A   1      33.944  24.665  23.534  1.00  0.00     0.197 C 
ATOM      7  N   UNL A   1      32.886  24.542  24.555  1.00  0.00    -0.308 N 
ATOM      8  C   UNL A   1      32.651  25.775  25.331  1.00  0.00     0.091 C 
ATOM      9  C   UNL A   1      33.696  25.857  22.602  1.00  0.00     0.038 C 
ATOM     10  C   UNL A   1      32.524  27.063  24.500  1.00  0.00     0.012 C 
ATOM     11  C   UNL A   1      31.570  25.718  26.413  1.00  0.00     0.025 C 
ATOM     12  C   UNL A   1      33.609  27.147  23.416  1.00  0.00     0.008 C 
ATOM     13  C   UNL A   1      31.141  27.321  23.898  1.00  0.00     0.006 C 
ATOM     14  C   UNL A   1      30.153  26.105  25.997  1.00  0.00     0.002 C 
ATOM     15  C   UNL A   1      29.940  26.749  24.633  1.00  0.00     0.000 C 
BRANCH   7  16
ATOM     16  C   UNL A   1      31.874  23.620  24.361  1.00  0.00     0.320 C 
ATOM     17  O   UNL A   1      31.061  23.741  23.451  1.00  0.00    -0.248 OA
BRANCH  16  18
ATOM     18  N   UNL A   1      31.799  22.594  25.306  1.00  0.00    -0.325 N 
ATOM     19  C   UNL A   1      30.620  22.323  26.132  1.00  0.00     0.149 C 
BRANCH  18  20
ATOM     20  C   UNL A   1      32.816  21.517  25.321  1.00  0.00     0.083 C 
ATOM     21  C   UNL A   1      32.347  20.175  24.745  1.00  0.00     0.031 C 
BRANCH  20  22
ATOM     22  C   UNL A   1      33.411  21.375  26.735  1.00  0.00     0.021 C 
ATOM     23  C   UNL A   1      33.969  22.676  27.291  1.00  0.00     0.006 C 
ENDBRANCH  20  22
ENDBRANCH  18  20
ENDBRANCH  16  18
ENDBRANCH   7  16
ENDBRANCH   4   6
ENDBRANCH   3   4
ENDBRANCH   2   3
ENDBRANCH   1   2
BRANCH   1  24
ATOM     24  O   UNL A   1      37.338  21.351  25.423  1.00  0.00    -0.374 OA
BRANCH  24  25
ATOM     25  C   UNL A   1      37.780  20.065  24.994  1.00  0.00     0.202 C 
BRANCH  25  26
ATOM     26  C   UNL A   1      38.997  19.489  25.724  1.00  0.00     0.261 C 
BRANCH  26  27
ATOM     27  O   UNL A   1      40.074  20.443  25.805  1.00  0.00    -0.460 OA
BRANCH  27  28
ATOM     28  C   UNL A   1      40.718  20.473  26.994  1.00  0.00     0.338 C 
ATOM     29  O   UNL A   1      41.199  19.525  27.602  1.00  0.00    -0.246 OA
BRANCH  28  30
ATOM     30  C   UNL A   1      40.936  21.866  27.423  1.00  0.00     0.060 A 
ATOM     31  C   UNL A   1      40.249  22.869  26.726  1.00  0.00     0.016 A 
ATOM     32  C   UNL A   1      41.853  22.196  28.422  1.00  0.00     0.016 A 
ATOM     33  C   UNL A   1      40.515  24.210  26.989  1.00  0.00     0.010 A 
ATOM     34  C   UNL A   1      42.129  23.544  28.677  1.00  0.00     0.010 A 
ATOM     35  C   UNL A   1      41.488  24.553  27.937  1.00  0.00    -0.014 A 
BRANCH  35  36
ATOM     36  C   UNL A   1      41.931  25.963  28.050  1.00  0.00     0.031 A 
ATOM     37  C   UNL A   1      43.264  26.357  27.479  1.00  0.00     0.074 A 
ATOM     38  C   UNL A   1      41.142  26.884  28.630  1.00  0.00     0.049 A 
ATOM     39  N   UNL A   1      43.872  27.516  27.505  1.00  0.00    -0.248 NA
ATOM     40  C   UNL A   1      44.014  25.300  26.781  1.00  0.00     0.031 C 
ATOM     41  C   UNL A   1      39.810  26.631  29.174  1.00  0.00     0.029 A 
ATOM     42  N   UNL A   1      41.356  28.219  28.862  1.00  0.00    -0.354 N 
ATOM     43  C   UNL A   1      45.074  27.326  26.838  1.00  0.00     0.074 A 
ATOM     44  C   UNL A   1      45.123  25.938  26.436  1.00  0.00     0.031 C 
ATOM     45  C   UNL A   1      39.327  27.774  29.690  1.00  0.00     0.029 A 
ATOM     46  C   UNL A   1      40.331  28.826  29.545  1.00  0.00     0.049 A 
ATOM     47  H   UNL A   1      42.165  28.696  28.568  1.00  0.00     0.167 HD
ATOM     48  C   UNL A   1      46.046  28.233  26.581  1.00  0.00     0.037 A 
ATOM     49  C   UNL A   1      40.234  30.081  30.024  1.00  0.00     0.037 A 
ATOM     50  C   UNL A   1      45.989  29.616  26.978  1.00  0.00     0.049 A 
ATOM     51  C   UNL A   1      41.371  31.045  29.807  1.00  0.00     0.074 A 
ATOM     52  C   UNL A   1      46.901  30.625  26.728  1.00  0.00     0.029 A 
ATOM     53  N   UNL A   1      44.964  30.178  27.724  1.00  0.00    -0.354 N 
ATOM     54  N   UNL A   1      42.491  30.869  29.150  1.00  0.00    -0.248 NA
ATOM     55  C   UNL A   1      41.232  32.379  30.409  1.00  0.00     0.031 C 
ATOM     56  C   UNL A   1      46.456  31.785  27.371  1.00  0.00     0.029 A 
ATOM     57  C   UNL A   1      45.243  31.511  27.980  1.00  0.00     0.049 A 
ATOM     58  H   UNL A   1      44.158  29.702  28.026  1.00  0.00     0.167 HD
ATOM     59  C   UNL A   1      43.183  32.070  29.246  1.00  0.00     0.074 A 
ATOM     60  C   UNL A   1      42.347  32.974  30.008  1.00  0.00     0.031 C 
ATOM     61  C   UNL A   1      44.403  32.394  28.750  1.00  0.00     0.037 A 
BRANCH  48  62
ATOM     62  C   UNL A   1      47.271  27.754  25.860  1.00  0.00     0.064 A 
ATOM     63  C   UNL A   1      48.388  27.255  26.549  1.00  0.00     0.173 A 
ATOM     64  C   UNL A   1      47.313  27.756  24.457  1.00  0.00     0.173 A 
ATOM     65  F   UNL A   1      48.403  27.244  27.890  1.00  0.00    -0.203 F 
ATOM     66  C   UNL A   1      49.508  26.798  25.859  1.00  0.00     0.198 A 
ATOM     67  C   UNL A   1      48.424  27.273  23.771  1.00  0.00     0.198 A 
ATOM     68  F   UNL A   1      46.270  28.219  23.751  1.00  0.00    -0.203 F 
ATOM     69  F   UNL A   1      50.579  26.363  26.538  1.00  0.00    -0.200 F 
ATOM     70  C   UNL A   1      49.523  26.801  24.473  1.00  0.00     0.200 A 
ATOM     71  F   UNL A   1      48.431  27.267  22.431  1.00  0.00    -0.200 F 
ATOM     72  F   UNL A   1      50.599  26.352  23.811  1.00  0.00    -0.200 F 
ENDBRANCH  48  62
BRANCH  49  73
ATOM     73  C   UNL A   1      39.024  30.492  30.783  1.00  0.00     0.064 A 
ATOM     74  C   UNL A   1      37.919  31.056  30.131  1.00  0.00     0.173 A 
ATOM     75  C   UNL A   1      38.952  30.339  32.176  1.00  0.00     0.173 A 
ATOM     76  F   UNL A   1      37.953  31.251  28.805  1.00  0.00    -0.203 F 
ATOM     77  C   UNL A   1      36.793  31.462  30.845  1.00  0.00     0.198 A 
ATOM     78  C   UNL A   1      37.816  30.720  32.885  1.00  0.00     0.198 A 
ATOM     79  F   UNL A   1      39.987  29.812  32.847  1.00  0.00    -0.203 F 
ATOM     80  F   UNL A   1      35.768  32.038  30.204  1.00  0.00    -0.200 F 
ATOM     81  C   UNL A   1      36.740  31.287  32.220  1.00  0.00     0.200 A 
ATOM     82  F   UNL A   1      37.766  30.543  34.212  1.00  0.00    -0.200 F 
ATOM     83  F   UNL A   1      35.655  31.675  32.905  1.00  0.00    -0.200 F 
ENDBRANCH  49  73
BRANCH  61  84
ATOM     84  C   UNL A   1      44.904  33.785  29.010  1.00  0.00     0.064 A 
ATOM     85  C   UNL A   1      45.744  34.067  30.098  1.00  0.00     0.173 A 
ATOM     86  C   UNL A   1      44.580  34.836  28.140  1.00  0.00     0.173 A 
ATOM     87  F   UNL A   1      46.070  33.098  30.967  1.00  0.00    -0.203 F 
ATOM     88  C   UNL A   1      46.223  35.355  30.316  1.00  0.00     0.198 A 
ATOM     89  C   UNL A   1      45.084  36.117  28.344  1.00  0.00     0.198 A 
ATOM     90  F   UNL A   1      43.786  34.617  27.081  1.00  0.00    -0.203 F 
ATOM     91  F   UNL A   1      46.990  35.611  31.386  1.00  0.00    -0.200 F 
ATOM     92  C   UNL A   1      45.900  36.377  29.435  1.00  0.00     0.200 A 
ATOM     93  F   UNL A   1      44.782  37.101  27.485  1.00  0.00    -0.200 F 
ATOM     94  F   UNL A   1      46.371  37.615  29.642  1.00  0.00    -0.200 F 
ENDBRANCH  61  84
ENDBRANCH  35  36
ENDBRANCH  28  30
ENDBRANCH  27  28
ENDBRANCH  26  27
ENDBRANCH  25  26
ENDBRANCH  24  25
ENDBRANCH   1  24
TORSDOF 18
ENDMDL
MODEL 2
REMARK VINA RESULT:     -10.7      4.538     10.140
REMARK SMILES CC[C@@H](C)N(C)C(=O)N1[C@@H](C(=O)OCCOCCOC(=O)c2ccc(-c3c4nc(c(-c5c(F)c(F)c(F)c(F)c5F)c5ccc([nH]5)c(-c5c(F)c(F)c(F)c(F)c5F)c5nc(c(-c6c(F)c(F)c(F)c(F)c6F)c6ccc3[nH]6)C=C5)C=C4)cc2)CC[C@H]2CCCC[C@H]21
REMARK SMILES IDX 15 1 14 2 13 3 11 4 12 5 10 6 9 7 92 8 85 9 87 10 91 11
REMARK SMILES IDX 86 12 88 13 90 14 89 15 7 16 8 17 5 18 6 19 3 20 4 21 2 22
REMARK SMILES IDX 1 23 16 24 17 25 18 26 19 27 20 28 21 29 22 30 23 31 84 32
REMARK SMILES IDX 24 33 83 34 25 35 26 36 27 37 77 38 28 39 82 40 76 41 78 42
REMARK SMILES IDX 29 43 81 44 75 45 74 46 30 48 62 49 42 50 61 51 43 52 46 53
REMARK SMILES IDX 60 54 79 55 44 56 45 57 59 59 80 60 47 61 31 62 32 63 40 64
REMARK SMILES IDX 33 65 34 66 38 67 41 68 35 69 36 70 39 71 37 72 63 73 64 74
REMARK SMILES IDX 72 75 65 76 66 77 70 78 73 79 67 80 68 81 71 82 69 83 48 84
REMARK SMILES IDX 49 85 57 86 50 87 51 88 55 89 58 90 52 91 53 92 56 93 54 94
REMARK H PARENT 78 47 46 58
REMARK Flexibility Score: inf
ROOT
ATOM      1  C   UNL A   1      33.280  29.740  27.013  1.00  0.00     0.202 C 
ENDROOT
BRANCH   1   2
ATOM      2  C   UNL A   1      34.321  28.857  26.326  1.00  0.00     0.261 C 
BRANCH   2   3
ATOM      3  O   UNL A   1      33.733  27.970  25.362  1.00  0.00    -0.462 OA
BRANCH   3   4
ATOM      4  C   UNL A   1      33.295  26.778  25.854  1.00  0.00     0.329 C 
ATOM      5  O   UNL A   1      32.493  26.647  26.772  1.00  0.00    -0.250 OA
BRANCH   4   6
ATOM      6  C   UNL A   1      33.957  25.590  25.144  1.00  0.00     0.197 C 
ATOM      7  N   UNL A   1      33.279  25.036  23.957  1.00  0.00    -0.308 N 
ATOM      8  C   UNL A   1      34.040  23.978  23.267  1.00  0.00     0.091 C 
ATOM      9  C   UNL A   1      34.372  24.488  26.126  1.00  0.00     0.038 C 
ATOM     10  C   UNL A   1      34.624  22.884  24.178  1.00  0.00     0.012 C 
ATOM     11  C   UNL A   1      33.397  23.361  22.022  1.00  0.00     0.025 C 
ATOM     12  C   UNL A   1      35.287  23.483  25.427  1.00  0.00     0.008 C 
ATOM     13  C   UNL A   1      33.654  21.768  24.566  1.00  0.00     0.006 C 
ATOM     14  C   UNL A   1      32.519  22.130  22.234  1.00  0.00     0.002 C 
ATOM     15  C   UNL A   1      32.527  21.450  23.597  1.00  0.00     0.000 C 
BRANCH   7  16
ATOM     16  C   UNL A   1      31.897  25.071  23.901  1.00  0.00     0.320 C 
ATOM     17  O   UNL A   1      31.210  24.224  24.461  1.00  0.00    -0.248 OA
BRANCH  16  18
ATOM     18  N   UNL A   1      31.348  26.084  23.111  1.00  0.00    -0.325 N 
ATOM     19  C   UNL A   1      31.404  26.105  21.647  1.00  0.00     0.149 C 
BRANCH  18  20
ATOM     20  C   UNL A   1      30.407  27.063  23.700  1.00  0.00     0.083 C 
ATOM     21  C   UNL A   1      28.969  26.558  23.870  1.00  0.00     0.031 C 
BRANCH  20  22
ATOM     22  C   UNL A   1      30.475  28.393  22.924  1.00  0.00     0.021 C 
ATOM     23  C   UNL A   1      29.252  29.274  23.123  1.00  0.00     0.006 C 
ENDBRANCH  20  22
ENDBRANCH  18  20
ENDBRANCH  16  18
ENDBRANCH   7  16
ENDBRANCH   4   6
ENDBRANCH   3   4
ENDBRANCH   2   3
ENDBRANCH   1   2
BRANCH   1  24
ATOM     24  O   UNL A   1      32.606  30.685  26.186  1.00  0.00    -0.374 OA
BRANCH  24  25
ATOM     25  C   UNL A   1      31.724  31.601  26.833  1.00  0.00     0.202 C 
BRANCH  25  26
ATOM     26  C   UNL A   1      32.181  33.062  26.878  1.00  0.00     0.261 C 
BRANCH  26  27
ATOM     27  O   UNL A   1      32.719  33.416  28.167  1.00  0.00    -0.460 OA
BRANCH  27  28
ATOM     28  C   UNL A   1      33.873  34.120  28.126  1.00  0.00     0.338 C 
ATOM     29  O   UNL A   1      34.001  35.327  27.964  1.00  0.00    -0.246 OA
BRANCH  28  30
ATOM     30  C   UNL A   1      35.012  33.255  28.482  1.00  0.00     0.060 A 
ATOM     31  C   UNL A   1      34.723  32.032  29.101  1.00  0.00     0.016 A 
ATOM     32  C   UNL A   1      36.334  33.661  28.296  1.00  0.00     0.016 A 
ATOM     33  C   UNL A   1      35.754  31.232  29.585  1.00  0.00     0.010 A 
ATOM     34  C   UNL A   1      37.370  32.863  28.795  1.00  0.00     0.010 A 
ATOM     35  C   UNL A   1      37.082  31.665  29.472  1.00  0.00    -0.014 A 
BRANCH  35  36
ATOM     36  C   UNL A   1      38.152  30.931  30.188  1.00  0.00     0.031 A 
ATOM     37  C   UNL A   1      38.409  31.243  31.635  1.00  0.00     0.074 A 
ATOM     38  C   UNL A   1      38.866  29.979  29.561  1.00  0.00     0.049 A 
ATOM     39  N   UNL A   1      39.321  30.762  32.441  1.00  0.00    -0.248 NA
ATOM     40  C   UNL A   1      37.516  32.232  32.259  1.00  0.00     0.031 C 
ATOM     41  C   UNL A   1      38.673  29.557  28.176  1.00  0.00     0.029 A 
ATOM     42  N   UNL A   1      39.904  29.204  30.012  1.00  0.00    -0.354 N 
ATOM     43  C   UNL A   1      39.117  31.393  33.661  1.00  0.00     0.074 A 
ATOM     44  C   UNL A   1      38.010  32.307  33.486  1.00  0.00     0.031 C 
ATOM     45  C   UNL A   1      39.573  28.603  27.884  1.00  0.00     0.029 A 
ATOM     46  C   UNL A   1      40.427  28.377  29.049  1.00  0.00     0.049 A 
ATOM     47  H   UNL A   1      40.240  29.236  30.936  1.00  0.00     0.167 HD
ATOM     48  C   UNL A   1      39.791  31.218  34.822  1.00  0.00     0.037 A 
ATOM     49  C   UNL A   1      41.495  27.557  29.098  1.00  0.00     0.037 A 
ATOM     50  C   UNL A   1      40.889  30.301  34.991  1.00  0.00     0.049 A 
ATOM     51  C   UNL A   1      42.286  27.452  30.375  1.00  0.00     0.074 A 
ATOM     52  C   UNL A   1      41.609  30.019  36.137  1.00  0.00     0.029 A 
ATOM     53  N   UNL A   1      41.431  29.528  33.976  1.00  0.00    -0.354 N 
ATOM     54  N   UNL A   1      42.071  28.028  31.533  1.00  0.00    -0.248 NA
ATOM     55  C   UNL A   1      43.477  26.591  30.347  1.00  0.00     0.031 C 
ATOM     56  C   UNL A   1      42.626  29.117  35.803  1.00  0.00     0.029 A 
ATOM     57  C   UNL A   1      42.507  28.800  34.460  1.00  0.00     0.049 A 
ATOM     58  H   UNL A   1      41.102  29.500  33.049  1.00  0.00     0.167 HD
ATOM     59  C   UNL A   1      43.086  27.589  32.373  1.00  0.00     0.074 A 
ATOM     60  C   UNL A   1      43.907  26.682  31.598  1.00  0.00     0.031 C 
ATOM     61  C   UNL A   1      43.320  27.910  33.670  1.00  0.00     0.037 A 
BRANCH  48  62
ATOM     62  C   UNL A   1      39.383  32.057  35.996  1.00  0.00     0.064 A 
ATOM     63  C   UNL A   1      39.962  33.310  36.248  1.00  0.00     0.173 A 
ATOM     64  C   UNL A   1      38.367  31.618  36.860  1.00  0.00     0.173 A 
ATOM     65  F   UNL A   1      40.946  33.769  35.460  1.00  0.00    -0.203 F 
ATOM     66  C   UNL A   1      39.555  34.081  37.334  1.00  0.00     0.198 A 
ATOM     67  C   UNL A   1      37.944  32.404  37.927  1.00  0.00     0.198 A 
ATOM     68  F   UNL A   1      37.777  30.430  36.660  1.00  0.00    -0.203 F 
ATOM     69  F   UNL A   1      40.150  35.257  37.579  1.00  0.00    -0.200 F 
ATOM     70  C   UNL A   1      38.542  33.632  38.168  1.00  0.00     0.200 A 
ATOM     71  F   UNL A   1      36.958  31.972  38.726  1.00  0.00    -0.200 F 
ATOM     72  F   UNL A   1      38.146  34.380  39.207  1.00  0.00    -0.200 F 
ENDBRANCH  48  62
BRANCH  49  73
ATOM     73  C   UNL A   1      41.895  26.790  27.890  1.00  0.00     0.064 A 
ATOM     74  C   UNL A   1      41.342  25.532  27.617  1.00  0.00     0.173 A 
ATOM     75  C   UNL A   1      42.847  27.295  26.991  1.00  0.00     0.173 A 
ATOM     76  F   UNL A   1      40.451  24.995  28.463  1.00  0.00    -0.203 F 
ATOM     77  C   UNL A   1      41.734  24.803  26.496  1.00  0.00     0.198 A 
ATOM     78  C   UNL A   1      43.218  26.577  25.858  1.00  0.00     0.198 A 
ATOM     79  F   UNL A   1      43.413  28.490  27.214  1.00  0.00    -0.203 F 
ATOM     80  F   UNL A   1      41.221  23.584  26.280  1.00  0.00    -0.200 F 
ATOM     81  C   UNL A   1      42.666  25.329  25.614  1.00  0.00     0.200 A 
ATOM     82  F   UNL A   1      44.114  27.091  25.004  1.00  0.00    -0.200 F 
ATOM     83  F   UNL A   1      43.040  24.627  24.534  1.00  0.00    -0.200 F 
ENDBRANCH  49  73
BRANCH  61  84
ATOM     84  C   UNL A   1      44.506  27.273  34.334  1.00  0.00     0.064 A 
ATOM     85  C   UNL A   1      45.753  27.915  34.373  1.00  0.00     0.173 A 
ATOM     86  C   UNL A   1      44.385  26.032  34.975  1.00  0.00     0.173 A 
ATOM     87  F   UNL A   1      45.922  29.096  33.760  1.00  0.00    -0.203 F 
ATOM     88  C   UNL A   1      46.840  27.326  35.013  1.00  0.00     0.198 A 
ATOM     89  C   UNL A   1      45.466  25.460  35.639  1.00  0.00     0.198 A 
ATOM     90  F   UNL A   1      43.212  25.380  34.973  1.00  0.00    -0.203 F 
ATOM     91  F   UNL A   1      48.033  27.937  35.002  1.00  0.00    -0.200 F 
ATOM     92  C   UNL A   1      46.694  26.103  35.652  1.00  0.00     0.200 A 
ATOM     93  F   UNL A   1      45.321  24.284  36.268  1.00  0.00    -0.200 F 
ATOM     94  F   UNL A   1      47.740  25.544  36.276  1.00  0.00    -0.200 F 
ENDBRANCH  61  84
ENDBRANCH  35  36
ENDBRANCH  28  30
ENDBRANCH  27  28
ENDBRANCH  26  27
ENDBRANCH  25  26
ENDBRANCH  24  25
ENDBRANCH   1  24
TORSDOF 18
ENDMDL
MODEL 3
REMARK VINA RESULT:     -10.6      1.280      7.578
REMARK SMILES CC[C@@H](C)N(C)C(=O)N1[C@@H](C(=O)OCCOCCOC(=O)c2ccc(-c3c4nc(c(-c5c(F)c(F)c(F)c(F)c5F)c5ccc([nH]5)c(-c5c(F)c(F)c(F)c(F)c5F)c5nc(c(-c6c(F)c(F)c(F)c(F)c6F)c6ccc3[nH]6)C=C5)C=C4)cc2)CC[C@H]2CCCC[C@H]21
REMARK SMILES IDX 15 1 14 2 13 3 11 4 12 5 10 6 9 7 92 8 85 9 87 10 91 11
REMARK SMILES IDX 86 12 88 13 90 14 89 15 7 16 8 17 5 18 6 19 3 20 4 21 2 22
REMARK SMILES IDX 1 23 16 24 17 25 18 26 19 27 20 28 21 29 22 30 23 31 84 32
REMARK SMILES IDX 24 33 83 34 25 35 26 36 27 37 77 38 28 39 82 40 76 41 78 42
REMARK SMILES IDX 29 43 81 44 75 45 74 46 30 48 62 49 42 50 61 51 43 52 46 53
REMARK SMILES IDX 60 54 79 55 44 56 45 57 59 59 80 60 47 61 31 62 32 63 40 64
REMARK SMILES IDX 33 65 34 66 38 67 41 68 35 69 36 70 39 71 37 72 63 73 64 74
REMARK SMILES IDX 72 75 65 76 66 77 70 78 73 79 67 80 68 81 71 82 69 83 48 84
REMARK SMILES IDX 49 85 57 86 50 87 51 88 55 89 58 90 52 91 53 92 56 93 54 94
REMARK H PARENT 78 47 46 58
REMARK Flexibility Score: inf
ROOT
ATOM      1  C   UNL A   1      34.796  21.125  25.605  1.00  0.00     0.202 C 
ENDROOT
BRANCH   1   2
ATOM      2  C   UNL A   1      34.618  22.101  26.767  1.00  0.00     0.261 C 
BRANCH   2   3
ATOM      3  O   UNL A   1      33.837  23.249  26.399  1.00  0.00    -0.462 OA
BRANCH   3   4
ATOM      4  C   UNL A   1      34.415  24.086  25.494  1.00  0.00     0.329 C 
ATOM      5  O   UNL A   1      35.562  24.513  25.564  1.00  0.00    -0.250 OA
BRANCH   4   6
ATOM      6  C   UNL A   1      33.443  24.475  24.373  1.00  0.00     0.197 C 
ATOM      7  N   UNL A   1      32.905  25.849  24.379  1.00  0.00    -0.308 N 
ATOM      8  C   UNL A   1      32.075  26.176  23.205  1.00  0.00     0.091 C 
ATOM      9  C   UNL A   1      32.335  23.433  24.182  1.00  0.00     0.038 C 
ATOM     10  C   UNL A   1      31.013  25.126  22.835  1.00  0.00     0.012 C 
ATOM     11  C   UNL A   1      31.488  27.588  23.142  1.00  0.00     0.025 C 
ATOM     12  C   UNL A   1      31.585  23.702  22.878  1.00  0.00     0.008 C 
ATOM     13  C   UNL A   1      29.708  25.206  23.629  1.00  0.00     0.006 C 
ATOM     14  C   UNL A   1      30.106  27.792  23.760  1.00  0.00     0.002 C 
ATOM     15  C   UNL A   1      29.300  26.566  24.171  1.00  0.00     0.000 C 
BRANCH   7  16
ATOM     16  C   UNL A   1      32.702  26.482  25.593  1.00  0.00     0.320 C 
ATOM     17  O   UNL A   1      31.879  26.069  26.402  1.00  0.00    -0.248 OA
BRANCH  16  18
ATOM     18  N   UNL A   1      33.440  27.650  25.798  1.00  0.00    -0.325 N 
ATOM     19  C   UNL A   1      34.384  28.206  24.825  1.00  0.00     0.149 C 
BRANCH  18  20
ATOM     20  C   UNL A   1      33.090  28.569  26.905  1.00  0.00     0.083 C 
ATOM     21  C   UNL A   1      32.051  29.641  26.552  1.00  0.00     0.031 C 
BRANCH  20  22
ATOM     22  C   UNL A   1      34.370  29.170  27.516  1.00  0.00     0.021 C 
ATOM     23  C   UNL A   1      34.348  30.688  27.597  1.00  0.00     0.006 C 
ENDBRANCH  20  22
ENDBRANCH  18  20
ENDBRANCH  16  18
ENDBRANCH   7  16
ENDBRANCH   4   6
ENDBRANCH   3   4
ENDBRANCH   2   3
ENDBRANCH   1   2
BRANCH   1  24
ATOM     24  O   UNL A   1      36.080  21.103  24.987  1.00  0.00    -0.374 OA
BRANCH  24  25
ATOM     25  C   UNL A   1      36.697  19.828  24.818  1.00  0.00     0.202 C 
BRANCH  25  26
ATOM     26  C   UNL A   1      38.211  19.773  25.049  1.00  0.00     0.261 C 
BRANCH  26  27
ATOM     27  O   UNL A   1      38.700  20.973  25.680  1.00  0.00    -0.460 OA
BRANCH  27  28
ATOM     28  C   UNL A   1      39.796  20.800  26.453  1.00  0.00     0.338 C 
ATOM     29  O   UNL A   1      40.436  19.769  26.615  1.00  0.00    -0.246 OA
BRANCH  28  30
ATOM     30  C   UNL A   1      40.261  22.097  26.978  1.00  0.00     0.060 A 
ATOM     31  C   UNL A   1      39.672  23.254  26.450  1.00  0.00     0.016 A 
ATOM     32  C   UNL A   1      41.304  22.189  27.900  1.00  0.00     0.016 A 
ATOM     33  C   UNL A   1      40.160  24.509  26.801  1.00  0.00     0.010 A 
ATOM     34  C   UNL A   1      41.802  23.451  28.244  1.00  0.00     0.010 A 
ATOM     35  C   UNL A   1      41.256  24.612  27.668  1.00  0.00    -0.014 A 
BRANCH  35  36
ATOM     36  C   UNL A   1      41.915  25.925  27.857  1.00  0.00     0.031 A 
ATOM     37  C   UNL A   1      41.192  27.003  28.614  1.00  0.00     0.074 A 
ATOM     38  C   UNL A   1      43.155  26.144  27.383  1.00  0.00     0.049 A 
ATOM     39  N   UNL A   1      41.554  28.236  28.858  1.00  0.00    -0.248 NA
ATOM     40  C   UNL A   1      39.880  26.639  29.175  1.00  0.00     0.031 C 
ATOM     41  C   UNL A   1      43.973  25.160  26.678  1.00  0.00     0.029 A 
ATOM     42  N   UNL A   1      43.935  27.272  27.420  1.00  0.00    -0.354 N 
ATOM     43  C   UNL A   1      40.517  28.797  29.590  1.00  0.00     0.074 A 
ATOM     44  C   UNL A   1      39.500  27.779  29.735  1.00  0.00     0.031 C 
ATOM     45  C   UNL A   1      45.140  25.732  26.336  1.00  0.00     0.029 A 
ATOM     46  C   UNL A   1      45.134  27.129  26.765  1.00  0.00     0.049 A 
ATOM     47  H   UNL A   1      43.663  28.102  27.872  1.00  0.00     0.167 HD
ATOM     48  C   UNL A   1      40.427  30.048  30.100  1.00  0.00     0.037 A 
ATOM     49  C   UNL A   1      46.098  28.035  26.517  1.00  0.00     0.037 A 
ATOM     50  C   UNL A   1      41.445  31.056  29.958  1.00  0.00     0.049 A 
ATOM     51  C   UNL A   1      45.929  29.447  27.013  1.00  0.00     0.074 A 
ATOM     52  C   UNL A   1      41.468  32.339  30.474  1.00  0.00     0.029 A 
ATOM     53  N   UNL A   1      42.616  30.894  29.234  1.00  0.00    -0.354 N 
ATOM     54  N   UNL A   1      44.961  29.963  27.730  1.00  0.00    -0.248 NA
ATOM     55  C   UNL A   1      46.985  30.405  26.654  1.00  0.00     0.031 C 
ATOM     56  C   UNL A   1      42.627  32.974  30.014  1.00  0.00     0.029 A 
ATOM     57  C   UNL A   1      43.350  32.069  29.253  1.00  0.00     0.049 A 
ATOM     58  H   UNL A   1      42.887  30.067  28.775  1.00  0.00     0.167 HD
ATOM     59  C   UNL A   1      45.296  31.298  27.921  1.00  0.00     0.074 A 
ATOM     60  C   UNL A   1      46.568  31.508  27.261  1.00  0.00     0.031 C 
ATOM     61  C   UNL A   1      44.610  32.264  28.582  1.00  0.00     0.037 A 
BRANCH  48  62
ATOM     62  C   UNL A   1      39.169  30.411  30.834  1.00  0.00     0.064 A 
ATOM     63  C   UNL A   1      39.046  30.241  32.221  1.00  0.00     0.173 A 
ATOM     64  C   UNL A   1      38.085  30.975  30.143  1.00  0.00     0.173 A 
ATOM     65  F   UNL A   1      40.048  29.695  32.925  1.00  0.00    -0.203 F 
ATOM     66  C   UNL A   1      37.876  30.602  32.885  1.00  0.00     0.198 A 
ATOM     67  C   UNL A   1      36.928  31.359  30.814  1.00  0.00     0.198 A 
ATOM     68  F   UNL A   1      38.153  31.162  28.816  1.00  0.00    -0.203 F 
ATOM     69  F   UNL A   1      37.765  30.394  34.205  1.00  0.00    -0.200 F 
ATOM     70  C   UNL A   1      36.822  31.167  32.183  1.00  0.00     0.200 A 
ATOM     71  F   UNL A   1      35.915  31.915  30.135  1.00  0.00    -0.200 F 
ATOM     72  F   UNL A   1      35.700  31.521  32.826  1.00  0.00    -0.200 F 
ENDBRANCH  48  62
BRANCH  49  73
ATOM     73  C   UNL A   1      47.299  27.643  25.734  1.00  0.00     0.064 A 
ATOM     74  C   UNL A   1      48.472  27.223  26.374  1.00  0.00     0.173 A 
ATOM     75  C   UNL A   1      47.301  27.691  24.332  1.00  0.00     0.173 A 
ATOM     76  F   UNL A   1      48.528  27.189  27.714  1.00  0.00    -0.203 F 
ATOM     77  C   UNL A   1      49.606  26.875  25.642  1.00  0.00     0.198 A 
ATOM     78  C   UNL A   1      48.425  27.319  23.601  1.00  0.00     0.198 A 
ATOM     79  F   UNL A   1      46.205  28.096  23.673  1.00  0.00    -0.203 F 
ATOM     80  F   UNL A   1      50.729  26.518  26.279  1.00  0.00    -0.200 F 
ATOM     81  C   UNL A   1      49.579  26.917  24.256  1.00  0.00     0.200 A 
ATOM     82  F   UNL A   1      48.394  27.354  22.261  1.00  0.00    -0.200 F 
ATOM     83  F   UNL A   1      50.669  26.580  23.552  1.00  0.00    -0.200 F 
ENDBRANCH  49  73
BRANCH  61  84
ATOM     84  C   UNL A   1      45.223  33.633  28.628  1.00  0.00     0.064 A 
ATOM     85  C   UNL A   1      46.161  33.980  29.612  1.00  0.00     0.173 A 
ATOM     86  C   UNL A   1      44.905  34.592  27.656  1.00  0.00     0.173 A 
ATOM     87  F   UNL A   1      46.485  33.102  30.574  1.00  0.00    -0.203 F 
ATOM     88  C   UNL A   1      46.742  35.244  29.632  1.00  0.00     0.198 A 
ATOM     89  C   UNL A   1      45.510  35.846  27.661  1.00  0.00     0.198 A 
ATOM     90  F   UNL A   1      44.019  34.308  26.689  1.00  0.00    -0.203 F 
ATOM     91  F   UNL A   1      47.604  35.569  30.606  1.00  0.00    -0.200 F 
ATOM     92  C   UNL A   1      46.422  36.174  28.652  1.00  0.00     0.200 A 
ATOM     93  F   UNL A   1      45.210  36.738  26.706  1.00  0.00    -0.200 F 
ATOM     94  F   UNL A   1      46.991  37.387  28.667  1.00  0.00    -0.200 F 
ENDBRANCH  61  84
ENDBRANCH  35  36
ENDBRANCH  28  30
ENDBRANCH  27  28
ENDBRANCH  26  27
ENDBRANCH  25  26
ENDBRANCH  24  25
ENDBRANCH   1  24
TORSDOF 18
ENDMDL
