MODEL 1
REMARK VINA RESULT:     -11.2      0.000      0.000
REMARK SMILES CC[C@](C)(NC(=O)[C@](C)([NH3+])c1ccccc1)C(=O)OCCOCCOC(=O)c1ccc(-c2c3nc(c(-c4c(F)c(F)c(F)c(F)c4F)c4ccc([nH]4)c(-c4c(F)c(F)c(F)c(F)c4F)c4nc(c(-c5c(F)c(F)c(F)c(F)c5F)c5ccc2[nH]5)C=C4)C=C3)cc1
REMARK SMILES IDX 21 1 20 2 19 3 17 4 18 5 3 6 4 7 2 8 1 9 5 10 6 11 7 13 8 14
REMARK SMILES IDX 9 15 10 16 11 20 12 21 16 22 13 23 15 24 14 25 22 26 23 27
REMARK SMILES IDX 24 28 25 29 26 30 27 31 28 32 29 33 90 34 30 35 89 36 31 37
REMARK SMILES IDX 32 38 33 39 83 40 34 41 88 42 82 43 84 44 35 45 87 46 81 47
REMARK SMILES IDX 80 48 36 50 68 51 48 52 67 53 49 54 52 55 66 56 85 57 50 58
REMARK SMILES IDX 51 59 65 61 86 62 53 63 37 64 38 65 46 66 39 67 40 68 44 69
REMARK SMILES IDX 47 70 41 71 42 72 45 73 43 74 69 75 70 76 78 77 71 78 72 79
REMARK SMILES IDX 76 80 79 81 73 82 74 83 77 84 75 85 54 86 55 87 63 88 56 89
REMARK SMILES IDX 57 90 61 91 64 92 58 93 59 94 62 95 60 96
REMARK H PARENT 5 12 10 17 10 18 10 19 84 49 52 60
REMARK Flexibility Score: inf
ROOT
ATOM      1  C   UNL A   1      33.663  30.416  27.354  1.00  0.00     0.202 C 
ENDROOT
BRANCH   1   2
ATOM      2  C   UNL A   1      34.199  28.987  27.252  1.00  0.00     0.261 C 
BRANCH   2   3
ATOM      3  O   UNL A   1      34.211  28.493  25.891  1.00  0.00    -0.462 OA
BRANCH   3   4
ATOM      4  C   UNL A   1      33.352  27.476  25.654  1.00  0.00     0.331 C 
ATOM      5  O   UNL A   1      33.216  26.530  26.429  1.00  0.00    -0.249 OA
BRANCH   4   6
ATOM      6  C   UNL A   1      32.642  27.515  24.253  1.00  0.00     0.135 C 
ATOM      7  C   UNL A   1      33.247  28.735  23.513  1.00  0.00     0.047 C 
BRANCH   6   8
ATOM      8  C   UNL A   1      31.132  27.757  24.632  1.00  0.00     0.037 C 
ATOM      9  C   UNL A   1      30.166  28.253  23.565  1.00  0.00     0.007 C 
ENDBRANCH   6   8
BRANCH   6  10
ATOM     10  N   UNL A   1      32.466  26.384  23.237  1.00  0.00    -0.335 N 
ATOM     11  C   UNL A   1      33.319  25.521  22.580  1.00  0.00     0.286 C 
ATOM     12  H   UNL A   1      31.523  26.238  22.995  1.00  0.00     0.164 HD
ATOM     13  O   UNL A   1      33.702  25.806  21.447  1.00  0.00    -0.267 OA
BRANCH  11  14
ATOM     14  C   UNL A   1      33.581  24.147  23.273  1.00  0.00     0.196 C 
ATOM     15  C   UNL A   1      33.121  22.987  22.357  1.00  0.00     0.096 C 
BRANCH  14  16
ATOM     16  N   UNL A   1      32.638  24.063  24.381  1.00  0.00    -0.341 N 
ATOM     17  H   UNL A   1      31.686  24.149  24.025  1.00  0.00     0.345 HD
ATOM     18  H   UNL A   1      32.823  24.817  25.043  1.00  0.00     0.345 HD
ATOM     19  H   UNL A   1      32.746  23.164  24.851  1.00  0.00     0.345 HD
ENDBRANCH  14  16
BRANCH  14  20
ATOM     20  C   UNL A   1      35.025  23.882  23.803  1.00  0.00     0.022 A 
ATOM     21  C   UNL A   1      35.464  24.354  25.065  1.00  0.00     0.011 A 
ATOM     22  C   UNL A   1      35.851  22.932  23.178  1.00  0.00     0.011 A 
ATOM     23  C   UNL A   1      36.487  23.703  25.773  1.00  0.00     0.001 A 
ATOM     24  C   UNL A   1      36.901  22.311  23.868  1.00  0.00     0.001 A 
ATOM     25  C   UNL A   1      37.177  22.651  25.187  1.00  0.00     0.000 A 
ENDBRANCH  14  20
ENDBRANCH  11  14
ENDBRANCH   6  10
ENDBRANCH   4   6
ENDBRANCH   3   4
ENDBRANCH   2   3
ENDBRANCH   1   2
BRANCH   1  26
ATOM     26  O   UNL A   1      32.340  30.625  26.872  1.00  0.00    -0.374 OA
BRANCH  26  27
ATOM     27  C   UNL A   1      31.855  31.967  26.883  1.00  0.00     0.202 C 
BRANCH  27  28
ATOM     28  C   UNL A   1      32.791  33.041  27.500  1.00  0.00     0.261 C 
BRANCH  28  29
ATOM     29  O   UNL A   1      32.106  34.226  28.005  1.00  0.00    -0.460 OA
BRANCH  29  30
ATOM     30  C   UNL A   1      32.812  35.159  28.711  1.00  0.00     0.338 C 
ATOM     31  O   UNL A   1      32.450  36.307  28.883  1.00  0.00    -0.246 OA
BRANCH  30  32
ATOM     32  C   UNL A   1      34.076  34.615  29.350  1.00  0.00     0.060 A 
ATOM     33  C   UNL A   1      35.299  34.729  28.686  1.00  0.00     0.016 A 
ATOM     34  C   UNL A   1      34.107  33.984  30.590  1.00  0.00     0.016 A 
ATOM     35  C   UNL A   1      36.479  34.157  29.220  1.00  0.00     0.010 A 
ATOM     36  C   UNL A   1      35.264  33.410  31.138  1.00  0.00     0.010 A 
ATOM     37  C   UNL A   1      36.464  33.454  30.437  1.00  0.00    -0.014 A 
BRANCH  37  38
ATOM     38  C   UNL A   1      37.665  32.757  30.979  1.00  0.00     0.031 A 
ATOM     39  C   UNL A   1      38.356  33.265  32.221  1.00  0.00     0.074 A 
ATOM     40  C   UNL A   1      38.224  31.727  30.315  1.00  0.00     0.049 A 
ATOM     41  N   UNL A   1      39.299  32.701  32.937  1.00  0.00    -0.248 NA
ATOM     42  C   UNL A   1      37.961  34.598  32.698  1.00  0.00     0.031 C 
ATOM     43  C   UNL A   1      37.785  31.228  29.015  1.00  0.00     0.029 A 
ATOM     44  N   UNL A   1      39.300  30.932  30.636  1.00  0.00    -0.354 N 
ATOM     45  C   UNL A   1      39.577  33.584  33.974  1.00  0.00     0.074 A 
ATOM     46  C   UNL A   1      38.755  34.757  33.751  1.00  0.00     0.031 C 
ATOM     47  C   UNL A   1      38.580  30.207  28.649  1.00  0.00     0.029 A 
ATOM     48  C   UNL A   1      39.569  29.963  29.701  1.00  0.00     0.049 A 
ATOM     49  H   UNL A   1      39.827  31.048  31.459  1.00  0.00     0.167 HD
ATOM     50  C   UNL A   1      40.420  33.419  35.025  1.00  0.00     0.037 A 
ATOM     51  C   UNL A   1      40.481  28.970  29.703  1.00  0.00     0.037 A 
ATOM     52  C   UNL A   1      41.265  32.265  35.221  1.00  0.00     0.049 A 
ATOM     53  C   UNL A   1      41.369  28.767  30.906  1.00  0.00     0.074 A 
ATOM     54  C   UNL A   1      42.052  31.943  36.316  1.00  0.00     0.029 A 
ATOM     55  N   UNL A   1      41.467  31.263  34.283  1.00  0.00    -0.354 N 
ATOM     56  N   UNL A   1      41.458  29.479  32.002  1.00  0.00    -0.248 NA
ATOM     57  C   UNL A   1      42.257  27.594  30.887  1.00  0.00     0.031 C 
ATOM     58  C   UNL A   1      42.776  30.784  36.016  1.00  0.00     0.029 A 
ATOM     59  C   UNL A   1      42.390  30.344  34.762  1.00  0.00     0.049 A 
ATOM     60  H   UNL A   1      41.021  31.212  33.407  1.00  0.00     0.167 HD
ATOM     61  C   UNL A   1      42.378  28.825  32.813  1.00  0.00     0.074 A 
ATOM     62  C   UNL A   1      42.806  27.647  32.092  1.00  0.00     0.031 C 
ATOM     63  C   UNL A   1      42.823  29.171  34.046  1.00  0.00     0.037 A 
BRANCH  50  64
ATOM     64  C   UNL A   1      40.453  34.483  36.092  1.00  0.00     0.064 A 
ATOM     65  C   UNL A   1      39.555  34.452  37.172  1.00  0.00     0.173 A 
ATOM     66  C   UNL A   1      41.468  35.452  36.118  1.00  0.00     0.173 A 
ATOM     67  F   UNL A   1      38.571  33.541  37.207  1.00  0.00    -0.203 F 
ATOM     68  C   UNL A   1      39.664  35.358  38.225  1.00  0.00     0.198 A 
ATOM     69  C   UNL A   1      41.591  36.337  37.188  1.00  0.00     0.198 A 
ATOM     70  F   UNL A   1      42.368  35.517  35.125  1.00  0.00    -0.203 F 
ATOM     71  F   UNL A   1      38.781  35.318  39.232  1.00  0.00    -0.200 F 
ATOM     72  C   UNL A   1      40.688  36.291  38.239  1.00  0.00     0.200 A 
ATOM     73  F   UNL A   1      42.599  37.221  37.213  1.00  0.00    -0.200 F 
ATOM     74  F   UNL A   1      40.808  37.141  39.268  1.00  0.00    -0.200 F 
ENDBRANCH  50  64
BRANCH  51  75
ATOM     75  C   UNL A   1      40.547  28.027  28.556  1.00  0.00     0.064 A 
ATOM     76  C   UNL A   1      41.306  28.331  27.415  1.00  0.00     0.173 A 
ATOM     77  C   UNL A   1      39.847  26.812  28.568  1.00  0.00     0.173 A 
ATOM     78  F   UNL A   1      41.975  29.490  27.348  1.00  0.00    -0.203 F 
ATOM     79  C   UNL A   1      41.338  27.471  26.320  1.00  0.00     0.198 A 
ATOM     80  C   UNL A   1      39.907  25.937  27.484  1.00  0.00     0.198 A 
ATOM     81  F   UNL A   1      39.112  26.471  29.635  1.00  0.00    -0.203 F 
ATOM     82  F   UNL A   1      42.026  27.813  25.223  1.00  0.00    -0.200 F 
ATOM     83  C   UNL A   1      40.644  26.272  26.358  1.00  0.00     0.200 A 
ATOM     84  F   UNL A   1      39.247  24.772  27.530  1.00  0.00    -0.200 F 
ATOM     85  F   UNL A   1      40.679  25.441  25.307  1.00  0.00    -0.200 F 
ENDBRANCH  51  75
BRANCH  63  86
ATOM     86  C   UNL A   1      43.807  28.249  34.717  1.00  0.00     0.064 A 
ATOM     87  C   UNL A   1      43.388  27.178  35.522  1.00  0.00     0.173 A 
ATOM     88  C   UNL A   1      45.188  28.426  34.534  1.00  0.00     0.173 A 
ATOM     89  F   UNL A   1      42.082  26.967  35.740  1.00  0.00    -0.203 F 
ATOM     90  C   UNL A   1      44.314  26.344  36.146  1.00  0.00     0.198 A 
ATOM     91  C   UNL A   1      46.109  27.570  35.132  1.00  0.00     0.198 A 
ATOM     92  F   UNL A   1      45.646  29.429  33.769  1.00  0.00    -0.203 F 
ATOM     93  F   UNL A   1      43.891  25.364  36.958  1.00  0.00    -0.200 F 
ATOM     94  C   UNL A   1      45.673  26.536  35.946  1.00  0.00     0.200 A 
ATOM     95  F   UNL A   1      47.421  27.749  34.923  1.00  0.00    -0.200 F 
ATOM     96  F   UNL A   1      46.562  25.731  36.545  1.00  0.00    -0.200 F 
ENDBRANCH  63  86
ENDBRANCH  37  38
ENDBRANCH  30  32
ENDBRANCH  29  30
ENDBRANCH  28  29
ENDBRANCH  27  28
ENDBRANCH  26  27
ENDBRANCH   1  26
TORSDOF 19
ENDMDL
MODEL 2
REMARK VINA RESULT:     -10.9      2.172      3.778
REMARK SMILES CC[C@](C)(NC(=O)[C@](C)([NH3+])c1ccccc1)C(=O)OCCOCCOC(=O)c1ccc(-c2c3nc(c(-c4c(F)c(F)c(F)c(F)c4F)c4ccc([nH]4)c(-c4c(F)c(F)c(F)c(F)c4F)c4nc(c(-c5c(F)c(F)c(F)c(F)c5F)c5ccc2[nH]5)C=C4)C=C3)cc1
REMARK SMILES IDX 21 1 20 2 19 3 17 4 18 5 3 6 4 7 2 8 1 9 5 10 6 11 7 13 8 14
REMARK SMILES IDX 9 15 10 16 11 20 12 21 16 22 13 23 15 24 14 25 22 26 23 27
REMARK SMILES IDX 24 28 25 29 26 30 27 31 28 32 29 33 90 34 30 35 89 36 31 37
REMARK SMILES IDX 32 38 33 39 83 40 34 41 88 42 82 43 84 44 35 45 87 46 81 47
REMARK SMILES IDX 80 48 36 50 68 51 48 52 67 53 49 54 52 55 66 56 85 57 50 58
REMARK SMILES IDX 51 59 65 61 86 62 53 63 37 64 38 65 46 66 39 67 40 68 44 69
REMARK SMILES IDX 47 70 41 71 42 72 45 73 43 74 69 75 70 76 78 77 71 78 72 79
REMARK SMILES IDX 76 80 79 81 73 82 74 83 77 84 75 85 54 86 55 87 63 88 56 89
REMARK SMILES IDX 57 90 61 91 64 92 58 93 59 94 62 95 60 96
REMARK H PARENT 5 12 10 17 10 18 10 19 84 49 52 60
REMARK Flexibility Score: inf
ROOT
ATOM      1  C   UNL A   1      30.651  28.933  23.554  1.00  0.00     0.202 C 
ENDROOT
BRANCH   1   2
ATOM      2  C   UNL A   1      30.114  27.619  22.983  1.00  0.00     0.261 C 
BRANCH   2   3
ATOM      3  O   UNL A   1      29.799  26.652  24.015  1.00  0.00    -0.462 OA
BRANCH   3   4
ATOM      4  C   UNL A   1      30.483  25.488  23.922  1.00  0.00     0.331 C 
ATOM      5  O   UNL A   1      30.255  24.655  23.046  1.00  0.00    -0.249 OA
BRANCH   4   6
ATOM      6  C   UNL A   1      31.491  25.213  25.095  1.00  0.00     0.135 C 
ATOM      7  C   UNL A   1      31.067  26.165  26.242  1.00  0.00     0.047 C 
BRANCH   6   8
ATOM      8  C   UNL A   1      32.876  25.635  24.473  1.00  0.00     0.037 C 
ATOM      9  C   UNL A   1      34.033  25.987  25.397  1.00  0.00     0.007 C 
ENDBRANCH   6   8
BRANCH   6  10
ATOM     10  N   UNL A   1      31.895  23.874  25.716  1.00  0.00    -0.335 N 
ATOM     11  C   UNL A   1      31.581  22.552  25.474  1.00  0.00     0.286 C 
ATOM     12  H   UNL A   1      32.528  23.980  26.461  1.00  0.00     0.164 HD
ATOM     13  O   UNL A   1      30.690  22.019  26.132  1.00  0.00    -0.267 OA
BRANCH  11  14
ATOM     14  C   UNL A   1      32.525  21.784  24.496  1.00  0.00     0.196 C 
ATOM     15  C   UNL A   1      32.073  22.004  23.031  1.00  0.00     0.096 C 
BRANCH  14  16
ATOM     16  N   UNL A   1      32.254  20.366  24.697  1.00  0.00    -0.341 N 
ATOM     17  H   UNL A   1      33.063  19.924  25.134  1.00  0.00     0.345 HD
ATOM     18  H   UNL A   1      32.069  19.924  23.797  1.00  0.00     0.345 HD
ATOM     19  H   UNL A   1      31.440  20.259  25.302  1.00  0.00     0.345 HD
ENDBRANCH  14  16
BRANCH  14  20
ATOM     20  C   UNL A   1      34.058  22.041  24.637  1.00  0.00     0.022 A 
ATOM     21  C   UNL A   1      34.832  22.583  23.582  1.00  0.00     0.011 A 
ATOM     22  C   UNL A   1      34.672  22.009  25.901  1.00  0.00     0.011 A 
ATOM     23  C   UNL A   1      36.008  23.307  23.837  1.00  0.00     0.001 A 
ATOM     24  C   UNL A   1      35.870  22.694  26.149  1.00  0.00     0.001 A 
ATOM     25  C   UNL A   1      36.503  23.397  25.131  1.00  0.00     0.000 A 
ENDBRANCH  14  20
ENDBRANCH  11  14
ENDBRANCH   6  10
ENDBRANCH   4   6
ENDBRANCH   3   4
ENDBRANCH   2   3
ENDBRANCH   1   2
BRANCH   1  26
ATOM     26  O   UNL A   1      32.067  29.047  23.640  1.00  0.00    -0.374 OA
BRANCH  26  27
ATOM     27  C   UNL A   1      32.611  29.367  24.920  1.00  0.00     0.202 C 
BRANCH  27  28
ATOM     28  C   UNL A   1      31.794  30.353  25.797  1.00  0.00     0.261 C 
BRANCH  28  29
ATOM     29  O   UNL A   1      32.333  30.566  27.136  1.00  0.00    -0.460 OA
BRANCH  29  30
ATOM     30  C   UNL A   1      33.217  31.586  27.349  1.00  0.00     0.338 C 
ATOM     31  O   UNL A   1      32.953  32.763  27.197  1.00  0.00    -0.246 OA
BRANCH  30  32
ATOM     32  C   UNL A   1      34.561  31.129  27.883  1.00  0.00     0.060 A 
ATOM     33  C   UNL A   1      34.780  29.777  28.160  1.00  0.00     0.016 A 
ATOM     34  C   UNL A   1      35.628  31.987  28.132  1.00  0.00     0.016 A 
ATOM     35  C   UNL A   1      35.995  29.335  28.737  1.00  0.00     0.010 A 
ATOM     36  C   UNL A   1      36.840  31.571  28.703  1.00  0.00     0.010 A 
ATOM     37  C   UNL A   1      37.025  30.237  29.052  1.00  0.00    -0.014 A 
BRANCH  37  38
ATOM     38  C   UNL A   1      38.275  29.820  29.748  1.00  0.00     0.031 A 
ATOM     39  C   UNL A   1      38.611  30.356  31.118  1.00  0.00     0.074 A 
ATOM     40  C   UNL A   1      39.185  29.045  29.127  1.00  0.00     0.049 A 
ATOM     41  N   UNL A   1      39.554  29.981  31.949  1.00  0.00    -0.248 NA
ATOM     42  C   UNL A   1      37.802  31.484  31.602  1.00  0.00     0.031 C 
ATOM     43  C   UNL A   1      39.096  28.589  27.743  1.00  0.00     0.029 A 
ATOM     44  N   UNL A   1      40.377  28.525  29.577  1.00  0.00    -0.354 N 
ATOM     45  C   UNL A   1      39.425  30.793  33.071  1.00  0.00     0.074 A 
ATOM     46  C   UNL A   1      38.359  31.731  32.783  1.00  0.00     0.031 C 
ATOM     47  C   UNL A   1      40.184  27.851  27.456  1.00  0.00     0.029 A 
ATOM     48  C   UNL A   1      41.034  27.761  28.644  1.00  0.00     0.049 A 
ATOM     49  H   UNL A   1      40.725  28.685  30.484  1.00  0.00     0.167 HD
ATOM     50  C   UNL A   1      40.116  30.742  34.238  1.00  0.00     0.037 A 
ATOM     51  C   UNL A   1      42.171  27.042  28.741  1.00  0.00     0.037 A 
ATOM     52  C   UNL A   1      41.204  29.830  34.504  1.00  0.00     0.049 A 
ATOM     53  C   UNL A   1      42.891  26.950  30.064  1.00  0.00     0.074 A 
ATOM     54  C   UNL A   1      41.876  29.608  35.696  1.00  0.00     0.029 A 
ATOM     55  N   UNL A   1      41.807  29.019  33.555  1.00  0.00    -0.354 N 
ATOM     56  N   UNL A   1      42.620  27.542  31.200  1.00  0.00    -0.248 NA
ATOM     57  C   UNL A   1      44.057  26.054  30.124  1.00  0.00     0.031 C 
ATOM     58  C   UNL A   1      42.924  28.714  35.453  1.00  0.00     0.029 A 
ATOM     59  C   UNL A   1      42.863  28.323  34.127  1.00  0.00     0.049 A 
ATOM     60  H   UNL A   1      41.527  28.946  32.614  1.00  0.00     0.167 HD
ATOM     61  C   UNL A   1      43.553  27.066  32.115  1.00  0.00     0.074 A 
ATOM     62  C   UNL A   1      44.387  26.120  31.406  1.00  0.00     0.031 C 
ATOM     63  C   UNL A   1      43.699  27.383  33.425  1.00  0.00     0.037 A 
BRANCH  50  64
ATOM     64  C   UNL A   1      39.700  31.659  35.359  1.00  0.00     0.064 A 
ATOM     65  C   UNL A   1      40.201  32.968  35.446  1.00  0.00     0.173 A 
ATOM     66  C   UNL A   1      38.695  31.286  36.266  1.00  0.00     0.173 A 
ATOM     67  F   UNL A   1      41.154  33.384  34.598  1.00  0.00    -0.203 F 
ATOM     68  C   UNL A   1      39.724  33.860  36.404  1.00  0.00     0.198 A 
ATOM     69  C   UNL A   1      38.200  32.191  37.203  1.00  0.00     0.198 A 
ATOM     70  F   UNL A   1      38.162  30.055  36.218  1.00  0.00    -0.203 F 
ATOM     71  F   UNL A   1      40.236  35.096  36.477  1.00  0.00    -0.200 F 
ATOM     72  C   UNL A   1      38.716  33.475  37.273  1.00  0.00     0.200 A 
ATOM     73  F   UNL A   1      37.206  31.826  38.026  1.00  0.00    -0.200 F 
ATOM     74  F   UNL A   1      38.238  34.345  38.175  1.00  0.00    -0.200 F 
ENDBRANCH  50  64
BRANCH  51  75
ATOM     75  C   UNL A   1      42.659  26.274  27.566  1.00  0.00     0.064 A 
ATOM     76  C   UNL A   1      42.167  24.989  27.290  1.00  0.00     0.173 A 
ATOM     77  C   UNL A   1      43.632  26.798  26.704  1.00  0.00     0.173 A 
ATOM     78  F   UNL A   1      41.251  24.436  28.098  1.00  0.00    -0.203 F 
ATOM     79  C   UNL A   1      42.650  24.248  26.213  1.00  0.00     0.198 A 
ATOM     80  C   UNL A   1      44.090  26.068  25.608  1.00  0.00     0.198 A 
ATOM     81  F   UNL A   1      44.130  28.023  26.919  1.00  0.00    -0.203 F 
ATOM     82  F   UNL A   1      42.202  23.002  26.007  1.00  0.00    -0.200 F 
ATOM     83  C   UNL A   1      43.607  24.790  25.370  1.00  0.00     0.200 A 
ATOM     84  F   UNL A   1      45.004  26.602  24.786  1.00  0.00    -0.200 F 
ATOM     85  F   UNL A   1      44.068  24.080  24.332  1.00  0.00    -0.200 F 
ENDBRANCH  51  75
BRANCH  63  86
ATOM     86  C   UNL A   1      44.785  26.681  34.196  1.00  0.00     0.064 A 
ATOM     87  C   UNL A   1      46.073  27.225  34.325  1.00  0.00     0.173 A 
ATOM     88  C   UNL A   1      44.528  25.457  34.835  1.00  0.00     0.173 A 
ATOM     89  F   UNL A   1      46.379  28.385  33.727  1.00  0.00    -0.203 F 
ATOM     90  C   UNL A   1      47.069  26.553  35.030  1.00  0.00     0.198 A 
ATOM     91  C   UNL A   1      45.517  24.805  35.568  1.00  0.00     0.198 A 
ATOM     92  F   UNL A   1      43.313  24.893  34.753  1.00  0.00    -0.203 F 
ATOM     93  F   UNL A   1      48.307  27.063  35.088  1.00  0.00    -0.200 F 
ATOM     94  C   UNL A   1      46.789  25.348  35.656  1.00  0.00     0.200 A 
ATOM     95  F   UNL A   1      45.237  23.649  36.185  1.00  0.00    -0.200 F 
ATOM     96  F   UNL A   1      47.748  24.704  36.337  1.00  0.00    -0.200 F 
ENDBRANCH  63  86
ENDBRANCH  37  38
ENDBRANCH  30  32
ENDBRANCH  29  30
ENDBRANCH  28  29
ENDBRANCH  27  28
ENDBRANCH  26  27
ENDBRANCH   1  26
TORSDOF 19
ENDMDL
MODEL 3
REMARK VINA RESULT:     -10.9      2.189      3.426
REMARK SMILES CC[C@](C)(NC(=O)[C@](C)([NH3+])c1ccccc1)C(=O)OCCOCCOC(=O)c1ccc(-c2c3nc(c(-c4c(F)c(F)c(F)c(F)c4F)c4ccc([nH]4)c(-c4c(F)c(F)c(F)c(F)c4F)c4nc(c(-c5c(F)c(F)c(F)c(F)c5F)c5ccc2[nH]5)C=C4)C=C3)cc1
REMARK SMILES IDX 21 1 20 2 19 3 17 4 18 5 3 6 4 7 2 8 1 9 5 10 6 11 7 13 8 14
REMARK SMILES IDX 9 15 10 16 11 20 12 21 16 22 13 23 15 24 14 25 22 26 23 27
REMARK SMILES IDX 24 28 25 29 26 30 27 31 28 32 29 33 90 34 30 35 89 36 31 37
REMARK SMILES IDX 32 38 33 39 83 40 34 41 88 42 82 43 84 44 35 45 87 46 81 47
REMARK SMILES IDX 80 48 36 50 68 51 48 52 67 53 49 54 52 55 66 56 85 57 50 58
REMARK SMILES IDX 51 59 65 61 86 62 53 63 37 64 38 65 46 66 39 67 40 68 44 69
REMARK SMILES IDX 47 70 41 71 42 72 45 73 43 74 69 75 70 76 78 77 71 78 72 79
REMARK SMILES IDX 76 80 79 81 73 82 74 83 77 84 75 85 54 86 55 87 63 88 56 89
REMARK SMILES IDX 57 90 61 91 64 92 58 93 59 94 62 95 60 96
REMARK H PARENT 5 12 10 17 10 18 10 19 84 49 52 60
REMARK Flexibility Score: inf
ROOT
ATOM      1  C   UNL A   1      33.534  28.134  24.709  1.00  0.00     0.202 C 
ENDROOT
BRANCH   1   2
ATOM      2  C   UNL A   1      33.817  27.128  23.592  1.00  0.00     0.261 C 
BRANCH   2   3
ATOM      3  O   UNL A   1      33.962  25.774  24.087  1.00  0.00    -0.462 OA
BRANCH   3   4
ATOM      4  C   UNL A   1      33.347  24.832  23.336  1.00  0.00     0.331 C 
ATOM      5  O   UNL A   1      33.653  24.617  22.164  1.00  0.00    -0.249 OA
BRANCH   4   6
ATOM      6  C   UNL A   1      32.121  24.128  24.021  1.00  0.00     0.135 C 
ATOM      7  C   UNL A   1      30.862  24.780  23.395  1.00  0.00     0.047 C 
BRANCH   6   8
ATOM      8  C   UNL A   1      32.288  24.529  25.536  1.00  0.00     0.037 C 
ATOM      9  C   UNL A   1      31.268  24.040  26.553  1.00  0.00     0.007 C 
ENDBRANCH   6   8
BRANCH   6  10
ATOM     10  N   UNL A   1      31.846  22.632  24.188  1.00  0.00    -0.335 N 
ATOM     11  C   UNL A   1      32.493  21.473  23.812  1.00  0.00     0.286 C 
ATOM     12  H   UNL A   1      31.012  22.455  24.680  1.00  0.00     0.164 HD
ATOM     13  O   UNL A   1      32.156  20.910  22.773  1.00  0.00    -0.267 OA
BRANCH  11  14
ATOM     14  C   UNL A   1      33.490  20.869  24.851  1.00  0.00     0.196 C 
ATOM     15  C   UNL A   1      33.724  19.367  24.560  1.00  0.00     0.096 C 
BRANCH  14  16
ATOM     16  N   UNL A   1      32.781  20.835  26.124  1.00  0.00    -0.341 N 
ATOM     17  H   UNL A   1      33.406  21.140  26.870  1.00  0.00     0.345 HD
ATOM     18  H   UNL A   1      32.466  19.883  26.312  1.00  0.00     0.345 HD
ATOM     19  H   UNL A   1      31.974  21.458  26.080  1.00  0.00     0.345 HD
ENDBRANCH  14  16
BRANCH  14  20
ATOM     20  C   UNL A   1      34.853  21.606  25.039  1.00  0.00     0.022 A 
ATOM     21  C   UNL A   1      35.720  21.879  23.953  1.00  0.00     0.011 A 
ATOM     22  C   UNL A   1      35.143  22.271  26.243  1.00  0.00     0.011 A 
ATOM     23  C   UNL A   1      36.618  22.958  23.988  1.00  0.00     0.001 A 
ATOM     24  C   UNL A   1      36.071  23.320  26.292  1.00  0.00     0.001 A 
ATOM     25  C   UNL A   1      36.761  23.706  25.149  1.00  0.00     0.000 A 
ENDBRANCH  14  20
ENDBRANCH  11  14
ENDBRANCH   6  10
ENDBRANCH   4   6
ENDBRANCH   3   4
ENDBRANCH   2   3
ENDBRANCH   1   2
BRANCH   1  26
ATOM     26  O   UNL A   1      32.787  29.287  24.340  1.00  0.00    -0.374 OA
BRANCH  26  27
ATOM     27  C   UNL A   1      31.578  29.529  25.059  1.00  0.00     0.202 C 
BRANCH  27  28
ATOM     28  C   UNL A   1      31.580  30.735  26.037  1.00  0.00     0.261 C 
BRANCH  28  29
ATOM     29  O   UNL A   1      32.530  30.622  27.139  1.00  0.00    -0.460 OA
BRANCH  29  30
ATOM     30  C   UNL A   1      33.419  31.635  27.364  1.00  0.00     0.338 C 
ATOM     31  O   UNL A   1      33.163  32.814  27.219  1.00  0.00    -0.246 OA
BRANCH  30  32
ATOM     32  C   UNL A   1      34.757  31.166  27.903  1.00  0.00     0.060 A 
ATOM     33  C   UNL A   1      34.997  29.801  28.085  1.00  0.00     0.016 A 
ATOM     34  C   UNL A   1      35.798  32.023  28.245  1.00  0.00     0.016 A 
ATOM     35  C   UNL A   1      36.204  29.341  28.664  1.00  0.00     0.010 A 
ATOM     36  C   UNL A   1      37.002  31.589  28.820  1.00  0.00     0.010 A 
ATOM     37  C   UNL A   1      37.205  30.237  29.075  1.00  0.00    -0.014 A 
BRANCH  37  38
ATOM     38  C   UNL A   1      38.444  29.794  29.775  1.00  0.00     0.031 A 
ATOM     39  C   UNL A   1      38.781  30.315  31.151  1.00  0.00     0.074 A 
ATOM     40  C   UNL A   1      39.345  29.008  29.154  1.00  0.00     0.049 A 
ATOM     41  N   UNL A   1      39.713  29.918  31.985  1.00  0.00    -0.248 NA
ATOM     42  C   UNL A   1      37.989  31.454  31.638  1.00  0.00     0.031 C 
ATOM     43  C   UNL A   1      39.255  28.563  27.766  1.00  0.00     0.029 A 
ATOM     44  N   UNL A   1      40.524  28.464  29.607  1.00  0.00    -0.354 N 
ATOM     45  C   UNL A   1      39.592  30.724  33.111  1.00  0.00     0.074 A 
ATOM     46  C   UNL A   1      38.543  31.682  32.824  1.00  0.00     0.031 C 
ATOM     47  C   UNL A   1      40.332  27.809  27.480  1.00  0.00     0.029 A 
ATOM     48  C   UNL A   1      41.174  27.696  28.673  1.00  0.00     0.049 A 
ATOM     49  H   UNL A   1      40.870  28.613  30.517  1.00  0.00     0.167 HD
ATOM     50  C   UNL A   1      40.274  30.653  34.282  1.00  0.00     0.037 A 
ATOM     51  C   UNL A   1      42.298  26.957  28.771  1.00  0.00     0.037 A 
ATOM     52  C   UNL A   1      41.345  29.721  34.548  1.00  0.00     0.049 A 
ATOM     53  C   UNL A   1      43.009  26.843  30.097  1.00  0.00     0.074 A 
ATOM     54  C   UNL A   1      42.007  29.480  35.742  1.00  0.00     0.029 A 
ATOM     55  N   UNL A   1      41.939  28.906  33.596  1.00  0.00    -0.354 N 
ATOM     56  N   UNL A   1      42.741  27.432  31.236  1.00  0.00    -0.248 NA
ATOM     57  C   UNL A   1      44.159  25.927  30.157  1.00  0.00     0.031 C 
ATOM     58  C   UNL A   1      43.040  28.569  35.499  1.00  0.00     0.029 A 
ATOM     59  C   UNL A   1      42.980  28.189  34.169  1.00  0.00     0.049 A 
ATOM     60  H   UNL A   1      41.664  28.845  32.654  1.00  0.00     0.167 HD
ATOM     61  C   UNL A   1      43.660  26.933  32.152  1.00  0.00     0.074 A 
ATOM     62  C   UNL A   1      44.482  25.979  31.442  1.00  0.00     0.031 C 
ATOM     63  C   UNL A   1      43.804  27.239  33.465  1.00  0.00     0.037 A 
BRANCH  50  64
ATOM     64  C   UNL A   1      39.868  31.570  35.407  1.00  0.00     0.064 A 
ATOM     65  C   UNL A   1      40.470  32.828  35.568  1.00  0.00     0.173 A 
ATOM     66  C   UNL A   1      38.781  31.257  36.240  1.00  0.00     0.173 A 
ATOM     67  F   UNL A   1      41.505  33.186  34.793  1.00  0.00    -0.203 F 
ATOM     68  C   UNL A   1      40.010  33.729  36.526  1.00  0.00     0.198 A 
ATOM     69  C   UNL A   1      38.306  32.173  37.177  1.00  0.00     0.198 A 
ATOM     70  F   UNL A   1      38.152  30.078  36.119  1.00  0.00    -0.203 F 
ATOM     71  F   UNL A   1      40.617  34.915  36.671  1.00  0.00    -0.200 F 
ATOM     72  C   UNL A   1      38.922  33.406  37.321  1.00  0.00     0.200 A 
ATOM     73  F   UNL A   1      37.236  31.870  37.926  1.00  0.00    -0.200 F 
ATOM     74  F   UNL A   1      38.463  34.287  38.221  1.00  0.00    -0.200 F 
ENDBRANCH  50  64
BRANCH  51  75
ATOM     75  C   UNL A   1      42.780  26.189  27.593  1.00  0.00     0.064 A 
ATOM     76  C   UNL A   1      43.781  26.705  26.757  1.00  0.00     0.173 A 
ATOM     77  C   UNL A   1      42.245  24.933  27.272  1.00  0.00     0.173 A 
ATOM     78  F   UNL A   1      44.308  27.911  27.011  1.00  0.00    -0.203 F 
ATOM     79  C   UNL A   1      44.208  26.008  25.628  1.00  0.00     0.198 A 
ATOM     80  C   UNL A   1      42.696  24.223  26.161  1.00  0.00     0.198 A 
ATOM     81  F   UNL A   1      41.291  24.393  28.042  1.00  0.00    -0.203 F 
ATOM     82  F   UNL A   1      45.126  26.550  24.817  1.00  0.00    -0.200 F 
ATOM     83  C   UNL A   1      43.670  24.765  25.335  1.00  0.00     0.200 A 
ATOM     84  F   UNL A   1      42.185  23.014  25.889  1.00  0.00    -0.200 F 
ATOM     85  F   UNL A   1      44.084  24.092  24.253  1.00  0.00    -0.200 F 
ENDBRANCH  51  75
BRANCH  63  86
ATOM     86  C   UNL A   1      44.874  26.513  34.238  1.00  0.00     0.064 A 
ATOM     87  C   UNL A   1      44.628  25.282  34.866  1.00  0.00     0.173 A 
ATOM     88  C   UNL A   1      46.170  27.045  34.331  1.00  0.00     0.173 A 
ATOM     89  F   UNL A   1      43.406  24.732  34.819  1.00  0.00    -0.203 F 
ATOM     90  C   UNL A   1      45.626  24.632  35.588  1.00  0.00     0.198 A 
ATOM     91  C   UNL A   1      47.175  26.375  35.026  1.00  0.00     0.198 A 
ATOM     92  F   UNL A   1      46.466  28.214  33.744  1.00  0.00    -0.203 F 
ATOM     93  F   UNL A   1      45.350  23.488  36.230  1.00  0.00    -0.200 F 
ATOM     94  C   UNL A   1      46.900  25.175  35.662  1.00  0.00     0.200 A 
ATOM     95  F   UNL A   1      48.409  26.895  35.081  1.00  0.00    -0.200 F 
ATOM     96  F   UNL A   1      47.860  24.547  36.355  1.00  0.00    -0.200 F 
ENDBRANCH  63  86
ENDBRANCH  37  38
ENDBRANCH  30  32
ENDBRANCH  29  30
ENDBRANCH  28  29
ENDBRANCH  27  28
ENDBRANCH  26  27
ENDBRANCH   1  26
TORSDOF 19
ENDMDL
