MODEL 1
REMARK VINA RESULT:     -12.1      0.000      0.000
REMARK SMILES C[C@@H](C(=O)OCCOCCOC(=O)c1ccc(-c2c3nc(c(-c4c(F)c(F)c(F)c(F)c4F)c4ccc([nH]4)c(-c4c(F)c(F)c(F)c(F)c4F)c4nc(c(-c5c(F)c(F)c(F)c(F)c5F)c5ccc2[nH]5)C=C4)C=C3)cc1)c1cc(/C=C/S(C)(=O)=O)cc(C(=O)c2ccccc2)c1
REMARK SMILES IDX 7 1 6 2 5 3 3 4 4 5 2 6 1 7 77 8 78 9 96 10 79 11 87 12
REMARK SMILES IDX 86 13 80 14 81 15 82 16 83 17 84 18 85 19 88 20 89 21 90 22
REMARK SMILES IDX 91 23 95 24 92 25 94 26 93 27 8 28 9 29 10 30 11 31 12 32
REMARK SMILES IDX 13 33 14 34 15 35 76 36 16 37 75 38 17 39 18 40 19 41 69 42
REMARK SMILES IDX 20 43 74 44 68 45 70 46 21 47 73 48 67 49 66 50 22 52 54 53
REMARK SMILES IDX 34 54 53 55 35 56 38 57 52 58 71 59 36 60 37 61 51 63 72 64
REMARK SMILES IDX 39 65 23 66 24 67 32 68 25 69 26 70 30 71 33 72 27 73 28 74
REMARK SMILES IDX 31 75 29 76 55 77 56 78 64 79 57 80 58 81 62 82 65 83 59 84
REMARK SMILES IDX 60 85 63 86 61 87 40 88 41 89 49 90 42 91 43 92 47 93 50 94
REMARK SMILES IDX 44 95 45 96 48 97 46 98
REMARK H PARENT 70 51 38 62
REMARK Flexibility Score: inf
ROOT
ATOM      1  C   UNL A   1      40.682  21.691  27.367  1.00  0.00     0.202 C 
ENDROOT
BRANCH   1   2
ATOM      2  C   UNL A   1      39.855  21.697  26.077  1.00  0.00     0.261 C 
BRANCH   2   3
ATOM      3  O   UNL A   1      38.457  21.855  26.358  1.00  0.00    -0.463 OA
BRANCH   3   4
ATOM      4  C   UNL A   1      37.869  22.959  25.819  1.00  0.00     0.313 C 
ATOM      5  O   UNL A   1      38.077  24.104  26.207  1.00  0.00    -0.252 OA
BRANCH   4   6
ATOM      6  C   UNL A   1      36.993  22.628  24.597  1.00  0.00     0.126 C 
ATOM      7  C   UNL A   1      36.897  23.831  23.650  1.00  0.00     0.025 C 
BRANCH   6   8
ATOM      8  C   UNL A   1      35.650  21.997  24.994  1.00  0.00    -0.033 A 
ATOM      9  C   UNL A   1      35.360  20.625  24.850  1.00  0.00     0.012 A 
ATOM     10  C   UNL A   1      34.660  22.805  25.575  1.00  0.00     0.016 A 
ATOM     11  C   UNL A   1      34.115  20.079  25.224  1.00  0.00    -0.024 A 
ATOM     12  C   UNL A   1      33.396  22.299  25.904  1.00  0.00     0.023 A 
ATOM     13  C   UNL A   1      33.135  20.937  25.745  1.00  0.00     0.020 A 
BRANCH  11  14
ATOM     14  C   UNL A   1      33.783  18.643  25.116  1.00  0.00     0.020 C 
ATOM     15  C   UNL A   1      34.577  17.680  24.626  1.00  0.00     0.106 C 
BRANCH  15  16
ATOM     16  S   UNL A   1      34.027  16.028  24.595  1.00  0.00     0.168 S 
ATOM     17  C   UNL A   1      32.618  16.102  25.671  1.00  0.00     0.163 C 
ATOM     18  O   UNL A   1      33.532  15.745  23.264  1.00  0.00    -0.225 OA
ATOM     19  O   UNL A   1      35.001  15.156  25.228  1.00  0.00    -0.225 OA
ENDBRANCH  15  16
ENDBRANCH  11  14
BRANCH  12  20
ATOM     20  C   UNL A   1      32.329  23.186  26.446  1.00  0.00     0.193 C 
ATOM     21  O   UNL A   1      32.119  23.238  27.653  1.00  0.00    -0.289 OA
BRANCH  20  22
ATOM     22  C   UNL A   1      31.525  24.030  25.529  1.00  0.00     0.022 A 
ATOM     23  C   UNL A   1      31.154  25.310  25.948  1.00  0.00     0.012 A 
ATOM     24  C   UNL A   1      31.183  23.575  24.250  1.00  0.00     0.012 A 
ATOM     25  C   UNL A   1      30.484  26.156  25.064  1.00  0.00     0.001 A 
ATOM     26  C   UNL A   1      30.513  24.426  23.371  1.00  0.00     0.001 A 
ATOM     27  C   UNL A   1      30.174  25.718  23.776  1.00  0.00     0.000 A 
ENDBRANCH  20  22
ENDBRANCH  12  20
ENDBRANCH   6   8
ENDBRANCH   4   6
ENDBRANCH   3   4
ENDBRANCH   2   3
ENDBRANCH   1   2
BRANCH   1  28
ATOM     28  O   UNL A   1      42.096  21.796  27.215  1.00  0.00    -0.374 OA
BRANCH  28  29
ATOM     29  C   UNL A   1      42.713  21.044  26.168  1.00  0.00     0.202 C 
BRANCH  29  30
ATOM     30  C   UNL A   1      43.518  21.826  25.120  1.00  0.00     0.261 C 
BRANCH  30  31
ATOM     31  O   UNL A   1      42.888  23.065  24.740  1.00  0.00    -0.460 OA
BRANCH  31  32
ATOM     32  C   UNL A   1      43.656  24.168  24.924  1.00  0.00     0.338 C 
ATOM     33  O   UNL A   1      44.707  24.441  24.363  1.00  0.00    -0.246 OA
BRANCH  32  34
ATOM     34  C   UNL A   1      42.972  25.137  25.799  1.00  0.00     0.060 A 
ATOM     35  C   UNL A   1      43.673  26.296  26.155  1.00  0.00     0.016 A 
ATOM     36  C   UNL A   1      41.722  24.865  26.359  1.00  0.00     0.016 A 
ATOM     37  C   UNL A   1      43.147  27.168  27.106  1.00  0.00     0.010 A 
ATOM     38  C   UNL A   1      41.200  25.736  27.321  1.00  0.00     0.010 A 
ATOM     39  C   UNL A   1      41.926  26.872  27.726  1.00  0.00    -0.014 A 
BRANCH  39  40
ATOM     40  C   UNL A   1      41.488  27.675  28.895  1.00  0.00     0.031 A 
ATOM     41  C   UNL A   1      42.252  27.566  30.186  1.00  0.00     0.074 A 
ATOM     42  C   UNL A   1      40.446  28.520  28.800  1.00  0.00     0.049 A 
ATOM     43  N   UNL A   1      42.034  28.154  31.335  1.00  0.00    -0.248 NA
ATOM     44  C   UNL A   1      43.422  26.674  30.180  1.00  0.00     0.031 C 
ATOM     45  C   UNL A   1      39.652  28.745  27.595  1.00  0.00     0.029 A 
ATOM     46  N   UNL A   1      39.876  29.342  29.739  1.00  0.00    -0.354 N 
ATOM     47  C   UNL A   1      43.033  27.704  32.187  1.00  0.00     0.074 A 
ATOM     48  C   UNL A   1      43.841  26.769  31.433  1.00  0.00     0.031 C 
ATOM     49  C   UNL A   1      38.687  29.639  27.871  1.00  0.00     0.029 A 
ATOM     50  C   UNL A   1      38.779  30.025  29.279  1.00  0.00     0.049 A 
ATOM     51  H   UNL A   1      40.222  29.434  30.657  1.00  0.00     0.167 HD
ATOM     52  C   UNL A   1      43.265  28.048  33.476  1.00  0.00     0.037 A 
ATOM     53  C   UNL A   1      37.931  30.850  29.925  1.00  0.00     0.037 A 
ATOM     54  C   UNL A   1      42.462  28.977  34.226  1.00  0.00     0.049 A 
ATOM     55  C   UNL A   1      38.169  31.162  31.380  1.00  0.00     0.074 A 
ATOM     56  C   UNL A   1      42.622  29.398  35.535  1.00  0.00     0.029 A 
ATOM     57  N   UNL A   1      41.339  29.625  33.733  1.00  0.00    -0.354 N 
ATOM     58  N   UNL A   1      39.129  30.748  32.171  1.00  0.00    -0.248 NA
ATOM     59  C   UNL A   1      37.204  32.062  32.031  1.00  0.00     0.031 C 
ATOM     60  C   UNL A   1      41.569  30.264  35.849  1.00  0.00     0.029 A 
ATOM     61  C   UNL A   1      40.783  30.424  34.720  1.00  0.00     0.049 A 
ATOM     62  H   UNL A   1      40.988  29.531  32.819  1.00  0.00     0.167 HD
ATOM     63  C   UNL A   1      38.900  31.354  33.401  1.00  0.00     0.074 A 
ATOM     64  C   UNL A   1      37.719  32.175  33.248  1.00  0.00     0.031 C 
ATOM     65  C   UNL A   1      39.608  31.241  34.552  1.00  0.00     0.037 A 
BRANCH  52  66
ATOM     66  C   UNL A   1      44.426  27.395  34.168  1.00  0.00     0.064 A 
ATOM     67  C   UNL A   1      44.326  26.109  34.723  1.00  0.00     0.173 A 
ATOM     68  C   UNL A   1      45.664  28.049  34.249  1.00  0.00     0.173 A 
ATOM     69  F   UNL A   1      43.160  25.447  34.683  1.00  0.00    -0.203 F 
ATOM     70  C   UNL A   1      45.415  25.516  35.355  1.00  0.00     0.198 A 
ATOM     71  C   UNL A   1      46.759  27.440  34.859  1.00  0.00     0.198 A 
ATOM     72  F   UNL A   1      45.815  29.278  33.731  1.00  0.00    -0.203 F 
ATOM     73  F   UNL A   1      45.282  24.306  35.919  1.00  0.00    -0.200 F 
ATOM     74  C   UNL A   1      46.631  26.178  35.416  1.00  0.00     0.200 A 
ATOM     75  F   UNL A   1      47.937  28.078  34.907  1.00  0.00    -0.200 F 
ATOM     76  F   UNL A   1      47.679  25.602  36.022  1.00  0.00    -0.200 F 
ENDBRANCH  52  66
BRANCH  53  77
ATOM     77  C   UNL A   1      36.768  31.429  29.204  1.00  0.00     0.064 A 
ATOM     78  C   UNL A   1      36.731  32.787  28.860  1.00  0.00     0.173 A 
ATOM     79  C   UNL A   1      35.664  30.637  28.858  1.00  0.00     0.173 A 
ATOM     80  F   UNL A   1      37.752  33.591  29.193  1.00  0.00    -0.203 F 
ATOM     81  C   UNL A   1      35.625  33.334  28.212  1.00  0.00     0.198 A 
ATOM     82  C   UNL A   1      34.572  31.178  28.183  1.00  0.00     0.198 A 
ATOM     83  F   UNL A   1      35.650  29.332  29.166  1.00  0.00    -0.203 F 
ATOM     84  F   UNL A   1      35.595  34.644  27.934  1.00  0.00    -0.200 F 
ATOM     85  C   UNL A   1      34.550  32.528  27.868  1.00  0.00     0.200 A 
ATOM     86  F   UNL A   1      33.541  30.393  27.843  1.00  0.00    -0.200 F 
ATOM     87  F   UNL A   1      33.490  33.053  27.239  1.00  0.00    -0.200 F 
ENDBRANCH  53  77
BRANCH  65  88
ATOM     88  C   UNL A   1      39.144  32.048  35.730  1.00  0.00     0.064 A 
ATOM     89  C   UNL A   1      38.316  31.499  36.720  1.00  0.00     0.173 A 
ATOM     90  C   UNL A   1      39.570  33.377  35.893  1.00  0.00     0.173 A 
ATOM     91  F   UNL A   1      37.869  30.240  36.604  1.00  0.00    -0.203 F 
ATOM     92  C   UNL A   1      37.911  32.257  37.816  1.00  0.00     0.198 A 
ATOM     93  C   UNL A   1      39.187  34.121  37.004  1.00  0.00     0.198 A 
ATOM     94  F   UNL A   1      40.369  33.946  34.978  1.00  0.00    -0.203 F 
ATOM     95  F   UNL A   1      37.082  31.727  38.726  1.00  0.00    -0.200 F 
ATOM     96  C   UNL A   1      38.352  33.564  37.961  1.00  0.00     0.200 A 
ATOM     97  F   UNL A   1      39.626  35.379  37.149  1.00  0.00    -0.200 F 
ATOM     98  F   UNL A   1      37.968  34.289  39.021  1.00  0.00    -0.200 F 
ENDBRANCH  65  88
ENDBRANCH  39  40
ENDBRANCH  32  34
ENDBRANCH  31  32
ENDBRANCH  30  31
ENDBRANCH  29  30
ENDBRANCH  28  29
ENDBRANCH   1  28
TORSDOF 19
ENDMDL
MODEL 2
REMARK VINA RESULT:     -11.6      4.979      7.244
REMARK SMILES C[C@@H](C(=O)OCCOCCOC(=O)c1ccc(-c2c3nc(c(-c4c(F)c(F)c(F)c(F)c4F)c4ccc([nH]4)c(-c4c(F)c(F)c(F)c(F)c4F)c4nc(c(-c5c(F)c(F)c(F)c(F)c5F)c5ccc2[nH]5)C=C4)C=C3)cc1)c1cc(/C=C/S(C)(=O)=O)cc(C(=O)c2ccccc2)c1
REMARK SMILES IDX 7 1 6 2 5 3 3 4 4 5 2 6 1 7 77 8 78 9 96 10 79 11 87 12
REMARK SMILES IDX 86 13 80 14 81 15 82 16 83 17 84 18 85 19 88 20 89 21 90 22
REMARK SMILES IDX 91 23 95 24 92 25 94 26 93 27 8 28 9 29 10 30 11 31 12 32
REMARK SMILES IDX 13 33 14 34 15 35 76 36 16 37 75 38 17 39 18 40 19 41 69 42
REMARK SMILES IDX 20 43 74 44 68 45 70 46 21 47 73 48 67 49 66 50 22 52 54 53
REMARK SMILES IDX 34 54 53 55 35 56 38 57 52 58 71 59 36 60 37 61 51 63 72 64
REMARK SMILES IDX 39 65 23 66 24 67 32 68 25 69 26 70 30 71 33 72 27 73 28 74
REMARK SMILES IDX 31 75 29 76 55 77 56 78 64 79 57 80 58 81 62 82 65 83 59 84
REMARK SMILES IDX 60 85 63 86 61 87 40 88 41 89 49 90 42 91 43 92 47 93 50 94
REMARK SMILES IDX 44 95 45 96 48 97 46 98
REMARK H PARENT 70 51 38 62
REMARK Flexibility Score: inf
ROOT
ATOM      1  C   UNL A   1      40.711  21.754  27.272  1.00  0.00     0.202 C 
ENDROOT
BRANCH   1   2
ATOM      2  C   UNL A   1      39.772  21.884  26.067  1.00  0.00     0.261 C 
BRANCH   2   3
ATOM      3  O   UNL A   1      38.417  22.102  26.487  1.00  0.00    -0.463 OA
BRANCH   3   4
ATOM      4  C   UNL A   1      37.759  23.110  25.849  1.00  0.00     0.313 C 
ATOM      5  O   UNL A   1      37.844  24.292  26.167  1.00  0.00    -0.252 OA
BRANCH   4   6
ATOM      6  C   UNL A   1      36.976  22.620  24.618  1.00  0.00     0.126 C 
ATOM      7  C   UNL A   1      36.903  23.715  23.545  1.00  0.00     0.025 C 
BRANCH   6   8
ATOM      8  C   UNL A   1      35.631  21.981  24.995  1.00  0.00    -0.033 A 
ATOM      9  C   UNL A   1      35.340  20.613  24.815  1.00  0.00     0.012 A 
ATOM     10  C   UNL A   1      34.641  22.776  25.594  1.00  0.00     0.016 A 
ATOM     11  C   UNL A   1      34.093  20.060  25.171  1.00  0.00    -0.024 A 
ATOM     12  C   UNL A   1      33.376  22.262  25.907  1.00  0.00     0.023 A 
ATOM     13  C   UNL A   1      33.114  20.905  25.712  1.00  0.00     0.020 A 
BRANCH  11  14
ATOM     14  C   UNL A   1      33.759  18.628  25.026  1.00  0.00     0.020 C 
ATOM     15  C   UNL A   1      34.610  17.644  24.699  1.00  0.00     0.106 C 
BRANCH  15  16
ATOM     16  S   UNL A   1      34.045  16.001  24.594  1.00  0.00     0.168 S 
ATOM     17  C   UNL A   1      32.580  16.064  25.594  1.00  0.00     0.163 C 
ATOM     18  O   UNL A   1      33.620  15.759  23.231  1.00  0.00    -0.225 OA
ATOM     19  O   UNL A   1      34.973  15.100  25.254  1.00  0.00    -0.225 OA
ENDBRANCH  15  16
ENDBRANCH  11  14
BRANCH  12  20
ATOM     20  C   UNL A   1      32.308  23.137  26.468  1.00  0.00     0.193 C 
ATOM     21  O   UNL A   1      32.114  23.181  27.679  1.00  0.00    -0.289 OA
BRANCH  20  22
ATOM     22  C   UNL A   1      31.484  23.979  25.568  1.00  0.00     0.022 A 
ATOM     23  C   UNL A   1      31.031  25.215  26.034  1.00  0.00     0.012 A 
ATOM     24  C   UNL A   1      31.203  23.568  24.259  1.00  0.00     0.012 A 
ATOM     25  C   UNL A   1      30.340  26.066  25.171  1.00  0.00     0.001 A 
ATOM     26  C   UNL A   1      30.512  24.423  23.401  1.00  0.00     0.001 A 
ATOM     27  C   UNL A   1      30.090  25.673  23.854  1.00  0.00     0.000 A 
ENDBRANCH  20  22
ENDBRANCH  12  20
ENDBRANCH   6   8
ENDBRANCH   4   6
ENDBRANCH   3   4
ENDBRANCH   2   3
ENDBRANCH   1   2
BRANCH   1  28
ATOM     28  O   UNL A   1      41.932  21.052  27.050  1.00  0.00    -0.374 OA
BRANCH  28  29
ATOM     29  C   UNL A   1      41.921  19.630  27.187  1.00  0.00     0.202 C 
BRANCH  29  30
ATOM     30  C   UNL A   1      42.647  18.812  26.110  1.00  0.00     0.261 C 
BRANCH  30  31
ATOM     31  O   UNL A   1      42.900  19.569  24.909  1.00  0.00    -0.460 OA
BRANCH  31  32
ATOM     32  C   UNL A   1      44.210  19.687  24.582  1.00  0.00     0.338 C 
ATOM     33  O   UNL A   1      44.912  18.857  24.023  1.00  0.00    -0.246 OA
BRANCH  32  34
ATOM     34  C   UNL A   1      44.688  21.058  24.840  1.00  0.00     0.060 A 
ATOM     35  C   UNL A   1      45.297  21.310  26.075  1.00  0.00     0.016 A 
ATOM     36  C   UNL A   1      44.439  22.100  23.946  1.00  0.00     0.016 A 
ATOM     37  C   UNL A   1      45.620  22.614  26.443  1.00  0.00     0.010 A 
ATOM     38  C   UNL A   1      44.756  23.411  24.320  1.00  0.00     0.010 A 
ATOM     39  C   UNL A   1      45.314  23.679  25.584  1.00  0.00    -0.014 A 
BRANCH  39  40
ATOM     40  C   UNL A   1      45.446  25.073  26.075  1.00  0.00     0.031 A 
ATOM     41  C   UNL A   1      46.787  25.750  26.008  1.00  0.00     0.074 A 
ATOM     42  C   UNL A   1      44.378  25.744  26.541  1.00  0.00     0.049 A 
ATOM     43  N   UNL A   1      47.136  26.949  26.400  1.00  0.00    -0.248 NA
ATOM     44  C   UNL A   1      47.885  24.968  25.416  1.00  0.00     0.031 C 
ATOM     45  C   UNL A   1      43.019  25.213  26.620  1.00  0.00     0.029 A 
ATOM     46  N   UNL A   1      44.274  27.018  27.042  1.00  0.00    -0.354 N 
ATOM     47  C   UNL A   1      48.488  27.065  26.106  1.00  0.00     0.074 A 
ATOM     48  C   UNL A   1      48.906  25.804  25.532  1.00  0.00     0.031 C 
ATOM     49  C   UNL A   1      42.216  26.152  27.150  1.00  0.00     0.029 A 
ATOM     50  C   UNL A   1      43.011  27.336  27.475  1.00  0.00     0.049 A 
ATOM     51  H   UNL A   1      45.033  27.644  27.085  1.00  0.00     0.167 HD
ATOM     52  C   UNL A   1      49.305  28.131  26.287  1.00  0.00     0.037 A 
ATOM     53  C   UNL A   1      42.554  28.448  28.085  1.00  0.00     0.037 A 
ATOM     54  C   UNL A   1      48.890  29.385  26.858  1.00  0.00     0.049 A 
ATOM     55  C   UNL A   1      43.499  29.594  28.340  1.00  0.00     0.074 A 
ATOM     56  C   UNL A   1      49.641  30.527  27.073  1.00  0.00     0.029 A 
ATOM     57  N   UNL A   1      47.609  29.658  27.315  1.00  0.00    -0.354 N 
ATOM     58  N   UNL A   1      44.770  29.702  28.039  1.00  0.00    -0.248 NA
ATOM     59  C   UNL A   1      42.941  30.774  29.016  1.00  0.00     0.031 C 
ATOM     60  C   UNL A   1      48.828  31.475  27.703  1.00  0.00     0.029 A 
ATOM     61  C   UNL A   1      47.555  30.943  27.832  1.00  0.00     0.049 A 
ATOM     62  H   UNL A   1      46.851  29.032  27.277  1.00  0.00     0.167 HD
ATOM     63  C   UNL A   1      45.158  30.968  28.464  1.00  0.00     0.074 A 
ATOM     64  C   UNL A   1      43.983  31.594  29.031  1.00  0.00     0.031 C 
ATOM     65  C   UNL A   1      46.376  31.557  28.389  1.00  0.00     0.037 A 
BRANCH  52  66
ATOM     66  C   UNL A   1      50.742  27.977  25.881  1.00  0.00     0.064 A 
ATOM     67  C   UNL A   1      51.150  28.119  24.546  1.00  0.00     0.173 A 
ATOM     68  C   UNL A   1      51.728  27.716  26.844  1.00  0.00     0.173 A 
ATOM     69  F   UNL A   1      50.244  28.356  23.585  1.00  0.00    -0.203 F 
ATOM     70  C   UNL A   1      52.488  27.979  24.188  1.00  0.00     0.198 A 
ATOM     71  C   UNL A   1      53.069  27.604  26.485  1.00  0.00     0.198 A 
ATOM     72  F   UNL A   1      51.392  27.575  28.136  1.00  0.00    -0.203 F 
ATOM     73  F   UNL A   1      52.849  28.073  22.899  1.00  0.00    -0.200 F 
ATOM     74  C   UNL A   1      53.447  27.729  25.158  1.00  0.00     0.200 A 
ATOM     75  F   UNL A   1      53.995  27.373  27.426  1.00  0.00    -0.200 F 
ATOM     76  F   UNL A   1      54.735  27.599  24.811  1.00  0.00    -0.200 F 
ENDBRANCH  52  66
BRANCH  53  77
ATOM     77  C   UNL A   1      41.133  28.527  28.511  1.00  0.00     0.064 A 
ATOM     78  C   UNL A   1      40.733  28.101  29.785  1.00  0.00     0.173 A 
ATOM     79  C   UNL A   1      40.144  29.018  27.646  1.00  0.00     0.173 A 
ATOM     80  F   UNL A   1      41.637  27.600  30.638  1.00  0.00    -0.203 F 
ATOM     81  C   UNL A   1      39.394  28.148  30.171  1.00  0.00     0.198 A 
ATOM     82  C   UNL A   1      38.811  29.092  28.043  1.00  0.00     0.198 A 
ATOM     83  F   UNL A   1      40.475  29.436  26.416  1.00  0.00    -0.203 F 
ATOM     84  F   UNL A   1      39.031  27.694  31.378  1.00  0.00    -0.200 F 
ATOM     85  C   UNL A   1      38.436  28.650  29.302  1.00  0.00     0.200 A 
ATOM     86  F   UNL A   1      37.891  29.587  27.205  1.00  0.00    -0.200 F 
ATOM     87  F   UNL A   1      37.151  28.699  29.676  1.00  0.00    -0.200 F 
ENDBRANCH  53  77
BRANCH  65  88
ATOM     88  C   UNL A   1      46.498  32.962  28.903  1.00  0.00     0.064 A 
ATOM     89  C   UNL A   1      46.251  34.071  28.081  1.00  0.00     0.173 A 
ATOM     90  C   UNL A   1      46.826  33.200  30.247  1.00  0.00     0.173 A 
ATOM     91  F   UNL A   1      45.950  33.899  26.786  1.00  0.00    -0.203 F 
ATOM     92  C   UNL A   1      46.351  35.368  28.581  1.00  0.00     0.198 A 
ATOM     93  C   UNL A   1      46.895  34.497  30.750  1.00  0.00     0.198 A 
ATOM     94  F   UNL A   1      47.064  32.173  31.077  1.00  0.00    -0.203 F 
ATOM     95  F   UNL A   1      46.155  36.415  27.766  1.00  0.00    -0.200 F 
ATOM     96  C   UNL A   1      46.665  35.579  29.915  1.00  0.00     0.200 A 
ATOM     97  F   UNL A   1      47.185  34.697  32.043  1.00  0.00    -0.200 F 
ATOM     98  F   UNL A   1      46.753  36.827  30.395  1.00  0.00    -0.200 F 
ENDBRANCH  65  88
ENDBRANCH  39  40
ENDBRANCH  32  34
ENDBRANCH  31  32
ENDBRANCH  30  31
ENDBRANCH  29  30
ENDBRANCH  28  29
ENDBRANCH   1  28
TORSDOF 19
ENDMDL
MODEL 3
REMARK VINA RESULT:     -11.6      5.200      8.095
REMARK SMILES C[C@@H](C(=O)OCCOCCOC(=O)c1ccc(-c2c3nc(c(-c4c(F)c(F)c(F)c(F)c4F)c4ccc([nH]4)c(-c4c(F)c(F)c(F)c(F)c4F)c4nc(c(-c5c(F)c(F)c(F)c(F)c5F)c5ccc2[nH]5)C=C4)C=C3)cc1)c1cc(/C=C/S(C)(=O)=O)cc(C(=O)c2ccccc2)c1
REMARK SMILES IDX 7 1 6 2 5 3 3 4 4 5 2 6 1 7 77 8 78 9 96 10 79 11 87 12
REMARK SMILES IDX 86 13 80 14 81 15 82 16 83 17 84 18 85 19 88 20 89 21 90 22
REMARK SMILES IDX 91 23 95 24 92 25 94 26 93 27 8 28 9 29 10 30 11 31 12 32
REMARK SMILES IDX 13 33 14 34 15 35 76 36 16 37 75 38 17 39 18 40 19 41 69 42
REMARK SMILES IDX 20 43 74 44 68 45 70 46 21 47 73 48 67 49 66 50 22 52 54 53
REMARK SMILES IDX 34 54 53 55 35 56 38 57 52 58 71 59 36 60 37 61 51 63 72 64
REMARK SMILES IDX 39 65 23 66 24 67 32 68 25 69 26 70 30 71 33 72 27 73 28 74
REMARK SMILES IDX 31 75 29 76 55 77 56 78 64 79 57 80 58 81 62 82 65 83 59 84
REMARK SMILES IDX 60 85 63 86 61 87 40 88 41 89 49 90 42 91 43 92 47 93 50 94
REMARK SMILES IDX 44 95 45 96 48 97 46 98
REMARK H PARENT 70 51 38 62
REMARK Flexibility Score: inf
ROOT
ATOM      1  C   UNL A   1      41.069  22.251  27.511  1.00  0.00     0.202 C 
ENDROOT
BRANCH   1   2
ATOM      2  C   UNL A   1      40.097  22.282  26.326  1.00  0.00     0.261 C 
BRANCH   2   3
ATOM      3  O   UNL A   1      38.847  22.880  26.696  1.00  0.00    -0.463 OA
BRANCH   3   4
ATOM      4  C   UNL A   1      37.869  22.835  25.748  1.00  0.00     0.313 C 
ATOM      5  O   UNL A   1      37.715  23.690  24.882  1.00  0.00    -0.252 OA
BRANCH   4   6
ATOM      6  C   UNL A   1      37.041  21.539  25.812  1.00  0.00     0.126 C 
ATOM      7  C   UNL A   1      37.708  20.422  24.999  1.00  0.00     0.025 C 
BRANCH   6   8
ATOM      8  C   UNL A   1      35.555  21.778  25.501  1.00  0.00    -0.033 A 
ATOM      9  C   UNL A   1      34.858  22.945  25.877  1.00  0.00     0.012 A 
ATOM     10  C   UNL A   1      34.847  20.816  24.764  1.00  0.00     0.016 A 
ATOM     11  C   UNL A   1      33.493  23.131  25.575  1.00  0.00    -0.024 A 
ATOM     12  C   UNL A   1      33.479  20.952  24.500  1.00  0.00     0.023 A 
ATOM     13  C   UNL A   1      32.812  22.115  24.890  1.00  0.00     0.020 A 
BRANCH  11  14
ATOM     14  C   UNL A   1      32.734  24.349  25.926  1.00  0.00     0.020 C 
ATOM     15  C   UNL A   1      33.216  25.601  25.966  1.00  0.00     0.106 C 
BRANCH  15  16
ATOM     16  S   UNL A   1      32.168  26.927  26.381  1.00  0.00     0.168 S 
ATOM     17  C   UNL A   1      31.834  27.629  24.785  1.00  0.00     0.163 C 
ATOM     18  O   UNL A   1      30.923  26.377  26.873  1.00  0.00    -0.225 OA
ATOM     19  O   UNL A   1      32.892  27.929  27.143  1.00  0.00    -0.225 OA
ENDBRANCH  15  16
ENDBRANCH  11  14
BRANCH  12  20
ATOM     20  C   UNL A   1      32.723  19.884  23.786  1.00  0.00     0.193 C 
ATOM     21  O   UNL A   1      31.942  20.173  22.885  1.00  0.00    -0.289 OA
BRANCH  20  22
ATOM     22  C   UNL A   1      32.926  18.460  24.146  1.00  0.00     0.022 A 
ATOM     23  C   UNL A   1      33.563  17.621  23.228  1.00  0.00     0.012 A 
ATOM     24  C   UNL A   1      32.532  17.973  25.398  1.00  0.00     0.012 A 
ATOM     25  C   UNL A   1      33.853  16.304  23.586  1.00  0.00     0.001 A 
ATOM     26  C   UNL A   1      32.824  16.656  25.749  1.00  0.00     0.001 A 
ATOM     27  C   UNL A   1      33.493  15.826  24.847  1.00  0.00     0.000 A 
ENDBRANCH  20  22
ENDBRANCH  12  20
ENDBRANCH   6   8
ENDBRANCH   4   6
ENDBRANCH   3   4
ENDBRANCH   2   3
ENDBRANCH   1   2
BRANCH   1  28
ATOM     28  O   UNL A   1      41.910  21.104  27.611  1.00  0.00    -0.374 OA
BRANCH  28  29
ATOM     29  C   UNL A   1      41.441  19.879  27.046  1.00  0.00     0.202 C 
BRANCH  29  30
ATOM     30  C   UNL A   1      42.473  18.987  26.342  1.00  0.00     0.261 C 
BRANCH  30  31
ATOM     31  O   UNL A   1      42.771  19.426  25.002  1.00  0.00    -0.460 OA
BRANCH  31  32
ATOM     32  C   UNL A   1      44.094  19.528  24.722  1.00  0.00     0.338 C 
ATOM     33  O   UNL A   1      44.818  18.669  24.241  1.00  0.00    -0.246 OA
BRANCH  32  34
ATOM     34  C   UNL A   1      44.560  20.913  24.918  1.00  0.00     0.060 A 
ATOM     35  C   UNL A   1      45.280  21.195  26.086  1.00  0.00     0.016 A 
ATOM     36  C   UNL A   1      44.200  21.939  24.043  1.00  0.00     0.016 A 
ATOM     37  C   UNL A   1      45.606  22.511  26.407  1.00  0.00     0.010 A 
ATOM     38  C   UNL A   1      44.519  23.261  24.372  1.00  0.00     0.010 A 
ATOM     39  C   UNL A   1      45.191  23.557  25.572  1.00  0.00    -0.014 A 
BRANCH  39  40
ATOM     40  C   UNL A   1      45.337  24.960  26.034  1.00  0.00     0.031 A 
ATOM     41  C   UNL A   1      46.680  25.628  25.936  1.00  0.00     0.074 A 
ATOM     42  C   UNL A   1      44.278  25.646  26.500  1.00  0.00     0.049 A 
ATOM     43  N   UNL A   1      47.040  26.833  26.301  1.00  0.00    -0.248 NA
ATOM     44  C   UNL A   1      47.766  24.830  25.347  1.00  0.00     0.031 C 
ATOM     45  C   UNL A   1      42.917  25.124  26.606  1.00  0.00     0.029 A 
ATOM     46  N   UNL A   1      44.186  26.929  26.976  1.00  0.00    -0.354 N 
ATOM     47  C   UNL A   1      48.389  26.936  25.988  1.00  0.00     0.074 A 
ATOM     48  C   UNL A   1      48.793  25.663  25.434  1.00  0.00     0.031 C 
ATOM     49  C   UNL A   1      42.125  26.077  27.127  1.00  0.00     0.029 A 
ATOM     50  C   UNL A   1      42.930  27.263  27.419  1.00  0.00     0.049 A 
ATOM     51  H   UNL A   1      44.948  27.553  26.998  1.00  0.00     0.167 HD
ATOM     52  C   UNL A   1      49.213  28.001  26.138  1.00  0.00     0.037 A 
ATOM     53  C   UNL A   1      42.487  28.388  28.012  1.00  0.00     0.037 A 
ATOM     54  C   UNL A   1      48.811  29.268  26.690  1.00  0.00     0.049 A 
ATOM     55  C   UNL A   1      43.440  29.534  28.233  1.00  0.00     0.074 A 
ATOM     56  C   UNL A   1      49.571  30.411  26.872  1.00  0.00     0.029 A 
ATOM     57  N   UNL A   1      47.538  29.557  27.156  1.00  0.00    -0.354 N 
ATOM     58  N   UNL A   1      44.708  29.630  27.915  1.00  0.00    -0.248 NA
ATOM     59  C   UNL A   1      42.897  30.730  28.893  1.00  0.00     0.031 C 
ATOM     60  C   UNL A   1      48.770  31.375  27.493  1.00  0.00     0.029 A 
ATOM     61  C   UNL A   1      47.496  30.852  27.649  1.00  0.00     0.049 A 
ATOM     62  H   UNL A   1      46.776  28.935  27.140  1.00  0.00     0.167 HD
ATOM     63  C   UNL A   1      45.107  30.901  28.310  1.00  0.00     0.074 A 
ATOM     64  C   UNL A   1      43.943  31.545  28.880  1.00  0.00     0.031 C 
ATOM     65  C   UNL A   1      46.328  31.483  28.208  1.00  0.00     0.037 A 
BRANCH  52  66
ATOM     66  C   UNL A   1      50.644  27.832  25.717  1.00  0.00     0.064 A 
ATOM     67  C   UNL A   1      51.656  27.541  26.645  1.00  0.00     0.173 A 
ATOM     68  C   UNL A   1      51.003  27.930  24.365  1.00  0.00     0.173 A 
ATOM     69  F   UNL A   1      51.366  27.450  27.952  1.00  0.00    -0.203 F 
ATOM     70  C   UNL A   1      52.977  27.381  26.237  1.00  0.00     0.198 A 
ATOM     71  C   UNL A   1      52.322  27.742  23.957  1.00  0.00     0.198 A 
ATOM     72  F   UNL A   1      50.074  28.203  23.436  1.00  0.00    -0.203 F 
ATOM     73  F   UNL A   1      53.934  27.150  27.147  1.00  0.00    -0.200 F 
ATOM     74  C   UNL A   1      53.307  27.474  24.893  1.00  0.00     0.200 A 
ATOM     75  F   UNL A   1      52.637  27.822  22.657  1.00  0.00    -0.200 F 
ATOM     76  F   UNL A   1      54.580  27.316  24.503  1.00  0.00    -0.200 F 
ENDBRANCH  52  66
BRANCH  53  77
ATOM     77  C   UNL A   1      41.071  28.483  28.455  1.00  0.00     0.064 A 
ATOM     78  C   UNL A   1      40.686  28.094  29.745  1.00  0.00     0.173 A 
ATOM     79  C   UNL A   1      40.072  28.953  27.589  1.00  0.00     0.173 A 
ATOM     80  F   UNL A   1      41.601  27.614  30.601  1.00  0.00    -0.203 F 
ATOM     81  C   UNL A   1      39.353  28.155  30.147  1.00  0.00     0.198 A 
ATOM     82  C   UNL A   1      38.745  29.041  28.001  1.00  0.00     0.198 A 
ATOM     83  F   UNL A   1      40.388  29.335  26.344  1.00  0.00    -0.203 F 
ATOM     84  F   UNL A   1      39.005  27.736  31.370  1.00  0.00    -0.200 F 
ATOM     85  C   UNL A   1      38.385  28.635  29.277  1.00  0.00     0.200 A 
ATOM     86  F   UNL A   1      37.815  29.515  27.161  1.00  0.00    -0.200 F 
ATOM     87  F   UNL A   1      37.105  28.698  29.666  1.00  0.00    -0.200 F 
ENDBRANCH  53  77
BRANCH  65  88
ATOM     88  C   UNL A   1      46.463  32.897  28.693  1.00  0.00     0.064 A 
ATOM     89  C   UNL A   1      46.216  33.992  27.852  1.00  0.00     0.173 A 
ATOM     90  C   UNL A   1      46.803  33.160  30.030  1.00  0.00     0.173 A 
ATOM     91  F   UNL A   1      45.903  33.795  26.562  1.00  0.00    -0.203 F 
ATOM     92  C   UNL A   1      46.328  35.297  28.324  1.00  0.00     0.198 A 
ATOM     93  C   UNL A   1      46.885  34.466  30.506  1.00  0.00     0.198 A 
ATOM     94  F   UNL A   1      47.042  32.148  30.878  1.00  0.00    -0.203 F 
ATOM     95  F   UNL A   1      46.132  36.329  27.491  1.00  0.00    -0.200 F 
ATOM     96  C   UNL A   1      46.655  35.533  29.651  1.00  0.00     0.200 A 
ATOM     97  F   UNL A   1      47.188  34.690  31.792  1.00  0.00    -0.200 F 
ATOM     98  F   UNL A   1      46.754  36.790  30.105  1.00  0.00    -0.200 F 
ENDBRANCH  65  88
ENDBRANCH  39  40
ENDBRANCH  32  34
ENDBRANCH  31  32
ENDBRANCH  30  31
ENDBRANCH  29  30
ENDBRANCH  28  29
ENDBRANCH   1  28
TORSDOF 19
ENDMDL
