MODEL 1
REMARK VINA RESULT:     -12.8      0.000      0.000
REMARK SMILES CC[NH2+][C@@]1(C(=O)OCCOCCOC(=O)c2ccc(-c3c4nc(c(-c5c(F)c(F)c(F)c(F)c5F)c5ccc([nH]5)c(-c5c(F)c(F)c(F)c(F)c5F)c5nc(c(-c6c(F)c(F)c(F)c(F)c6F)c6ccc3[nH]6)C=C5)C=C4)cc2)CC[C@@H](n2cnc3ccccc32)C1
REMARK SMILES IDX 10 1 9 2 8 3 7 4 5 5 6 6 4 7 79 8 91 9 80 10 81 11 3 12 2 15
REMARK SMILES IDX 1 16 82 17 83 18 90 19 84 20 85 21 89 22 86 23 88 24 87 25
REMARK SMILES IDX 11 26 12 27 13 28 14 29 15 30 16 31 17 32 78 33 18 34 77 35
REMARK SMILES IDX 19 36 20 37 21 38 71 39 22 40 76 41 70 42 72 43 23 44 75 45
REMARK SMILES IDX 69 46 68 47 24 49 56 50 36 51 55 52 37 53 40 54 54 55 73 56
REMARK SMILES IDX 38 57 39 58 53 60 74 61 41 62 25 63 26 64 34 65 27 66 28 67
REMARK SMILES IDX 32 68 35 69 29 70 30 71 33 72 31 73 57 74 58 75 66 76 59 77
REMARK SMILES IDX 60 78 64 79 67 80 61 81 62 82 65 83 63 84 42 85 43 86 51 87
REMARK SMILES IDX 44 88 45 89 49 90 52 91 46 92 47 93 50 94 48 95
REMARK H PARENT 3 13 3 14 72 48 40 59
REMARK Flexibility Score: inf
ROOT
ATOM      1  O   UNL A   1      31.110  29.028  24.605  1.00  0.00    -0.374 OA
ENDROOT
BRANCH   1   2
ATOM      2  C   UNL A   1      31.489  28.210  23.488  1.00  0.00     0.202 C 
BRANCH   2   3
ATOM      3  C   UNL A   1      32.836  28.523  22.805  1.00  0.00     0.261 C 
BRANCH   3   4
ATOM      4  O   UNL A   1      33.776  27.496  23.152  1.00  0.00    -0.459 OA
BRANCH   4   5
ATOM      5  C   UNL A   1      33.636  26.227  22.638  1.00  0.00     0.368 C 
ATOM      6  O   UNL A   1      33.478  26.009  21.441  1.00  0.00    -0.245 OA
BRANCH   5   7
ATOM      7  C   UNL A   1      33.615  25.042  23.969  1.00  0.00     0.196 C 
ATOM      8  C   UNL A   1      35.263  24.410  23.544  1.00  0.00     0.083 C 
ATOM      9  C   UNL A   1      33.039  23.721  22.803  1.00  0.00     0.106 C 
ATOM     10  C   UNL A   1      35.172  22.922  23.096  1.00  0.00     0.033 C 
ATOM     11  C   UNL A   1      33.724  22.476  23.304  1.00  0.00     0.096 C 
BRANCH   7  12
ATOM     12  N   UNL A   1      32.837  25.413  25.888  1.00  0.00    -0.332 N 
ATOM     13  H   UNL A   1      32.703  24.465  26.238  1.00  0.00     0.347 HD
ATOM     14  H   UNL A   1      33.481  26.188  26.049  1.00  0.00     0.347 HD
BRANCH  12  15
ATOM     15  C   UNL A   1      31.635  26.176  26.584  1.00  0.00     0.257 C 
ATOM     16  C   UNL A   1      30.279  25.806  25.966  1.00  0.00     0.071 C 
ENDBRANCH  12  15
ENDBRANCH   7  12
BRANCH  11  17
ATOM     17  N   UNL A   1      33.306  22.332  24.706  1.00  0.00    -0.327 N 
ATOM     18  C   UNL A   1      31.971  22.062  25.015  1.00  0.00     0.200 A 
ATOM     19  C   UNL A   1      34.090  21.367  25.377  1.00  0.00     0.068 A 
ATOM     20  N   UNL A   1      31.659  20.774  24.979  1.00  0.00    -0.237 NA
ATOM     21  C   UNL A   1      32.872  20.139  24.984  1.00  0.00     0.088 A 
ATOM     22  C   UNL A   1      35.877  20.930  25.294  1.00  0.00     0.028 A 
ATOM     23  C   UNL A   1      33.378  18.478  24.451  1.00  0.00     0.030 A 
ATOM     24  C   UNL A   1      36.371  19.209  24.900  1.00  0.00     0.002 A 
ATOM     25  C   UNL A   1      35.110  18.007  24.453  1.00  0.00     0.002 A 
ENDBRANCH  11  17
ENDBRANCH   5   7
ENDBRANCH   4   5
ENDBRANCH   3   4
ENDBRANCH   2   3
ENDBRANCH   1   2
BRANCH   1  26
ATOM     26  C   UNL A   1      32.142  29.815  25.193  1.00  0.00     0.202 C 
BRANCH  26  27
ATOM     27  C   UNL A   1      31.772  30.722  26.369  1.00  0.00     0.261 C 
BRANCH  27  28
ATOM     28  O   UNL A   1      32.758  30.638  27.408  1.00  0.00    -0.460 OA
BRANCH  28  29
ATOM     29  C   UNL A   1      33.477  31.773  27.539  1.00  0.00     0.338 C 
ATOM     30  O   UNL A   1      33.057  32.912  27.643  1.00  0.00    -0.246 OA
BRANCH  29  31
ATOM     31  C   UNL A   1      34.896  31.462  27.747  1.00  0.00     0.060 A 
ATOM     32  C   UNL A   1      35.201  30.104  27.872  1.00  0.00     0.016 A 
ATOM     33  C   UNL A   1      35.860  32.446  27.974  1.00  0.00     0.016 A 
ATOM     34  C   UNL A   1      36.449  29.722  28.333  1.00  0.00     0.010 A 
ATOM     35  C   UNL A   1      37.122  32.056  28.435  1.00  0.00     0.010 A 
ATOM     36  C   UNL A   1      37.395  30.698  28.677  1.00  0.00    -0.014 A 
BRANCH  36  37
ATOM     37  C   UNL A   1      38.582  30.258  29.445  1.00  0.00     0.031 A 
ATOM     38  C   UNL A   1      38.738  30.698  30.876  1.00  0.00     0.074 A 
ATOM     39  C   UNL A   1      39.431  29.363  28.909  1.00  0.00     0.049 A 
ATOM     40  N   UNL A   1      39.642  30.353  31.757  1.00  0.00    -0.248 NA
ATOM     41  C   UNL A   1      37.740  31.651  31.385  1.00  0.00     0.031 C 
ATOM     42  C   UNL A   1      39.338  28.829  27.552  1.00  0.00     0.029 A 
ATOM     43  N   UNL A   1      40.518  28.729  29.450  1.00  0.00    -0.354 N 
ATOM     44  C   UNL A   1      39.323  31.046  32.919  1.00  0.00     0.074 A 
ATOM     45  C   UNL A   1      38.169  31.863  32.620  1.00  0.00     0.031 C 
ATOM     46  C   UNL A   1      40.320  27.933  27.369  1.00  0.00     0.029 A 
ATOM     47  C   UNL A   1      41.130  27.861  28.583  1.00  0.00     0.049 A 
ATOM     48  H   UNL A   1      40.829  28.882  30.372  1.00  0.00     0.167 HD
ATOM     49  C   UNL A   1      39.934  30.993  34.127  1.00  0.00     0.037 A 
ATOM     50  C   UNL A   1      42.231  27.104  28.749  1.00  0.00     0.037 A 
ATOM     51  C   UNL A   1      41.083  30.171  34.413  1.00  0.00     0.049 A 
ATOM     52  C   UNL A   1      42.931  27.119  30.082  1.00  0.00     0.074 A 
ATOM     53  C   UNL A   1      41.773  30.035  35.605  1.00  0.00     0.029 A 
ATOM     54  N   UNL A   1      41.717  29.351  33.490  1.00  0.00    -0.354 N 
ATOM     55  N   UNL A   1      42.615  27.764  31.180  1.00  0.00    -0.248 NA
ATOM     56  C   UNL A   1      44.136  26.289  30.201  1.00  0.00     0.031 C 
ATOM     57  C   UNL A   1      42.865  29.191  35.384  1.00  0.00     0.029 A 
ATOM     58  C   UNL A   1      42.811  28.733  34.078  1.00  0.00     0.049 A 
ATOM     59  H   UNL A   1      41.433  29.226  32.556  1.00  0.00     0.167 HD
ATOM     60  C   UNL A   1      43.560  27.394  32.127  1.00  0.00     0.074 A 
ATOM     61  C   UNL A   1      44.446  26.449  31.478  1.00  0.00     0.031 C 
ATOM     62  C   UNL A   1      43.685  27.796  33.417  1.00  0.00     0.037 A 
BRANCH  49  63
ATOM     63  C   UNL A   1      39.398  31.875  35.220  1.00  0.00     0.064 A 
ATOM     64  C   UNL A   1      38.535  31.390  36.216  1.00  0.00     0.173 A 
ATOM     65  C   UNL A   1      39.780  33.224  35.290  1.00  0.00     0.173 A 
ATOM     66  F   UNL A   1      38.124  30.112  36.191  1.00  0.00    -0.203 F 
ATOM     67  C   UNL A   1      38.053  32.228  37.220  1.00  0.00     0.198 A 
ATOM     68  C   UNL A   1      39.327  34.049  36.316  1.00  0.00     0.198 A 
ATOM     69  F   UNL A   1      40.605  33.741  34.368  1.00  0.00    -0.203 F 
ATOM     70  F   UNL A   1      37.187  31.755  38.127  1.00  0.00    -0.200 F 
ATOM     71  C   UNL A   1      38.456  33.554  37.274  1.00  0.00     0.200 A 
ATOM     72  F   UNL A   1      39.730  35.326  36.375  1.00  0.00    -0.200 F 
ATOM     73  F   UNL A   1      38.000  34.356  38.246  1.00  0.00    -0.200 F 
ENDBRANCH  49  63
BRANCH  50  74
ATOM     74  C   UNL A   1      42.743  26.281  27.621  1.00  0.00     0.064 A 
ATOM     75  C   UNL A   1      43.719  26.772  26.742  1.00  0.00     0.173 A 
ATOM     76  C   UNL A   1      42.250  24.987  27.392  1.00  0.00     0.173 A 
ATOM     77  F   UNL A   1      44.208  28.009  26.907  1.00  0.00    -0.203 F 
ATOM     78  C   UNL A   1      44.160  26.011  25.661  1.00  0.00     0.198 A 
ATOM     79  C   UNL A   1      42.719  24.214  26.332  1.00  0.00     0.198 A 
ATOM     80  F   UNL A   1      41.319  24.468  28.205  1.00  0.00    -0.203 F 
ATOM     81  F   UNL A   1      45.050  26.527  24.803  1.00  0.00    -0.200 F 
ATOM     82  C   UNL A   1      43.665  24.731  25.460  1.00  0.00     0.200 A 
ATOM     83  F   UNL A   1      42.253  22.971  26.156  1.00  0.00    -0.200 F 
ATOM     84  F   UNL A   1      44.093  23.999  24.423  1.00  0.00    -0.200 F 
ENDBRANCH  50  74
BRANCH  62  85
ATOM     85  C   UNL A   1      44.794  27.175  34.224  1.00  0.00     0.064 A 
ATOM     86  C   UNL A   1      44.616  25.978  34.936  1.00  0.00     0.173 A 
ATOM     87  C   UNL A   1      46.056  27.788  34.281  1.00  0.00     0.173 A 
ATOM     88  F   UNL A   1      43.427  25.355  34.925  1.00  0.00    -0.203 F 
ATOM     89  C   UNL A   1      45.641  25.450  35.718  1.00  0.00     0.198 A 
ATOM     90  C   UNL A   1      47.091  27.233  35.027  1.00  0.00     0.198 A 
ATOM     91  F   UNL A   1      46.288  28.925  33.609  1.00  0.00    -0.203 F 
ATOM     92  F   UNL A   1      45.421  24.351  36.453  1.00  0.00    -0.200 F 
ATOM     93  C   UNL A   1      46.879  26.074  35.758  1.00  0.00     0.200 A 
ATOM     94  F   UNL A   1      48.293  27.826  35.047  1.00  0.00    -0.200 F 
ATOM     95  F   UNL A   1      47.863  25.565  36.512  1.00  0.00    -0.200 F 
ENDBRANCH  62  85
ENDBRANCH  36  37
ENDBRANCH  29  31
ENDBRANCH  28  29
ENDBRANCH  27  28
ENDBRANCH  26  27
ENDBRANCH   1  26
TORSDOF 17
ENDMDL
MODEL 2
REMARK VINA RESULT:     -12.5      4.277     10.052
REMARK SMILES CC[NH2+][C@@]1(C(=O)OCCOCCOC(=O)c2ccc(-c3c4nc(c(-c5c(F)c(F)c(F)c(F)c5F)c5ccc([nH]5)c(-c5c(F)c(F)c(F)c(F)c5F)c5nc(c(-c6c(F)c(F)c(F)c(F)c6F)c6ccc3[nH]6)C=C5)C=C4)cc2)CC[C@@H](n2cnc3ccccc32)C1
REMARK SMILES IDX 10 1 9 2 8 3 7 4 5 5 6 6 4 7 79 8 91 9 80 10 81 11 3 12 2 15
REMARK SMILES IDX 1 16 82 17 83 18 90 19 84 20 85 21 89 22 86 23 88 24 87 25
REMARK SMILES IDX 11 26 12 27 13 28 14 29 15 30 16 31 17 32 78 33 18 34 77 35
REMARK SMILES IDX 19 36 20 37 21 38 71 39 22 40 76 41 70 42 72 43 23 44 75 45
REMARK SMILES IDX 69 46 68 47 24 49 56 50 36 51 55 52 37 53 40 54 54 55 73 56
REMARK SMILES IDX 38 57 39 58 53 60 74 61 41 62 25 63 26 64 34 65 27 66 28 67
REMARK SMILES IDX 32 68 35 69 29 70 30 71 33 72 31 73 57 74 58 75 66 76 59 77
REMARK SMILES IDX 60 78 64 79 67 80 61 81 62 82 65 83 63 84 42 85 43 86 51 87
REMARK SMILES IDX 44 88 45 89 49 90 52 91 46 92 47 93 50 94 48 95
REMARK H PARENT 3 13 3 14 72 48 40 59
REMARK Flexibility Score: inf
ROOT
ATOM      1  O   UNL A   1      35.022  20.731  25.172  1.00  0.00    -0.374 OA
ENDROOT
BRANCH   1   2
ATOM      2  C   UNL A   1      33.954  20.784  26.129  1.00  0.00     0.202 C 
BRANCH   2   3
ATOM      3  C   UNL A   1      32.770  21.722  25.820  1.00  0.00     0.261 C 
BRANCH   3   4
ATOM      4  O   UNL A   1      32.896  22.902  26.627  1.00  0.00    -0.459 OA
BRANCH   4   5
ATOM      5  C   UNL A   1      31.887  23.836  26.649  1.00  0.00     0.368 C 
ATOM      6  O   UNL A   1      30.843  23.673  27.271  1.00  0.00    -0.245 OA
BRANCH   5   7
ATOM      7  C   UNL A   1      32.308  25.196  25.576  1.00  0.00     0.196 C 
ATOM      8  C   UNL A   1      32.102  26.417  26.904  1.00  0.00     0.083 C 
ATOM      9  C   UNL A   1      30.511  25.533  25.273  1.00  0.00     0.106 C 
ATOM     10  C   UNL A   1      30.925  27.380  26.573  1.00  0.00     0.033 C 
ATOM     11  C   UNL A   1      30.441  27.034  25.164  1.00  0.00     0.096 C 
BRANCH   7  12
ATOM     12  N   UNL A   1      33.814  25.138  24.108  1.00  0.00    -0.332 N 
ATOM     13  H   UNL A   1      33.320  25.509  23.298  1.00  0.00     0.347 HD
ATOM     14  H   UNL A   1      34.528  25.459  24.763  1.00  0.00     0.347 HD
BRANCH  12  15
ATOM     15  C   UNL A   1      34.804  24.106  23.425  1.00  0.00     0.257 C 
ATOM     16  C   UNL A   1      34.057  22.985  22.692  1.00  0.00     0.071 C 
ENDBRANCH  12  15
ENDBRANCH   7  12
BRANCH  11  17
ATOM     17  N   UNL A   1      31.362  27.396  24.077  1.00  0.00    -0.327 N 
ATOM     18  C   UNL A   1      31.098  26.985  22.768  1.00  0.00     0.200 A 
ATOM     19  C   UNL A   1      31.584  28.790  24.037  1.00  0.00     0.068 A 
ATOM     20  N   UNL A   1      30.284  27.793  22.103  1.00  0.00    -0.237 NA
ATOM     21  C   UNL A   1      30.273  28.940  22.851  1.00  0.00     0.088 A 
ATOM     22  C   UNL A   1      31.767  30.066  25.351  1.00  0.00     0.028 A 
ATOM     23  C   UNL A   1      29.085  30.310  22.961  1.00  0.00     0.030 A 
ATOM     24  C   UNL A   1      30.653  31.522  25.361  1.00  0.00     0.002 A 
ATOM     25  C   UNL A   1      29.301  31.611  24.177  1.00  0.00     0.002 A 
ENDBRANCH  11  17
ENDBRANCH   5   7
ENDBRANCH   4   5
ENDBRANCH   3   4
ENDBRANCH   2   3
ENDBRANCH   1   2
BRANCH   1  26
ATOM     26  C   UNL A   1      36.271  21.281  25.585  1.00  0.00     0.202 C 
BRANCH  26  27
ATOM     27  C   UNL A   1      37.551  20.608  25.088  1.00  0.00     0.261 C 
BRANCH  27  28
ATOM     28  O   UNL A   1      38.661  21.516  25.148  1.00  0.00    -0.460 OA
BRANCH  28  29
ATOM     29  C   UNL A   1      39.554  21.188  26.106  1.00  0.00     0.338 C 
ATOM     30  O   UNL A   1      40.151  20.134  26.237  1.00  0.00    -0.246 OA
BRANCH  29  31
ATOM     31  C   UNL A   1      39.898  22.364  26.913  1.00  0.00     0.060 A 
ATOM     32  C   UNL A   1      39.235  23.545  26.567  1.00  0.00     0.016 A 
ATOM     33  C   UNL A   1      40.932  22.361  27.851  1.00  0.00     0.016 A 
ATOM     34  C   UNL A   1      39.677  24.753  27.077  1.00  0.00     0.010 A 
ATOM     35  C   UNL A   1      41.372  23.583  28.370  1.00  0.00     0.010 A 
ATOM     36  C   UNL A   1      40.787  24.785  27.933  1.00  0.00    -0.014 A 
BRANCH  36  37
ATOM     37  C   UNL A   1      41.403  26.105  28.202  1.00  0.00     0.031 A 
ATOM     38  C   UNL A   1      42.773  26.403  27.656  1.00  0.00     0.074 A 
ATOM     39  C   UNL A   1      40.685  27.067  28.807  1.00  0.00     0.049 A 
ATOM     40  N   UNL A   1      43.455  27.520  27.687  1.00  0.00    -0.248 NA
ATOM     41  C   UNL A   1      43.467  25.297  26.977  1.00  0.00     0.031 C 
ATOM     42  C   UNL A   1      39.328  26.899  29.324  1.00  0.00     0.029 A 
ATOM     43  N   UNL A   1      40.987  28.378  29.063  1.00  0.00    -0.354 N 
ATOM     44  C   UNL A   1      44.654  27.250  27.038  1.00  0.00     0.074 A 
ATOM     45  C   UNL A   1      44.626  25.855  26.660  1.00  0.00     0.031 C 
ATOM     46  C   UNL A   1      38.906  28.072  29.824  1.00  0.00     0.029 A 
ATOM     47  C   UNL A   1      39.977  29.057  29.695  1.00  0.00     0.049 A 
ATOM     48  H   UNL A   1      41.846  28.792  28.818  1.00  0.00     0.167 HD
ATOM     49  C   UNL A   1      45.679  28.096  26.773  1.00  0.00     0.037 A 
ATOM     50  C   UNL A   1      39.929  30.329  30.132  1.00  0.00     0.037 A 
ATOM     51  C   UNL A   1      45.693  29.486  27.152  1.00  0.00     0.049 A 
ATOM     52  C   UNL A   1      41.112  31.228  29.885  1.00  0.00     0.074 A 
ATOM     53  C   UNL A   1      46.675  30.434  26.924  1.00  0.00     0.029 A 
ATOM     54  N   UNL A   1      44.677  30.126  27.850  1.00  0.00    -0.354 N 
ATOM     55  N   UNL A   1      42.235  30.972  29.257  1.00  0.00    -0.248 NA
ATOM     56  C   UNL A   1      41.013  32.600  30.399  1.00  0.00     0.031 C 
ATOM     57  C   UNL A   1      46.287  31.625  27.546  1.00  0.00     0.029 A 
ATOM     58  C   UNL A   1      45.025  31.447  28.089  1.00  0.00     0.049 A 
ATOM     59  H   UNL A   1      43.833  29.704  28.132  1.00  0.00     0.167 HD
ATOM     60  C   UNL A   1      42.961  32.155  29.272  1.00  0.00     0.074 A 
ATOM     61  C   UNL A   1      42.139  33.135  29.951  1.00  0.00     0.031 C 
ATOM     62  C   UNL A   1      44.196  32.410  28.769  1.00  0.00     0.037 A 
BRANCH  49  63
ATOM     63  C   UNL A   1      46.885  27.535  26.072  1.00  0.00     0.064 A 
ATOM     64  C   UNL A   1      47.029  27.585  24.676  1.00  0.00     0.173 A 
ATOM     65  C   UNL A   1      47.931  26.965  26.815  1.00  0.00     0.173 A 
ATOM     66  F   UNL A   1      46.054  28.105  23.915  1.00  0.00    -0.203 F 
ATOM     67  C   UNL A   1      48.159  27.059  24.051  1.00  0.00     0.198 A 
ATOM     68  C   UNL A   1      49.074  26.475  26.191  1.00  0.00     0.198 A 
ATOM     69  F   UNL A   1      47.850  26.894  28.152  1.00  0.00    -0.203 F 
ATOM     70  F   UNL A   1      48.248  27.069  22.714  1.00  0.00    -0.200 F 
ATOM     71  C   UNL A   1      49.184  26.513  24.809  1.00  0.00     0.200 A 
ATOM     72  F   UNL A   1      50.071  25.962  26.926  1.00  0.00    -0.200 F 
ATOM     73  F   UNL A   1      50.274  26.017  24.208  1.00  0.00    -0.200 F 
ENDBRANCH  49  63
BRANCH  50  74
ATOM     74  C   UNL A   1      38.728  30.822  30.856  1.00  0.00     0.064 A 
ATOM     75  C   UNL A   1      38.652  30.786  32.255  1.00  0.00     0.173 A 
ATOM     76  C   UNL A   1      37.620  31.325  30.155  1.00  0.00     0.173 A 
ATOM     77  F   UNL A   1      39.675  30.298  32.970  1.00  0.00    -0.203 F 
ATOM     78  C   UNL A   1      37.504  31.208  32.923  1.00  0.00     0.198 A 
ATOM     79  C   UNL A   1      36.488  31.780  30.826  1.00  0.00     0.198 A 
ATOM     80  F   UNL A   1      37.642  31.385  28.816  1.00  0.00    -0.203 F 
ATOM     81  F   UNL A   1      37.434  31.108  34.257  1.00  0.00    -0.200 F 
ATOM     82  C   UNL A   1      36.425  31.710  32.209  1.00  0.00     0.200 A 
ATOM     83  F   UNL A   1      35.459  32.283  30.132  1.00  0.00    -0.200 F 
ATOM     84  F   UNL A   1      35.324  32.118  32.853  1.00  0.00    -0.200 F 
ENDBRANCH  50  74
BRANCH  62  85
ATOM     85  C   UNL A   1      44.708  33.820  28.894  1.00  0.00     0.064 A 
ATOM     86  C   UNL A   1      45.475  34.239  29.993  1.00  0.00     0.173 A 
ATOM     87  C   UNL A   1      44.427  34.766  27.895  1.00  0.00     0.173 A 
ATOM     88  F   UNL A   1      45.765  33.379  30.982  1.00  0.00    -0.203 F 
ATOM     89  C   UNL A   1      45.894  35.562  30.112  1.00  0.00     0.198 A 
ATOM     90  C   UNL A   1      44.886  36.076  27.996  1.00  0.00     0.198 A 
ATOM     91  F   UNL A   1      43.710  34.419  26.816  1.00  0.00    -0.203 F 
ATOM     92  F   UNL A   1      46.556  35.956  31.209  1.00  0.00    -0.200 F 
ATOM     93  C   UNL A   1      45.605  36.478  29.112  1.00  0.00     0.200 A 
ATOM     94  F   UNL A   1      44.623  36.954  27.017  1.00  0.00    -0.200 F 
ATOM     95  F   UNL A   1      46.007  37.750  29.230  1.00  0.00    -0.200 F 
ENDBRANCH  62  85
ENDBRANCH  36  37
ENDBRANCH  29  31
ENDBRANCH  28  29
ENDBRANCH  27  28
ENDBRANCH  26  27
ENDBRANCH   1  26
TORSDOF 17
ENDMDL
MODEL 3
REMARK VINA RESULT:     -12.4      0.491      7.259
REMARK SMILES CC[NH2+][C@@]1(C(=O)OCCOCCOC(=O)c2ccc(-c3c4nc(c(-c5c(F)c(F)c(F)c(F)c5F)c5ccc([nH]5)c(-c5c(F)c(F)c(F)c(F)c5F)c5nc(c(-c6c(F)c(F)c(F)c(F)c6F)c6ccc3[nH]6)C=C5)C=C4)cc2)CC[C@@H](n2cnc3ccccc32)C1
REMARK SMILES IDX 10 1 9 2 8 3 7 4 5 5 6 6 4 7 79 8 91 9 80 10 81 11 3 12 2 15
REMARK SMILES IDX 1 16 82 17 83 18 90 19 84 20 85 21 89 22 86 23 88 24 87 25
REMARK SMILES IDX 11 26 12 27 13 28 14 29 15 30 16 31 17 32 78 33 18 34 77 35
REMARK SMILES IDX 19 36 20 37 21 38 71 39 22 40 76 41 70 42 72 43 23 44 75 45
REMARK SMILES IDX 69 46 68 47 24 49 56 50 36 51 55 52 37 53 40 54 54 55 73 56
REMARK SMILES IDX 38 57 39 58 53 60 74 61 41 62 25 63 26 64 34 65 27 66 28 67
REMARK SMILES IDX 32 68 35 69 29 70 30 71 33 72 31 73 57 74 58 75 66 76 59 77
REMARK SMILES IDX 60 78 64 79 67 80 61 81 62 82 65 83 63 84 42 85 43 86 51 87
REMARK SMILES IDX 44 88 45 89 49 90 52 91 46 92 47 93 50 94 48 95
REMARK H PARENT 3 13 3 14 72 48 40 59
REMARK Flexibility Score: inf
ROOT
ATOM      1  O   UNL A   1      31.174  28.890  24.619  1.00  0.00    -0.374 OA
ENDROOT
BRANCH   1   2
ATOM      2  C   UNL A   1      31.462  28.302  23.342  1.00  0.00     0.202 C 
BRANCH   2   3
ATOM      3  C   UNL A   1      32.870  28.536  22.755  1.00  0.00     0.261 C 
BRANCH   3   4
ATOM      4  O   UNL A   1      33.734  27.481  23.202  1.00  0.00    -0.459 OA
BRANCH   4   5
ATOM      5  C   UNL A   1      33.603  26.213  22.685  1.00  0.00     0.368 C 
ATOM      6  O   UNL A   1      33.442  25.997  21.489  1.00  0.00    -0.245 OA
BRANCH   5   7
ATOM      7  C   UNL A   1      33.598  25.024  24.013  1.00  0.00     0.196 C 
ATOM      8  C   UNL A   1      35.223  24.366  23.542  1.00  0.00     0.083 C 
ATOM      9  C   UNL A   1      32.968  23.717  22.860  1.00  0.00     0.106 C 
ATOM     10  C   UNL A   1      35.094  22.881  23.092  1.00  0.00     0.033 C 
ATOM     11  C   UNL A   1      33.646  22.459  23.338  1.00  0.00     0.096 C 
BRANCH   7  12
ATOM     12  N   UNL A   1      32.879  25.402  25.954  1.00  0.00    -0.332 N 
ATOM     13  H   UNL A   1      33.132  24.540  26.434  1.00  0.00     0.347 HD
ATOM     14  H   UNL A   1      33.199  26.371  25.932  1.00  0.00     0.347 HD
BRANCH  12  15
ATOM     15  C   UNL A   1      31.533  25.789  26.695  1.00  0.00     0.257 C 
ATOM     16  C   UNL A   1      30.311  25.680  25.773  1.00  0.00     0.071 C 
ENDBRANCH  12  15
ENDBRANCH   7  12
BRANCH  11  17
ATOM     17  N   UNL A   1      33.263  22.318  24.751  1.00  0.00    -0.327 N 
ATOM     18  C   UNL A   1      31.938  22.045  25.095  1.00  0.00     0.200 A 
ATOM     19  C   UNL A   1      34.067  21.357  25.404  1.00  0.00     0.068 A 
ATOM     20  N   UNL A   1      31.628  20.756  25.069  1.00  0.00    -0.237 NA
ATOM     21  C   UNL A   1      32.842  20.125  25.046  1.00  0.00     0.088 A 
ATOM     22  C   UNL A   1      35.852  20.924  25.278  1.00  0.00     0.028 A 
ATOM     23  C   UNL A   1      33.339  18.463  24.504  1.00  0.00     0.030 A 
ATOM     24  C   UNL A   1      36.340  19.203  24.875  1.00  0.00     0.002 A 
ATOM     25  C   UNL A   1      35.071  17.996  24.464  1.00  0.00     0.002 A 
ENDBRANCH  11  17
ENDBRANCH   5   7
ENDBRANCH   4   5
ENDBRANCH   3   4
ENDBRANCH   2   3
ENDBRANCH   1   2
BRANCH   1  26
ATOM     26  C   UNL A   1      32.216  29.659  25.213  1.00  0.00     0.202 C 
BRANCH  26  27
ATOM     27  C   UNL A   1      31.820  30.830  26.114  1.00  0.00     0.261 C 
BRANCH  27  28
ATOM     28  O   UNL A   1      32.562  30.801  27.343  1.00  0.00    -0.460 OA
BRANCH  28  29
ATOM     29  C   UNL A   1      33.365  31.875  27.494  1.00  0.00     0.338 C 
ATOM     30  O   UNL A   1      33.040  33.049  27.526  1.00  0.00    -0.246 OA
BRANCH  29  31
ATOM     31  C   UNL A   1      34.730  31.453  27.826  1.00  0.00     0.060 A 
ATOM     32  C   UNL A   1      34.896  30.085  28.063  1.00  0.00     0.016 A 
ATOM     33  C   UNL A   1      35.767  32.360  28.058  1.00  0.00     0.016 A 
ATOM     34  C   UNL A   1      36.068  29.627  28.639  1.00  0.00     0.010 A 
ATOM     35  C   UNL A   1      36.952  31.892  28.635  1.00  0.00     0.010 A 
ATOM     36  C   UNL A   1      37.077  30.536  28.985  1.00  0.00    -0.014 A 
BRANCH  36  37
ATOM     37  C   UNL A   1      38.163  30.047  29.867  1.00  0.00     0.031 A 
ATOM     38  C   UNL A   1      39.188  29.093  29.313  1.00  0.00     0.074 A 
ATOM     39  C   UNL A   1      38.305  30.563  31.100  1.00  0.00     0.049 A 
ATOM     40  N   UNL A   1      40.271  28.620  29.875  1.00  0.00    -0.248 NA
ATOM     41  C   UNL A   1      38.966  28.611  27.941  1.00  0.00     0.031 C 
ATOM     42  C   UNL A   1      37.401  31.535  31.711  1.00  0.00     0.029 A 
ATOM     43  N   UNL A   1      39.276  30.360  32.045  1.00  0.00    -0.354 N 
ATOM     44  C   UNL A   1      40.855  27.787  28.929  1.00  0.00     0.074 A 
ATOM     45  C   UNL A   1      39.987  27.785  27.774  1.00  0.00     0.031 C 
ATOM     46  C   UNL A   1      37.869  31.858  32.927  1.00  0.00     0.029 A 
ATOM     47  C   UNL A   1      39.082  31.087  33.191  1.00  0.00     0.049 A 
ATOM     48  H   UNL A   1      40.039  29.752  31.913  1.00  0.00     0.167 HD
ATOM     49  C   UNL A   1      42.018  27.097  29.017  1.00  0.00     0.037 A 
ATOM     50  C   UNL A   1      39.797  31.116  34.331  1.00  0.00     0.037 A 
ATOM     51  C   UNL A   1      42.877  27.110  30.174  1.00  0.00     0.049 A 
ATOM     52  C   UNL A   1      41.048  30.283  34.426  1.00  0.00     0.074 A 
ATOM     53  C   UNL A   1      44.081  26.455  30.364  1.00  0.00     0.029 A 
ATOM     54  N   UNL A   1      42.615  27.809  31.345  1.00  0.00    -0.354 N 
ATOM     55  N   UNL A   1      41.604  29.511  33.522  1.00  0.00    -0.248 NA
ATOM     56  C   UNL A   1      41.780  30.338  35.698  1.00  0.00     0.031 C 
ATOM     57  C   UNL A   1      44.510  26.699  31.672  1.00  0.00     0.029 A 
ATOM     58  C   UNL A   1      43.619  27.574  32.272  1.00  0.00     0.049 A 
ATOM     59  H   UNL A   1      41.832  28.388  31.494  1.00  0.00     0.167 HD
ATOM     60  C   UNL A   1      42.763  29.014  34.103  1.00  0.00     0.074 A 
ATOM     61  C   UNL A   1      42.842  29.594  35.429  1.00  0.00     0.031 C 
ATOM     62  C   UNL A   1      43.681  28.157  33.589  1.00  0.00     0.037 A 
BRANCH  49  63
ATOM     63  C   UNL A   1      42.412  26.239  27.846  1.00  0.00     0.064 A 
ATOM     64  C   UNL A   1      41.870  24.960  27.641  1.00  0.00     0.173 A 
ATOM     65  C   UNL A   1      43.324  26.720  26.894  1.00  0.00     0.173 A 
ATOM     66  F   UNL A   1      41.004  24.444  28.527  1.00  0.00    -0.203 F 
ATOM     67  C   UNL A   1      42.249  24.185  26.547  1.00  0.00     0.198 A 
ATOM     68  C   UNL A   1      43.673  25.958  25.782  1.00  0.00     0.198 A 
ATOM     69  F   UNL A   1      43.871  27.936  27.035  1.00  0.00    -0.203 F 
ATOM     70  F   UNL A   1      41.760  22.946  26.403  1.00  0.00    -0.200 F 
ATOM     71  C   UNL A   1      43.144  24.688  25.614  1.00  0.00     0.200 A 
ATOM     72  F   UNL A   1      44.525  26.453  24.873  1.00  0.00    -0.200 F 
ATOM     73  F   UNL A   1      43.500  23.946  24.556  1.00  0.00    -0.200 F 
ENDBRANCH  49  63
BRANCH  50  74
ATOM     74  C   UNL A   1      39.341  31.950  35.474  1.00  0.00     0.064 A 
ATOM     75  C   UNL A   1      38.516  31.426  36.478  1.00  0.00     0.173 A 
ATOM     76  C   UNL A   1      39.712  33.300  35.574  1.00  0.00     0.173 A 
ATOM     77  F   UNL A   1      38.119  30.146  36.419  1.00  0.00    -0.203 F 
ATOM     78  C   UNL A   1      38.056  32.227  37.521  1.00  0.00     0.198 A 
ATOM     79  C   UNL A   1      39.281  34.090  36.637  1.00  0.00     0.198 A 
ATOM     80  F   UNL A   1      40.503  33.851  34.642  1.00  0.00    -0.203 F 
ATOM     81  F   UNL A   1      37.221  31.716  38.436  1.00  0.00    -0.200 F 
ATOM     82  C   UNL A   1      38.443  33.556  37.604  1.00  0.00     0.200 A 
ATOM     83  F   UNL A   1      39.676  35.367  36.722  1.00  0.00    -0.200 F 
ATOM     84  F   UNL A   1      38.003  34.324  38.610  1.00  0.00    -0.200 F 
ENDBRANCH  50  74
BRANCH  62  85
ATOM     85  C   UNL A   1      44.875  27.836  34.448  1.00  0.00     0.064 A 
ATOM     86  C   UNL A   1      44.889  26.736  35.321  1.00  0.00     0.173 A 
ATOM     87  C   UNL A   1      46.023  28.642  34.394  1.00  0.00     0.173 A 
ATOM     88  F   UNL A   1      43.815  25.937  35.420  1.00  0.00    -0.203 F 
ATOM     89  C   UNL A   1      45.985  26.489  36.144  1.00  0.00     0.198 A 
ATOM     90  C   UNL A   1      47.134  28.365  35.186  1.00  0.00     0.198 A 
ATOM     91  F   UNL A   1      46.071  29.698  33.569  1.00  0.00    -0.203 F 
ATOM     92  F   UNL A   1      45.943  25.481  37.027  1.00  0.00    -0.200 F 
ATOM     93  C   UNL A   1      47.108  27.299  36.072  1.00  0.00     0.200 A 
ATOM     94  F   UNL A   1      48.226  29.137  35.099  1.00  0.00    -0.200 F 
ATOM     95  F   UNL A   1      48.160  27.060  36.866  1.00  0.00    -0.200 F 
ENDBRANCH  62  85
ENDBRANCH  36  37
ENDBRANCH  29  31
ENDBRANCH  28  29
ENDBRANCH  27  28
ENDBRANCH  26  27
ENDBRANCH   1  26
TORSDOF 17
ENDMDL
