MODEL 1
REMARK VINA RESULT:     -12.7      0.000      0.000
REMARK SMILES CCc1ccc(-c2cc(Cl)cc3c2O[C@@H](C(F)(F)F)C(C(=O)OCCOCCOC(=O)c2ccc(-c4c5nc(c(-c6c(F)c(F)c(F)c(F)c6F)c6ccc([nH]6)c(-c6c(F)c(F)c(F)c(F)c6F)c6nc(c(-c7c(F)c(F)c(F)c(F)c7F)c7ccc4[nH]7)C=C6)C=C5)cc2)=C3)cc1
REMARK SMILES IDX 26 1 25 2 24 3 23 4 21 5 22 6 20 7 7 8 8 9 13 10 9 11 12 12
REMARK SMILES IDX 14 13 10 14 11 15 95 16 15 17 6 18 3 19 4 20 97 21 5 22
REMARK SMILES IDX 96 23 2 24 1 25 16 26 17 27 18 28 19 29 27 30 28 31 29 32
REMARK SMILES IDX 30 33 31 34 32 35 33 36 94 37 34 38 93 39 35 40 36 41 37 42
REMARK SMILES IDX 87 43 38 44 92 45 86 46 88 47 39 48 91 49 85 50 84 51 40 53
REMARK SMILES IDX 72 54 52 55 71 56 53 57 56 58 70 59 89 60 54 61 55 62 69 64
REMARK SMILES IDX 90 65 57 66 41 67 42 68 50 69 43 70 44 71 48 72 51 73 45 74
REMARK SMILES IDX 46 75 49 76 47 77 73 78 74 79 82 80 75 81 76 82 80 83 83 84
REMARK SMILES IDX 77 85 78 86 81 87 79 88 58 89 59 90 67 91 60 92 61 93 65 94
REMARK SMILES IDX 68 95 62 96 63 97 66 98 64 99
REMARK H PARENT 88 52 56 63
REMARK Flexibility Score: inf
ROOT
ATOM      1  O   UNL A   1      33.106  30.973  27.237  1.00  0.00    -0.374 OA
ENDROOT
BRANCH   1   2
ATOM      2  C   UNL A   1      33.452  30.012  26.249  1.00  0.00     0.202 C 
BRANCH   2   3
ATOM      3  C   UNL A   1      32.338  29.438  25.358  1.00  0.00     0.261 C 
BRANCH   3   4
ATOM      4  O   UNL A   1      31.615  28.364  25.978  1.00  0.00    -0.460 OA
BRANCH   4   5
ATOM      5  C   UNL A   1      31.313  27.322  25.180  1.00  0.00     0.338 C 
ATOM      6  O   UNL A   1      30.210  27.097  24.701  1.00  0.00    -0.246 OA
BRANCH   5   7
ATOM      7  C   UNL A   1      32.514  26.550  24.783  1.00  0.00     0.087 C 
ATOM      8  C   UNL A   1      32.011  22.433  24.490  1.00  0.00     0.026 A 
ATOM      9  C   UNL A   1      30.941  22.128  25.366  1.00  0.00     0.033 A 
ATOM     10  C   UNL A   1      32.441  23.778  24.513  1.00  0.00     0.135 A 
ATOM     11  C   UNL A   1      30.575  22.993  26.395  1.00  0.00     0.042 A 
ATOM     12  C   UNL A   1      32.264  24.524  25.692  1.00  0.00     0.019 A 
ATOM     13  O   UNL A   1      32.607  24.492  23.314  1.00  0.00    -0.475 OA
ATOM     14  Cl  UNL A   1      29.284  22.573  27.446  1.00  0.00    -0.084 Cl
ATOM     15  C   UNL A   1      31.308  24.145  26.626  1.00  0.00     0.032 A 
ATOM     16  C   UNL A   1      32.955  25.824  25.823  1.00  0.00     0.027 C 
ATOM     17  C   UNL A   1      32.839  25.962  23.425  1.00  0.00     0.316 C 
BRANCH   8  18
ATOM     18  C   UNL A   1      32.885  21.239  24.175  1.00  0.00    -0.015 A 
ATOM     19  C   UNL A   1      34.169  18.656  24.401  1.00  0.00    -0.048 A 
ATOM     20  C   UNL A   1      32.962  18.820  23.707  1.00  0.00     0.004 A 
ATOM     21  C   UNL A   1      34.770  19.810  24.911  1.00  0.00     0.004 A 
ATOM     22  C   UNL A   1      32.346  20.081  23.581  1.00  0.00     0.009 A 
ATOM     23  C   UNL A   1      34.142  21.075  24.796  1.00  0.00     0.009 A 
BRANCH  19  24
ATOM     24  C   UNL A   1      34.705  17.246  24.573  1.00  0.00     0.032 C 
ATOM     25  C   UNL A   1      33.715  16.086  24.631  1.00  0.00     0.009 C 
ENDBRANCH  19  24
ENDBRANCH   8  18
BRANCH  17  26
ATOM     26  C   UNL A   1      32.396  26.834  22.228  1.00  0.00     0.430 C 
ATOM     27  F   UNL A   1      33.092  26.454  21.119  1.00  0.00    -0.167 F 
ATOM     28  F   UNL A   1      31.088  26.664  21.932  1.00  0.00    -0.167 F 
ATOM     29  F   UNL A   1      32.601  28.157  22.372  1.00  0.00    -0.167 F 
ENDBRANCH  17  26
ENDBRANCH   5   7
ENDBRANCH   4   5
ENDBRANCH   3   4
ENDBRANCH   2   3
ENDBRANCH   1   2
BRANCH   1  30
ATOM     30  C   UNL A   1      31.982  31.816  26.994  1.00  0.00     0.202 C 
BRANCH  30  31
ATOM     31  C   UNL A   1      32.155  33.333  27.128  1.00  0.00     0.261 C 
BRANCH  31  32
ATOM     32  O   UNL A   1      32.548  33.755  28.444  1.00  0.00    -0.460 OA
BRANCH  32  33
ATOM     33  C   UNL A   1      33.709  34.449  28.486  1.00  0.00     0.338 C 
ATOM     34  O   UNL A   1      33.859  35.663  28.414  1.00  0.00    -0.246 OA
BRANCH  33  35
ATOM     35  C   UNL A   1      34.828  33.548  28.793  1.00  0.00     0.060 A 
ATOM     36  C   UNL A   1      34.575  32.453  29.629  1.00  0.00     0.016 A 
ATOM     37  C   UNL A   1      36.126  33.841  28.371  1.00  0.00     0.016 A 
ATOM     38  C   UNL A   1      35.631  31.669  30.082  1.00  0.00     0.010 A 
ATOM     39  C   UNL A   1      37.185  33.055  28.833  1.00  0.00     0.010 A 
ATOM     40  C   UNL A   1      36.946  31.990  29.720  1.00  0.00    -0.014 A 
BRANCH  40  41
ATOM     41  C   UNL A   1      38.071  31.288  30.383  1.00  0.00     0.031 A 
ATOM     42  C   UNL A   1      38.396  31.616  31.814  1.00  0.00     0.074 A 
ATOM     43  C   UNL A   1      38.764  30.341  29.727  1.00  0.00     0.049 A 
ATOM     44  N   UNL A   1      39.340  31.135  32.582  1.00  0.00    -0.248 NA
ATOM     45  C   UNL A   1      37.545  32.623  32.467  1.00  0.00     0.031 C 
ATOM     46  C   UNL A   1      38.515  29.917  28.350  1.00  0.00     0.029 A 
ATOM     47  N   UNL A   1      39.821  29.566  30.133  1.00  0.00    -0.354 N 
ATOM     48  C   UNL A   1      39.201  31.784  33.803  1.00  0.00     0.074 A 
ATOM     49  C   UNL A   1      38.103  32.717  33.665  1.00  0.00     0.031 C 
ATOM     50  C   UNL A   1      39.401  28.962  28.022  1.00  0.00     0.029 A 
ATOM     51  C   UNL A   1      40.299  28.733  29.152  1.00  0.00     0.049 A 
ATOM     52  H   UNL A   1      40.200  29.604  31.041  1.00  0.00     0.167 HD
ATOM     53  C   UNL A   1      39.920  31.609  34.937  1.00  0.00     0.037 A 
ATOM     54  C   UNL A   1      41.356  27.898  29.161  1.00  0.00     0.037 A 
ATOM     55  C   UNL A   1      41.006  30.673  35.068  1.00  0.00     0.049 A 
ATOM     56  C   UNL A   1      42.176  27.768  30.420  1.00  0.00     0.074 A 
ATOM     57  C   UNL A   1      41.777  30.398  36.184  1.00  0.00     0.029 A 
ATOM     58  N   UNL A   1      41.480  29.865  34.045  1.00  0.00    -0.354 N 
ATOM     59  N   UNL A   1      42.015  28.357  31.580  1.00  0.00    -0.248 NA
ATOM     60  C   UNL A   1      43.323  26.850  30.370  1.00  0.00     0.031 C 
ATOM     61  C   UNL A   1      42.757  29.470  35.819  1.00  0.00     0.029 A 
ATOM     62  C   UNL A   1      42.555  29.115  34.494  1.00  0.00     0.049 A 
ATOM     63  H   UNL A   1      41.107  29.830  33.134  1.00  0.00     0.167 HD
ATOM     64  C   UNL A   1      43.016  27.860  32.405  1.00  0.00     0.074 A 
ATOM     65  C   UNL A   1      43.770  26.908  31.617  1.00  0.00     0.031 C 
ATOM     66  C   UNL A   1      43.289  28.165  33.698  1.00  0.00     0.037 A 
BRANCH  53  67
ATOM     67  C   UNL A   1      39.577  32.464  36.123  1.00  0.00     0.064 A 
ATOM     68  C   UNL A   1      40.215  33.690  36.363  1.00  0.00     0.173 A 
ATOM     69  C   UNL A   1      38.557  32.073  37.005  1.00  0.00     0.173 A 
ATOM     70  F   UNL A   1      41.205  34.106  35.558  1.00  0.00    -0.203 F 
ATOM     71  C   UNL A   1      39.858  34.483  37.451  1.00  0.00     0.198 A 
ATOM     72  C   UNL A   1      38.182  32.883  38.073  1.00  0.00     0.198 A 
ATOM     73  F   UNL A   1      37.911  30.912  36.820  1.00  0.00    -0.203 F 
ATOM     74  F   UNL A   1      40.509  35.631  37.685  1.00  0.00    -0.200 F 
ATOM     75  C   UNL A   1      38.837  34.084  38.300  1.00  0.00     0.200 A 
ATOM     76  F   UNL A   1      37.184  32.501  38.884  1.00  0.00    -0.200 F 
ATOM     77  F   UNL A   1      38.486  34.854  39.339  1.00  0.00    -0.200 F 
ENDBRANCH  53  67
BRANCH  54  78
ATOM     78  C   UNL A   1      41.713  27.132  27.938  1.00  0.00     0.064 A 
ATOM     79  C   UNL A   1      41.239  25.830  27.729  1.00  0.00     0.173 A 
ATOM     80  C   UNL A   1      42.563  27.678  26.964  1.00  0.00     0.173 A 
ATOM     81  F   UNL A   1      40.442  25.254  28.643  1.00  0.00    -0.203 F 
ATOM     82  C   UNL A   1      41.622  25.093  26.610  1.00  0.00     0.198 A 
ATOM     83  C   UNL A   1      42.919  26.954  25.828  1.00  0.00     0.198 A 
ATOM     84  F   UNL A   1      43.047  28.921  27.113  1.00  0.00    -0.203 F 
ATOM     85  F   UNL A   1      41.202  23.829  26.467  1.00  0.00    -0.200 F 
ATOM     86  C   UNL A   1      42.458  25.658  25.658  1.00  0.00     0.200 A 
ATOM     87  F   UNL A   1      43.715  27.509  24.905  1.00  0.00    -0.200 F 
ATOM     88  F   UNL A   1      42.827  24.949  24.583  1.00  0.00    -0.200 F 
ENDBRANCH  54  78
BRANCH  66  89
ATOM     89  C   UNL A   1      44.425  27.432  34.356  1.00  0.00     0.064 A 
ATOM     90  C   UNL A   1      44.242  26.187  34.976  1.00  0.00     0.173 A 
ATOM     91  C   UNL A   1      45.723  27.966  34.326  1.00  0.00     0.173 A 
ATOM     92  F   UNL A   1      43.020  25.639  35.043  1.00  0.00    -0.203 F 
ATOM     93  C   UNL A   1      45.311  25.520  35.570  1.00  0.00     0.198 A 
ATOM     94  C   UNL A   1      46.795  27.280  34.890  1.00  0.00     0.198 A 
ATOM     95  F   UNL A   1      45.955  29.149  33.738  1.00  0.00    -0.203 F 
ATOM     96  F   UNL A   1      45.102  24.359  36.205  1.00  0.00    -0.200 F 
ATOM     97  C   UNL A   1      46.586  26.062  35.520  1.00  0.00     0.200 A 
ATOM     98  F   UNL A   1      48.029  27.797  34.823  1.00  0.00    -0.200 F 
ATOM     99  F   UNL A   1      47.614  25.414  36.084  1.00  0.00    -0.200 F 
ENDBRANCH  66  89
ENDBRANCH  40  41
ENDBRANCH  33  35
ENDBRANCH  32  33
ENDBRANCH  31  32
ENDBRANCH  30  31
ENDBRANCH   1  30
TORSDOF 17
ENDMDL
MODEL 2
REMARK VINA RESULT:     -12.7      1.395      1.748
REMARK SMILES CCc1ccc(-c2cc(Cl)cc3c2O[C@@H](C(F)(F)F)C(C(=O)OCCOCCOC(=O)c2ccc(-c4c5nc(c(-c6c(F)c(F)c(F)c(F)c6F)c6ccc([nH]6)c(-c6c(F)c(F)c(F)c(F)c6F)c6nc(c(-c7c(F)c(F)c(F)c(F)c7F)c7ccc4[nH]7)C=C6)C=C5)cc2)=C3)cc1
REMARK SMILES IDX 26 1 25 2 24 3 23 4 21 5 22 6 20 7 7 8 8 9 13 10 9 11 12 12
REMARK SMILES IDX 14 13 10 14 11 15 95 16 15 17 6 18 3 19 4 20 97 21 5 22
REMARK SMILES IDX 96 23 2 24 1 25 16 26 17 27 18 28 19 29 27 30 28 31 29 32
REMARK SMILES IDX 30 33 31 34 32 35 33 36 94 37 34 38 93 39 35 40 36 41 37 42
REMARK SMILES IDX 87 43 38 44 92 45 86 46 88 47 39 48 91 49 85 50 84 51 40 53
REMARK SMILES IDX 72 54 52 55 71 56 53 57 56 58 70 59 89 60 54 61 55 62 69 64
REMARK SMILES IDX 90 65 57 66 41 67 42 68 50 69 43 70 44 71 48 72 51 73 45 74
REMARK SMILES IDX 46 75 49 76 47 77 73 78 74 79 82 80 75 81 76 82 80 83 83 84
REMARK SMILES IDX 77 85 78 86 81 87 79 88 58 89 59 90 67 91 60 92 61 93 65 94
REMARK SMILES IDX 68 95 62 96 63 97 66 98 64 99
REMARK H PARENT 88 52 56 63
REMARK Flexibility Score: inf
ROOT
ATOM      1  O   UNL A   1      32.880  30.676  26.471  1.00  0.00    -0.374 OA
ENDROOT
BRANCH   1   2
ATOM      2  C   UNL A   1      32.822  29.297  26.807  1.00  0.00     0.202 C 
BRANCH   2   3
ATOM      3  C   UNL A   1      34.019  28.401  26.451  1.00  0.00     0.261 C 
BRANCH   3   4
ATOM      4  O   UNL A   1      33.653  27.245  25.684  1.00  0.00    -0.460 OA
BRANCH   4   5
ATOM      5  C   UNL A   1      33.497  27.444  24.361  1.00  0.00     0.338 C 
ATOM      6  O   UNL A   1      34.027  28.338  23.715  1.00  0.00    -0.246 OA
BRANCH   5   7
ATOM      7  C   UNL A   1      32.741  26.347  23.711  1.00  0.00     0.087 C 
ATOM      8  C   UNL A   1      33.361  22.542  25.268  1.00  0.00     0.026 A 
ATOM      9  C   UNL A   1      34.655  22.584  25.842  1.00  0.00     0.033 A 
ATOM     10  C   UNL A   1      32.978  23.707  24.568  1.00  0.00     0.135 A 
ATOM     11  C   UNL A   1      35.587  23.548  25.464  1.00  0.00     0.042 A 
ATOM     12  C   UNL A   1      33.978  24.507  23.987  1.00  0.00     0.019 A 
ATOM     13  O   UNL A   1      31.731  24.306  24.815  1.00  0.00    -0.475 OA
ATOM     14  Cl  UNL A   1      37.152  23.548  26.171  1.00  0.00    -0.084 Cl
ATOM     15  C   UNL A   1      35.284  24.447  24.454  1.00  0.00     0.032 A 
ATOM     16  C   UNL A   1      33.582  25.556  23.024  1.00  0.00     0.027 C 
ATOM     17  C   UNL A   1      31.492  25.651  24.211  1.00  0.00     0.316 C 
BRANCH   8  18
ATOM     18  C   UNL A   1      32.889  21.138  24.960  1.00  0.00    -0.015 A 
ATOM     19  C   UNL A   1      32.884  18.399  24.027  1.00  0.00    -0.048 A 
ATOM     20  C   UNL A   1      33.232  18.728  25.344  1.00  0.00     0.004 A 
ATOM     21  C   UNL A   1      32.457  19.445  23.203  1.00  0.00     0.004 A 
ATOM     22  C   UNL A   1      33.218  20.060  25.804  1.00  0.00     0.009 A 
ATOM     23  C   UNL A   1      32.457  20.786  23.663  1.00  0.00     0.009 A 
BRANCH  19  24
ATOM     24  C   UNL A   1      33.028  16.952  23.592  1.00  0.00     0.032 C 
ATOM     25  C   UNL A   1      33.129  15.870  24.663  1.00  0.00     0.009 C 
ENDBRANCH  19  24
ENDBRANCH   8  18
BRANCH  17  26
ATOM     26  C   UNL A   1      30.490  26.577  24.938  1.00  0.00     0.430 C 
ATOM     27  F   UNL A   1      29.237  26.051  24.827  1.00  0.00    -0.167 F 
ATOM     28  F   UNL A   1      30.749  26.666  26.262  1.00  0.00    -0.167 F 
ATOM     29  F   UNL A   1      30.420  27.834  24.462  1.00  0.00    -0.167 F 
ENDBRANCH  17  26
ENDBRANCH   5   7
ENDBRANCH   4   5
ENDBRANCH   3   4
ENDBRANCH   2   3
ENDBRANCH   1   2
BRANCH   1  30
ATOM     30  C   UNL A   1      31.673  31.434  26.513  1.00  0.00     0.202 C 
BRANCH  30  31
ATOM     31  C   UNL A   1      31.735  32.894  26.970  1.00  0.00     0.261 C 
BRANCH  31  32
ATOM     32  O   UNL A   1      33.059  33.450  26.953  1.00  0.00    -0.460 OA
BRANCH  32  33
ATOM     33  C   UNL A   1      33.535  33.802  28.170  1.00  0.00     0.338 C 
ATOM     34  O   UNL A   1      33.011  34.545  28.992  1.00  0.00    -0.246 OA
BRANCH  33  35
ATOM     35  C   UNL A   1      34.750  33.039  28.481  1.00  0.00     0.060 A 
ATOM     36  C   UNL A   1      34.597  31.738  28.974  1.00  0.00     0.016 A 
ATOM     37  C   UNL A   1      36.012  33.633  28.407  1.00  0.00     0.016 A 
ATOM     38  C   UNL A   1      35.706  31.037  29.438  1.00  0.00     0.010 A 
ATOM     39  C   UNL A   1      37.123  32.928  28.881  1.00  0.00     0.010 A 
ATOM     40  C   UNL A   1      36.969  31.643  29.431  1.00  0.00    -0.014 A 
BRANCH  40  41
ATOM     41  C   UNL A   1      38.095  30.977  30.129  1.00  0.00     0.031 A 
ATOM     42  C   UNL A   1      38.360  31.307  31.572  1.00  0.00     0.074 A 
ATOM     43  C   UNL A   1      38.843  30.060  29.491  1.00  0.00     0.049 A 
ATOM     44  N   UNL A   1      39.294  30.853  32.368  1.00  0.00    -0.248 NA
ATOM     45  C   UNL A   1      37.452  32.277  32.202  1.00  0.00     0.031 C 
ATOM     46  C   UNL A   1      38.656  29.638  28.104  1.00  0.00     0.029 A 
ATOM     47  N   UNL A   1      39.912  29.320  29.927  1.00  0.00    -0.354 N 
ATOM     48  C   UNL A   1      39.091  31.488  33.588  1.00  0.00     0.074 A 
ATOM     49  C   UNL A   1      37.966  32.382  33.418  1.00  0.00     0.031 C 
ATOM     50  C   UNL A   1      39.586  28.717  27.800  1.00  0.00     0.029 A 
ATOM     51  C   UNL A   1      40.452  28.511  28.958  1.00  0.00     0.049 A 
ATOM     52  H   UNL A   1      40.260  29.365  30.848  1.00  0.00     0.167 HD
ATOM     53  C   UNL A   1      39.777  31.331  34.745  1.00  0.00     0.037 A 
ATOM     54  C   UNL A   1      41.538  27.714  28.999  1.00  0.00     0.037 A 
ATOM     55  C   UNL A   1      40.891  30.432  34.907  1.00  0.00     0.049 A 
ATOM     56  C   UNL A   1      42.319  27.604  30.284  1.00  0.00     0.074 A 
ATOM     57  C   UNL A   1      41.633  30.177  36.047  1.00  0.00     0.029 A 
ATOM     58  N   UNL A   1      41.427  29.649  33.896  1.00  0.00    -0.354 N 
ATOM     59  N   UNL A   1      42.098  28.178  31.441  1.00  0.00    -0.248 NA
ATOM     60  C   UNL A   1      43.499  26.727  30.268  1.00  0.00     0.031 C 
ATOM     61  C   UNL A   1      42.657  29.286  35.710  1.00  0.00     0.029 A 
ATOM     62  C   UNL A   1      42.512  28.934  34.377  1.00  0.00     0.049 A 
ATOM     63  H   UNL A   1      41.087  29.607  32.973  1.00  0.00     0.167 HD
ATOM     64  C   UNL A   1      43.087  27.711  32.297  1.00  0.00     0.074 A 
ATOM     65  C   UNL A   1      43.901  26.792  31.529  1.00  0.00     0.031 C 
ATOM     66  C   UNL A   1      43.306  28.016  33.601  1.00  0.00     0.037 A 
BRANCH  53  67
ATOM     67  C   UNL A   1      39.364  32.164  35.923  1.00  0.00     0.064 A 
ATOM     68  C   UNL A   1      39.875  33.453  36.136  1.00  0.00     0.173 A 
ATOM     69  C   UNL A   1      38.402  31.684  36.826  1.00  0.00     0.173 A 
ATOM     70  F   UNL A   1      40.805  33.956  35.310  1.00  0.00    -0.203 F 
ATOM     71  C   UNL A   1      39.453  34.222  37.218  1.00  0.00     0.198 A 
ATOM     72  C   UNL A   1      37.960  32.468  37.889  1.00  0.00     0.198 A 
ATOM     73  F   UNL A   1      37.877  30.460  36.668  1.00  0.00    -0.203 F 
ATOM     74  F   UNL A   1      39.985  35.435  37.425  1.00  0.00    -0.200 F 
ATOM     75  C   UNL A   1      38.491  33.733  38.088  1.00  0.00     0.200 A 
ATOM     76  F   UNL A   1      37.019  31.998  38.720  1.00  0.00    -0.200 F 
ATOM     77  F   UNL A   1      38.077  34.480  39.121  1.00  0.00    -0.200 F 
ENDBRANCH  53  67
BRANCH  54  78
ATOM     78  C   UNL A   1      41.963  26.970  27.783  1.00  0.00     0.064 A 
ATOM     79  C   UNL A   1      41.467  25.690  27.503  1.00  0.00     0.173 A 
ATOM     80  C   UNL A   1      42.900  27.514  26.892  1.00  0.00     0.173 A 
ATOM     81  F   UNL A   1      40.587  25.115  28.337  1.00  0.00    -0.203 F 
ATOM     82  C   UNL A   1      41.912  24.972  26.394  1.00  0.00     0.198 A 
ATOM     83  C   UNL A   1      43.319  26.810  25.766  1.00  0.00     0.198 A 
ATOM     84  F   UNL A   1      43.408  28.736  27.113  1.00  0.00    -0.203 F 
ATOM     85  F   UNL A   1      41.465  23.726  26.183  1.00  0.00    -0.200 F 
ATOM     86  C   UNL A   1      42.833  25.535  25.524  1.00  0.00     0.200 A 
ATOM     87  F   UNL A   1      44.198  27.363  24.920  1.00  0.00    -0.200 F 
ATOM     88  F   UNL A   1      43.261  24.843  24.459  1.00  0.00    -0.200 F 
ENDBRANCH  54  78
BRANCH  66  89
ATOM     89  C   UNL A   1      44.444  27.319  34.292  1.00  0.00     0.064 A 
ATOM     90  C   UNL A   1      44.281  26.070  34.910  1.00  0.00     0.173 A 
ATOM     91  C   UNL A   1      45.726  27.893  34.298  1.00  0.00     0.173 A 
ATOM     92  F   UNL A   1      43.075  25.485  34.943  1.00  0.00    -0.203 F 
ATOM     93  C   UNL A   1      45.353  25.437  35.535  1.00  0.00     0.198 A 
ATOM     94  C   UNL A   1      46.801  27.240  34.894  1.00  0.00     0.198 A 
ATOM     95  F   UNL A   1      45.938  29.081  33.714  1.00  0.00    -0.203 F 
ATOM     96  F   UNL A   1      45.161  24.271  36.167  1.00  0.00    -0.200 F 
ATOM     97  C   UNL A   1      46.612  26.017  35.520  1.00  0.00     0.200 A 
ATOM     98  F   UNL A   1      48.021  27.794  34.861  1.00  0.00    -0.200 F 
ATOM     99  F   UNL A   1      47.643  25.401  36.115  1.00  0.00    -0.200 F 
ENDBRANCH  66  89
ENDBRANCH  40  41
ENDBRANCH  33  35
ENDBRANCH  32  33
ENDBRANCH  31  32
ENDBRANCH  30  31
ENDBRANCH   1  30
TORSDOF 17
ENDMDL
MODEL 3
REMARK VINA RESULT:     -12.6      1.807      7.462
REMARK SMILES CCc1ccc(-c2cc(Cl)cc3c2O[C@@H](C(F)(F)F)C(C(=O)OCCOCCOC(=O)c2ccc(-c4c5nc(c(-c6c(F)c(F)c(F)c(F)c6F)c6ccc([nH]6)c(-c6c(F)c(F)c(F)c(F)c6F)c6nc(c(-c7c(F)c(F)c(F)c(F)c7F)c7ccc4[nH]7)C=C6)C=C5)cc2)=C3)cc1
REMARK SMILES IDX 26 1 25 2 24 3 23 4 21 5 22 6 20 7 7 8 8 9 13 10 9 11 12 12
REMARK SMILES IDX 14 13 10 14 11 15 95 16 15 17 6 18 3 19 4 20 97 21 5 22
REMARK SMILES IDX 96 23 2 24 1 25 16 26 17 27 18 28 19 29 27 30 28 31 29 32
REMARK SMILES IDX 30 33 31 34 32 35 33 36 94 37 34 38 93 39 35 40 36 41 37 42
REMARK SMILES IDX 87 43 38 44 92 45 86 46 88 47 39 48 91 49 85 50 84 51 40 53
REMARK SMILES IDX 72 54 52 55 71 56 53 57 56 58 70 59 89 60 54 61 55 62 69 64
REMARK SMILES IDX 90 65 57 66 41 67 42 68 50 69 43 70 44 71 48 72 51 73 45 74
REMARK SMILES IDX 46 75 49 76 47 77 73 78 74 79 82 80 75 81 76 82 80 83 83 84
REMARK SMILES IDX 77 85 78 86 81 87 79 88 58 89 59 90 67 91 60 92 61 93 65 94
REMARK SMILES IDX 68 95 62 96 63 97 66 98 64 99
REMARK H PARENT 88 52 56 63
REMARK Flexibility Score: inf
ROOT
ATOM      1  O   UNL A   1      31.394  29.615  24.302  1.00  0.00    -0.374 OA
ENDROOT
BRANCH   1   2
ATOM      2  C   UNL A   1      30.410  29.214  23.359  1.00  0.00     0.202 C 
BRANCH   2   3
ATOM      3  C   UNL A   1      30.603  27.883  22.615  1.00  0.00     0.261 C 
BRANCH   3   4
ATOM      4  O   UNL A   1      31.963  27.424  22.618  1.00  0.00    -0.460 OA
BRANCH   4   5
ATOM      5  C   UNL A   1      32.268  26.501  23.549  1.00  0.00     0.338 C 
ATOM      6  O   UNL A   1      33.070  26.656  24.461  1.00  0.00    -0.246 OA
BRANCH   5   7
ATOM      7  C   UNL A   1      31.392  25.307  23.469  1.00  0.00     0.087 C 
ATOM      8  C   UNL A   1      33.137  21.696  24.567  1.00  0.00     0.026 A 
ATOM      9  C   UNL A   1      34.521  21.867  24.327  1.00  0.00     0.033 A 
ATOM     10  C   UNL A   1      32.319  22.771  24.152  1.00  0.00     0.135 A 
ATOM     11  C   UNL A   1      34.993  22.850  23.460  1.00  0.00     0.042 A 
ATOM     12  C   UNL A   1      32.753  23.578  23.085  1.00  0.00     0.019 A 
ATOM     13  O   UNL A   1      31.360  23.312  25.025  1.00  0.00    -0.475 OA
ATOM     14  Cl  UNL A   1      36.681  23.007  23.182  1.00  0.00    -0.084 Cl
ATOM     15  C   UNL A   1      34.100  23.638  22.753  1.00  0.00     0.032 A 
ATOM     16  C   UNL A   1      31.793  24.513  22.463  1.00  0.00     0.027 C 
ATOM     17  C   UNL A   1      30.698  24.582  24.603  1.00  0.00     0.316 C 
BRANCH   8  18
ATOM     18  C   UNL A   1      32.714  20.245  24.626  1.00  0.00    -0.015 A 
ATOM     19  C   UNL A   1      32.850  17.355  24.590  1.00  0.00    -0.048 A 
ATOM     20  C   UNL A   1      32.961  18.082  25.783  1.00  0.00     0.004 A 
ATOM     21  C   UNL A   1      32.587  18.083  23.425  1.00  0.00     0.004 A 
ATOM     22  C   UNL A   1      32.877  19.489  25.804  1.00  0.00     0.009 A 
ATOM     23  C   UNL A   1      32.517  19.498  23.445  1.00  0.00     0.009 A 
BRANCH  19  24
ATOM     24  C   UNL A   1      33.055  15.852  24.650  1.00  0.00     0.032 C 
ATOM     25  C   UNL A   1      32.297  15.049  25.702  1.00  0.00     0.009 C 
ENDBRANCH  19  24
ENDBRANCH   8  18
BRANCH  17  26
ATOM     26  C   UNL A   1      30.172  25.505  25.727  1.00  0.00     0.430 C 
ATOM     27  F   UNL A   1      31.215  25.874  26.524  1.00  0.00    -0.167 F 
ATOM     28  F   UNL A   1      29.645  26.651  25.238  1.00  0.00    -0.167 F 
ATOM     29  F   UNL A   1      29.247  24.956  26.536  1.00  0.00    -0.167 F 
ENDBRANCH  17  26
ENDBRANCH   5   7
ENDBRANCH   4   5
ENDBRANCH   3   4
ENDBRANCH   2   3
ENDBRANCH   1   2
BRANCH   1  30
ATOM     30  C   UNL A   1      31.011  30.520  25.336  1.00  0.00     0.202 C 
BRANCH  30  31
ATOM     31  C   UNL A   1      31.781  30.495  26.660  1.00  0.00     0.261 C 
BRANCH  31  32
ATOM     32  O   UNL A   1      33.197  30.689  26.509  1.00  0.00    -0.460 OA
BRANCH  32  33
ATOM     33  C   UNL A   1      33.720  31.645  27.311  1.00  0.00     0.338 C 
ATOM     34  O   UNL A   1      33.174  32.666  27.714  1.00  0.00    -0.246 OA
BRANCH  33  35
ATOM     35  C   UNL A   1      35.043  31.232  27.796  1.00  0.00     0.060 A 
ATOM     36  C   UNL A   1      35.215  29.892  28.165  1.00  0.00     0.016 A 
ATOM     37  C   UNL A   1      36.058  32.168  28.004  1.00  0.00     0.016 A 
ATOM     38  C   UNL A   1      36.394  29.489  28.785  1.00  0.00     0.010 A 
ATOM     39  C   UNL A   1      37.239  31.761  28.633  1.00  0.00     0.010 A 
ATOM     40  C   UNL A   1      37.396  30.430  29.058  1.00  0.00    -0.014 A 
BRANCH  40  41
ATOM     41  C   UNL A   1      38.543  30.037  29.912  1.00  0.00     0.031 A 
ATOM     42  C   UNL A   1      39.555  29.063  29.375  1.00  0.00     0.074 A 
ATOM     43  C   UNL A   1      38.698  30.576  31.134  1.00  0.00     0.049 A 
ATOM     44  N   UNL A   1      40.623  28.574  29.951  1.00  0.00    -0.248 NA
ATOM     45  C   UNL A   1      39.333  28.572  28.006  1.00  0.00     0.031 C 
ATOM     46  C   UNL A   1      37.799  31.555  31.742  1.00  0.00     0.029 A 
ATOM     47  N   UNL A   1      39.669  30.375  32.082  1.00  0.00    -0.354 N 
ATOM     48  C   UNL A   1      41.195  27.715  29.020  1.00  0.00     0.074 A 
ATOM     49  C   UNL A   1      40.338  27.724  27.854  1.00  0.00     0.031 C 
ATOM     50  C   UNL A   1      38.257  31.864  32.967  1.00  0.00     0.029 A 
ATOM     51  C   UNL A   1      39.459  31.080  33.241  1.00  0.00     0.049 A 
ATOM     52  H   UNL A   1      40.442  29.780  31.944  1.00  0.00     0.167 HD
ATOM     53  C   UNL A   1      42.335  26.993  29.128  1.00  0.00     0.037 A 
ATOM     54  C   UNL A   1      40.149  31.074  34.397  1.00  0.00     0.037 A 
ATOM     55  C   UNL A   1      43.187  26.997  30.290  1.00  0.00     0.049 A 
ATOM     56  C   UNL A   1      41.383  30.214  34.510  1.00  0.00     0.074 A 
ATOM     57  C   UNL A   1      44.380  26.324  30.486  1.00  0.00     0.029 A 
ATOM     58  N   UNL A   1      42.928  27.703  31.456  1.00  0.00    -0.354 N 
ATOM     59  N   UNL A   1      41.936  29.434  33.614  1.00  0.00    -0.248 NA
ATOM     60  C   UNL A   1      42.091  30.239  35.799  1.00  0.00     0.031 C 
ATOM     61  C   UNL A   1      44.811  26.574  31.793  1.00  0.00     0.029 A 
ATOM     62  C   UNL A   1      43.922  27.456  32.389  1.00  0.00     0.049 A 
ATOM     63  H   UNL A   1      42.152  28.292  31.599  1.00  0.00     0.167 HD
ATOM     64  C   UNL A   1      43.070  28.902  34.215  1.00  0.00     0.074 A 
ATOM     65  C   UNL A   1      43.135  29.461  35.548  1.00  0.00     0.031 C 
ATOM     66  C   UNL A   1      43.976  28.028  33.709  1.00  0.00     0.037 A 
BRANCH  53  67
ATOM     67  C   UNL A   1      42.722  26.116  27.972  1.00  0.00     0.064 A 
ATOM     68  C   UNL A   1      42.205  24.821  27.818  1.00  0.00     0.173 A 
ATOM     69  C   UNL A   1      43.584  26.599  26.976  1.00  0.00     0.173 A 
ATOM     70  F   UNL A   1      41.386  24.305  28.748  1.00  0.00    -0.203 F 
ATOM     71  C   UNL A   1      42.551  24.036  26.722  1.00  0.00     0.198 A 
ATOM     72  C   UNL A   1      43.903  25.823  25.864  1.00  0.00     0.198 A 
ATOM     73  F   UNL A   1      44.104  27.832  27.070  1.00  0.00    -0.203 F 
ATOM     74  F   UNL A   1      42.077  22.787  26.616  1.00  0.00    -0.200 F 
ATOM     75  C   UNL A   1      43.392  24.540  25.741  1.00  0.00     0.200 A 
ATOM     76  F   UNL A   1      44.705  26.319  24.911  1.00  0.00    -0.200 F 
ATOM     77  F   UNL A   1      43.714  23.789  24.680  1.00  0.00    -0.200 F 
ENDBRANCH  53  67
BRANCH  54  78
ATOM     78  C   UNL A   1      39.684  31.893  35.548  1.00  0.00     0.064 A 
ATOM     79  C   UNL A   1      38.692  31.425  36.421  1.00  0.00     0.173 A 
ATOM     80  C   UNL A   1      40.202  33.176  35.781  1.00  0.00     0.173 A 
ATOM     81  F   UNL A   1      38.147  30.214  36.228  1.00  0.00    -0.203 F 
ATOM     82  C   UNL A   1      38.218  32.218  37.465  1.00  0.00     0.198 A 
ATOM     83  C   UNL A   1      39.751  33.955  36.844  1.00  0.00     0.198 A 
ATOM     84  F   UNL A   1      41.153  33.673  34.976  1.00  0.00    -0.203 F 
ATOM     85  F   UNL A   1      37.227  31.768  38.246  1.00  0.00    -0.200 F 
ATOM     86  C   UNL A   1      38.752  33.480  37.678  1.00  0.00     0.200 A 
ATOM     87  F   UNL A   1      40.280  35.167  37.055  1.00  0.00    -0.200 F 
ATOM     88  F   UNL A   1      38.294  34.241  38.680  1.00  0.00    -0.200 F 
ENDBRANCH  54  78
BRANCH  66  89
ATOM     89  C   UNL A   1      45.137  27.653  34.586  1.00  0.00     0.064 A 
ATOM     90  C   UNL A   1      46.318  28.410  34.614  1.00  0.00     0.173 A 
ATOM     91  C   UNL A   1      45.049  26.544  35.443  1.00  0.00     0.173 A 
ATOM     92  F   UNL A   1      46.459  29.471  33.806  1.00  0.00    -0.203 F 
ATOM     93  C   UNL A   1      47.379  28.051  35.442  1.00  0.00     0.198 A 
ATOM     94  C   UNL A   1      46.098  26.209  36.295  1.00  0.00     0.198 A 
ATOM     95  F   UNL A   1      43.939  25.792  35.463  1.00  0.00    -0.203 F 
ATOM     96  F   UNL A   1      48.518  28.756  35.410  1.00  0.00    -0.200 F 
ATOM     97  C   UNL A   1      47.265  26.958  36.287  1.00  0.00     0.200 A 
ATOM     98  F   UNL A   1      45.978  25.164  37.124  1.00  0.00    -0.200 F 
ATOM     99  F   UNL A   1      48.284  26.620  37.089  1.00  0.00    -0.200 F 
ENDBRANCH  66  89
ENDBRANCH  40  41
ENDBRANCH  33  35
ENDBRANCH  32  33
ENDBRANCH  31  32
ENDBRANCH  30  31
ENDBRANCH   1  30
TORSDOF 17
ENDMDL
