MODEL 1
REMARK VINA RESULT:     -13.7      0.000      0.000
REMARK SMILES Cc1ccc(-c2cc(C(=O)OCCOCCOC(=O)c3ccc(-c4c5nc(c(-c6c(F)c(F)c(F)c(F)c6F)c6ccc([nH]6)c(-c6c(F)c(F)c(F)c(F)c6F)c6nc(c(-c7c(F)c(F)c(F)c(F)c7F)c7ccc4[nH]7)C=C6)C=C5)cc3)c3c(-c4cccc([N+](=O)[O-])c4)[nH]nc3n2)cc1
REMARK SMILES IDX 14 1 13 2 12 3 11 4 9 5 10 6 8 7 6 8 7 9 97 10 96 11 83 12
REMARK SMILES IDX 95 13 84 14 94 15 5 17 1 18 2 19 3 20 99 21 4 22 98 23 85 24
REMARK SMILES IDX 86 25 93 26 87 27 89 28 88 29 90 30 91 31 92 32 15 33 16 34
REMARK SMILES IDX 17 35 18 36 19 37 20 38 21 39 82 40 22 41 81 42 23 43 24 44
REMARK SMILES IDX 25 45 75 46 26 47 80 48 74 49 76 50 27 51 79 52 73 53 72 54
REMARK SMILES IDX 28 56 60 57 40 58 59 59 41 60 44 61 58 62 77 63 42 64 43 65
REMARK SMILES IDX 57 67 78 68 45 69 29 70 30 71 38 72 31 73 32 74 36 75 39 76
REMARK SMILES IDX 33 77 34 78 37 79 35 80 61 81 62 82 70 83 63 84 64 85 68 86
REMARK SMILES IDX 71 87 65 88 66 89 69 90 67 91 46 92 47 93 55 94 48 95 49 96
REMARK SMILES IDX 53 97 56 98 50 99 51 100 54 101 52 102
REMARK H PARENT 94 16 76 55 44 66
REMARK Flexibility Score: inf
ROOT
ATOM      1  O   UNL A   1      32.105  30.216  26.060  1.00  0.00    -0.374 OA
ENDROOT
BRANCH   1   2
ATOM      2  C   UNL A   1      31.598  28.947  25.722  1.00  0.00     0.202 C 
BRANCH   2   3
ATOM      3  C   UNL A   1      32.822  28.249  25.262  1.00  0.00     0.261 C 
BRANCH   3   4
ATOM      4  O   UNL A   1      33.007  27.010  25.985  1.00  0.00    -0.460 OA
BRANCH   4   5
ATOM      5  C   UNL A   1      32.265  25.866  25.850  1.00  0.00     0.339 C 
ATOM      6  O   UNL A   1      31.267  25.544  26.429  1.00  0.00    -0.246 OA
BRANCH   5   7
ATOM      7  C   UNL A   1      32.968  25.072  24.846  1.00  0.00     0.075 A 
ATOM      8  C   UNL A   1      34.914  23.631  24.367  1.00  0.00     0.074 A 
ATOM      9  C   UNL A   1      34.053  24.294  25.250  1.00  0.00     0.045 A 
ATOM     10  N   UNL A   1      34.785  23.626  23.013  1.00  0.00    -0.226 NA
ATOM     11  C   UNL A   1      33.677  24.301  22.576  1.00  0.00     0.182 A 
ATOM     12  C   UNL A   1      32.787  25.007  23.467  1.00  0.00     0.061 A 
ATOM     13  N   UNL A   1      33.274  24.425  21.311  1.00  0.00    -0.154 NA
ATOM     14  C   UNL A   1      31.800  25.560  22.664  1.00  0.00     0.076 A 
ATOM     15  N   UNL A   1      32.149  25.160  21.393  1.00  0.00    -0.275 N 
ATOM     16  H   UNL A   1      31.614  25.395  20.600  1.00  0.00     0.190 HD
BRANCH   8  17
ATOM     17  C   UNL A   1      36.057  22.970  25.027  1.00  0.00     0.000 A 
ATOM     18  C   UNL A   1      39.902  21.406  26.286  1.00  0.00     0.044 C 
ATOM     19  C   UNL A   1      38.577  21.954  25.846  1.00  0.00    -0.051 A 
ATOM     20  C   UNL A   1      37.691  21.165  25.099  1.00  0.00     0.004 A 
ATOM     21  C   UNL A   1      38.202  23.254  26.183  1.00  0.00     0.004 A 
ATOM     22  C   UNL A   1      36.444  21.667  24.692  1.00  0.00     0.010 A 
ATOM     23  C   UNL A   1      36.958  23.749  25.788  1.00  0.00     0.010 A 
ENDBRANCH   8  17
BRANCH  14  24
ATOM     24  C   UNL A   1      30.594  26.356  22.908  1.00  0.00     0.007 A 
ATOM     25  C   UNL A   1      29.516  25.815  23.628  1.00  0.00     0.011 A 
ATOM     26  C   UNL A   1      30.516  27.685  22.471  1.00  0.00     0.096 A 
ATOM     27  C   UNL A   1      28.395  26.595  23.938  1.00  0.00     0.008 A 
ATOM     28  C   UNL A   1      29.399  28.471  22.811  1.00  0.00     0.270 A 
ATOM     29  C   UNL A   1      28.335  27.929  23.542  1.00  0.00     0.085 A 
BRANCH  28  30
ATOM     30  N   UNL A   1      29.372  29.896  22.456  1.00  0.00     0.062 N 
ATOM     31  O   UNL A   1      29.449  30.194  21.256  1.00  0.00    -0.258 OA
ATOM     32  O   UNL A   1      29.255  30.720  23.375  1.00  0.00    -0.258 OA
ENDBRANCH  28  30
ENDBRANCH  14  24
ENDBRANCH   5   7
ENDBRANCH   4   5
ENDBRANCH   3   4
ENDBRANCH   2   3
ENDBRANCH   1   2
BRANCH   1  33
ATOM     33  C   UNL A   1      33.345  30.220  26.709  1.00  0.00     0.202 C 
BRANCH  33  34
ATOM     34  C   UNL A   1      33.472  31.516  27.497  1.00  0.00     0.261 C 
BRANCH  34  35
ATOM     35  O   UNL A   1      34.395  31.322  28.604  1.00  0.00    -0.460 OA
BRANCH  35  36
ATOM     36  C   UNL A   1      35.714  31.613  28.374  1.00  0.00     0.338 C 
ATOM     37  O   UNL A   1      36.123  32.645  27.866  1.00  0.00    -0.246 OA
BRANCH  36  38
ATOM     38  C   UNL A   1      36.563  30.384  28.550  1.00  0.00     0.060 A 
ATOM     39  C   UNL A   1      36.551  29.650  29.757  1.00  0.00     0.016 A 
ATOM     40  C   UNL A   1      37.612  30.198  27.665  1.00  0.00     0.016 A 
ATOM     41  C   UNL A   1      37.679  28.898  30.157  1.00  0.00     0.010 A 
ATOM     42  C   UNL A   1      38.748  29.555  28.112  1.00  0.00     0.010 A 
ATOM     43  C   UNL A   1      38.828  28.945  29.376  1.00  0.00    -0.014 A 
BRANCH  43  44
ATOM     44  C   UNL A   1      40.187  28.474  29.714  1.00  0.00     0.031 A 
ATOM     45  C   UNL A   1      40.575  27.135  29.205  1.00  0.00     0.074 A 
ATOM     46  C   UNL A   1      41.164  29.324  30.134  1.00  0.00     0.049 A 
ATOM     47  N   UNL A   1      41.723  26.599  29.413  1.00  0.00    -0.248 NA
ATOM     48  C   UNL A   1      39.691  26.252  28.441  1.00  0.00     0.031 C 
ATOM     49  C   UNL A   1      42.613  29.255  29.875  1.00  0.00     0.029 A 
ATOM     50  N   UNL A   1      41.062  30.532  30.834  1.00  0.00    -0.354 N 
ATOM     51  C   UNL A   1      41.853  25.516  28.581  1.00  0.00     0.074 A 
ATOM     52  C   UNL A   1      40.520  25.258  28.108  1.00  0.00     0.031 C 
ATOM     53  C   UNL A   1      43.261  30.176  30.616  1.00  0.00     0.029 A 
ATOM     54  C   UNL A   1      42.275  30.794  31.486  1.00  0.00     0.049 A 
ATOM     55  H   UNL A   1      40.263  31.107  30.865  1.00  0.00     0.167 HD
ATOM     56  C   UNL A   1      43.117  25.076  28.321  1.00  0.00     0.037 A 
ATOM     57  C   UNL A   1      42.315  30.930  32.837  1.00  0.00     0.037 A 
ATOM     58  C   UNL A   1      44.076  25.771  29.196  1.00  0.00     0.049 A 
ATOM     59  C   UNL A   1      43.103  29.772  33.367  1.00  0.00     0.074 A 
ATOM     60  C   UNL A   1      45.048  26.734  28.987  1.00  0.00     0.029 A 
ATOM     61  N   UNL A   1      43.876  25.717  30.578  1.00  0.00    -0.354 N 
ATOM     62  N   UNL A   1      43.205  28.648  32.710  1.00  0.00    -0.248 NA
ATOM     63  C   UNL A   1      43.945  29.822  34.552  1.00  0.00     0.031 C 
ATOM     64  C   UNL A   1      45.373  27.304  30.258  1.00  0.00     0.029 A 
ATOM     65  C   UNL A   1      44.631  26.662  31.242  1.00  0.00     0.049 A 
ATOM     66  H   UNL A   1      43.269  25.081  31.023  1.00  0.00     0.167 HD
ATOM     67  C   UNL A   1      44.190  27.898  33.266  1.00  0.00     0.074 A 
ATOM     68  C   UNL A   1      44.589  28.645  34.447  1.00  0.00     0.031 C 
ATOM     69  C   UNL A   1      44.623  26.735  32.704  1.00  0.00     0.037 A 
BRANCH  56  70
ATOM     70  C   UNL A   1      43.540  24.145  27.198  1.00  0.00     0.064 A 
ATOM     71  C   UNL A   1      43.158  22.785  27.230  1.00  0.00     0.173 A 
ATOM     72  C   UNL A   1      44.381  24.482  26.113  1.00  0.00     0.173 A 
ATOM     73  F   UNL A   1      42.378  22.306  28.209  1.00  0.00    -0.203 F 
ATOM     74  C   UNL A   1      43.576  21.855  26.269  1.00  0.00     0.198 A 
ATOM     75  C   UNL A   1      44.761  23.562  25.128  1.00  0.00     0.198 A 
ATOM     76  F   UNL A   1      44.930  25.691  25.984  1.00  0.00    -0.203 F 
ATOM     77  F   UNL A   1      43.218  20.568  26.388  1.00  0.00    -0.200 F 
ATOM     78  C   UNL A   1      44.367  22.246  25.209  1.00  0.00     0.200 A 
ATOM     79  F   UNL A   1      45.542  23.965  24.114  1.00  0.00    -0.200 F 
ATOM     80  F   UNL A   1      44.766  21.361  24.287  1.00  0.00    -0.200 F 
ENDBRANCH  56  70
BRANCH  57  81
ATOM     81  C   UNL A   1      41.070  31.566  33.368  1.00  0.00     0.064 A 
ATOM     82  C   UNL A   1      40.926  32.957  33.161  1.00  0.00     0.173 A 
ATOM     83  C   UNL A   1      39.891  30.823  33.538  1.00  0.00     0.173 A 
ATOM     84  F   UNL A   1      42.010  33.714  32.926  1.00  0.00    -0.203 F 
ATOM     85  C   UNL A   1      39.669  33.547  32.997  1.00  0.00     0.198 A 
ATOM     86  C   UNL A   1      38.635  31.413  33.335  1.00  0.00     0.198 A 
ATOM     87  F   UNL A   1      39.951  29.497  33.726  1.00  0.00    -0.203 F 
ATOM     88  F   UNL A   1      39.577  34.829  32.612  1.00  0.00    -0.200 F 
ATOM     89  C   UNL A   1      38.529  32.760  33.027  1.00  0.00     0.200 A 
ATOM     90  F   UNL A   1      37.533  30.648  33.313  1.00  0.00    -0.200 F 
ATOM     91  F   UNL A   1      37.351  33.276  32.645  1.00  0.00    -0.200 F 
ENDBRANCH  57  81
BRANCH  69  92
ATOM     92  C   UNL A   1      45.130  25.582  33.526  1.00  0.00     0.064 A 
ATOM     93  C   UNL A   1      44.281  24.681  34.197  1.00  0.00     0.173 A 
ATOM     94  C   UNL A   1      46.498  25.227  33.509  1.00  0.00     0.173 A 
ATOM     95  F   UNL A   1      42.948  24.795  34.154  1.00  0.00    -0.203 F 
ATOM     96  C   UNL A   1      44.774  23.578  34.888  1.00  0.00     0.198 A 
ATOM     97  C   UNL A   1      46.973  24.073  34.124  1.00  0.00     0.198 A 
ATOM     98  F   UNL A   1      47.416  25.957  32.859  1.00  0.00    -0.203 F 
ATOM     99  F   UNL A   1      43.925  22.799  35.571  1.00  0.00    -0.200 F 
ATOM    100  C   UNL A   1      46.116  23.267  34.841  1.00  0.00     0.200 A 
ATOM    101  F   UNL A   1      48.264  23.738  33.994  1.00  0.00    -0.200 F 
ATOM    102  F   UNL A   1      46.579  22.177  35.465  1.00  0.00    -0.200 F 
ENDBRANCH  69  92
ENDBRANCH  43  44
ENDBRANCH  36  38
ENDBRANCH  35  36
ENDBRANCH  34  35
ENDBRANCH  33  34
ENDBRANCH   1  33
TORSDOF 17
ENDMDL
MODEL 2
REMARK VINA RESULT:     -13.5      3.759      9.826
REMARK SMILES Cc1ccc(-c2cc(C(=O)OCCOCCOC(=O)c3ccc(-c4c5nc(c(-c6c(F)c(F)c(F)c(F)c6F)c6ccc([nH]6)c(-c6c(F)c(F)c(F)c(F)c6F)c6nc(c(-c7c(F)c(F)c(F)c(F)c7F)c7ccc4[nH]7)C=C6)C=C5)cc3)c3c(-c4cccc([N+](=O)[O-])c4)[nH]nc3n2)cc1
REMARK SMILES IDX 14 1 13 2 12 3 11 4 9 5 10 6 8 7 6 8 7 9 97 10 96 11 83 12
REMARK SMILES IDX 95 13 84 14 94 15 5 17 1 18 2 19 3 20 99 21 4 22 98 23 85 24
REMARK SMILES IDX 86 25 93 26 87 27 89 28 88 29 90 30 91 31 92 32 15 33 16 34
REMARK SMILES IDX 17 35 18 36 19 37 20 38 21 39 82 40 22 41 81 42 23 43 24 44
REMARK SMILES IDX 25 45 75 46 26 47 80 48 74 49 76 50 27 51 79 52 73 53 72 54
REMARK SMILES IDX 28 56 60 57 40 58 59 59 41 60 44 61 58 62 77 63 42 64 43 65
REMARK SMILES IDX 57 67 78 68 45 69 29 70 30 71 38 72 31 73 32 74 36 75 39 76
REMARK SMILES IDX 33 77 34 78 37 79 35 80 61 81 62 82 70 83 63 84 64 85 68 86
REMARK SMILES IDX 71 87 65 88 66 89 69 90 67 91 46 92 47 93 55 94 48 95 49 96
REMARK SMILES IDX 53 97 56 98 50 99 51 100 54 101 52 102
REMARK H PARENT 94 16 76 55 44 66
REMARK Flexibility Score: inf
ROOT
ATOM      1  O   UNL A   1      37.366  21.831  25.712  1.00  0.00    -0.374 OA
ENDROOT
BRANCH   1   2
ATOM      2  C   UNL A   1      36.471  21.972  24.637  1.00  0.00     0.202 C 
BRANCH   2   3
ATOM      3  C   UNL A   1      35.306  22.607  25.298  1.00  0.00     0.261 C 
BRANCH   3   4
ATOM      4  O   UNL A   1      35.102  23.949  24.799  1.00  0.00    -0.460 OA
BRANCH   4   5
ATOM      5  C   UNL A   1      34.150  24.350  23.899  1.00  0.00     0.339 C 
ATOM      6  O   UNL A   1      34.151  24.245  22.706  1.00  0.00    -0.246 OA
BRANCH   5   7
ATOM      7  C   UNL A   1      33.106  24.979  24.703  1.00  0.00     0.075 A 
ATOM      8  C   UNL A   1      32.419  26.991  25.958  1.00  0.00     0.074 A 
ATOM      9  C   UNL A   1      33.251  26.323  25.052  1.00  0.00     0.045 A 
ATOM     10  N   UNL A   1      31.346  26.436  26.584  1.00  0.00    -0.226 NA
ATOM     11  C   UNL A   1      31.110  25.143  26.200  1.00  0.00     0.182 A 
ATOM     12  C   UNL A   1      31.965  24.429  25.282  1.00  0.00     0.061 A 
ATOM     13  N   UNL A   1      30.108  24.367  26.612  1.00  0.00    -0.154 NA
ATOM     14  C   UNL A   1      31.411  23.165  25.145  1.00  0.00     0.076 A 
ATOM     15  N   UNL A   1      30.298  23.206  25.957  1.00  0.00    -0.275 N 
ATOM     16  H   UNL A   1      29.686  22.441  26.052  1.00  0.00     0.190 HD
BRANCH   8  17
ATOM     17  C   UNL A   1      32.844  28.374  26.254  1.00  0.00     0.000 A 
ATOM     18  C   UNL A   1      33.945  32.191  27.996  1.00  0.00     0.044 C 
ATOM     19  C   UNL A   1      33.566  30.866  27.402  1.00  0.00    -0.051 A 
ATOM     20  C   UNL A   1      32.283  30.661  26.875  1.00  0.00     0.004 A 
ATOM     21  C   UNL A   1      34.489  29.822  27.356  1.00  0.00     0.004 A 
ATOM     22  C   UNL A   1      31.924  29.428  26.308  1.00  0.00     0.010 A 
ATOM     23  C   UNL A   1      34.135  28.600  26.781  1.00  0.00     0.010 A 
ENDBRANCH   8  17
BRANCH  14  24
ATOM     24  C   UNL A   1      31.738  21.971  24.362  1.00  0.00     0.007 A 
ATOM     25  C   UNL A   1      31.739  22.016  22.958  1.00  0.00     0.011 A 
ATOM     26  C   UNL A   1      32.106  20.778  25.000  1.00  0.00     0.096 A 
ATOM     27  C   UNL A   1      32.133  20.904  22.203  1.00  0.00     0.008 A 
ATOM     28  C   UNL A   1      32.527  19.675  24.236  1.00  0.00     0.270 A 
ATOM     29  C   UNL A   1      32.539  19.732  22.837  1.00  0.00     0.085 A 
BRANCH  28  30
ATOM     30  N   UNL A   1      33.026  18.467  24.907  1.00  0.00     0.062 N 
ATOM     31  O   UNL A   1      32.193  17.708  25.423  1.00  0.00    -0.258 OA
ATOM     32  O   UNL A   1      34.248  18.265  24.903  1.00  0.00    -0.258 OA
ENDBRANCH  28  30
ENDBRANCH  14  24
ENDBRANCH   5   7
ENDBRANCH   4   5
ENDBRANCH   3   4
ENDBRANCH   2   3
ENDBRANCH   1   2
BRANCH   1  33
ATOM     33  C   UNL A   1      38.517  21.077  25.448  1.00  0.00     0.202 C 
BRANCH  33  34
ATOM     34  C   UNL A   1      39.693  21.728  26.162  1.00  0.00     0.261 C 
BRANCH  34  35
ATOM     35  O   UNL A   1      39.325  23.074  26.574  1.00  0.00    -0.460 OA
BRANCH  35  36
ATOM     36  C   UNL A   1      40.242  23.772  27.315  1.00  0.00     0.338 C 
ATOM     37  O   UNL A   1      41.102  23.266  28.018  1.00  0.00    -0.246 OA
BRANCH  36  38
ATOM     38  C   UNL A   1      39.864  25.227  27.387  1.00  0.00     0.060 A 
ATOM     39  C   UNL A   1      40.403  26.170  26.484  1.00  0.00     0.016 A 
ATOM     40  C   UNL A   1      39.279  25.679  28.557  1.00  0.00     0.016 A 
ATOM     41  C   UNL A   1      40.534  27.529  26.852  1.00  0.00     0.010 A 
ATOM     42  C   UNL A   1      39.511  26.981  28.951  1.00  0.00     0.010 A 
ATOM     43  C   UNL A   1      40.186  27.911  28.142  1.00  0.00    -0.014 A 
BRANCH  43  44
ATOM     44  C   UNL A   1      40.476  29.185  28.831  1.00  0.00     0.031 A 
ATOM     45  C   UNL A   1      39.358  30.156  28.939  1.00  0.00     0.074 A 
ATOM     46  C   UNL A   1      41.558  29.339  29.644  1.00  0.00     0.049 A 
ATOM     47  N   UNL A   1      39.460  31.299  29.516  1.00  0.00    -0.248 NA
ATOM     48  C   UNL A   1      38.024  29.947  28.373  1.00  0.00     0.031 C 
ATOM     49  C   UNL A   1      41.679  30.152  30.867  1.00  0.00     0.029 A 
ATOM     50  N   UNL A   1      42.806  28.706  29.604  1.00  0.00    -0.354 N 
ATOM     51  C   UNL A   1      38.199  31.809  29.692  1.00  0.00     0.074 A 
ATOM     52  C   UNL A   1      37.360  31.009  28.842  1.00  0.00     0.031 C 
ATOM     53  C   UNL A   1      42.962  30.184  31.278  1.00  0.00     0.029 A 
ATOM     54  C   UNL A   1      43.750  29.502  30.266  1.00  0.00     0.049 A 
ATOM     55  H   UNL A   1      42.991  27.838  29.178  1.00  0.00     0.167 HD
ATOM     56  C   UNL A   1      38.043  32.772  30.645  1.00  0.00     0.037 A 
ATOM     57  C   UNL A   1      44.848  29.958  29.608  1.00  0.00     0.037 A 
ATOM     58  C   UNL A   1      39.361  33.200  31.142  1.00  0.00     0.049 A 
ATOM     59  C   UNL A   1      44.713  31.446  29.518  1.00  0.00     0.074 A 
ATOM     60  C   UNL A   1      40.045  33.025  32.332  1.00  0.00     0.029 A 
ATOM     61  N   UNL A   1      40.303  33.658  30.217  1.00  0.00    -0.354 N 
ATOM     62  N   UNL A   1      43.549  32.038  29.563  1.00  0.00    -0.248 NA
ATOM     63  C   UNL A   1      45.830  32.378  29.533  1.00  0.00     0.031 C 
ATOM     64  C   UNL A   1      41.423  33.317  32.085  1.00  0.00     0.029 A 
ATOM     65  C   UNL A   1      41.571  33.708  30.760  1.00  0.00     0.049 A 
ATOM     66  H   UNL A   1      40.089  33.914  29.291  1.00  0.00     0.167 HD
ATOM     67  C   UNL A   1      43.736  33.369  29.751  1.00  0.00     0.074 A 
ATOM     68  C   UNL A   1      45.176  33.546  29.672  1.00  0.00     0.031 C 
ATOM     69  C   UNL A   1      42.700  34.222  29.983  1.00  0.00     0.037 A 
BRANCH  56  70
ATOM     70  C   UNL A   1      36.732  33.238  31.256  1.00  0.00     0.064 A 
ATOM     71  C   UNL A   1      35.840  34.024  30.492  1.00  0.00     0.173 A 
ATOM     72  C   UNL A   1      36.320  33.032  32.592  1.00  0.00     0.173 A 
ATOM     73  F   UNL A   1      36.101  34.325  29.212  1.00  0.00    -0.203 F 
ATOM     74  C   UNL A   1      34.652  34.551  31.016  1.00  0.00     0.198 A 
ATOM     75  C   UNL A   1      35.111  33.521  33.101  1.00  0.00     0.198 A 
ATOM     76  F   UNL A   1      37.088  32.410  33.488  1.00  0.00    -0.203 F 
ATOM     77  F   UNL A   1      33.876  35.332  30.251  1.00  0.00    -0.200 F 
ATOM     78  C   UNL A   1      34.279  34.288  32.317  1.00  0.00     0.200 A 
ATOM     79  F   UNL A   1      34.778  33.262  34.375  1.00  0.00    -0.200 F 
ATOM     80  F   UNL A   1      33.143  34.787  32.820  1.00  0.00    -0.200 F 
ENDBRANCH  56  70
BRANCH  57  81
ATOM     81  C   UNL A   1      45.333  28.976  28.589  1.00  0.00     0.064 A 
ATOM     82  C   UNL A   1      46.027  27.844  29.075  1.00  0.00     0.173 A 
ATOM     83  C   UNL A   1      44.696  28.846  27.345  1.00  0.00     0.173 A 
ATOM     84  F   UNL A   1      46.602  27.881  30.288  1.00  0.00    -0.203 F 
ATOM     85  C   UNL A   1      45.970  26.612  28.416  1.00  0.00     0.198 A 
ATOM     86  C   UNL A   1      44.611  27.599  26.709  1.00  0.00     0.198 A 
ATOM     87  F   UNL A   1      44.009  29.874  26.829  1.00  0.00    -0.203 F 
ATOM     88  F   UNL A   1      46.478  25.517  29.002  1.00  0.00    -0.200 F 
ATOM     89  C   UNL A   1      45.213  26.481  27.264  1.00  0.00     0.200 A 
ATOM     90  F   UNL A   1      43.838  27.455  25.622  1.00  0.00    -0.200 F 
ATOM     91  F   UNL A   1      44.968  25.261  26.760  1.00  0.00    -0.200 F 
ENDBRANCH  57  81
BRANCH  69  92
ATOM     92  C   UNL A   1      42.715  35.653  29.522  1.00  0.00     0.064 A 
ATOM     93  C   UNL A   1      43.408  36.675  30.198  1.00  0.00     0.173 A 
ATOM     94  C   UNL A   1      42.182  36.014  28.262  1.00  0.00     0.173 A 
ATOM     95  F   UNL A   1      44.106  36.439  31.316  1.00  0.00    -0.203 F 
ATOM     96  C   UNL A   1      43.468  37.976  29.708  1.00  0.00     0.198 A 
ATOM     97  C   UNL A   1      42.324  37.294  27.736  1.00  0.00     0.198 A 
ATOM     98  F   UNL A   1      41.547  35.132  27.478  1.00  0.00    -0.203 F 
ATOM     99  F   UNL A   1      44.079  38.923  30.433  1.00  0.00    -0.200 F 
ATOM    100  C   UNL A   1      42.938  38.283  28.473  1.00  0.00     0.200 A 
ATOM    101  F   UNL A   1      41.883  37.552  26.497  1.00  0.00    -0.200 F 
ATOM    102  F   UNL A   1      43.042  39.524  27.982  1.00  0.00    -0.200 F 
ENDBRANCH  69  92
ENDBRANCH  43  44
ENDBRANCH  36  38
ENDBRANCH  35  36
ENDBRANCH  34  35
ENDBRANCH  33  34
ENDBRANCH   1  33
TORSDOF 17
ENDMDL
MODEL 3
REMARK VINA RESULT:     -13.5      0.753      1.686
REMARK SMILES Cc1ccc(-c2cc(C(=O)OCCOCCOC(=O)c3ccc(-c4c5nc(c(-c6c(F)c(F)c(F)c(F)c6F)c6ccc([nH]6)c(-c6c(F)c(F)c(F)c(F)c6F)c6nc(c(-c7c(F)c(F)c(F)c(F)c7F)c7ccc4[nH]7)C=C6)C=C5)cc3)c3c(-c4cccc([N+](=O)[O-])c4)[nH]nc3n2)cc1
REMARK SMILES IDX 14 1 13 2 12 3 11 4 9 5 10 6 8 7 6 8 7 9 97 10 96 11 83 12
REMARK SMILES IDX 95 13 84 14 94 15 5 17 1 18 2 19 3 20 99 21 4 22 98 23 85 24
REMARK SMILES IDX 86 25 93 26 87 27 89 28 88 29 90 30 91 31 92 32 15 33 16 34
REMARK SMILES IDX 17 35 18 36 19 37 20 38 21 39 82 40 22 41 81 42 23 43 24 44
REMARK SMILES IDX 25 45 75 46 26 47 80 48 74 49 76 50 27 51 79 52 73 53 72 54
REMARK SMILES IDX 28 56 60 57 40 58 59 59 41 60 44 61 58 62 77 63 42 64 43 65
REMARK SMILES IDX 57 67 78 68 45 69 29 70 30 71 38 72 31 73 32 74 36 75 39 76
REMARK SMILES IDX 33 77 34 78 37 79 35 80 61 81 62 82 70 83 63 84 64 85 68 86
REMARK SMILES IDX 71 87 65 88 66 89 69 90 67 91 46 92 47 93 55 94 48 95 49 96
REMARK SMILES IDX 53 97 56 98 50 99 51 100 54 101 52 102
REMARK H PARENT 94 16 76 55 44 66
REMARK Flexibility Score: inf
ROOT
ATOM      1  O   UNL A   1      32.150  30.209  26.135  1.00  0.00    -0.374 OA
ENDROOT
BRANCH   1   2
ATOM      2  C   UNL A   1      31.586  28.966  25.797  1.00  0.00     0.202 C 
BRANCH   2   3
ATOM      3  C   UNL A   1      32.774  28.214  25.328  1.00  0.00     0.261 C 
BRANCH   3   4
ATOM      4  O   UNL A   1      32.912  26.969  26.050  1.00  0.00    -0.460 OA
BRANCH   4   5
ATOM      5  C   UNL A   1      32.176  25.829  25.860  1.00  0.00     0.339 C 
ATOM      6  O   UNL A   1      31.169  25.483  26.408  1.00  0.00    -0.246 OA
BRANCH   5   7
ATOM      7  C   UNL A   1      32.900  25.074  24.841  1.00  0.00     0.075 A 
ATOM      8  C   UNL A   1      34.862  23.660  24.345  1.00  0.00     0.074 A 
ATOM      9  C   UNL A   1      33.983  24.287  25.236  1.00  0.00     0.045 A 
ATOM     10  N   UNL A   1      34.757  23.702  22.989  1.00  0.00    -0.226 NA
ATOM     11  C   UNL A   1      33.653  24.388  22.557  1.00  0.00     0.182 A 
ATOM     12  C   UNL A   1      32.744  25.057  23.457  1.00  0.00     0.061 A 
ATOM     13  N   UNL A   1      33.272  24.555  21.291  1.00  0.00    -0.154 NA
ATOM     14  C   UNL A   1      31.768  25.634  22.658  1.00  0.00     0.076 A 
ATOM     15  N   UNL A   1      32.141  25.280  21.379  1.00  0.00    -0.275 N 
ATOM     16  H   UNL A   1      31.619  25.541  20.586  1.00  0.00     0.190 HD
BRANCH   8  17
ATOM     17  C   UNL A   1      35.998  22.982  25.001  1.00  0.00     0.000 A 
ATOM     18  C   UNL A   1      39.819  21.342  26.236  1.00  0.00     0.044 C 
ATOM     19  C   UNL A   1      38.501  21.916  25.804  1.00  0.00    -0.051 A 
ATOM     20  C   UNL A   1      37.585  21.137  25.084  1.00  0.00     0.004 A 
ATOM     21  C   UNL A   1      38.165  23.231  26.122  1.00  0.00     0.004 A 
ATOM     22  C   UNL A   1      36.346  21.663  24.685  1.00  0.00     0.010 A 
ATOM     23  C   UNL A   1      36.929  23.751  25.735  1.00  0.00     0.010 A 
ENDBRANCH   8  17
BRANCH  14  24
ATOM     24  C   UNL A   1      30.554  26.414  22.908  1.00  0.00     0.007 A 
ATOM     25  C   UNL A   1      29.487  25.860  23.634  1.00  0.00     0.011 A 
ATOM     26  C   UNL A   1      30.457  27.743  22.471  1.00  0.00     0.096 A 
ATOM     27  C   UNL A   1      28.358  26.627  23.951  1.00  0.00     0.008 A 
ATOM     28  C   UNL A   1      29.332  28.514  22.817  1.00  0.00     0.270 A 
ATOM     29  C   UNL A   1      28.279  27.960  23.554  1.00  0.00     0.085 A 
BRANCH  28  30
ATOM     30  N   UNL A   1      29.285  29.939  22.463  1.00  0.00     0.062 N 
ATOM     31  O   UNL A   1      29.346  30.238  21.261  1.00  0.00    -0.258 OA
ATOM     32  O   UNL A   1      29.169  30.762  23.382  1.00  0.00    -0.258 OA
ENDBRANCH  28  30
ENDBRANCH  14  24
ENDBRANCH   5   7
ENDBRANCH   4   5
ENDBRANCH   3   4
ENDBRANCH   2   3
ENDBRANCH   1   2
BRANCH   1  33
ATOM     33  C   UNL A   1      33.408  30.157  26.749  1.00  0.00     0.202 C 
BRANCH  33  34
ATOM     34  C   UNL A   1      33.634  31.465  27.493  1.00  0.00     0.261 C 
BRANCH  34  35
ATOM     35  O   UNL A   1      34.530  31.235  28.616  1.00  0.00    -0.460 OA
BRANCH  35  36
ATOM     36  C   UNL A   1      35.856  31.527  28.426  1.00  0.00     0.338 C 
ATOM     37  O   UNL A   1      36.281  32.582  27.982  1.00  0.00    -0.246 OA
BRANCH  36  38
ATOM     38  C   UNL A   1      36.693  30.284  28.552  1.00  0.00     0.060 A 
ATOM     39  C   UNL A   1      36.691  29.516  29.739  1.00  0.00     0.016 A 
ATOM     40  C   UNL A   1      37.724  30.112  27.645  1.00  0.00     0.016 A 
ATOM     41  C   UNL A   1      37.817  28.740  30.098  1.00  0.00     0.010 A 
ATOM     42  C   UNL A   1      38.860  29.443  28.055  1.00  0.00     0.010 A 
ATOM     43  C   UNL A   1      38.953  28.797  29.299  1.00  0.00    -0.014 A 
BRANCH  43  44
ATOM     44  C   UNL A   1      40.312  28.301  29.601  1.00  0.00     0.031 A 
ATOM     45  C   UNL A   1      40.656  26.948  29.096  1.00  0.00     0.074 A 
ATOM     46  C   UNL A   1      41.320  29.134  29.980  1.00  0.00     0.049 A 
ATOM     47  N   UNL A   1      41.799  26.390  29.275  1.00  0.00    -0.248 NA
ATOM     48  C   UNL A   1      39.730  26.075  28.371  1.00  0.00     0.031 C 
ATOM     49  C   UNL A   1      42.758  29.032  29.678  1.00  0.00     0.029 A 
ATOM     50  N   UNL A   1      41.265  30.352  30.669  1.00  0.00    -0.354 N 
ATOM     51  C   UNL A   1      41.880  25.295  28.452  1.00  0.00     0.074 A 
ATOM     52  C   UNL A   1      40.528  25.060  28.024  1.00  0.00     0.031 C 
ATOM     53  C   UNL A   1      43.448  29.947  30.387  1.00  0.00     0.029 A 
ATOM     54  C   UNL A   1      42.503  30.595  31.279  1.00  0.00     0.049 A 
ATOM     55  H   UNL A   1      40.479  30.944  30.717  1.00  0.00     0.167 HD
ATOM     56  C   UNL A   1      43.126  24.826  28.159  1.00  0.00     0.037 A 
ATOM     57  C   UNL A   1      42.588  30.746  32.627  1.00  0.00     0.037 A 
ATOM     58  C   UNL A   1      44.126  25.510  28.996  1.00  0.00     0.049 A 
ATOM     59  C   UNL A   1      43.367  29.578  33.147  1.00  0.00     0.074 A 
ATOM     60  C   UNL A   1      45.111  26.449  28.746  1.00  0.00     0.029 A 
ATOM     61  N   UNL A   1      43.968  25.476  30.384  1.00  0.00    -0.354 N 
ATOM     62  N   UNL A   1      43.425  28.445  32.500  1.00  0.00    -0.248 NA
ATOM     63  C   UNL A   1      44.247  29.623  34.304  1.00  0.00     0.031 C 
ATOM     64  C   UNL A   1      45.487  27.026  29.999  1.00  0.00     0.029 A 
ATOM     65  C   UNL A   1      44.763  26.412  31.013  1.00  0.00     0.049 A 
ATOM     66  H   UNL A   1      43.362  24.858  30.855  1.00  0.00     0.167 HD
ATOM     67  C   UNL A   1      44.411  27.680  33.034  1.00  0.00     0.074 A 
ATOM     68  C   UNL A   1      44.861  28.431  34.194  1.00  0.00     0.031 C 
ATOM     69  C   UNL A   1      44.802  26.502  32.474  1.00  0.00     0.037 A 
BRANCH  56  70
ATOM     70  C   UNL A   1      43.495  23.873  27.034  1.00  0.00     0.064 A 
ATOM     71  C   UNL A   1      43.130  22.510  27.119  1.00  0.00     0.173 A 
ATOM     72  C   UNL A   1      44.267  24.193  25.896  1.00  0.00     0.173 A 
ATOM     73  F   UNL A   1      42.414  22.046  28.153  1.00  0.00    -0.203 F 
ATOM     74  C   UNL A   1      43.504  21.562  26.157  1.00  0.00     0.198 A 
ATOM     75  C   UNL A   1      44.600  23.255  24.911  1.00  0.00     0.198 A 
ATOM     76  F   UNL A   1      44.793  25.405  25.707  1.00  0.00    -0.203 F 
ATOM     77  F   UNL A   1      43.169  20.275  26.325  1.00  0.00    -0.200 F 
ATOM     78  C   UNL A   1      44.227  21.937  25.045  1.00  0.00     0.200 A 
ATOM     79  F   UNL A   1      45.317  23.642  23.845  1.00  0.00    -0.200 F 
ATOM     80  F   UNL A   1      44.582  21.035  24.121  1.00  0.00    -0.200 F 
ENDBRANCH  56  70
BRANCH  57  81
ATOM     81  C   UNL A   1      41.373  31.415  33.189  1.00  0.00     0.064 A 
ATOM     82  C   UNL A   1      40.486  30.604  33.934  1.00  0.00     0.173 A 
ATOM     83  C   UNL A   1      41.365  32.790  33.471  1.00  0.00     0.173 A 
ATOM     84  F   UNL A   1      40.490  29.272  33.758  1.00  0.00    -0.203 F 
ATOM     85  C   UNL A   1      39.735  31.121  34.993  1.00  0.00     0.198 A 
ATOM     86  C   UNL A   1      40.640  33.296  34.559  1.00  0.00     0.198 A 
ATOM     87  F   UNL A   1      42.190  33.617  32.813  1.00  0.00    -0.203 F 
ATOM     88  F   UNL A   1      39.053  30.291  35.797  1.00  0.00    -0.200 F 
ATOM     89  C   UNL A   1      39.859  32.457  35.339  1.00  0.00     0.200 A 
ATOM     90  F   UNL A   1      40.795  34.576  34.929  1.00  0.00    -0.200 F 
ATOM     91  F   UNL A   1      39.324  32.903  36.486  1.00  0.00    -0.200 F 
ENDBRANCH  57  81
BRANCH  69  92
ATOM     92  C   UNL A   1      45.310  25.348  33.293  1.00  0.00     0.064 A 
ATOM     93  C   UNL A   1      46.675  25.029  33.413  1.00  0.00     0.173 A 
ATOM     94  C   UNL A   1      44.443  24.630  34.148  1.00  0.00     0.173 A 
ATOM     95  F   UNL A   1      47.627  25.739  32.793  1.00  0.00    -0.203 F 
ATOM     96  C   UNL A   1      47.125  24.002  34.238  1.00  0.00     0.198 A 
ATOM     97  C   UNL A   1      44.908  23.667  35.038  1.00  0.00     0.198 A 
ATOM     98  F   UNL A   1      43.124  24.865  34.187  1.00  0.00    -0.203 F 
ATOM     99  F   UNL A   1      48.428  23.696  34.254  1.00  0.00    -0.200 F 
ATOM    100  C   UNL A   1      46.244  23.330  35.059  1.00  0.00     0.200 A 
ATOM    101  F   UNL A   1      44.054  23.086  35.891  1.00  0.00    -0.200 F 
ATOM    102  F   UNL A   1      46.687  22.378  35.888  1.00  0.00    -0.200 F 
ENDBRANCH  69  92
ENDBRANCH  43  44
ENDBRANCH  36  38
ENDBRANCH  35  36
ENDBRANCH  34  35
ENDBRANCH  33  34
ENDBRANCH   1  33
TORSDOF 17
ENDMDL
