MODEL 1
REMARK VINA RESULT:     -11.3      0.000      0.000
REMARK SMILES Nc1oc(-c2ccccc2)cc1C(=O)OCCOCCOC(=O)c1ccc(-c2c3nc(c(-c4c(F)c(F)c(F)c(F)c4F)c4ccc([nH]4)c(-c4c(F)c(F)c(F)c(F)c4F)c4nc(c(-c5c(F)c(F)c(F)c(F)c5F)c5ccc2[nH]5)C=C4)C=C3)cc1
REMARK SMILES IDX 19 1 18 2 17 3 16 4 15 5 13 6 14 7 12 8 2 9 3 10 4 11 11 12
REMARK SMILES IDX 1 13 5 16 6 17 10 18 7 19 9 20 8 21 20 22 21 23 22 24 23 25
REMARK SMILES IDX 24 26 25 27 86 28 26 29 85 30 27 31 28 32 29 33 79 34 30 35
REMARK SMILES IDX 84 36 78 37 80 38 31 39 83 40 77 41 76 42 32 44 64 45 44 46
REMARK SMILES IDX 63 47 45 48 48 49 62 50 81 51 46 52 47 53 61 55 82 56 49 57
REMARK SMILES IDX 33 58 34 59 42 60 35 61 36 62 40 63 43 64 37 65 38 66 41 67
REMARK SMILES IDX 39 68 65 69 66 70 74 71 67 72 68 73 72 74 75 75 69 76 70 77
REMARK SMILES IDX 73 78 71 79 50 80 51 81 59 82 52 83 53 84 57 85 60 86 54 87
REMARK SMILES IDX 55 88 58 89 56 90
REMARK H PARENT 1 14 1 15 80 43 48 54
REMARK Flexibility Score: inf
ROOT
ATOM      1  C   UNL A   1      35.430  34.837  33.191  1.00  0.00     0.202 C 
ENDROOT
BRANCH   1   2
ATOM      2  O   UNL A   1      34.754  35.976  33.712  1.00  0.00    -0.374 OA
BRANCH   2   3
ATOM      3  C   UNL A   1      34.012  36.840  32.853  1.00  0.00     0.202 C 
BRANCH   3   4
ATOM      4  C   UNL A   1      32.578  36.457  32.478  1.00  0.00     0.261 C 
BRANCH   4   5
ATOM      5  O   UNL A   1      32.521  35.459  31.447  1.00  0.00    -0.459 OA
BRANCH   5   6
ATOM      6  C   UNL A   1      32.842  35.916  30.199  1.00  0.00     0.343 C 
ATOM      7  O   UNL A   1      32.554  37.021  29.768  1.00  0.00    -0.246 OA
BRANCH   6   8
ATOM      8  C   UNL A   1      33.705  34.994  29.494  1.00  0.00     0.123 A 
ATOM      9  C   UNL A   1      34.403  35.305  28.345  1.00  0.00     0.205 A 
ATOM     10  O   UNL A   1      35.088  34.226  27.891  1.00  0.00    -0.440 OA
ATOM     11  C   UNL A   1      34.817  33.200  28.745  1.00  0.00     0.137 A 
ATOM     12  C   UNL A   1      34.046  33.649  29.798  1.00  0.00     0.069 A 
BRANCH   9  13
ATOM     13  N   UNL A   1      34.529  36.428  27.632  1.00  0.00    -0.369 N 
ATOM     14  H   UNL A   1      34.505  37.302  28.084  1.00  0.00     0.159 HD
ATOM     15  H   UNL A   1      34.646  36.382  26.656  1.00  0.00     0.159 HD
ENDBRANCH   9  13
BRANCH  11  16
ATOM     16  C   UNL A   1      35.269  31.883  28.337  1.00  0.00     0.017 A 
ATOM     17  C   UNL A   1      34.389  30.911  27.850  1.00  0.00     0.012 A 
ATOM     18  C   UNL A   1      36.630  31.568  28.467  1.00  0.00     0.012 A 
ATOM     19  C   UNL A   1      34.868  29.650  27.485  1.00  0.00     0.001 A 
ATOM     20  C   UNL A   1      37.105  30.305  28.116  1.00  0.00     0.001 A 
ATOM     21  C   UNL A   1      36.224  29.348  27.620  1.00  0.00     0.000 A 
ENDBRANCH  11  16
ENDBRANCH   6   8
ENDBRANCH   5   6
ENDBRANCH   4   5
ENDBRANCH   3   4
ENDBRANCH   2   3
ENDBRANCH   1   2
BRANCH   1  22
ATOM     22  C   UNL A   1      34.841  33.455  33.423  1.00  0.00     0.261 C 
BRANCH  22  23
ATOM     23  O   UNL A   1      35.454  32.471  32.608  1.00  0.00    -0.460 OA
BRANCH  23  24
ATOM     24  C   UNL A   1      36.491  31.843  33.210  1.00  0.00     0.338 C 
ATOM     25  O   UNL A   1      36.828  31.916  34.375  1.00  0.00    -0.246 OA
BRANCH  24  26
ATOM     26  C   UNL A   1      37.286  31.183  32.172  1.00  0.00     0.060 A 
ATOM     27  C   UNL A   1      37.106  29.804  32.059  1.00  0.00     0.016 A 
ATOM     28  C   UNL A   1      38.404  31.842  31.640  1.00  0.00     0.016 A 
ATOM     29  C   UNL A   1      38.181  29.049  31.659  1.00  0.00     0.010 A 
ATOM     30  C   UNL A   1      39.483  31.087  31.263  1.00  0.00     0.010 A 
ATOM     31  C   UNL A   1      39.385  29.703  31.374  1.00  0.00    -0.014 A 
BRANCH  31  32
ATOM     32  C   UNL A   1      40.536  28.895  31.052  1.00  0.00     0.031 A 
ATOM     33  C   UNL A   1      41.334  28.601  32.257  1.00  0.00     0.074 A 
ATOM     34  C   UNL A   1      40.766  28.421  29.814  1.00  0.00     0.049 A 
ATOM     35  N   UNL A   1      42.488  29.092  32.559  1.00  0.00    -0.248 NA
ATOM     36  C   UNL A   1      40.681  27.872  33.358  1.00  0.00     0.031 C 
ATOM     37  C   UNL A   1      39.894  28.465  28.638  1.00  0.00     0.029 A 
ATOM     38  N   UNL A   1      41.831  27.698  29.374  1.00  0.00    -0.354 N 
ATOM     39  C   UNL A   1      42.801  28.552  33.799  1.00  0.00     0.074 A 
ATOM     40  C   UNL A   1      41.580  28.012  34.331  1.00  0.00     0.031 C 
ATOM     41  C   UNL A   1      40.361  27.603  27.703  1.00  0.00     0.029 A 
ATOM     42  C   UNL A   1      41.625  27.052  28.158  1.00  0.00     0.049 A 
ATOM     43  H   UNL A   1      42.678  27.638  29.874  1.00  0.00     0.167 HD
ATOM     44  C   UNL A   1      44.097  28.329  34.141  1.00  0.00     0.037 A 
ATOM     45  C   UNL A   1      42.418  26.069  27.654  1.00  0.00     0.037 A 
ATOM     46  C   UNL A   1      44.988  29.082  33.295  1.00  0.00     0.049 A 
ATOM     47  C   UNL A   1      43.732  26.168  28.348  1.00  0.00     0.074 A 
ATOM     48  C   UNL A   1      45.187  30.428  33.052  1.00  0.00     0.029 A 
ATOM     49  N   UNL A   1      45.567  28.420  32.239  1.00  0.00    -0.354 N 
ATOM     50  N   UNL A   1      44.561  27.160  28.180  1.00  0.00    -0.248 NA
ATOM     51  C   UNL A   1      43.890  25.425  29.591  1.00  0.00     0.031 C 
ATOM     52  C   UNL A   1      45.456  30.520  31.655  1.00  0.00     0.029 A 
ATOM     53  C   UNL A   1      45.490  29.226  31.134  1.00  0.00     0.049 A 
ATOM     54  H   UNL A   1      45.967  27.521  32.272  1.00  0.00     0.167 HD
ATOM     55  C   UNL A   1      45.023  27.449  29.456  1.00  0.00     0.074 A 
ATOM     56  C   UNL A   1      44.625  26.307  30.275  1.00  0.00     0.031 C 
ATOM     57  C   UNL A   1      45.411  28.716  29.787  1.00  0.00     0.037 A 
BRANCH  44  58
ATOM     58  C   UNL A   1      44.553  27.128  34.928  1.00  0.00     0.064 A 
ATOM     59  C   UNL A   1      44.252  25.845  34.436  1.00  0.00     0.173 A 
ATOM     60  C   UNL A   1      44.996  27.179  36.270  1.00  0.00     0.173 A 
ATOM     61  F   UNL A   1      43.801  25.683  33.184  1.00  0.00    -0.203 F 
ATOM     62  C   UNL A   1      44.314  24.712  35.251  1.00  0.00     0.198 A 
ATOM     63  C   UNL A   1      45.112  26.040  37.061  1.00  0.00     0.198 A 
ATOM     64  F   UNL A   1      45.220  28.331  36.913  1.00  0.00    -0.203 F 
ATOM     65  F   UNL A   1      43.892  23.532  34.779  1.00  0.00    -0.200 F 
ATOM     66  C   UNL A   1      44.739  24.811  36.563  1.00  0.00     0.200 A 
ATOM     67  F   UNL A   1      45.505  26.164  38.336  1.00  0.00    -0.200 F 
ATOM     68  F   UNL A   1      44.742  23.738  37.363  1.00  0.00    -0.200 F 
ENDBRANCH  44  58
BRANCH  45  69
ATOM     69  C   UNL A   1      42.016  24.836  26.929  1.00  0.00     0.064 A 
ATOM     70  C   UNL A   1      42.789  24.346  25.861  1.00  0.00     0.173 A 
ATOM     71  C   UNL A   1      41.056  23.951  27.459  1.00  0.00     0.173 A 
ATOM     72  F   UNL A   1      43.755  25.106  25.324  1.00  0.00    -0.203 F 
ATOM     73  C   UNL A   1      42.641  23.039  25.383  1.00  0.00     0.198 A 
ATOM     74  C   UNL A   1      40.906  22.649  26.977  1.00  0.00     0.198 A 
ATOM     75  F   UNL A   1      40.316  24.294  28.522  1.00  0.00    -0.203 F 
ATOM     76  F   UNL A   1      43.449  22.585  24.413  1.00  0.00    -0.200 F 
ATOM     77  C   UNL A   1      41.710  22.187  25.951  1.00  0.00     0.200 A 
ATOM     78  F   UNL A   1      40.027  21.823  27.561  1.00  0.00    -0.200 F 
ATOM     79  F   UNL A   1      41.616  20.913  25.544  1.00  0.00    -0.200 F 
ENDBRANCH  45  69
BRANCH  57  80
ATOM     80  C   UNL A   1      45.585  29.705  28.667  1.00  0.00     0.064 A 
ATOM     81  C   UNL A   1      44.541  30.456  28.095  1.00  0.00     0.173 A 
ATOM     82  C   UNL A   1      46.889  29.984  28.236  1.00  0.00     0.173 A 
ATOM     83  F   UNL A   1      43.280  30.326  28.527  1.00  0.00    -0.203 F 
ATOM     84  C   UNL A   1      44.792  31.396  27.095  1.00  0.00     0.198 A 
ATOM     85  C   UNL A   1      47.139  30.952  27.269  1.00  0.00     0.198 A 
ATOM     86  F   UNL A   1      47.929  29.340  28.786  1.00  0.00    -0.203 F 
ATOM     87  F   UNL A   1      43.779  32.082  26.546  1.00  0.00    -0.200 F 
ATOM     88  C   UNL A   1      46.092  31.646  26.688  1.00  0.00     0.200 A 
ATOM     89  F   UNL A   1      48.403  31.225  26.916  1.00  0.00    -0.200 F 
ATOM     90  F   UNL A   1      46.339  32.573  25.751  1.00  0.00    -0.200 F 
ENDBRANCH  57  80
ENDBRANCH  31  32
ENDBRANCH  24  26
ENDBRANCH  23  24
ENDBRANCH  22  23
ENDBRANCH   1  22
TORSDOF 16
ENDMDL
MODEL 2
REMARK VINA RESULT:     -11.1      5.092     10.441
REMARK SMILES Nc1oc(-c2ccccc2)cc1C(=O)OCCOCCOC(=O)c1ccc(-c2c3nc(c(-c4c(F)c(F)c(F)c(F)c4F)c4ccc([nH]4)c(-c4c(F)c(F)c(F)c(F)c4F)c4nc(c(-c5c(F)c(F)c(F)c(F)c5F)c5ccc2[nH]5)C=C4)C=C3)cc1
REMARK SMILES IDX 19 1 18 2 17 3 16 4 15 5 13 6 14 7 12 8 2 9 3 10 4 11 11 12
REMARK SMILES IDX 1 13 5 16 6 17 10 18 7 19 9 20 8 21 20 22 21 23 22 24 23 25
REMARK SMILES IDX 24 26 25 27 86 28 26 29 85 30 27 31 28 32 29 33 79 34 30 35
REMARK SMILES IDX 84 36 78 37 80 38 31 39 83 40 77 41 76 42 32 44 64 45 44 46
REMARK SMILES IDX 63 47 45 48 48 49 62 50 81 51 46 52 47 53 61 55 82 56 49 57
REMARK SMILES IDX 33 58 34 59 42 60 35 61 36 62 40 63 43 64 37 65 38 66 41 67
REMARK SMILES IDX 39 68 65 69 66 70 74 71 67 72 68 73 72 74 75 75 69 76 70 77
REMARK SMILES IDX 73 78 71 79 50 80 51 81 59 82 52 83 53 84 57 85 60 86 54 87
REMARK SMILES IDX 55 88 58 89 56 90
REMARK H PARENT 1 14 1 15 80 43 48 54
REMARK Flexibility Score: inf
ROOT
ATOM      1  C   UNL A   1      41.982  19.016  26.541  1.00  0.00     0.202 C 
ENDROOT
BRANCH   1   2
ATOM      2  O   UNL A   1      41.840  19.953  27.602  1.00  0.00    -0.374 OA
BRANCH   2   3
ATOM      3  C   UNL A   1      40.962  21.071  27.475  1.00  0.00     0.202 C 
BRANCH   3   4
ATOM      4  C   UNL A   1      40.308  21.346  26.117  1.00  0.00     0.261 C 
BRANCH   4   5
ATOM      5  O   UNL A   1      38.986  21.893  26.238  1.00  0.00    -0.459 OA
BRANCH   5   6
ATOM      6  C   UNL A   1      38.046  21.276  25.460  1.00  0.00     0.343 C 
ATOM      7  O   UNL A   1      38.152  20.149  25.004  1.00  0.00    -0.246 OA
BRANCH   6   8
ATOM      8  C   UNL A   1      36.831  22.055  25.365  1.00  0.00     0.123 A 
ATOM      9  C   UNL A   1      35.561  21.517  25.340  1.00  0.00     0.205 A 
ATOM     10  O   UNL A   1      34.628  22.490  25.199  1.00  0.00    -0.440 OA
ATOM     11  C   UNL A   1      35.302  23.672  25.115  1.00  0.00     0.137 A 
ATOM     12  C   UNL A   1      36.653  23.462  25.305  1.00  0.00     0.069 A 
BRANCH   9  13
ATOM     13  N   UNL A   1      35.100  20.266  25.433  1.00  0.00    -0.369 N 
ATOM     14  H   UNL A   1      35.167  19.780  26.286  1.00  0.00     0.159 HD
ATOM     15  H   UNL A   1      34.694  19.831  24.649  1.00  0.00     0.159 HD
ENDBRANCH   9  13
BRANCH  11  16
ATOM     16  C   UNL A   1      34.520  24.836  24.743  1.00  0.00     0.017 A 
ATOM     17  C   UNL A   1      34.110  25.067  23.426  1.00  0.00     0.012 A 
ATOM     18  C   UNL A   1      34.195  25.774  25.734  1.00  0.00     0.012 A 
ATOM     19  C   UNL A   1      33.373  26.213  23.111  1.00  0.00     0.001 A 
ATOM     20  C   UNL A   1      33.472  26.923  25.417  1.00  0.00     0.001 A 
ATOM     21  C   UNL A   1      33.057  27.139  24.106  1.00  0.00     0.000 A 
ENDBRANCH  11  16
ENDBRANCH   6   8
ENDBRANCH   5   6
ENDBRANCH   4   5
ENDBRANCH   3   4
ENDBRANCH   2   3
ENDBRANCH   1   2
BRANCH   1  22
ATOM     22  C   UNL A   1      43.279  18.986  25.748  1.00  0.00     0.261 C 
BRANCH  22  23
ATOM     23  O   UNL A   1      43.377  20.076  24.848  1.00  0.00    -0.460 OA
BRANCH  23  24
ATOM     24  C   UNL A   1      44.651  20.377  24.502  1.00  0.00     0.338 C 
ATOM     25  O   UNL A   1      45.545  19.603  24.220  1.00  0.00    -0.246 OA
BRANCH  24  26
ATOM     26  C   UNL A   1      44.849  21.814  24.701  1.00  0.00     0.060 A 
ATOM     27  C   UNL A   1      45.807  22.165  25.654  1.00  0.00     0.016 A 
ATOM     28  C   UNL A   1      43.869  22.711  24.254  1.00  0.00     0.016 A 
ATOM     29  C   UNL A   1      45.609  23.323  26.363  1.00  0.00     0.010 A 
ATOM     30  C   UNL A   1      43.659  23.855  24.977  1.00  0.00     0.010 A 
ATOM     31  C   UNL A   1      44.473  24.091  26.081  1.00  0.00    -0.014 A 
BRANCH  31  32
ATOM     32  C   UNL A   1      44.219  25.253  26.898  1.00  0.00     0.031 A 
ATOM     33  C   UNL A   1      45.257  26.282  26.696  1.00  0.00     0.074 A 
ATOM     34  C   UNL A   1      43.120  25.376  27.663  1.00  0.00     0.049 A 
ATOM     35  N   UNL A   1      46.184  26.618  27.528  1.00  0.00    -0.248 NA
ATOM     36  C   UNL A   1      45.435  26.828  25.340  1.00  0.00     0.031 C 
ATOM     37  C   UNL A   1      41.939  24.512  27.719  1.00  0.00     0.029 A 
ATOM     38  N   UNL A   1      42.793  26.389  28.511  1.00  0.00    -0.354 N 
ATOM     39  C   UNL A   1      46.931  27.585  26.869  1.00  0.00     0.074 A 
ATOM     40  C   UNL A   1      46.576  27.502  25.479  1.00  0.00     0.031 C 
ATOM     41  C   UNL A   1      40.942  25.158  28.370  1.00  0.00     0.029 A 
ATOM     42  C   UNL A   1      41.453  26.416  28.886  1.00  0.00     0.049 A 
ATOM     43  H   UNL A   1      43.450  27.049  28.832  1.00  0.00     0.167 HD
ATOM     44  C   UNL A   1      47.549  28.568  27.573  1.00  0.00     0.037 A 
ATOM     45  C   UNL A   1      40.833  27.464  29.490  1.00  0.00     0.037 A 
ATOM     46  C   UNL A   1      47.665  28.210  28.965  1.00  0.00     0.049 A 
ATOM     47  C   UNL A   1      41.898  28.313  30.094  1.00  0.00     0.074 A 
ATOM     48  C   UNL A   1      48.297  27.193  29.653  1.00  0.00     0.029 A 
ATOM     49  N   UNL A   1      46.729  28.725  29.829  1.00  0.00    -0.354 N 
ATOM     50  N   UNL A   1      42.628  27.938  31.107  1.00  0.00    -0.248 NA
ATOM     51  C   UNL A   1      42.478  29.355  29.258  1.00  0.00     0.031 C 
ATOM     52  C   UNL A   1      47.404  26.846  30.710  1.00  0.00     0.029 A 
ATOM     53  C   UNL A   1      46.317  27.719  30.663  1.00  0.00     0.049 A 
ATOM     54  H   UNL A   1      46.410  29.656  29.845  1.00  0.00     0.167 HD
ATOM     55  C   UNL A   1      43.913  28.349  30.783  1.00  0.00     0.074 A 
ATOM     56  C   UNL A   1      43.748  29.272  29.663  1.00  0.00     0.031 C 
ATOM     57  C   UNL A   1      45.001  27.669  31.251  1.00  0.00     0.037 A 
BRANCH  44  58
ATOM     58  C   UNL A   1      47.649  29.994  27.095  1.00  0.00     0.064 A 
ATOM     59  C   UNL A   1      48.891  30.651  27.187  1.00  0.00     0.173 A 
ATOM     60  C   UNL A   1      46.536  30.827  26.841  1.00  0.00     0.173 A 
ATOM     61  F   UNL A   1      50.010  29.960  27.449  1.00  0.00    -0.203 F 
ATOM     62  C   UNL A   1      48.994  32.041  27.109  1.00  0.00     0.198 A 
ATOM     63  C   UNL A   1      46.652  32.207  26.706  1.00  0.00     0.198 A 
ATOM     64  F   UNL A   1      45.279  30.368  26.831  1.00  0.00    -0.203 F 
ATOM     65  F   UNL A   1      50.174  32.632  27.333  1.00  0.00    -0.200 F 
ATOM     66  C   UNL A   1      47.875  32.818  26.874  1.00  0.00     0.200 A 
ATOM     67  F   UNL A   1      45.550  32.941  26.500  1.00  0.00    -0.200 F 
ATOM     68  F   UNL A   1      47.961  34.154  26.859  1.00  0.00    -0.200 F 
ENDBRANCH  44  58
BRANCH  45  69
ATOM     69  C   UNL A   1      39.464  27.991  29.255  1.00  0.00     0.064 A 
ATOM     70  C   UNL A   1      38.561  28.147  30.322  1.00  0.00     0.173 A 
ATOM     71  C   UNL A   1      39.122  28.638  28.051  1.00  0.00     0.173 A 
ATOM     72  F   UNL A   1      38.829  27.601  31.517  1.00  0.00    -0.203 F 
ATOM     73  C   UNL A   1      37.411  28.937  30.205  1.00  0.00     0.198 A 
ATOM     74  C   UNL A   1      37.971  29.420  27.935  1.00  0.00     0.198 A 
ATOM     75  F   UNL A   1      39.946  28.610  26.995  1.00  0.00    -0.203 F 
ATOM     76  F   UNL A   1      36.615  29.121  31.268  1.00  0.00    -0.200 F 
ATOM     77  C   UNL A   1      37.125  29.584  29.016  1.00  0.00     0.200 A 
ATOM     78  F   UNL A   1      37.725  30.072  26.789  1.00  0.00    -0.200 F 
ATOM     79  F   UNL A   1      36.063  30.398  28.923  1.00  0.00    -0.200 F 
ENDBRANCH  45  69
BRANCH  57  80
ATOM     80  C   UNL A   1      44.772  26.652  32.336  1.00  0.00     0.064 A 
ATOM     81  C   UNL A   1      44.500  25.290  32.110  1.00  0.00     0.173 A 
ATOM     82  C   UNL A   1      44.951  27.060  33.664  1.00  0.00     0.173 A 
ATOM     83  F   UNL A   1      44.420  24.799  30.865  1.00  0.00    -0.203 F 
ATOM     84  C   UNL A   1      44.355  24.396  33.171  1.00  0.00     0.198 A 
ATOM     85  C   UNL A   1      44.848  26.157  34.718  1.00  0.00     0.198 A 
ATOM     86  F   UNL A   1      45.269  28.334  33.938  1.00  0.00    -0.203 F 
ATOM     87  F   UNL A   1      44.071  23.107  32.933  1.00  0.00    -0.200 F 
ATOM     88  C   UNL A   1      44.535  24.831  34.474  1.00  0.00     0.200 A 
ATOM     89  F   UNL A   1      45.073  26.574  35.972  1.00  0.00    -0.200 F 
ATOM     90  F   UNL A   1      44.429  23.968  35.494  1.00  0.00    -0.200 F 
ENDBRANCH  57  80
ENDBRANCH  31  32
ENDBRANCH  24  26
ENDBRANCH  23  24
ENDBRANCH  22  23
ENDBRANCH   1  22
TORSDOF 16
ENDMDL
MODEL 3
REMARK VINA RESULT:     -11.1      1.567      2.889
REMARK SMILES Nc1oc(-c2ccccc2)cc1C(=O)OCCOCCOC(=O)c1ccc(-c2c3nc(c(-c4c(F)c(F)c(F)c(F)c4F)c4ccc([nH]4)c(-c4c(F)c(F)c(F)c(F)c4F)c4nc(c(-c5c(F)c(F)c(F)c(F)c5F)c5ccc2[nH]5)C=C4)C=C3)cc1
REMARK SMILES IDX 19 1 18 2 17 3 16 4 15 5 13 6 14 7 12 8 2 9 3 10 4 11 11 12
REMARK SMILES IDX 1 13 5 16 6 17 10 18 7 19 9 20 8 21 20 22 21 23 22 24 23 25
REMARK SMILES IDX 24 26 25 27 86 28 26 29 85 30 27 31 28 32 29 33 79 34 30 35
REMARK SMILES IDX 84 36 78 37 80 38 31 39 83 40 77 41 76 42 32 44 64 45 44 46
REMARK SMILES IDX 63 47 45 48 48 49 62 50 81 51 46 52 47 53 61 55 82 56 49 57
REMARK SMILES IDX 33 58 34 59 42 60 35 61 36 62 40 63 43 64 37 65 38 66 41 67
REMARK SMILES IDX 39 68 65 69 66 70 74 71 67 72 68 73 72 74 75 75 69 76 70 77
REMARK SMILES IDX 73 78 71 79 50 80 51 81 59 82 52 83 53 84 57 85 60 86 54 87
REMARK SMILES IDX 55 88 58 89 56 90
REMARK H PARENT 1 14 1 15 80 43 48 54
REMARK Flexibility Score: inf
ROOT
ATOM      1  C   UNL A   1      34.770  34.035  28.041  1.00  0.00     0.202 C 
ENDROOT
BRANCH   1   2
ATOM      2  O   UNL A   1      34.495  35.361  28.476  1.00  0.00    -0.374 OA
BRANCH   2   3
ATOM      3  C   UNL A   1      33.160  35.773  28.765  1.00  0.00     0.202 C 
BRANCH   3   4
ATOM      4  C   UNL A   1      32.934  36.854  29.827  1.00  0.00     0.261 C 
BRANCH   4   5
ATOM      5  O   UNL A   1      33.673  36.610  31.034  1.00  0.00    -0.459 OA
BRANCH   5   6
ATOM      6  C   UNL A   1      33.171  35.604  31.811  1.00  0.00     0.343 C 
ATOM      7  O   UNL A   1      31.994  35.474  32.106  1.00  0.00    -0.246 OA
BRANCH   6   8
ATOM      8  C   UNL A   1      34.176  34.609  32.119  1.00  0.00     0.123 A 
ATOM      9  C   UNL A   1      33.973  33.530  32.954  1.00  0.00     0.205 A 
ATOM     10  O   UNL A   1      35.110  32.803  33.085  1.00  0.00    -0.440 OA
ATOM     11  C   UNL A   1      36.065  33.427  32.339  1.00  0.00     0.137 A 
ATOM     12  C   UNL A   1      35.512  34.489  31.654  1.00  0.00     0.069 A 
BRANCH   9  13
ATOM     13  N   UNL A   1      32.906  33.085  33.623  1.00  0.00    -0.369 N 
ATOM     14  H   UNL A   1      32.500  32.221  33.383  1.00  0.00     0.159 HD
ATOM     15  H   UNL A   1      32.525  33.620  34.356  1.00  0.00     0.159 HD
ENDBRANCH   9  13
BRANCH  11  16
ATOM     16  C   UNL A   1      37.424  32.947  32.500  1.00  0.00     0.017 A 
ATOM     17  C   UNL A   1      37.711  31.677  33.010  1.00  0.00     0.012 A 
ATOM     18  C   UNL A   1      38.484  33.802  32.161  1.00  0.00     0.012 A 
ATOM     19  C   UNL A   1      39.038  31.265  33.164  1.00  0.00     0.001 A 
ATOM     20  C   UNL A   1      39.807  33.396  32.328  1.00  0.00     0.001 A 
ATOM     21  C   UNL A   1      40.083  32.124  32.825  1.00  0.00     0.000 A 
ENDBRANCH  11  16
ENDBRANCH   6   8
ENDBRANCH   5   6
ENDBRANCH   4   5
ENDBRANCH   3   4
ENDBRANCH   2   3
ENDBRANCH   1   2
BRANCH   1  22
ATOM     22  C   UNL A   1      33.954  32.885  28.610  1.00  0.00     0.261 C 
BRANCH  22  23
ATOM     23  O   UNL A   1      34.734  32.035  29.433  1.00  0.00    -0.460 OA
BRANCH  23  24
ATOM     24  C   UNL A   1      35.363  31.051  28.749  1.00  0.00     0.338 C 
ATOM     25  O   UNL A   1      34.957  30.448  27.776  1.00  0.00    -0.246 OA
BRANCH  24  26
ATOM     26  C   UNL A   1      36.570  30.681  29.492  1.00  0.00     0.060 A 
ATOM     27  C   UNL A   1      37.682  31.498  29.282  1.00  0.00     0.016 A 
ATOM     28  C   UNL A   1      36.674  29.393  30.035  1.00  0.00     0.016 A 
ATOM     29  C   UNL A   1      38.924  30.917  29.354  1.00  0.00     0.010 A 
ATOM     30  C   UNL A   1      37.912  28.809  30.085  1.00  0.00     0.010 A 
ATOM     31  C   UNL A   1      39.004  29.551  29.649  1.00  0.00    -0.014 A 
BRANCH  31  32
ATOM     32  C   UNL A   1      40.305  28.928  29.626  1.00  0.00     0.031 A 
ATOM     33  C   UNL A   1      40.831  28.739  30.992  1.00  0.00     0.074 A 
ATOM     34  C   UNL A   1      40.889  28.509  28.488  1.00  0.00     0.049 A 
ATOM     35  N   UNL A   1      41.795  29.391  31.546  1.00  0.00    -0.248 NA
ATOM     36  C   UNL A   1      40.051  27.906  31.923  1.00  0.00     0.031 C 
ATOM     37  C   UNL A   1      40.323  28.439  27.139  1.00  0.00     0.029 A 
ATOM     38  N   UNL A   1      42.123  27.959  28.328  1.00  0.00    -0.354 N 
ATOM     39  C   UNL A   1      41.882  28.888  32.836  1.00  0.00     0.074 A 
ATOM     40  C   UNL A   1      40.663  28.166  33.078  1.00  0.00     0.031 C 
ATOM     41  C   UNL A   1      41.120  27.669  26.359  1.00  0.00     0.029 A 
ATOM     42  C   UNL A   1      42.308  27.306  27.112  1.00  0.00     0.049 A 
ATOM     43  H   UNL A   1      42.827  28.018  29.014  1.00  0.00     0.167 HD
ATOM     44  C   UNL A   1      43.078  28.855  33.479  1.00  0.00     0.037 A 
ATOM     45  C   UNL A   1      43.333  26.458  26.831  1.00  0.00     0.037 A 
ATOM     46  C   UNL A   1      44.024  29.744  32.850  1.00  0.00     0.049 A 
ATOM     47  C   UNL A   1      44.416  26.742  27.813  1.00  0.00     0.074 A 
ATOM     48  C   UNL A   1      44.074  31.107  32.632  1.00  0.00     0.029 A 
ATOM     49  N   UNL A   1      44.927  29.189  31.976  1.00  0.00    -0.354 N 
ATOM     50  N   UNL A   1      45.106  27.848  27.823  1.00  0.00    -0.248 NA
ATOM     51  C   UNL A   1      44.384  26.014  29.074  1.00  0.00     0.031 C 
ATOM     52  C   UNL A   1      44.649  31.257  31.336  1.00  0.00     0.029 A 
ATOM     53  C   UNL A   1      44.995  29.990  30.866  1.00  0.00     0.049 A 
ATOM     54  H   UNL A   1      45.436  28.359  32.122  1.00  0.00     0.167 HD
ATOM     55  C   UNL A   1      45.206  28.185  29.165  1.00  0.00     0.074 A 
ATOM     56  C   UNL A   1      44.798  26.986  29.892  1.00  0.00     0.031 C 
ATOM     57  C   UNL A   1      45.313  29.491  29.550  1.00  0.00     0.037 A 
BRANCH  44  58
ATOM     58  C   UNL A   1      43.507  27.725  34.378  1.00  0.00     0.064 A 
ATOM     59  C   UNL A   1      43.548  26.421  33.851  1.00  0.00     0.173 A 
ATOM     60  C   UNL A   1      43.586  27.816  35.787  1.00  0.00     0.173 A 
ATOM     61  F   UNL A   1      43.456  26.217  32.529  1.00  0.00    -0.203 F 
ATOM     62  C   UNL A   1      43.583  25.295  34.676  1.00  0.00     0.198 A 
ATOM     63  C   UNL A   1      43.680  26.693  36.603  1.00  0.00     0.198 A 
ATOM     64  F   UNL A   1      43.456  28.974  36.443  1.00  0.00    -0.203 F 
ATOM     65  F   UNL A   1      43.485  24.074  34.136  1.00  0.00    -0.200 F 
ATOM     66  C   UNL A   1      43.644  25.432  36.051  1.00  0.00     0.200 A 
ATOM     67  F   UNL A   1      43.716  26.850  37.934  1.00  0.00    -0.200 F 
ATOM     68  F   UNL A   1      43.616  24.355  36.847  1.00  0.00    -0.200 F 
ENDBRANCH  44  58
BRANCH  45  69
ATOM     69  C   UNL A   1      43.300  25.189  26.059  1.00  0.00     0.064 A 
ATOM     70  C   UNL A   1      44.317  24.883  25.136  1.00  0.00     0.173 A 
ATOM     71  C   UNL A   1      42.457  24.123  26.432  1.00  0.00     0.173 A 
ATOM     72  F   UNL A   1      45.191  25.827  24.759  1.00  0.00    -0.203 F 
ATOM     73  C   UNL A   1      44.504  23.584  24.650  1.00  0.00     0.198 A 
ATOM     74  C   UNL A   1      42.642  22.829  25.941  1.00  0.00     0.198 A 
ATOM     75  F   UNL A   1      41.502  24.291  27.356  1.00  0.00    -0.203 F 
ATOM     76  F   UNL A   1      45.530  23.318  23.829  1.00  0.00    -0.200 F 
ATOM     77  C   UNL A   1      43.676  22.556  25.065  1.00  0.00     0.200 A 
ATOM     78  F   UNL A   1      41.856  21.836  26.380  1.00  0.00    -0.200 F 
ATOM     79  F   UNL A   1      43.897  21.297  24.657  1.00  0.00    -0.200 F 
ENDBRANCH  45  69
BRANCH  57  80
ATOM     80  C   UNL A   1      45.599  30.510  28.481  1.00  0.00     0.064 A 
ATOM     81  C   UNL A   1      44.619  31.119  27.676  1.00  0.00     0.173 A 
ATOM     82  C   UNL A   1      46.916  30.970  28.350  1.00  0.00     0.173 A 
ATOM     83  F   UNL A   1      43.323  30.812  27.814  1.00  0.00    -0.203 F 
ATOM     84  C   UNL A   1      44.959  32.099  26.742  1.00  0.00     0.198 A 
ATOM     85  C   UNL A   1      47.244  31.977  27.448  1.00  0.00     0.198 A 
ATOM     86  F   UNL A   1      47.883  30.468  29.132  1.00  0.00    -0.203 F 
ATOM     87  F   UNL A   1      44.012  32.648  25.966  1.00  0.00    -0.200 F 
ATOM     88  C   UNL A   1      46.270  32.529  26.634  1.00  0.00     0.200 A 
ATOM     89  F   UNL A   1      48.506  32.425  27.385  1.00  0.00    -0.200 F 
ATOM     90  F   UNL A   1      46.594  33.494  25.761  1.00  0.00    -0.200 F 
ENDBRANCH  57  80
ENDBRANCH  31  32
ENDBRANCH  24  26
ENDBRANCH  23  24
ENDBRANCH  22  23
ENDBRANCH   1  22
TORSDOF 16
ENDMDL
