MODEL 1
REMARK VINA RESULT:     -11.0      0.000      0.000
REMARK SMILES C[C@@H](Oc1ccc(N)cc1)C(=O)OCCOCCOC(=O)c1ccc(-c2c3nc(c(-c4c(F)c(F)c(F)c(F)c4F)c4ccc([nH]4)c(-c4c(F)c(F)c(F)c(F)c4F)c4nc(c(-c5c(F)c(F)c(F)c(F)c5F)c5ccc2[nH]5)C=C4)C=C3)cc1
REMARK SMILES IDX 15 1 14 2 13 3 11 4 12 5 2 6 1 7 3 8 4 9 5 10 10 11 6 12
REMARK SMILES IDX 9 13 7 14 8 15 16 18 17 19 18 20 19 21 20 22 21 23 22 24
REMARK SMILES IDX 23 25 84 26 24 27 83 28 25 29 26 30 27 31 77 32 28 33 82 34
REMARK SMILES IDX 76 35 78 36 29 37 81 38 75 39 74 40 30 42 62 43 42 44 61 45
REMARK SMILES IDX 43 46 46 47 60 48 79 49 44 50 45 51 59 53 80 54 47 55 31 56
REMARK SMILES IDX 32 57 40 58 33 59 34 60 38 61 41 62 35 63 36 64 39 65 37 66
REMARK SMILES IDX 63 67 64 68 72 69 65 70 66 71 70 72 73 73 67 74 68 75 71 76
REMARK SMILES IDX 69 77 48 78 49 79 57 80 50 81 51 82 55 83 58 84 52 85 53 86
REMARK SMILES IDX 56 87 54 88
REMARK H PARENT 8 16 8 17 78 41 46 52
REMARK Flexibility Score: inf
ROOT
ATOM      1  C   UNL A   1      32.193  27.855  26.978  1.00  0.00     0.202 C 
ENDROOT
BRANCH   1   2
ATOM      2  C   UNL A   1      32.369  26.439  26.422  1.00  0.00     0.261 C 
BRANCH   2   3
ATOM      3  O   UNL A   1      31.402  25.540  27.003  1.00  0.00    -0.461 OA
BRANCH   3   4
ATOM      4  C   UNL A   1      31.050  24.460  26.249  1.00  0.00     0.347 C 
ATOM      5  O   UNL A   1      30.695  23.379  26.705  1.00  0.00    -0.248 OA
BRANCH   4   6
ATOM      6  C   UNL A   1      31.149  24.738  24.748  1.00  0.00     0.279 C 
ATOM      7  C   UNL A   1      31.472  23.492  23.925  1.00  0.00     0.066 C 
BRANCH   6   8
ATOM      8  O   UNL A   1      29.894  25.292  24.325  1.00  0.00    -0.479 OA
BRANCH   8   9
ATOM      9  C   UNL A   1      30.084  26.476  23.667  1.00  0.00     0.120 A 
ATOM     10  C   UNL A   1      29.019  27.357  23.508  1.00  0.00     0.048 A 
ATOM     11  C   UNL A   1      31.351  26.806  23.198  1.00  0.00     0.048 A 
ATOM     12  C   UNL A   1      29.214  28.559  22.826  1.00  0.00     0.029 A 
ATOM     13  C   UNL A   1      31.540  28.019  22.530  1.00  0.00     0.029 A 
ATOM     14  C   UNL A   1      30.480  28.914  22.356  1.00  0.00     0.032 A 
BRANCH  14  15
ATOM     15  N   UNL A   1      30.652  30.078  21.626  1.00  0.00    -0.399 N 
ATOM     16  H   UNL A   1      31.194  30.068  20.803  1.00  0.00     0.156 HD
ATOM     17  H   UNL A   1      30.235  30.917  21.929  1.00  0.00     0.156 HD
ENDBRANCH  14  15
ENDBRANCH   8   9
ENDBRANCH   6   8
ENDBRANCH   4   6
ENDBRANCH   3   4
ENDBRANCH   2   3
ENDBRANCH   1   2
BRANCH   1  18
ATOM     18  O   UNL A   1      31.407  28.747  26.183  1.00  0.00    -0.374 OA
BRANCH  18  19
ATOM     19  C   UNL A   1      32.058  29.899  25.655  1.00  0.00     0.202 C 
BRANCH  19  20
ATOM     20  C   UNL A   1      31.823  31.210  26.418  1.00  0.00     0.261 C 
BRANCH  20  21
ATOM     21  O   UNL A   1      32.601  31.294  27.627  1.00  0.00    -0.460 OA
BRANCH  21  22
ATOM     22  C   UNL A   1      33.465  32.334  27.659  1.00  0.00     0.338 C 
ATOM     23  O   UNL A   1      33.188  33.529  27.642  1.00  0.00    -0.246 OA
BRANCH  22  24
ATOM     24  C   UNL A   1      34.848  31.874  27.870  1.00  0.00     0.060 A 
ATOM     25  C   UNL A   1      35.049  30.491  27.966  1.00  0.00     0.016 A 
ATOM     26  C   UNL A   1      35.901  32.762  28.106  1.00  0.00     0.016 A 
ATOM     27  C   UNL A   1      36.280  29.992  28.381  1.00  0.00     0.010 A 
ATOM     28  C   UNL A   1      37.139  32.258  28.528  1.00  0.00     0.010 A 
ATOM     29  C   UNL A   1      37.314  30.875  28.721  1.00  0.00    -0.014 A 
BRANCH  29  30
ATOM     30  C   UNL A   1      38.480  30.342  29.472  1.00  0.00     0.031 A 
ATOM     31  C   UNL A   1      38.657  30.744  30.912  1.00  0.00     0.074 A 
ATOM     32  C   UNL A   1      39.316  29.448  28.917  1.00  0.00     0.049 A 
ATOM     33  N   UNL A   1      39.547  30.347  31.786  1.00  0.00    -0.248 NA
ATOM     34  C   UNL A   1      37.696  31.726  31.440  1.00  0.00     0.031 C 
ATOM     35  C   UNL A   1      39.229  28.947  27.549  1.00  0.00     0.029 A 
ATOM     36  N   UNL A   1      40.397  28.791  29.452  1.00  0.00    -0.354 N 
ATOM     37  C   UNL A   1      39.256  31.030  32.960  1.00  0.00     0.074 A 
ATOM     38  C   UNL A   1      38.129  31.893  32.681  1.00  0.00     0.031 C 
ATOM     39  C   UNL A   1      40.212  28.051  27.351  1.00  0.00     0.029 A 
ATOM     40  C   UNL A   1      41.005  27.929  28.574  1.00  0.00     0.049 A 
ATOM     41  H   UNL A   1      40.706  28.926  30.377  1.00  0.00     0.167 HD
ATOM     42  C   UNL A   1      39.863  30.939  34.167  1.00  0.00     0.037 A 
ATOM     43  C   UNL A   1      42.078  27.131  28.743  1.00  0.00     0.037 A 
ATOM     44  C   UNL A   1      40.976  30.074  34.454  1.00  0.00     0.049 A 
ATOM     45  C   UNL A   1      42.765  27.082  30.083  1.00  0.00     0.074 A 
ATOM     46  C   UNL A   1      41.646  29.895  35.653  1.00  0.00     0.029 A 
ATOM     47  N   UNL A   1      41.588  29.244  33.527  1.00  0.00    -0.354 N 
ATOM     48  N   UNL A   1      42.460  27.704  31.196  1.00  0.00    -0.248 NA
ATOM     49  C   UNL A   1      43.942  26.207  30.190  1.00  0.00     0.031 C 
ATOM     50  C   UNL A   1      42.690  28.988  35.440  1.00  0.00     0.029 A 
ATOM     51  C   UNL A   1      42.640  28.566  34.121  1.00  0.00     0.049 A 
ATOM     52  H   UNL A   1      41.314  29.149  32.587  1.00  0.00     0.167 HD
ATOM     53  C   UNL A   1      43.380  27.269  32.142  1.00  0.00     0.074 A 
ATOM     54  C   UNL A   1      44.253  26.327  31.474  1.00  0.00     0.031 C 
ATOM     55  C   UNL A   1      43.488  27.616  33.448  1.00  0.00     0.037 A 
BRANCH  42  56
ATOM     56  C   UNL A   1      39.347  31.824  35.264  1.00  0.00     0.064 A 
ATOM     57  C   UNL A   1      38.462  31.347  36.241  1.00  0.00     0.173 A 
ATOM     58  C   UNL A   1      39.756  33.164  35.343  1.00  0.00     0.173 A 
ATOM     59  F   UNL A   1      38.030  30.078  36.200  1.00  0.00    -0.203 F 
ATOM     60  C   UNL A   1      37.980  32.189  37.241  1.00  0.00     0.198 A 
ATOM     61  C   UNL A   1      39.293  33.995  36.360  1.00  0.00     0.198 A 
ATOM     62  F   UNL A   1      40.604  33.667  34.434  1.00  0.00    -0.203 F 
ATOM     63  F   UNL A   1      37.096  31.725  38.136  1.00  0.00    -0.200 F 
ATOM     64  C   UNL A   1      38.400  33.509  37.303  1.00  0.00     0.200 A 
ATOM     65  F   UNL A   1      39.707  35.268  36.422  1.00  0.00    -0.200 F 
ATOM     66  F   UNL A   1      37.935  34.318  38.266  1.00  0.00    -0.200 F 
ENDBRANCH  42  56
BRANCH  43  67
ATOM     67  C   UNL A   1      42.558  26.289  27.618  1.00  0.00     0.064 A 
ATOM     68  C   UNL A   1      42.036  25.007  27.402  1.00  0.00     0.173 A 
ATOM     69  C   UNL A   1      43.559  26.742  26.748  1.00  0.00     0.173 A 
ATOM     70  F   UNL A   1      41.095  24.519  28.225  1.00  0.00    -0.203 F 
ATOM     71  C   UNL A   1      42.508  24.202  26.366  1.00  0.00     0.198 A 
ATOM     72  C   UNL A   1      44.013  25.947  25.698  1.00  0.00     0.198 A 
ATOM     73  F   UNL A   1      44.094  27.960  26.916  1.00  0.00    -0.203 F 
ATOM     74  F   UNL A   1      42.021  22.964  26.208  1.00  0.00    -0.200 F 
ATOM     75  C   UNL A   1      43.492  24.675  25.512  1.00  0.00     0.200 A 
ATOM     76  F   UNL A   1      44.960  26.410  24.870  1.00  0.00    -0.200 F 
ATOM     77  F   UNL A   1      43.944  23.902  24.517  1.00  0.00    -0.200 F 
ENDBRANCH  43  67
BRANCH  55  78
ATOM     78  C   UNL A   1      44.553  26.935  34.257  1.00  0.00     0.064 A 
ATOM     79  C   UNL A   1      45.832  27.489  34.415  1.00  0.00     0.173 A 
ATOM     80  C   UNL A   1      44.276  25.726  34.916  1.00  0.00     0.173 A 
ATOM     81  F   UNL A   1      46.151  28.636  33.795  1.00  0.00    -0.203 F 
ATOM     82  C   UNL A   1      46.802  26.844  35.177  1.00  0.00     0.198 A 
ATOM     83  C   UNL A   1      45.239  25.099  35.700  1.00  0.00     0.198 A 
ATOM     84  F   UNL A   1      43.065  25.158  34.805  1.00  0.00    -0.203 F 
ATOM     85  F   UNL A   1      48.032  27.368  35.275  1.00  0.00    -0.200 F 
ATOM     86  C   UNL A   1      46.504  25.654  35.824  1.00  0.00     0.200 A 
ATOM     87  F   UNL A   1      44.946  23.955  36.334  1.00  0.00    -0.200 F 
ATOM     88  F   UNL A   1      47.438  25.037  36.561  1.00  0.00    -0.200 F 
ENDBRANCH  55  78
ENDBRANCH  29  30
ENDBRANCH  22  24
ENDBRANCH  21  22
ENDBRANCH  20  21
ENDBRANCH  19  20
ENDBRANCH  18  19
ENDBRANCH   1  18
TORSDOF 17
ENDMDL
MODEL 2
REMARK VINA RESULT:     -10.8      1.400      2.296
REMARK SMILES C[C@@H](Oc1ccc(N)cc1)C(=O)OCCOCCOC(=O)c1ccc(-c2c3nc(c(-c4c(F)c(F)c(F)c(F)c4F)c4ccc([nH]4)c(-c4c(F)c(F)c(F)c(F)c4F)c4nc(c(-c5c(F)c(F)c(F)c(F)c5F)c5ccc2[nH]5)C=C4)C=C3)cc1
REMARK SMILES IDX 15 1 14 2 13 3 11 4 12 5 2 6 1 7 3 8 4 9 5 10 10 11 6 12
REMARK SMILES IDX 9 13 7 14 8 15 16 18 17 19 18 20 19 21 20 22 21 23 22 24
REMARK SMILES IDX 23 25 84 26 24 27 83 28 25 29 26 30 27 31 77 32 28 33 82 34
REMARK SMILES IDX 76 35 78 36 29 37 81 38 75 39 74 40 30 42 62 43 42 44 61 45
REMARK SMILES IDX 43 46 46 47 60 48 79 49 44 50 45 51 59 53 80 54 47 55 31 56
REMARK SMILES IDX 32 57 40 58 33 59 34 60 38 61 41 62 35 63 36 64 39 65 37 66
REMARK SMILES IDX 63 67 64 68 72 69 65 70 66 71 70 72 73 73 67 74 68 75 71 76
REMARK SMILES IDX 69 77 48 78 49 79 57 80 50 81 51 82 55 83 58 84 52 85 53 86
REMARK SMILES IDX 56 87 54 88
REMARK H PARENT 8 16 8 17 78 41 46 52
REMARK Flexibility Score: inf
ROOT
ATOM      1  C   UNL A   1      33.187  29.896  25.955  1.00  0.00     0.202 C 
ENDROOT
BRANCH   1   2
ATOM      2  C   UNL A   1      32.979  28.410  25.653  1.00  0.00     0.261 C 
BRANCH   2   3
ATOM      3  O   UNL A   1      31.678  28.186  25.072  1.00  0.00    -0.461 OA
BRANCH   3   4
ATOM      4  C   UNL A   1      31.553  28.461  23.743  1.00  0.00     0.347 C 
ATOM      5  O   UNL A   1      32.486  28.752  23.002  1.00  0.00    -0.248 OA
BRANCH   4   6
ATOM      6  C   UNL A   1      30.105  28.372  23.261  1.00  0.00     0.279 C 
ATOM      7  C   UNL A   1      29.455  27.020  23.554  1.00  0.00     0.066 C 
BRANCH   6   8
ATOM      8  O   UNL A   1      29.366  29.420  23.904  1.00  0.00    -0.479 OA
BRANCH   8   9
ATOM      9  C   UNL A   1      28.924  30.335  22.988  1.00  0.00     0.120 A 
ATOM     10  C   UNL A   1      28.429  29.902  21.762  1.00  0.00     0.048 A 
ATOM     11  C   UNL A   1      28.937  31.688  23.308  1.00  0.00     0.048 A 
ATOM     12  C   UNL A   1      27.990  30.839  20.826  1.00  0.00     0.029 A 
ATOM     13  C   UNL A   1      28.480  32.618  22.371  1.00  0.00     0.029 A 
ATOM     14  C   UNL A   1      27.984  32.202  21.131  1.00  0.00     0.032 A 
BRANCH  14  15
ATOM     15  N   UNL A   1      27.606  33.130  20.175  1.00  0.00    -0.399 N 
ATOM     16  H   UNL A   1      28.119  33.210  19.337  1.00  0.00     0.156 HD
ATOM     17  H   UNL A   1      26.827  33.710  20.332  1.00  0.00     0.156 HD
ENDBRANCH  14  15
ENDBRANCH   8   9
ENDBRANCH   6   8
ENDBRANCH   4   6
ENDBRANCH   3   4
ENDBRANCH   2   3
ENDBRANCH   1   2
BRANCH   1  18
ATOM     18  O   UNL A   1      32.299  30.471  26.916  1.00  0.00    -0.374 OA
BRANCH  18  19
ATOM     19  C   UNL A   1      31.525  31.594  26.503  1.00  0.00     0.202 C 
BRANCH  19  20
ATOM     20  C   UNL A   1      31.721  32.879  27.319  1.00  0.00     0.261 C 
BRANCH  20  21
ATOM     21  O   UNL A   1      33.044  33.428  27.178  1.00  0.00    -0.460 OA
BRANCH  21  22
ATOM     22  C   UNL A   1      33.649  33.723  28.351  1.00  0.00     0.338 C 
ATOM     23  O   UNL A   1      33.197  34.396  29.272  1.00  0.00    -0.246 OA
BRANCH  22  24
ATOM     24  C   UNL A   1      34.927  33.003  28.488  1.00  0.00     0.060 A 
ATOM     25  C   UNL A   1      34.858  31.650  28.844  1.00  0.00     0.016 A 
ATOM     26  C   UNL A   1      36.161  33.653  28.410  1.00  0.00     0.016 A 
ATOM     27  C   UNL A   1      36.013  30.964  29.207  1.00  0.00     0.010 A 
ATOM     28  C   UNL A   1      37.323  32.963  28.778  1.00  0.00     0.010 A 
ATOM     29  C   UNL A   1      37.245  31.632  29.232  1.00  0.00    -0.014 A 
BRANCH  29  30
ATOM     30  C   UNL A   1      38.384  30.988  29.934  1.00  0.00     0.031 A 
ATOM     31  C   UNL A   1      38.601  31.294  31.392  1.00  0.00     0.074 A 
ATOM     32  C   UNL A   1      39.159  30.080  29.317  1.00  0.00     0.049 A 
ATOM     33  N   UNL A   1      39.475  30.794  32.229  1.00  0.00    -0.248 NA
ATOM     34  C   UNL A   1      37.707  32.299  31.989  1.00  0.00     0.031 C 
ATOM     35  C   UNL A   1      39.028  29.666  27.923  1.00  0.00     0.029 A 
ATOM     36  N   UNL A   1      40.204  29.329  29.797  1.00  0.00    -0.354 N 
ATOM     37  C   UNL A   1      39.238  31.424  33.444  1.00  0.00     0.074 A 
ATOM     38  C   UNL A   1      38.162  32.367  33.231  1.00  0.00     0.031 C 
ATOM     39  C   UNL A   1      39.953  28.726  27.660  1.00  0.00     0.029 A 
ATOM     40  C   UNL A   1      40.749  28.486  28.863  1.00  0.00     0.049 A 
ATOM     41  H   UNL A   1      40.531  29.391  30.724  1.00  0.00     0.167 HD
ATOM     42  C   UNL A   1      39.851  31.226  34.636  1.00  0.00     0.037 A 
ATOM     43  C   UNL A   1      41.774  27.616  28.970  1.00  0.00     0.037 A 
ATOM     44  C   UNL A   1      40.913  30.281  34.857  1.00  0.00     0.049 A 
ATOM     45  C   UNL A   1      42.471  27.449  30.295  1.00  0.00     0.074 A 
ATOM     46  C   UNL A   1      41.583  29.993  36.034  1.00  0.00     0.029 A 
ATOM     47  N   UNL A   1      41.463  29.472  33.875  1.00  0.00    -0.354 N 
ATOM     48  N   UNL A   1      42.217  28.021  31.446  1.00  0.00    -0.248 NA
ATOM     49  C   UNL A   1      43.595  26.500  30.335  1.00  0.00     0.031 C 
ATOM     50  C   UNL A   1      42.569  29.039  35.753  1.00  0.00     0.029 A 
ATOM     51  C   UNL A   1      42.479  28.699  34.413  1.00  0.00     0.049 A 
ATOM     52  H   UNL A   1      41.174  29.449  32.934  1.00  0.00     0.167 HD
ATOM     53  C   UNL A   1      43.118  27.478  32.352  1.00  0.00     0.074 A 
ATOM     54  C   UNL A   1      43.926  26.526  31.618  1.00  0.00     0.031 C 
ATOM     55  C   UNL A   1      43.261  27.741  33.675  1.00  0.00     0.037 A 
BRANCH  42  56
ATOM     56  C   UNL A   1      39.401  32.074  35.789  1.00  0.00     0.064 A 
ATOM     57  C   UNL A   1      38.426  31.632  36.693  1.00  0.00     0.173 A 
ATOM     58  C   UNL A   1      39.965  33.342  35.997  1.00  0.00     0.173 A 
ATOM     59  F   UNL A   1      37.845  30.434  36.529  1.00  0.00    -0.203 F 
ATOM     60  C   UNL A   1      38.008  32.442  37.747  1.00  0.00     0.198 A 
ATOM     61  C   UNL A   1      39.565  34.137  37.067  1.00  0.00     0.198 A 
ATOM     62  F   UNL A   1      40.905  33.810  35.161  1.00  0.00    -0.203 F 
ATOM     63  F   UNL A   1      37.038  32.019  38.571  1.00  0.00    -0.200 F 
ATOM     64  C   UNL A   1      38.582  33.690  37.936  1.00  0.00     0.200 A 
ATOM     65  F   UNL A   1      40.127  35.340  37.253  1.00  0.00    -0.200 F 
ATOM     66  F   UNL A   1      38.179  34.468  38.951  1.00  0.00    -0.200 F 
ENDBRANCH  42  56
BRANCH  43  67
ATOM     67  C   UNL A   1      42.190  26.814  27.791  1.00  0.00     0.064 A 
ATOM     68  C   UNL A   1      43.162  27.290  26.902  1.00  0.00     0.173 A 
ATOM     69  C   UNL A   1      41.612  25.565  27.523  1.00  0.00     0.173 A 
ATOM     70  F   UNL A   1      43.724  28.492  27.102  1.00  0.00    -0.203 F 
ATOM     71  C   UNL A   1      43.531  26.553  25.778  1.00  0.00     0.198 A 
ATOM     72  C   UNL A   1      42.000  24.818  26.413  1.00  0.00     0.198 A 
ATOM     73  F   UNL A   1      40.674  25.069  28.342  1.00  0.00    -0.203 F 
ATOM     74  F   UNL A   1      44.433  27.049  24.920  1.00  0.00    -0.200 F 
ATOM     75  C   UNL A   1      42.954  25.316  25.537  1.00  0.00     0.200 A 
ATOM     76  F   UNL A   1      41.444  23.619  26.187  1.00  0.00    -0.200 F 
ATOM     77  F   UNL A   1      43.309  24.607  24.458  1.00  0.00    -0.200 F 
ENDBRANCH  43  67
BRANCH  55  78
ATOM     78  C   UNL A   1      44.292  26.951  34.428  1.00  0.00     0.064 A 
ATOM     79  C   UNL A   1      45.624  27.377  34.528  1.00  0.00     0.173 A 
ATOM     80  C   UNL A   1      43.929  25.768  35.091  1.00  0.00     0.173 A 
ATOM     81  F   UNL A   1      46.023  28.495  33.902  1.00  0.00    -0.203 F 
ATOM     82  C   UNL A   1      46.561  26.634  35.239  1.00  0.00     0.198 A 
ATOM     83  C   UNL A   1      44.863  25.042  35.825  1.00  0.00     0.198 A 
ATOM     84  F   UNL A   1      42.666  25.320  35.034  1.00  0.00    -0.203 F 
ATOM     85  F   UNL A   1      47.839  27.036  35.283  1.00  0.00    -0.200 F 
ATOM     86  C   UNL A   1      46.180  25.471  35.893  1.00  0.00     0.200 A 
ATOM     87  F   UNL A   1      44.490  23.925  36.464  1.00  0.00    -0.200 F 
ATOM     88  F   UNL A   1      47.084  24.759  36.580  1.00  0.00    -0.200 F 
ENDBRANCH  55  78
ENDBRANCH  29  30
ENDBRANCH  22  24
ENDBRANCH  21  22
ENDBRANCH  20  21
ENDBRANCH  19  20
ENDBRANCH  18  19
ENDBRANCH   1  18
TORSDOF 17
ENDMDL
MODEL 3
REMARK VINA RESULT:     -10.7      4.379      9.750
REMARK SMILES C[C@@H](Oc1ccc(N)cc1)C(=O)OCCOCCOC(=O)c1ccc(-c2c3nc(c(-c4c(F)c(F)c(F)c(F)c4F)c4ccc([nH]4)c(-c4c(F)c(F)c(F)c(F)c4F)c4nc(c(-c5c(F)c(F)c(F)c(F)c5F)c5ccc2[nH]5)C=C4)C=C3)cc1
REMARK SMILES IDX 15 1 14 2 13 3 11 4 12 5 2 6 1 7 3 8 4 9 5 10 10 11 6 12
REMARK SMILES IDX 9 13 7 14 8 15 16 18 17 19 18 20 19 21 20 22 21 23 22 24
REMARK SMILES IDX 23 25 84 26 24 27 83 28 25 29 26 30 27 31 77 32 28 33 82 34
REMARK SMILES IDX 76 35 78 36 29 37 81 38 75 39 74 40 30 42 62 43 42 44 61 45
REMARK SMILES IDX 43 46 46 47 60 48 79 49 44 50 45 51 59 53 80 54 47 55 31 56
REMARK SMILES IDX 32 57 40 58 33 59 34 60 38 61 41 62 35 63 36 64 39 65 37 66
REMARK SMILES IDX 63 67 64 68 72 69 65 70 66 71 70 72 73 73 67 74 68 75 71 76
REMARK SMILES IDX 69 77 48 78 49 79 57 80 50 81 51 82 55 83 58 84 52 85 53 86
REMARK SMILES IDX 56 87 54 88
REMARK H PARENT 8 16 8 17 78 41 46 52
REMARK Flexibility Score: inf
ROOT
ATOM      1  C   UNL A   1      34.977  22.411  25.585  1.00  0.00     0.202 C 
ENDROOT
BRANCH   1   2
ATOM      2  C   UNL A   1      34.047  23.002  26.648  1.00  0.00     0.261 C 
BRANCH   2   3
ATOM      3  O   UNL A   1      32.822  23.471  26.048  1.00  0.00    -0.461 OA
BRANCH   3   4
ATOM      4  C   UNL A   1      32.807  24.772  25.642  1.00  0.00     0.347 C 
ATOM      5  O   UNL A   1      33.527  25.652  26.100  1.00  0.00    -0.248 OA
BRANCH   4   6
ATOM      6  C   UNL A   1      31.780  25.028  24.538  1.00  0.00     0.279 C 
ATOM      7  C   UNL A   1      31.036  23.766  24.102  1.00  0.00     0.066 C 
BRANCH   6   8
ATOM      8  O   UNL A   1      30.847  26.001  25.029  1.00  0.00    -0.479 OA
BRANCH   8   9
ATOM      9  C   UNL A   1      30.747  27.058  24.165  1.00  0.00     0.120 A 
ATOM     10  C   UNL A   1      29.532  27.333  23.546  1.00  0.00     0.048 A 
ATOM     11  C   UNL A   1      31.853  27.871  23.945  1.00  0.00     0.048 A 
ATOM     12  C   UNL A   1      29.437  28.403  22.657  1.00  0.00     0.029 A 
ATOM     13  C   UNL A   1      31.745  28.951  23.065  1.00  0.00     0.029 A 
ATOM     14  C   UNL A   1      30.533  29.239  22.430  1.00  0.00     0.032 A 
BRANCH  14  15
ATOM     15  N   UNL A   1      30.450  30.262  21.499  1.00  0.00    -0.399 N 
ATOM     16  H   UNL A   1      30.072  30.086  20.606  1.00  0.00     0.156 HD
ATOM     17  H   UNL A   1      30.768  31.165  21.729  1.00  0.00     0.156 HD
ENDBRANCH  14  15
ENDBRANCH   8   9
ENDBRANCH   6   8
ENDBRANCH   4   6
ENDBRANCH   3   4
ENDBRANCH   2   3
ENDBRANCH   1   2
BRANCH   1  18
ATOM     18  O   UNL A   1      35.806  21.326  26.011  1.00  0.00    -0.374 OA
BRANCH  18  19
ATOM     19  C   UNL A   1      36.273  20.427  25.009  1.00  0.00     0.202 C 
BRANCH  19  20
ATOM     20  C   UNL A   1      37.782  20.148  25.011  1.00  0.00     0.261 C 
BRANCH  20  21
ATOM     21  O   UNL A   1      38.562  21.323  25.299  1.00  0.00    -0.460 OA
BRANCH  21  22
ATOM     22  C   UNL A   1      39.611  21.103  26.124  1.00  0.00     0.338 C 
ATOM     23  O   UNL A   1      40.323  20.106  26.170  1.00  0.00    -0.246 OA
BRANCH  22  24
ATOM     24  C   UNL A   1      39.927  22.304  26.918  1.00  0.00     0.060 A 
ATOM     25  C   UNL A   1      39.219  23.472  26.611  1.00  0.00     0.016 A 
ATOM     26  C   UNL A   1      40.976  22.332  27.840  1.00  0.00     0.016 A 
ATOM     27  C   UNL A   1      39.610  24.690  27.158  1.00  0.00     0.010 A 
ATOM     28  C   UNL A   1      41.372  23.559  28.388  1.00  0.00     0.010 A 
ATOM     29  C   UNL A   1      40.726  24.750  28.005  1.00  0.00    -0.014 A 
BRANCH  29  30
ATOM     30  C   UNL A   1      41.319  26.079  28.298  1.00  0.00     0.031 A 
ATOM     31  C   UNL A   1      42.696  26.389  27.771  1.00  0.00     0.074 A 
ATOM     32  C   UNL A   1      40.619  27.028  28.942  1.00  0.00     0.049 A 
ATOM     33  N   UNL A   1      43.382  27.502  27.831  1.00  0.00    -0.248 NA
ATOM     34  C   UNL A   1      43.391  25.293  27.076  1.00  0.00     0.031 C 
ATOM     35  C   UNL A   1      39.266  26.869  29.466  1.00  0.00     0.029 A 
ATOM     36  N   UNL A   1      40.952  28.325  29.250  1.00  0.00    -0.354 N 
ATOM     37  C   UNL A   1      44.585  27.240  27.189  1.00  0.00     0.074 A 
ATOM     38  C   UNL A   1      44.553  25.855  26.775  1.00  0.00     0.031 C 
ATOM     39  C   UNL A   1      38.876  28.028  30.023  1.00  0.00     0.029 A 
ATOM     40  C   UNL A   1      39.959  29.004  29.909  1.00  0.00     0.049 A 
ATOM     41  H   UNL A   1      41.820  28.728  29.018  1.00  0.00     0.167 HD
ATOM     42  C   UNL A   1      45.621  28.080  26.953  1.00  0.00     0.037 A 
ATOM     43  C   UNL A   1      39.930  30.273  30.365  1.00  0.00     0.037 A 
ATOM     44  C   UNL A   1      45.654  29.463  27.352  1.00  0.00     0.049 A 
ATOM     45  C   UNL A   1      41.114  31.175  30.130  1.00  0.00     0.074 A 
ATOM     46  C   UNL A   1      46.650  30.401  27.138  1.00  0.00     0.029 A 
ATOM     47  N   UNL A   1      44.644  30.104  28.052  1.00  0.00    -0.354 N 
ATOM     48  N   UNL A   1      42.232  30.929  29.491  1.00  0.00    -0.248 NA
ATOM     49  C   UNL A   1      41.024  32.538  30.674  1.00  0.00     0.031 C 
ATOM     50  C   UNL A   1      46.260  31.599  27.748  1.00  0.00     0.029 A 
ATOM     51  C   UNL A   1      45.001  31.420  28.297  1.00  0.00     0.049 A 
ATOM     52  H   UNL A   1      43.798  29.687  28.332  1.00  0.00     0.167 HD
ATOM     53  C   UNL A   1      42.959  32.112  29.522  1.00  0.00     0.074 A 
ATOM     54  C   UNL A   1      42.155  33.078  30.241  1.00  0.00     0.031 C 
ATOM     55  C   UNL A   1      44.181  32.376  28.997  1.00  0.00     0.037 A 
BRANCH  42  56
ATOM     56  C   UNL A   1      46.819  27.514  26.249  1.00  0.00     0.064 A 
ATOM     57  C   UNL A   1      47.848  26.868  26.949  1.00  0.00     0.173 A 
ATOM     58  C   UNL A   1      46.929  27.609  24.854  1.00  0.00     0.173 A 
ATOM     59  F   UNL A   1      47.797  26.765  28.285  1.00  0.00    -0.203 F 
ATOM     60  C   UNL A   1      48.961  26.364  26.279  1.00  0.00     0.198 A 
ATOM     61  C   UNL A   1      48.030  27.080  24.185  1.00  0.00     0.198 A 
ATOM     62  F   UNL A   1      45.970  28.215  24.139  1.00  0.00    -0.203 F 
ATOM     63  F   UNL A   1      49.957  25.795  26.972  1.00  0.00    -0.200 F 
ATOM     64  C   UNL A   1      49.048  26.466  24.898  1.00  0.00     0.200 A 
ATOM     65  F   UNL A   1      48.108  27.172  22.850  1.00  0.00    -0.200 F 
ATOM     66  F   UNL A   1      50.119  25.980  24.255  1.00  0.00    -0.200 F 
ENDBRANCH  42  56
BRANCH  43  67
ATOM     67  C   UNL A   1      38.725  30.778  31.071  1.00  0.00     0.064 A 
ATOM     68  C   UNL A   1      37.659  31.345  30.362  1.00  0.00     0.173 A 
ATOM     69  C   UNL A   1      38.625  30.719  32.468  1.00  0.00     0.173 A 
ATOM     70  F   UNL A   1      37.721  31.448  29.026  1.00  0.00    -0.203 F 
ATOM     71  C   UNL A   1      36.541  31.849  31.025  1.00  0.00     0.198 A 
ATOM     72  C   UNL A   1      37.497  31.201  33.128  1.00  0.00     0.198 A 
ATOM     73  F   UNL A   1      39.622  30.190  33.192  1.00  0.00    -0.203 F 
ATOM     74  F   UNL A   1      35.553  32.425  30.326  1.00  0.00    -0.200 F 
ATOM     75  C   UNL A   1      36.459  31.772  32.407  1.00  0.00     0.200 A 
ATOM     76  F   UNL A   1      37.418  31.119  34.464  1.00  0.00    -0.200 F 
ATOM     77  F   UNL A   1      35.384  32.255  33.043  1.00  0.00    -0.200 F 
ENDBRANCH  43  67
BRANCH  55  78
ATOM     78  C   UNL A   1      44.703  33.777  29.132  1.00  0.00     0.064 A 
ATOM     79  C   UNL A   1      44.416  34.768  28.183  1.00  0.00     0.173 A 
ATOM     80  C   UNL A   1      45.471  34.140  30.250  1.00  0.00     0.173 A 
ATOM     81  F   UNL A   1      43.697  34.468  27.091  1.00  0.00    -0.203 F 
ATOM     82  C   UNL A   1      44.903  36.064  28.332  1.00  0.00     0.198 A 
ATOM     83  C   UNL A   1      45.933  35.443  30.410  1.00  0.00     0.198 A 
ATOM     84  F   UNL A   1      45.768  33.231  31.192  1.00  0.00    -0.203 F 
ATOM     85  F   UNL A   1      44.656  36.983  27.389  1.00  0.00    -0.200 F 
ATOM     86  C   UNL A   1      45.656  36.402  29.448  1.00  0.00     0.200 A 
ATOM     87  F   UNL A   1      46.650  35.771  31.494  1.00  0.00    -0.200 F 
ATOM     88  F   UNL A   1      46.120  37.651  29.591  1.00  0.00    -0.200 F 
ENDBRANCH  55  78
ENDBRANCH  29  30
ENDBRANCH  22  24
ENDBRANCH  21  22
ENDBRANCH  20  21
ENDBRANCH  19  20
ENDBRANCH  18  19
ENDBRANCH   1  18
TORSDOF 17
ENDMDL
