MODEL 1
REMARK VINA RESULT:     -11.1      0.000      0.000
REMARK SMILES O=C(C[C@@H]1CN(C(=O)[C@H]2C[C@H](O)C[NH2+]2)CCO1)OCCOCCOC(=O)c1ccc(-c2c3nc(c(-c4c(F)c(F)c(F)c(F)c4F)c4ccc([nH]4)c(-c4c(F)c(F)c(F)c(F)c4F)c4nc(c(-c5c(F)c(F)c(F)c(F)c5F)c5ccc2[nH]5)C=C4)C=C3)cc1
REMARK SMILES IDX 20 1 19 2 18 3 2 4 1 5 3 6 4 7 5 8 17 9 6 10 16 11 15 12
REMARK SMILES IDX 7 13 8 14 9 15 10 16 14 17 11 18 13 19 12 22 21 24 22 25
REMARK SMILES IDX 23 26 24 27 25 28 26 29 27 30 28 31 89 32 29 33 88 34 30 35
REMARK SMILES IDX 31 36 32 37 82 38 33 39 87 40 81 41 83 42 34 43 86 44 80 45
REMARK SMILES IDX 79 46 35 48 67 49 47 50 66 51 48 52 51 53 65 54 84 55 49 56
REMARK SMILES IDX 50 57 64 59 85 60 52 61 36 62 37 63 45 64 38 65 39 66 43 67
REMARK SMILES IDX 46 68 40 69 41 70 44 71 42 72 68 73 69 74 77 75 70 76 71 77
REMARK SMILES IDX 75 78 78 79 72 80 73 81 76 82 74 83 53 84 54 85 62 86 55 87
REMARK SMILES IDX 56 88 60 89 63 90 57 91 58 92 61 93 59 94
REMARK H PARENT 14 20 14 21 12 23 83 47 51 58
REMARK Flexibility Score: inf
ROOT
ATOM      1  C   UNL A   1      43.044  20.480  25.746  1.00  0.00     0.202 C 
ENDROOT
BRANCH   1   2
ATOM      2  C   UNL A   1      41.606  20.585  26.259  1.00  0.00     0.261 C 
BRANCH   2   3
ATOM      3  O   UNL A   1      40.858  21.768  25.950  1.00  0.00    -0.463 OA
BRANCH   3   4
ATOM      4  C   UNL A   1      39.560  21.990  26.225  1.00  0.00     0.308 C 
ATOM      5  O   UNL A   1      39.248  22.865  27.029  1.00  0.00    -0.252 OA
BRANCH   4   6
ATOM      6  C   UNL A   1      38.510  21.170  25.537  1.00  0.00     0.156 C 
BRANCH   6   7
ATOM      7  C   UNL A   1      37.122  21.795  25.510  1.00  0.00     0.148 C 
ATOM      8  C   UNL A   1      35.989  20.789  25.215  1.00  0.00     0.152 C 
ATOM      9  O   UNL A   1      37.144  22.834  24.510  1.00  0.00    -0.374 OA
ATOM     10  N   UNL A   1      34.702  21.473  25.102  1.00  0.00    -0.333 N 
ATOM     11  C   UNL A   1      35.893  23.537  24.460  1.00  0.00     0.182 C 
ATOM     12  C   UNL A   1      34.737  22.584  24.141  1.00  0.00     0.148 C 
BRANCH  10  13
ATOM     13  C   UNL A   1      33.492  21.132  25.687  1.00  0.00     0.281 C 
ATOM     14  O   UNL A   1      33.020  21.834  26.590  1.00  0.00    -0.268 OA
BRANCH  13  15
ATOM     15  C   UNL A   1      32.732  19.839  25.303  1.00  0.00     0.275 C 
ATOM     16  C   UNL A   1      33.000  19.194  23.945  1.00  0.00     0.113 C 
ATOM     17  N   UNL A   1      32.896  18.787  26.343  1.00  0.00    -0.334 N 
ATOM     18  C   UNL A   1      33.245  17.719  24.254  1.00  0.00     0.175 C 
ATOM     19  C   UNL A   1      32.644  17.526  25.642  1.00  0.00     0.293 C 
ATOM     20  H   UNL A   1      32.222  18.919  27.097  1.00  0.00     0.347 HD
ATOM     21  H   UNL A   1      33.821  18.811  26.772  1.00  0.00     0.347 HD
BRANCH  18  22
ATOM     22  O   UNL A   1      32.665  16.857  23.292  1.00  0.00    -0.387 OA
ATOM     23  H   UNL A   1      31.890  16.419  23.676  1.00  0.00     0.211 HD
ENDBRANCH  18  22
ENDBRANCH  13  15
ENDBRANCH  10  13
ENDBRANCH   6   7
ENDBRANCH   4   6
ENDBRANCH   3   4
ENDBRANCH   2   3
ENDBRANCH   1   2
BRANCH   1  24
ATOM     24  O   UNL A   1      43.973  21.501  26.053  1.00  0.00    -0.374 OA
BRANCH  24  25
ATOM     25  C   UNL A   1      44.932  21.913  25.088  1.00  0.00     0.202 C 
BRANCH  25  26
ATOM     26  C   UNL A   1      44.494  22.882  23.989  1.00  0.00     0.261 C 
BRANCH  26  27
ATOM     27  O   UNL A   1      43.705  23.983  24.472  1.00  0.00    -0.460 OA
BRANCH  27  28
ATOM     28  C   UNL A   1      44.417  25.009  24.999  1.00  0.00     0.338 C 
ATOM     29  O   UNL A   1      45.523  25.391  24.665  1.00  0.00    -0.246 OA
BRANCH  28  30
ATOM     30  C   UNL A   1      43.613  25.723  26.007  1.00  0.00     0.060 A 
ATOM     31  C   UNL A   1      43.902  27.071  26.251  1.00  0.00     0.016 A 
ATOM     32  C   UNL A   1      42.672  25.045  26.785  1.00  0.00     0.016 A 
ATOM     33  C   UNL A   1      43.273  27.738  27.303  1.00  0.00     0.010 A 
ATOM     34  C   UNL A   1      42.051  25.713  27.844  1.00  0.00     0.010 A 
ATOM     35  C   UNL A   1      42.370  27.052  28.127  1.00  0.00    -0.014 A 
BRANCH  35  36
ATOM     36  C   UNL A   1      41.827  27.701  29.344  1.00  0.00     0.031 A 
ATOM     37  C   UNL A   1      40.569  28.516  29.248  1.00  0.00     0.074 A 
ATOM     38  C   UNL A   1      42.463  27.572  30.522  1.00  0.00     0.049 A 
ATOM     39  N   UNL A   1      39.972  29.233  30.167  1.00  0.00    -0.248 NA
ATOM     40  C   UNL A   1      39.893  28.531  27.941  1.00  0.00     0.031 C 
ATOM     41  C   UNL A   1      43.677  26.790  30.741  1.00  0.00     0.029 A 
ATOM     42  N   UNL A   1      42.184  28.115  31.752  1.00  0.00    -0.354 N 
ATOM     43  C   UNL A   1      38.860  29.790  29.550  1.00  0.00     0.074 A 
ATOM     44  C   UNL A   1      38.871  29.343  28.173  1.00  0.00     0.031 C 
ATOM     45  C   UNL A   1      44.051  26.917  32.026  1.00  0.00     0.029 A 
ATOM     46  C   UNL A   1      43.125  27.820  32.706  1.00  0.00     0.049 A 
ATOM     47  H   UNL A   1      41.385  28.662  31.931  1.00  0.00     0.167 HD
ATOM     48  C   UNL A   1      37.915  30.597  30.087  1.00  0.00     0.037 A 
ATOM     49  C   UNL A   1      43.245  28.262  33.973  1.00  0.00     0.037 A 
ATOM     50  C   UNL A   1      37.904  31.035  31.458  1.00  0.00     0.049 A 
ATOM     51  C   UNL A   1      42.215  29.215  34.524  1.00  0.00     0.074 A 
ATOM     52  C   UNL A   1      36.965  31.819  32.106  1.00  0.00     0.029 A 
ATOM     53  N   UNL A   1      38.886  30.735  32.390  1.00  0.00    -0.354 N 
ATOM     54  N   UNL A   1      41.145  29.703  33.946  1.00  0.00    -0.248 NA
ATOM     55  C   UNL A   1      42.415  29.683  35.904  1.00  0.00     0.031 C 
ATOM     56  C   UNL A   1      37.403  32.036  33.417  1.00  0.00     0.029 A 
ATOM     57  C   UNL A   1      38.592  31.347  33.598  1.00  0.00     0.049 A 
ATOM     58  H   UNL A   1      39.674  30.171  32.218  1.00  0.00     0.167 HD
ATOM     59  C   UNL A   1      40.534  30.514  34.893  1.00  0.00     0.074 A 
ATOM     60  C   UNL A   1      41.343  30.438  36.092  1.00  0.00     0.031 C 
ATOM     61  C   UNL A   1      39.407  31.258  34.782  1.00  0.00     0.037 A 
BRANCH  48  62
ATOM     62  C   UNL A   1      36.816  31.082  29.190  1.00  0.00     0.064 A 
ATOM     63  C   UNL A   1      35.754  30.248  28.811  1.00  0.00     0.173 A 
ATOM     64  C   UNL A   1      36.786  32.418  28.764  1.00  0.00     0.173 A 
ATOM     65  F   UNL A   1      35.742  28.960  29.183  1.00  0.00    -0.203 F 
ATOM     66  C   UNL A   1      34.709  30.731  28.027  1.00  0.00     0.198 A 
ATOM     67  C   UNL A   1      35.729  32.905  28.001  1.00  0.00     0.198 A 
ATOM     68  F   UNL A   1      37.776  33.258  29.105  1.00  0.00    -0.203 F 
ATOM     69  F   UNL A   1      33.719  29.910  27.653  1.00  0.00    -0.200 F 
ATOM     70  C   UNL A   1      34.693  32.061  27.630  1.00  0.00     0.200 A 
ATOM     71  F   UNL A   1      35.709  34.192  27.628  1.00  0.00    -0.200 F 
ATOM     72  F   UNL A   1      33.679  32.529  26.889  1.00  0.00    -0.200 F 
ENDBRANCH  48  62
BRANCH  49  73
ATOM     73  C   UNL A   1      44.403  27.842  34.805  1.00  0.00     0.064 A 
ATOM     74  C   UNL A   1      45.634  28.508  34.722  1.00  0.00     0.173 A 
ATOM     75  C   UNL A   1      44.313  26.742  35.671  1.00  0.00     0.173 A 
ATOM     76  F   UNL A   1      45.776  29.550  33.889  1.00  0.00    -0.203 F 
ATOM     77  C   UNL A   1      46.737  28.075  35.455  1.00  0.00     0.198 A 
ATOM     78  C   UNL A   1      45.409  26.329  36.426  1.00  0.00     0.198 A 
ATOM     79  F   UNL A   1      43.158  26.071  35.787  1.00  0.00    -0.203 F 
ATOM     80  F   UNL A   1      47.916  28.696  35.317  1.00  0.00    -0.200 F 
ATOM     81  C   UNL A   1      46.622  26.989  36.310  1.00  0.00     0.200 A 
ATOM     82  F   UNL A   1      45.288  25.287  37.261  1.00  0.00    -0.200 F 
ATOM     83  F   UNL A   1      47.683  26.571  37.014  1.00  0.00    -0.200 F 
ENDBRANCH  49  73
BRANCH  61  84
ATOM     84  C   UNL A   1      38.969  32.031  35.992  1.00  0.00     0.064 A 
ATOM     85  C   UNL A   1      38.161  31.449  36.979  1.00  0.00     0.173 A 
ATOM     86  C   UNL A   1      39.394  33.354  36.186  1.00  0.00     0.173 A 
ATOM     87  F   UNL A   1      37.715  30.192  36.833  1.00  0.00    -0.203 F 
ATOM     88  C   UNL A   1      37.775  32.172  38.106  1.00  0.00     0.198 A 
ATOM     89  C   UNL A   1      39.029  34.064  37.326  1.00  0.00     0.198 A 
ATOM     90  F   UNL A   1      40.174  33.953  35.274  1.00  0.00    -0.203 F 
ATOM     91  F   UNL A   1      36.964  31.611  39.014  1.00  0.00    -0.200 F 
ATOM     92  C   UNL A   1      38.215  33.475  38.281  1.00  0.00     0.200 A 
ATOM     93  F   UNL A   1      39.466  35.319  37.500  1.00  0.00    -0.200 F 
ATOM     94  F   UNL A   1      37.847  34.167  39.368  1.00  0.00    -0.200 F 
ENDBRANCH  61  84
ENDBRANCH  35  36
ENDBRANCH  28  30
ENDBRANCH  27  28
ENDBRANCH  26  27
ENDBRANCH  25  26
ENDBRANCH  24  25
ENDBRANCH   1  24
TORSDOF 18
ENDMDL
MODEL 2
REMARK VINA RESULT:     -10.9      3.186      8.539
REMARK SMILES O=C(C[C@@H]1CN(C(=O)[C@H]2C[C@H](O)C[NH2+]2)CCO1)OCCOCCOC(=O)c1ccc(-c2c3nc(c(-c4c(F)c(F)c(F)c(F)c4F)c4ccc([nH]4)c(-c4c(F)c(F)c(F)c(F)c4F)c4nc(c(-c5c(F)c(F)c(F)c(F)c5F)c5ccc2[nH]5)C=C4)C=C3)cc1
REMARK SMILES IDX 20 1 19 2 18 3 2 4 1 5 3 6 4 7 5 8 17 9 6 10 16 11 15 12
REMARK SMILES IDX 7 13 8 14 9 15 10 16 14 17 11 18 13 19 12 22 21 24 22 25
REMARK SMILES IDX 23 26 24 27 25 28 26 29 27 30 28 31 89 32 29 33 88 34 30 35
REMARK SMILES IDX 31 36 32 37 82 38 33 39 87 40 81 41 83 42 34 43 86 44 80 45
REMARK SMILES IDX 79 46 35 48 67 49 47 50 66 51 48 52 51 53 65 54 84 55 49 56
REMARK SMILES IDX 50 57 64 59 85 60 52 61 36 62 37 63 45 64 38 65 39 66 43 67
REMARK SMILES IDX 46 68 40 69 41 70 44 71 42 72 68 73 69 74 77 75 70 76 71 77
REMARK SMILES IDX 75 78 78 79 72 80 73 81 76 82 74 83 53 84 54 85 62 86 55 87
REMARK SMILES IDX 56 88 60 89 63 90 57 91 58 92 61 93 59 94
REMARK H PARENT 14 20 14 21 12 23 83 47 51 58
REMARK Flexibility Score: inf
ROOT
ATOM      1  C   UNL A   1      32.269  27.272  23.708  1.00  0.00     0.202 C 
ENDROOT
BRANCH   1   2
ATOM      2  C   UNL A   1      30.896  26.599  23.658  1.00  0.00     0.261 C 
BRANCH   2   3
ATOM      3  O   UNL A   1      30.740  25.322  24.290  1.00  0.00    -0.463 OA
BRANCH   3   4
ATOM      4  C   UNL A   1      30.593  25.092  25.608  1.00  0.00     0.308 C 
ATOM      5  O   UNL A   1      30.131  25.970  26.332  1.00  0.00    -0.252 OA
BRANCH   4   6
ATOM      6  C   UNL A   1      30.989  23.762  26.172  1.00  0.00     0.156 C 
BRANCH   6   7
ATOM      7  C   UNL A   1      32.376  23.280  25.769  1.00  0.00     0.148 C 
ATOM      8  C   UNL A   1      32.658  21.808  26.139  1.00  0.00     0.152 C 
ATOM      9  O   UNL A   1      33.331  24.151  26.407  1.00  0.00    -0.374 OA
ATOM     10  N   UNL A   1      34.038  21.446  25.816  1.00  0.00    -0.333 N 
ATOM     11  C   UNL A   1      34.675  23.821  26.026  1.00  0.00     0.182 C 
ATOM     12  C   UNL A   1      35.016  22.375  26.400  1.00  0.00     0.148 C 
BRANCH  10  13
ATOM     13  C   UNL A   1      34.499  20.320  25.152  1.00  0.00     0.281 C 
ATOM     14  O   UNL A   1      35.685  20.245  24.806  1.00  0.00    -0.268 OA
BRANCH  13  15
ATOM     15  C   UNL A   1      33.553  19.162  24.746  1.00  0.00     0.275 C 
ATOM     16  C   UNL A   1      32.671  19.323  23.509  1.00  0.00     0.113 C 
ATOM     17  N   UNL A   1      34.296  17.880  24.608  1.00  0.00    -0.334 N 
ATOM     18  C   UNL A   1      32.888  18.042  22.706  1.00  0.00     0.175 C 
ATOM     19  C   UNL A   1      33.467  17.062  23.720  1.00  0.00     0.293 C 
ATOM     20  H   UNL A   1      34.404  17.428  25.516  1.00  0.00     0.347 HD
ATOM     21  H   UNL A   1      35.236  18.018  24.238  1.00  0.00     0.347 HD
BRANCH  18  22
ATOM     22  O   UNL A   1      31.695  17.562  22.114  1.00  0.00    -0.387 OA
ATOM     23  H   UNL A   1      30.975  17.597  22.763  1.00  0.00     0.211 HD
ENDBRANCH  18  22
ENDBRANCH  13  15
ENDBRANCH  10  13
ENDBRANCH   6   7
ENDBRANCH   4   6
ENDBRANCH   3   4
ENDBRANCH   2   3
ENDBRANCH   1   2
BRANCH   1  24
ATOM     24  O   UNL A   1      32.382  28.593  24.201  1.00  0.00    -0.374 OA
BRANCH  24  25
ATOM     25  C   UNL A   1      31.358  29.144  25.019  1.00  0.00     0.202 C 
BRANCH  25  26
ATOM     26  C   UNL A   1      31.726  30.261  25.997  1.00  0.00     0.261 C 
BRANCH  26  27
ATOM     27  O   UNL A   1      33.144  30.457  26.142  1.00  0.00    -0.460 OA
BRANCH  27  28
ATOM     28  C   UNL A   1      33.503  31.342  27.103  1.00  0.00     0.338 C 
ATOM     29  O   UNL A   1      32.824  32.233  27.580  1.00  0.00    -0.246 OA
BRANCH  28  30
ATOM     30  C   UNL A   1      34.848  31.023  27.614  1.00  0.00     0.060 A 
ATOM     31  C   UNL A   1      35.141  29.688  27.917  1.00  0.00     0.016 A 
ATOM     32  C   UNL A   1      35.764  32.036  27.905  1.00  0.00     0.016 A 
ATOM     33  C   UNL A   1      36.343  29.365  28.547  1.00  0.00     0.010 A 
ATOM     34  C   UNL A   1      36.963  31.711  28.545  1.00  0.00     0.010 A 
ATOM     35  C   UNL A   1      37.245  30.380  28.896  1.00  0.00    -0.014 A 
BRANCH  35  36
ATOM     36  C   UNL A   1      38.442  30.068  29.714  1.00  0.00     0.031 A 
ATOM     37  C   UNL A   1      39.460  29.095  29.192  1.00  0.00     0.074 A 
ATOM     38  C   UNL A   1      38.608  30.642  30.919  1.00  0.00     0.049 A 
ATOM     39  N   UNL A   1      40.531  28.620  29.776  1.00  0.00    -0.248 NA
ATOM     40  C   UNL A   1      39.242  28.583  27.829  1.00  0.00     0.031 C 
ATOM     41  C   UNL A   1      37.699  31.616  31.519  1.00  0.00     0.029 A 
ATOM     42  N   UNL A   1      39.591  30.471  31.861  1.00  0.00    -0.354 N 
ATOM     43  C   UNL A   1      41.108  27.750  28.862  1.00  0.00     0.074 A 
ATOM     44  C   UNL A   1      40.262  27.747  27.687  1.00  0.00     0.031 C 
ATOM     45  C   UNL A   1      38.158  31.945  32.738  1.00  0.00     0.029 A 
ATOM     46  C   UNL A   1      39.368  31.174  33.018  1.00  0.00     0.049 A 
ATOM     47  H   UNL A   1      40.380  29.899  31.720  1.00  0.00     0.167 HD
ATOM     48  C   UNL A   1      42.243  27.023  28.991  1.00  0.00     0.037 A 
ATOM     49  C   UNL A   1      40.044  31.165  34.184  1.00  0.00     0.037 A 
ATOM     50  C   UNL A   1      43.085  27.031  30.159  1.00  0.00     0.049 A 
ATOM     51  C   UNL A   1      41.265  30.294  34.323  1.00  0.00     0.074 A 
ATOM     52  C   UNL A   1      44.278  26.361  30.367  1.00  0.00     0.029 A 
ATOM     53  N   UNL A   1      42.815  27.738  31.320  1.00  0.00    -0.354 N 
ATOM     54  N   UNL A   1      41.827  29.507  33.439  1.00  0.00    -0.248 NA
ATOM     55  C   UNL A   1      41.944  30.307  35.628  1.00  0.00     0.031 C 
ATOM     56  C   UNL A   1      44.706  26.623  31.673  1.00  0.00     0.029 A 
ATOM     57  C   UNL A   1      43.803  27.494  32.261  1.00  0.00     0.049 A 
ATOM     58  H   UNL A   1      42.038  28.327  31.456  1.00  0.00     0.167 HD
ATOM     59  C   UNL A   1      42.932  28.949  34.068  1.00  0.00     0.074 A 
ATOM     60  C   UNL A   1      42.974  29.503  35.405  1.00  0.00     0.031 C 
ATOM     61  C   UNL A   1      43.830  28.057  33.587  1.00  0.00     0.037 A 
BRANCH  48  62
ATOM     62  C   UNL A   1      42.641  26.136  27.849  1.00  0.00     0.064 A 
ATOM     63  C   UNL A   1      43.553  26.560  26.872  1.00  0.00     0.173 A 
ATOM     64  C   UNL A   1      42.159  24.820  27.774  1.00  0.00     0.173 A 
ATOM     65  F   UNL A   1      44.033  27.811  26.895  1.00  0.00    -0.203 F 
ATOM     66  C   UNL A   1      43.958  25.701  25.853  1.00  0.00     0.198 A 
ATOM     67  C   UNL A   1      42.584  23.958  26.767  1.00  0.00     0.198 A 
ATOM     68  F   UNL A   1      41.288  24.365  28.688  1.00  0.00    -0.203 F 
ATOM     69  F   UNL A   1      44.810  26.136  24.913  1.00  0.00    -0.200 F 
ATOM     70  C   UNL A   1      43.481  24.399  25.806  1.00  0.00     0.200 A 
ATOM     71  F   UNL A   1      42.131  22.697  26.730  1.00  0.00    -0.200 F 
ATOM     72  F   UNL A   1      43.884  23.570  24.833  1.00  0.00    -0.200 F 
ENDBRANCH  48  62
BRANCH  49  73
ATOM     73  C   UNL A   1      39.565  31.980  35.331  1.00  0.00     0.064 A 
ATOM     74  C   UNL A   1      38.669  31.451  36.271  1.00  0.00     0.173 A 
ATOM     75  C   UNL A   1      39.963  33.315  35.489  1.00  0.00     0.173 A 
ATOM     76  F   UNL A   1      38.240  30.186  36.148  1.00  0.00    -0.203 F 
ATOM     77  C   UNL A   1      38.172  32.234  37.311  1.00  0.00     0.198 A 
ATOM     78  C   UNL A   1      39.488  34.088  36.547  1.00  0.00     0.198 A 
ATOM     79  F   UNL A   1      40.819  33.869  34.618  1.00  0.00    -0.203 F 
ATOM     80  F   UNL A   1      37.276  31.719  38.164  1.00  0.00    -0.200 F 
ATOM     81  C   UNL A   1      38.586  33.550  37.451  1.00  0.00     0.200 A 
ATOM     82  F   UNL A   1      39.902  35.355  36.686  1.00  0.00    -0.200 F 
ATOM     83  F   UNL A   1      38.106  34.304  38.450  1.00  0.00    -0.200 F 
ENDBRANCH  49  73
BRANCH  61  84
ATOM     84  C   UNL A   1      44.947  27.641  34.500  1.00  0.00     0.064 A 
ATOM     85  C   UNL A   1      46.141  28.372  34.576  1.00  0.00     0.173 A 
ATOM     86  C   UNL A   1      44.805  26.523  35.336  1.00  0.00     0.173 A 
ATOM     87  F   UNL A   1      46.331  29.439  33.785  1.00  0.00    -0.203 F 
ATOM     88  C   UNL A   1      47.164  27.985  35.439  1.00  0.00     0.198 A 
ATOM     89  C   UNL A   1      45.818  26.155  36.218  1.00  0.00     0.198 A 
ATOM     90  F   UNL A   1      43.679  25.795  35.306  1.00  0.00    -0.203 F 
ATOM     91  F   UNL A   1      48.315  28.670  35.462  1.00  0.00    -0.200 F 
ATOM     92  C   UNL A   1      46.998  26.882  36.264  1.00  0.00     0.200 A 
ATOM     93  F   UNL A   1      45.651  25.098  37.023  1.00  0.00    -0.200 F 
ATOM     94  F   UNL A   1      47.980  26.514  37.098  1.00  0.00    -0.200 F 
ENDBRANCH  61  84
ENDBRANCH  35  36
ENDBRANCH  28  30
ENDBRANCH  27  28
ENDBRANCH  26  27
ENDBRANCH  25  26
ENDBRANCH  24  25
ENDBRANCH   1  24
TORSDOF 18
ENDMDL
MODEL 3
REMARK VINA RESULT:     -10.8      3.209      8.626
REMARK SMILES O=C(C[C@@H]1CN(C(=O)[C@H]2C[C@H](O)C[NH2+]2)CCO1)OCCOCCOC(=O)c1ccc(-c2c3nc(c(-c4c(F)c(F)c(F)c(F)c4F)c4ccc([nH]4)c(-c4c(F)c(F)c(F)c(F)c4F)c4nc(c(-c5c(F)c(F)c(F)c(F)c5F)c5ccc2[nH]5)C=C4)C=C3)cc1
REMARK SMILES IDX 20 1 19 2 18 3 2 4 1 5 3 6 4 7 5 8 17 9 6 10 16 11 15 12
REMARK SMILES IDX 7 13 8 14 9 15 10 16 14 17 11 18 13 19 12 22 21 24 22 25
REMARK SMILES IDX 23 26 24 27 25 28 26 29 27 30 28 31 89 32 29 33 88 34 30 35
REMARK SMILES IDX 31 36 32 37 82 38 33 39 87 40 81 41 83 42 34 43 86 44 80 45
REMARK SMILES IDX 79 46 35 48 67 49 47 50 66 51 48 52 51 53 65 54 84 55 49 56
REMARK SMILES IDX 50 57 64 59 85 60 52 61 36 62 37 63 45 64 38 65 39 66 43 67
REMARK SMILES IDX 46 68 40 69 41 70 44 71 42 72 68 73 69 74 77 75 70 76 71 77
REMARK SMILES IDX 75 78 78 79 72 80 73 81 76 82 74 83 53 84 54 85 62 86 55 87
REMARK SMILES IDX 56 88 60 89 63 90 57 91 58 92 61 93 59 94
REMARK H PARENT 14 20 14 21 12 23 83 47 51 58
REMARK Flexibility Score: inf
ROOT
ATOM      1  C   UNL A   1      30.040  28.251  23.509  1.00  0.00     0.202 C 
ENDROOT
BRANCH   1   2
ATOM      2  C   UNL A   1      30.720  26.928  23.152  1.00  0.00     0.261 C 
BRANCH   2   3
ATOM      3  O   UNL A   1      31.079  26.038  24.216  1.00  0.00    -0.463 OA
BRANCH   3   4
ATOM      4  C   UNL A   1      30.726  24.744  24.333  1.00  0.00     0.308 C 
ATOM      5  O   UNL A   1      30.371  24.117  23.338  1.00  0.00    -0.252 OA
BRANCH   4   6
ATOM      6  C   UNL A   1      30.779  24.085  25.678  1.00  0.00     0.156 C 
BRANCH   6   7
ATOM      7  C   UNL A   1      32.094  23.390  26.002  1.00  0.00     0.148 C 
ATOM      8  C   UNL A   1      32.243  21.998  25.350  1.00  0.00     0.152 C 
ATOM      9  O   UNL A   1      32.177  23.283  27.437  1.00  0.00    -0.374 OA
ATOM     10  N   UNL A   1      33.479  21.349  25.785  1.00  0.00    -0.333 N 
ATOM     11  C   UNL A   1      33.424  22.704  27.848  1.00  0.00     0.182 C 
ATOM     12  C   UNL A   1      33.607  21.306  27.249  1.00  0.00     0.148 C 
BRANCH  10  13
ATOM     13  C   UNL A   1      34.432  20.706  25.011  1.00  0.00     0.281 C 
ATOM     14  O   UNL A   1      34.237  19.547  24.623  1.00  0.00    -0.268 OA
BRANCH  13  15
ATOM     15  C   UNL A   1      35.793  21.363  24.671  1.00  0.00     0.275 C 
ATOM     16  C   UNL A   1      36.018  22.832  25.025  1.00  0.00     0.113 C 
ATOM     17  N   UNL A   1      36.926  20.583  25.238  1.00  0.00    -0.334 N 
ATOM     18  C   UNL A   1      37.364  22.858  25.747  1.00  0.00     0.175 C 
ATOM     19  C   UNL A   1      38.025  21.545  25.345  1.00  0.00     0.293 C 
ATOM     20  H   UNL A   1      37.180  19.814  24.617  1.00  0.00     0.347 HD
ATOM     21  H   UNL A   1      36.693  20.163  26.138  1.00  0.00     0.347 HD
BRANCH  18  22
ATOM     22  O   UNL A   1      38.146  23.984  25.397  1.00  0.00    -0.387 OA
ATOM     23  H   UNL A   1      37.678  24.795  25.650  1.00  0.00     0.211 HD
ENDBRANCH  18  22
ENDBRANCH  13  15
ENDBRANCH  10  13
ENDBRANCH   6   7
ENDBRANCH   4   6
ENDBRANCH   3   4
ENDBRANCH   2   3
ENDBRANCH   1   2
BRANCH   1  24
ATOM     24  O   UNL A   1      30.831  29.382  23.820  1.00  0.00    -0.374 OA
BRANCH  24  25
ATOM     25  C   UNL A   1      31.579  29.425  25.028  1.00  0.00     0.202 C 
BRANCH  25  26
ATOM     26  C   UNL A   1      31.579  30.720  25.841  1.00  0.00     0.261 C 
BRANCH  26  27
ATOM     27  O   UNL A   1      32.402  30.662  27.020  1.00  0.00    -0.460 OA
BRANCH  27  28
ATOM     28  C   UNL A   1      33.149  31.769  27.251  1.00  0.00     0.338 C 
ATOM     29  O   UNL A   1      32.797  32.931  27.162  1.00  0.00    -0.246 OA
BRANCH  28  30
ATOM     30  C   UNL A   1      34.480  31.390  27.757  1.00  0.00     0.060 A 
ATOM     31  C   UNL A   1      34.712  30.044  28.066  1.00  0.00     0.016 A 
ATOM     32  C   UNL A   1      35.444  32.361  28.036  1.00  0.00     0.016 A 
ATOM     33  C   UNL A   1      35.902  29.669  28.691  1.00  0.00     0.010 A 
ATOM     34  C   UNL A   1      36.630  31.984  28.672  1.00  0.00     0.010 A 
ATOM     35  C   UNL A   1      36.852  30.643  29.029  1.00  0.00    -0.014 A 
BRANCH  35  36
ATOM     36  C   UNL A   1      38.038  30.281  29.841  1.00  0.00     0.031 A 
ATOM     37  C   UNL A   1      39.050  29.319  29.284  1.00  0.00     0.074 A 
ATOM     38  C   UNL A   1      38.200  30.798  31.072  1.00  0.00     0.049 A 
ATOM     39  N   UNL A   1      40.109  28.806  29.856  1.00  0.00    -0.248 NA
ATOM     40  C   UNL A   1      38.837  28.872  27.898  1.00  0.00     0.031 C 
ATOM     41  C   UNL A   1      37.298  31.755  31.708  1.00  0.00     0.029 A 
ATOM     42  N   UNL A   1      39.173  30.573  32.014  1.00  0.00    -0.354 N 
ATOM     43  C   UNL A   1      40.684  27.970  28.908  1.00  0.00     0.074 A 
ATOM     44  C   UNL A   1      39.849  28.031  27.728  1.00  0.00     0.031 C 
ATOM     45  C   UNL A   1      37.750  32.023  32.945  1.00  0.00     0.029 A 
ATOM     46  C   UNL A   1      38.948  31.226  33.200  1.00  0.00     0.049 A 
ATOM     47  H   UNL A   1      39.957  29.999  31.854  1.00  0.00     0.167 HD
ATOM     48  C   UNL A   1      41.809  27.224  29.014  1.00  0.00     0.037 A 
ATOM     49  C   UNL A   1      39.614  31.157  34.369  1.00  0.00     0.037 A 
ATOM     50  C   UNL A   1      42.641  27.170  30.188  1.00  0.00     0.049 A 
ATOM     51  C   UNL A   1      40.824  30.265  34.480  1.00  0.00     0.074 A 
ATOM     52  C   UNL A   1      43.824  26.477  30.375  1.00  0.00     0.029 A 
ATOM     53  N   UNL A   1      42.369  27.828  31.378  1.00  0.00    -0.354 N 
ATOM     54  N   UNL A   1      41.384  29.512  33.565  1.00  0.00    -0.248 NA
ATOM     55  C   UNL A   1      41.491  30.212  35.789  1.00  0.00     0.031 C 
ATOM     56  C   UNL A   1      44.243  26.675  31.696  1.00  0.00     0.029 A 
ATOM     57  C   UNL A   1      43.346  27.530  32.315  1.00  0.00     0.049 A 
ATOM     58  H   UNL A   1      41.598  28.420  31.533  1.00  0.00     0.167 HD
ATOM     59  C   UNL A   1      42.476  28.913  34.178  1.00  0.00     0.074 A 
ATOM     60  C   UNL A   1      42.513  29.406  35.539  1.00  0.00     0.031 C 
ATOM     61  C   UNL A   1      43.368  28.032  33.664  1.00  0.00     0.037 A 
BRANCH  48  62
ATOM     62  C   UNL A   1      42.206  26.384  27.837  1.00  0.00     0.064 A 
ATOM     63  C   UNL A   1      43.162  26.824  26.909  1.00  0.00     0.173 A 
ATOM     64  C   UNL A   1      41.678  25.095  27.677  1.00  0.00     0.173 A 
ATOM     65  F   UNL A   1      43.688  28.053  27.014  1.00  0.00    -0.203 F 
ATOM     66  C   UNL A   1      43.564  26.006  25.856  1.00  0.00     0.198 A 
ATOM     67  C   UNL A   1      42.100  24.271  26.637  1.00  0.00     0.198 A 
ATOM     68  F   UNL A   1      40.765  24.626  28.541  1.00  0.00    -0.203 F 
ATOM     69  F   UNL A   1      44.458  26.456  24.965  1.00  0.00    -0.200 F 
ATOM     70  C   UNL A   1      43.040  24.728  25.726  1.00  0.00     0.200 A 
ATOM     71  F   UNL A   1      41.601  23.033  26.519  1.00  0.00    -0.200 F 
ATOM     72  F   UNL A   1      43.440  23.937  24.720  1.00  0.00    -0.200 F 
ENDBRANCH  48  62
BRANCH  49  73
ATOM     73  C   UNL A   1      39.134  31.925  35.548  1.00  0.00     0.064 A 
ATOM     74  C   UNL A   1      39.548  33.245  35.770  1.00  0.00     0.173 A 
ATOM     75  C   UNL A   1      38.283  31.340  36.497  1.00  0.00     0.173 A 
ATOM     76  F   UNL A   1      40.383  33.839  34.904  1.00  0.00    -0.203 F 
ATOM     77  C   UNL A   1      39.148  33.944  36.907  1.00  0.00     0.198 A 
ATOM     78  C   UNL A   1      37.859  32.049  37.619  1.00  0.00     0.198 A 
ATOM     79  F   UNL A   1      37.857  30.079  36.332  1.00  0.00    -0.203 F 
ATOM     80  F   UNL A   1      39.601  35.186  37.122  1.00  0.00    -0.200 F 
ATOM     81  C   UNL A   1      38.300  33.347  37.828  1.00  0.00     0.200 A 
ATOM     82  F   UNL A   1      37.028  31.473  38.498  1.00  0.00    -0.200 F 
ATOM     83  F   UNL A   1      37.916  34.017  38.923  1.00  0.00    -0.200 F 
ENDBRANCH  49  73
BRANCH  61  84
ATOM     84  C   UNL A   1      44.472  27.563  34.567  1.00  0.00     0.064 A 
ATOM     85  C   UNL A   1      44.344  26.396  35.334  1.00  0.00     0.173 A 
ATOM     86  C   UNL A   1      45.684  28.267  34.637  1.00  0.00     0.173 A 
ATOM     87  F   UNL A   1      43.199  25.696  35.314  1.00  0.00    -0.203 F 
ATOM     88  C   UNL A   1      45.382  25.962  36.156  1.00  0.00     0.198 A 
ATOM     89  C   UNL A   1      46.729  27.816  35.438  1.00  0.00     0.198 A 
ATOM     90  F   UNL A   1      45.858  29.385  33.918  1.00  0.00    -0.203 F 
ATOM     91  F   UNL A   1      45.222  24.869  36.915  1.00  0.00    -0.200 F 
ATOM     92  C   UNL A   1      46.575  26.668  36.202  1.00  0.00     0.200 A 
ATOM     93  F   UNL A   1      47.885  28.491  35.471  1.00  0.00    -0.200 F 
ATOM     94  F   UNL A   1      47.574  26.247  36.988  1.00  0.00    -0.200 F 
ENDBRANCH  61  84
ENDBRANCH  35  36
ENDBRANCH  28  30
ENDBRANCH  27  28
ENDBRANCH  26  27
ENDBRANCH  25  26
ENDBRANCH  24  25
ENDBRANCH   1  24
TORSDOF 18
ENDMDL
