MODEL 1
REMARK VINA RESULT:     -12.3      0.000      0.000
REMARK SMILES Cc1cc2c(c(C)c1Cl)C=C(C(=O)OCCOCCOC(=O)c1ccc(-c3c4nc(c(-c5c(F)c(F)c(F)c(F)c5F)c5ccc([nH]5)c(-c5c(F)c(F)c(F)c(F)c5F)c5nc(c(-c6c(F)c(F)c(F)c(F)c6F)c6ccc3[nH]6)C=C5)C=C4)cc1)[C@@H](C(F)(F)F)O2
REMARK SMILES IDX 18 1 17 2 16 3 15 4 14 5 12 6 13 7 11 8 1 9 2 10 3 11 8 12
REMARK SMILES IDX 4 13 6 14 9 15 5 16 91 17 7 18 10 19 86 20 87 21 88 22 89 23
REMARK SMILES IDX 90 24 19 25 20 26 21 27 22 28 23 29 24 30 85 31 25 32 84 33
REMARK SMILES IDX 26 34 27 35 28 36 78 37 29 38 83 39 77 40 79 41 30 42 82 43
REMARK SMILES IDX 76 44 75 45 31 47 63 48 43 49 62 50 44 51 47 52 61 53 80 54
REMARK SMILES IDX 45 55 46 56 60 58 81 59 48 60 32 61 33 62 41 63 34 64 35 65
REMARK SMILES IDX 39 66 42 67 36 68 37 69 40 70 38 71 64 72 65 73 73 74 66 75
REMARK SMILES IDX 67 76 71 77 74 78 68 79 69 80 72 81 70 82 49 83 50 84 58 85
REMARK SMILES IDX 51 86 52 87 56 88 59 89 53 90 54 91 57 92 55 93
REMARK H PARENT 79 46 47 57
REMARK Flexibility Score: inf
ROOT
ATOM      1  C   UNL A   1      32.455  29.202  25.251  1.00  0.00     0.202 C 
ENDROOT
BRANCH   1   2
ATOM      2  O   UNL A   1      32.200  29.058  23.853  1.00  0.00    -0.374 OA
BRANCH   2   3
ATOM      3  C   UNL A   1      33.233  28.503  23.039  1.00  0.00     0.202 C 
BRANCH   3   4
ATOM      4  C   UNL A   1      33.142  27.004  22.745  1.00  0.00     0.261 C 
BRANCH   4   5
ATOM      5  O   UNL A   1      33.957  26.240  23.647  1.00  0.00    -0.460 OA
BRANCH   5   6
ATOM      6  C   UNL A   1      33.261  25.513  24.551  1.00  0.00     0.338 C 
ATOM      7  O   UNL A   1      32.202  25.819  25.078  1.00  0.00    -0.246 OA
BRANCH   6   8
ATOM      8  C   UNL A   1      33.902  24.199  24.740  1.00  0.00     0.087 C 
ATOM      9  C   UNL A   1      38.142  19.326  24.913  1.00  0.00     0.046 C 
ATOM     10  C   UNL A   1      37.370  20.598  25.146  1.00  0.00    -0.028 A 
ATOM     11  C   UNL A   1      36.011  20.632  24.808  1.00  0.00     0.052 A 
ATOM     12  C   UNL A   1      37.982  21.768  25.637  1.00  0.00     0.047 A 
ATOM     13  C   UNL A   1      35.284  21.818  24.894  1.00  0.00     0.128 A 
ATOM     14  C   UNL A   1      37.250  22.970  25.770  1.00  0.00    -0.021 A 
ATOM     15  Cl  UNL A   1      39.672  21.716  26.040  1.00  0.00    -0.084 Cl
ATOM     16  C   UNL A   1      35.900  22.993  25.337  1.00  0.00     0.022 A 
ATOM     17  O   UNL A   1      33.972  21.727  24.520  1.00  0.00    -0.475 OA
ATOM     18  C   UNL A   1      37.874  24.225  26.336  1.00  0.00     0.047 C 
ATOM     19  C   UNL A   1      35.138  24.234  25.253  1.00  0.00     0.027 C 
ATOM     20  C   UNL A   1      33.196  22.940  24.337  1.00  0.00     0.316 C 
BRANCH  20  21
ATOM     21  C   UNL A   1      32.693  22.976  22.887  1.00  0.00     0.430 C 
ATOM     22  F   UNL A   1      33.648  23.446  22.048  1.00  0.00    -0.167 F 
ATOM     23  F   UNL A   1      32.364  21.741  22.439  1.00  0.00    -0.167 F 
ATOM     24  F   UNL A   1      31.604  23.763  22.744  1.00  0.00    -0.167 F 
ENDBRANCH  20  21
ENDBRANCH   6   8
ENDBRANCH   5   6
ENDBRANCH   4   5
ENDBRANCH   3   4
ENDBRANCH   2   3
ENDBRANCH   1   2
BRANCH   1  25
ATOM     25  C   UNL A   1      31.964  30.491  25.919  1.00  0.00     0.261 C 
BRANCH  25  26
ATOM     26  O   UNL A   1      32.511  30.654  27.241  1.00  0.00    -0.460 OA
BRANCH  26  27
ATOM     27  C   UNL A   1      33.269  31.763  27.403  1.00  0.00     0.338 C 
ATOM     28  O   UNL A   1      32.897  32.929  27.393  1.00  0.00    -0.246 OA
BRANCH  27  29
ATOM     29  C   UNL A   1      34.642  31.392  27.779  1.00  0.00     0.060 A 
ATOM     30  C   UNL A   1      34.896  30.040  28.049  1.00  0.00     0.016 A 
ATOM     31  C   UNL A   1      35.628  32.358  27.986  1.00  0.00     0.016 A 
ATOM     32  C   UNL A   1      36.118  29.656  28.592  1.00  0.00     0.010 A 
ATOM     33  C   UNL A   1      36.848  31.973  28.549  1.00  0.00     0.010 A 
ATOM     34  C   UNL A   1      37.077  30.629  28.898  1.00  0.00    -0.014 A 
BRANCH  34  35
ATOM     35  C   UNL A   1      38.217  30.273  29.773  1.00  0.00     0.031 A 
ATOM     36  C   UNL A   1      39.282  29.363  29.225  1.00  0.00     0.074 A 
ATOM     37  C   UNL A   1      38.332  30.783  31.011  1.00  0.00     0.049 A 
ATOM     38  N   UNL A   1      40.331  28.856  29.820  1.00  0.00    -0.248 NA
ATOM     39  C   UNL A   1      39.145  28.974  27.812  1.00  0.00     0.031 C 
ATOM     40  C   UNL A   1      37.408  31.734  31.621  1.00  0.00     0.029 A 
ATOM     41  N   UNL A   1      39.284  30.565  31.975  1.00  0.00    -0.354 N 
ATOM     42  C   UNL A   1      40.977  28.093  28.856  1.00  0.00     0.074 A 
ATOM     43  C   UNL A   1      40.192  28.180  27.645  1.00  0.00     0.031 C 
ATOM     44  C   UNL A   1      37.834  32.015  32.865  1.00  0.00     0.029 A 
ATOM     45  C   UNL A   1      39.037  31.234  33.148  1.00  0.00     0.049 A 
ATOM     46  H   UNL A   1      40.067  29.986  31.839  1.00  0.00     0.167 HD
ATOM     47  C   UNL A   1      42.128  27.389  28.970  1.00  0.00     0.037 A 
ATOM     48  C   UNL A   1      39.696  31.194  34.321  1.00  0.00     0.037 A 
ATOM     49  C   UNL A   1      42.904  27.297  30.177  1.00  0.00     0.049 A 
ATOM     50  C   UNL A   1      40.914  30.318  34.456  1.00  0.00     0.074 A 
ATOM     51  C   UNL A   1      44.075  26.595  30.401  1.00  0.00     0.029 A 
ATOM     52  N   UNL A   1      42.582  27.931  31.369  1.00  0.00    -0.354 N 
ATOM     53  N   UNL A   1      41.504  29.574  33.551  1.00  0.00    -0.248 NA
ATOM     54  C   UNL A   1      41.550  30.267  35.780  1.00  0.00     0.031 C 
ATOM     55  C   UNL A   1      44.439  26.771  31.741  1.00  0.00     0.029 A 
ATOM     56  C   UNL A   1      43.519  27.617  32.339  1.00  0.00     0.049 A 
ATOM     57  H   UNL A   1      41.802  28.516  31.505  1.00  0.00     0.167 HD
ATOM     58  C   UNL A   1      42.583  28.978  34.190  1.00  0.00     0.074 A 
ATOM     59  C   UNL A   1      42.581  29.464  35.554  1.00  0.00     0.031 C 
ATOM     60  C   UNL A   1      43.493  28.102  33.694  1.00  0.00     0.037 A 
BRANCH  47  61
ATOM     61  C   UNL A   1      42.603  26.640  27.762  1.00  0.00     0.064 A 
ATOM     62  C   UNL A   1      43.492  27.218  26.844  1.00  0.00     0.173 A 
ATOM     63  C   UNL A   1      42.196  25.316  27.539  1.00  0.00     0.173 A 
ATOM     64  F   UNL A   1      43.895  28.488  27.003  1.00  0.00    -0.203 F 
ATOM     65  C   UNL A   1      43.944  26.502  25.738  1.00  0.00     0.198 A 
ATOM     66  C   UNL A   1      42.669  24.596  26.447  1.00  0.00     0.198 A 
ATOM     67  F   UNL A   1      41.346  24.719  28.388  1.00  0.00    -0.203 F 
ATOM     68  F   UNL A   1      44.766  27.086  24.855  1.00  0.00    -0.200 F 
ATOM     69  C   UNL A   1      43.540  25.190  25.545  1.00  0.00     0.200 A 
ATOM     70  F   UNL A   1      42.283  23.325  26.265  1.00  0.00    -0.200 F 
ATOM     71  F   UNL A   1      43.984  24.499  24.487  1.00  0.00    -0.200 F 
ENDBRANCH  47  61
BRANCH  48  72
ATOM     72  C   UNL A   1      39.206  31.995  35.474  1.00  0.00     0.064 A 
ATOM     73  C   UNL A   1      39.554  33.345  35.613  1.00  0.00     0.173 A 
ATOM     74  C   UNL A   1      38.389  31.425  36.460  1.00  0.00     0.173 A 
ATOM     75  F   UNL A   1      40.358  33.926  34.710  1.00  0.00    -0.203 F 
ATOM     76  C   UNL A   1      39.108  34.093  36.702  1.00  0.00     0.198 A 
ATOM     77  C   UNL A   1      37.923  32.180  37.534  1.00  0.00     0.198 A 
ATOM     78  F   UNL A   1      38.035  30.134  36.376  1.00  0.00    -0.203 F 
ATOM     79  F   UNL A   1      39.485  35.372  36.831  1.00  0.00    -0.200 F 
ATOM     80  C   UNL A   1      38.287  33.512  37.657  1.00  0.00     0.200 A 
ATOM     81  F   UNL A   1      37.124  31.617  38.450  1.00  0.00    -0.200 F 
ATOM     82  F   UNL A   1      37.853  34.235  38.699  1.00  0.00    -0.200 F 
ENDBRANCH  48  72
BRANCH  60  83
ATOM     83  C   UNL A   1      44.561  27.614  34.630  1.00  0.00     0.064 A 
ATOM     84  C   UNL A   1      44.417  26.413  35.339  1.00  0.00     0.173 A 
ATOM     85  C   UNL A   1      45.758  28.329  34.783  1.00  0.00     0.173 A 
ATOM     86  F   UNL A   1      43.285  25.700  35.237  1.00  0.00    -0.203 F 
ATOM     87  C   UNL A   1      45.424  25.957  36.185  1.00  0.00     0.198 A 
ATOM     88  C   UNL A   1      46.774  27.856  35.608  1.00  0.00     0.198 A 
ATOM     89  F   UNL A   1      45.948  29.480  34.120  1.00  0.00    -0.203 F 
ATOM     90  F   UNL A   1      45.247  24.828  36.887  1.00  0.00    -0.200 F 
ATOM     91  C   UNL A   1      46.604  26.675  36.313  1.00  0.00     0.200 A 
ATOM     92  F   UNL A   1      47.919  28.543  35.720  1.00  0.00    -0.200 F 
ATOM     93  F   UNL A   1      47.575  26.229  37.122  1.00  0.00    -0.200 F 
ENDBRANCH  60  83
ENDBRANCH  34  35
ENDBRANCH  27  29
ENDBRANCH  26  27
ENDBRANCH  25  26
ENDBRANCH   1  25
TORSDOF 15
ENDMDL
MODEL 2
REMARK VINA RESULT:     -12.2      4.249      9.966
REMARK SMILES Cc1cc2c(c(C)c1Cl)C=C(C(=O)OCCOCCOC(=O)c1ccc(-c3c4nc(c(-c5c(F)c(F)c(F)c(F)c5F)c5ccc([nH]5)c(-c5c(F)c(F)c(F)c(F)c5F)c5nc(c(-c6c(F)c(F)c(F)c(F)c6F)c6ccc3[nH]6)C=C5)C=C4)cc1)[C@@H](C(F)(F)F)O2
REMARK SMILES IDX 18 1 17 2 16 3 15 4 14 5 12 6 13 7 11 8 1 9 2 10 3 11 8 12
REMARK SMILES IDX 4 13 6 14 9 15 5 16 91 17 7 18 10 19 86 20 87 21 88 22 89 23
REMARK SMILES IDX 90 24 19 25 20 26 21 27 22 28 23 29 24 30 85 31 25 32 84 33
REMARK SMILES IDX 26 34 27 35 28 36 78 37 29 38 83 39 77 40 79 41 30 42 82 43
REMARK SMILES IDX 76 44 75 45 31 47 63 48 43 49 62 50 44 51 47 52 61 53 80 54
REMARK SMILES IDX 45 55 46 56 60 58 81 59 48 60 32 61 33 62 41 63 34 64 35 65
REMARK SMILES IDX 39 66 42 67 36 68 37 69 40 70 38 71 64 72 65 73 73 74 66 75
REMARK SMILES IDX 67 76 71 77 74 78 68 79 69 80 72 81 70 82 49 83 50 84 58 85
REMARK SMILES IDX 51 86 52 87 56 88 59 89 53 90 54 91 57 92 55 93
REMARK H PARENT 79 46 47 57
REMARK Flexibility Score: inf
ROOT
ATOM      1  C   UNL A   1      36.245  20.384  25.003  1.00  0.00     0.202 C 
ENDROOT
BRANCH   1   2
ATOM      2  O   UNL A   1      35.754  21.713  25.185  1.00  0.00    -0.374 OA
BRANCH   2   3
ATOM      3  C   UNL A   1      35.431  22.471  24.020  1.00  0.00     0.202 C 
BRANCH   3   4
ATOM      4  C   UNL A   1      35.171  23.965  24.225  1.00  0.00     0.261 C 
BRANCH   4   5
ATOM      5  O   UNL A   1      33.765  24.247  24.315  1.00  0.00    -0.460 OA
BRANCH   5   6
ATOM      6  C   UNL A   1      33.364  24.710  25.521  1.00  0.00     0.338 C 
ATOM      7  O   UNL A   1      33.452  24.132  26.594  1.00  0.00    -0.246 OA
BRANCH   6   8
ATOM      8  C   UNL A   1      32.900  26.103  25.395  1.00  0.00     0.087 C 
ATOM      9  C   UNL A   1      31.290  32.246  26.594  1.00  0.00     0.046 C 
ATOM     10  C   UNL A   1      32.012  30.943  26.371  1.00  0.00    -0.028 A 
ATOM     11  C   UNL A   1      31.405  29.965  25.572  1.00  0.00     0.052 A 
ATOM     12  C   UNL A   1      33.248  30.655  26.984  1.00  0.00     0.047 A 
ATOM     13  C   UNL A   1      31.977  28.701  25.433  1.00  0.00     0.128 A 
ATOM     14  C   UNL A   1      33.863  29.393  26.821  1.00  0.00    -0.021 A 
ATOM     15  Cl  UNL A   1      33.984  31.872  27.983  1.00  0.00    -0.084 Cl
ATOM     16  C   UNL A   1      33.180  28.397  26.079  1.00  0.00     0.022 A 
ATOM     17  O   UNL A   1      31.281  27.830  24.643  1.00  0.00    -0.475 OA
ATOM     18  C   UNL A   1      35.209  29.077  27.433  1.00  0.00     0.047 C 
ATOM     19  C   UNL A   1      33.647  27.015  26.030  1.00  0.00     0.027 C 
ATOM     20  C   UNL A   1      31.653  26.426  24.629  1.00  0.00     0.316 C 
BRANCH  20  21
ATOM     21  C   UNL A   1      30.441  25.602  25.088  1.00  0.00     0.430 C 
ATOM     22  F   UNL A   1      29.280  26.249  24.821  1.00  0.00    -0.167 F 
ATOM     23  F   UNL A   1      30.372  24.411  24.445  1.00  0.00    -0.167 F 
ATOM     24  F   UNL A   1      30.470  25.347  26.414  1.00  0.00    -0.167 F 
ENDBRANCH  20  21
ENDBRANCH   6   8
ENDBRANCH   5   6
ENDBRANCH   4   5
ENDBRANCH   3   4
ENDBRANCH   2   3
ENDBRANCH   1   2
BRANCH   1  25
ATOM     25  C   UNL A   1      37.767  20.199  24.992  1.00  0.00     0.261 C 
BRANCH  25  26
ATOM     26  O   UNL A   1      38.457  21.392  25.407  1.00  0.00    -0.460 OA
BRANCH  26  27
ATOM     27  C   UNL A   1      39.533  21.173  26.197  1.00  0.00     0.338 C 
ATOM     28  O   UNL A   1      40.196  20.148  26.287  1.00  0.00    -0.246 OA
BRANCH  27  29
ATOM     29  C   UNL A   1      39.947  22.423  26.854  1.00  0.00     0.060 A 
ATOM     30  C   UNL A   1      39.354  23.613  26.411  1.00  0.00     0.016 A 
ATOM     31  C   UNL A   1      40.983  22.447  27.790  1.00  0.00     0.016 A 
ATOM     32  C   UNL A   1      39.840  24.840  26.854  1.00  0.00     0.010 A 
ATOM     33  C   UNL A   1      41.481  23.680  28.220  1.00  0.00     0.010 A 
ATOM     34  C   UNL A   1      40.942  24.879  27.716  1.00  0.00    -0.014 A 
BRANCH  34  35
ATOM     35  C   UNL A   1      41.662  26.157  27.915  1.00  0.00     0.031 A 
ATOM     36  C   UNL A   1      40.979  27.248  28.693  1.00  0.00     0.074 A 
ATOM     37  C   UNL A   1      42.913  26.332  27.456  1.00  0.00     0.049 A 
ATOM     38  N   UNL A   1      41.376  28.471  28.936  1.00  0.00    -0.248 NA
ATOM     39  C   UNL A   1      39.673  26.912  29.281  1.00  0.00     0.031 C 
ATOM     40  C   UNL A   1      43.705  25.323  26.759  1.00  0.00     0.029 A 
ATOM     41  N   UNL A   1      43.734  27.430  27.513  1.00  0.00    -0.354 N 
ATOM     42  C   UNL A   1      40.371  29.046  29.702  1.00  0.00     0.074 A 
ATOM     43  C   UNL A   1      39.335  28.052  29.865  1.00  0.00     0.031 C 
ATOM     44  C   UNL A   1      44.900  25.851  26.444  1.00  0.00     0.029 A 
ATOM     45  C   UNL A   1      44.939  27.245  26.884  1.00  0.00     0.049 A 
ATOM     46  H   UNL A   1      43.482  28.269  27.962  1.00  0.00     0.167 HD
ATOM     47  C   UNL A   1      40.323  30.292  30.230  1.00  0.00     0.037 A 
ATOM     48  C   UNL A   1      45.944  28.115  26.668  1.00  0.00     0.037 A 
ATOM     49  C   UNL A   1      41.351  31.283  30.062  1.00  0.00     0.049 A 
ATOM     50  C   UNL A   1      45.819  29.529  27.172  1.00  0.00     0.074 A 
ATOM     51  C   UNL A   1      41.388  32.580  30.541  1.00  0.00     0.029 A 
ATOM     52  N   UNL A   1      42.527  31.083  29.354  1.00  0.00    -0.354 N 
ATOM     53  N   UNL A   1      44.854  30.078  27.871  1.00  0.00    -0.248 NA
ATOM     54  C   UNL A   1      46.920  30.448  26.848  1.00  0.00     0.031 C 
ATOM     55  C   UNL A   1      42.569  33.178  30.088  1.00  0.00     0.029 A 
ATOM     56  C   UNL A   1      43.288  32.241  29.364  1.00  0.00     0.049 A 
ATOM     57  H   UNL A   1      42.783  30.243  28.909  1.00  0.00     0.167 HD
ATOM     58  C   UNL A   1      45.235  31.398  28.078  1.00  0.00     0.074 A 
ATOM     59  C   UNL A   1      46.530  31.562  27.451  1.00  0.00     0.031 C 
ATOM     60  C   UNL A   1      44.569  32.387  28.724  1.00  0.00     0.037 A 
BRANCH  47  61
ATOM     61  C   UNL A   1      39.102  30.662  31.020  1.00  0.00     0.064 A 
ATOM     62  C   UNL A   1      39.035  30.452  32.405  1.00  0.00     0.173 A 
ATOM     63  C   UNL A   1      38.005  31.266  30.391  1.00  0.00     0.173 A 
ATOM     64  F   UNL A   1      40.052  29.860  33.049  1.00  0.00    -0.203 F 
ATOM     65  C   UNL A   1      37.905  30.823  33.130  1.00  0.00     0.198 A 
ATOM     66  C   UNL A   1      36.887  31.658  31.122  1.00  0.00     0.198 A 
ATOM     67  F   UNL A   1      38.021  31.487  29.067  1.00  0.00    -0.203 F 
ATOM     68  F   UNL A   1      37.847  30.582  34.447  1.00  0.00    -0.200 F 
ATOM     69  C   UNL A   1      36.836  31.432  32.490  1.00  0.00     0.200 A 
ATOM     70  F   UNL A   1      35.858  32.253  30.504  1.00  0.00    -0.200 F 
ATOM     71  F   UNL A   1      35.754  31.797  33.190  1.00  0.00    -0.200 F 
ENDBRANCH  47  61
BRANCH  48  72
ATOM     72  C   UNL A   1      47.152  27.680  25.919  1.00  0.00     0.064 A 
ATOM     73  C   UNL A   1      47.188  27.730  24.519  1.00  0.00     0.173 A 
ATOM     74  C   UNL A   1      48.287  27.200  26.586  1.00  0.00     0.173 A 
ATOM     75  F   UNL A   1      46.115  28.154  23.837  1.00  0.00    -0.203 F 
ATOM     76  C   UNL A   1      48.314  27.308  23.814  1.00  0.00     0.198 A 
ATOM     77  C   UNL A   1      49.422  26.803  25.882  1.00  0.00     0.198 A 
ATOM     78  F   UNL A   1      48.300  27.126  27.925  1.00  0.00    -0.203 F 
ATOM     79  F   UNL A   1      48.310  27.331  22.475  1.00  0.00    -0.200 F 
ATOM     80  C   UNL A   1      49.432  26.852  24.496  1.00  0.00     0.200 A 
ATOM     81  F   UNL A   1      50.503  26.370  26.545  1.00  0.00    -0.200 F 
ATOM     82  F   UNL A   1      50.517  26.453  23.817  1.00  0.00    -0.200 F 
ENDBRANCH  48  72
BRANCH  60  83
ATOM     83  C   UNL A   1      45.230  33.734  28.789  1.00  0.00     0.064 A 
ATOM     84  C   UNL A   1      46.134  34.055  29.811  1.00  0.00     0.173 A 
ATOM     85  C   UNL A   1      44.994  34.695  27.793  1.00  0.00     0.173 A 
ATOM     86  F   UNL A   1      46.383  33.175  30.793  1.00  0.00    -0.203 F 
ATOM     87  C   UNL A   1      46.761  35.297  29.848  1.00  0.00     0.198 A 
ATOM     88  C   UNL A   1      45.644  35.925  27.817  1.00  0.00     0.198 A 
ATOM     89  F   UNL A   1      44.144  34.433  26.789  1.00  0.00    -0.203 F 
ATOM     90  F   UNL A   1      47.588  35.599  30.858  1.00  0.00    -0.200 F 
ATOM     91  C   UNL A   1      46.521  36.228  28.847  1.00  0.00     0.200 A 
ATOM     92  F   UNL A   1      45.422  36.817  26.843  1.00  0.00    -0.200 F 
ATOM     93  F   UNL A   1      47.132  37.420  28.880  1.00  0.00    -0.200 F 
ENDBRANCH  60  83
ENDBRANCH  34  35
ENDBRANCH  27  29
ENDBRANCH  26  27
ENDBRANCH  25  26
ENDBRANCH   1  25
TORSDOF 15
ENDMDL
MODEL 3
REMARK VINA RESULT:     -12.2      4.191      9.879
REMARK SMILES Cc1cc2c(c(C)c1Cl)C=C(C(=O)OCCOCCOC(=O)c1ccc(-c3c4nc(c(-c5c(F)c(F)c(F)c(F)c5F)c5ccc([nH]5)c(-c5c(F)c(F)c(F)c(F)c5F)c5nc(c(-c6c(F)c(F)c(F)c(F)c6F)c6ccc3[nH]6)C=C5)C=C4)cc1)[C@@H](C(F)(F)F)O2
REMARK SMILES IDX 18 1 17 2 16 3 15 4 14 5 12 6 13 7 11 8 1 9 2 10 3 11 8 12
REMARK SMILES IDX 4 13 6 14 9 15 5 16 91 17 7 18 10 19 86 20 87 21 88 22 89 23
REMARK SMILES IDX 90 24 19 25 20 26 21 27 22 28 23 29 24 30 85 31 25 32 84 33
REMARK SMILES IDX 26 34 27 35 28 36 78 37 29 38 83 39 77 40 79 41 30 42 82 43
REMARK SMILES IDX 76 44 75 45 31 47 63 48 43 49 62 50 44 51 47 52 61 53 80 54
REMARK SMILES IDX 45 55 46 56 60 58 81 59 48 60 32 61 33 62 41 63 34 64 35 65
REMARK SMILES IDX 39 66 42 67 36 68 37 69 40 70 38 71 64 72 65 73 73 74 66 75
REMARK SMILES IDX 67 76 71 77 74 78 68 79 69 80 72 81 70 82 49 83 50 84 58 85
REMARK SMILES IDX 51 86 52 87 56 88 59 89 53 90 54 91 57 92 55 93
REMARK H PARENT 79 46 47 57
REMARK Flexibility Score: inf
ROOT
ATOM      1  C   UNL A   1      35.797  21.942  25.909  1.00  0.00     0.202 C 
ENDROOT
BRANCH   1   2
ATOM      2  O   UNL A   1      34.643  21.303  26.459  1.00  0.00    -0.374 OA
BRANCH   2   3
ATOM      3  C   UNL A   1      33.855  22.037  27.394  1.00  0.00     0.202 C 
BRANCH   3   4
ATOM      4  C   UNL A   1      32.798  22.977  26.811  1.00  0.00     0.261 C 
BRANCH   4   5
ATOM      5  O   UNL A   1      33.346  24.274  26.523  1.00  0.00    -0.460 OA
BRANCH   5   6
ATOM      6  C   UNL A   1      33.243  24.649  25.227  1.00  0.00     0.338 C 
ATOM      7  O   UNL A   1      33.383  23.937  24.244  1.00  0.00    -0.246 OA
BRANCH   6   8
ATOM      8  C   UNL A   1      32.803  26.054  25.146  1.00  0.00     0.087 C 
ATOM      9  C   UNL A   1      31.266  32.171  26.550  1.00  0.00     0.046 C 
ATOM     10  C   UNL A   1      31.972  30.867  26.291  1.00  0.00    -0.028 A 
ATOM     11  C   UNL A   1      31.365  29.929  25.444  1.00  0.00     0.052 A 
ATOM     12  C   UNL A   1      33.191  30.535  26.916  1.00  0.00     0.047 A 
ATOM     13  C   UNL A   1      31.920  28.663  25.267  1.00  0.00     0.128 A 
ATOM     14  C   UNL A   1      33.789  29.270  26.715  1.00  0.00    -0.021 A 
ATOM     15  Cl  UNL A   1      33.926  31.700  27.974  1.00  0.00    -0.084 Cl
ATOM     16  C   UNL A   1      33.105  28.314  25.923  1.00  0.00     0.022 A 
ATOM     17  O   UNL A   1      31.226  27.834  24.431  1.00  0.00    -0.475 OA
ATOM     18  C   UNL A   1      35.118  28.909  27.341  1.00  0.00     0.047 C 
ATOM     19  C   UNL A   1      33.551  26.928  25.829  1.00  0.00     0.027 C 
ATOM     20  C   UNL A   1      31.576  26.426  24.370  1.00  0.00     0.316 C 
BRANCH  20  21
ATOM     21  C   UNL A   1      30.343  25.605  24.773  1.00  0.00     0.430 C 
ATOM     22  F   UNL A   1      30.427  25.196  26.063  1.00  0.00    -0.167 F 
ATOM     23  F   UNL A   1      29.203  26.330  24.675  1.00  0.00    -0.167 F 
ATOM     24  F   UNL A   1      30.191  24.503  24.007  1.00  0.00    -0.167 F 
ENDBRANCH  20  21
ENDBRANCH   6   8
ENDBRANCH   5   6
ENDBRANCH   4   5
ENDBRANCH   3   4
ENDBRANCH   2   3
ENDBRANCH   1   2
BRANCH   1  25
ATOM     25  C   UNL A   1      36.883  21.033  25.322  1.00  0.00     0.261 C 
BRANCH  25  26
ATOM     26  O   UNL A   1      38.117  21.741  25.103  1.00  0.00    -0.460 OA
BRANCH  26  27
ATOM     27  C   UNL A   1      39.109  21.421  25.964  1.00  0.00     0.338 C 
ATOM     28  O   UNL A   1      39.671  20.341  26.088  1.00  0.00    -0.246 OA
BRANCH  27  29
ATOM     29  C   UNL A   1      39.584  22.625  26.665  1.00  0.00     0.060 A 
ATOM     30  C   UNL A   1      39.033  23.855  26.283  1.00  0.00     0.016 A 
ATOM     31  C   UNL A   1      40.634  22.568  27.584  1.00  0.00     0.016 A 
ATOM     32  C   UNL A   1      39.575  25.042  26.768  1.00  0.00     0.010 A 
ATOM     33  C   UNL A   1      41.188  23.761  28.056  1.00  0.00     0.010 A 
ATOM     34  C   UNL A   1      40.691  25.000  27.612  1.00  0.00    -0.014 A 
BRANCH  34  35
ATOM     35  C   UNL A   1      41.466  26.240  27.851  1.00  0.00     0.031 A 
ATOM     36  C   UNL A   1      40.816  27.347  28.634  1.00  0.00     0.074 A 
ATOM     37  C   UNL A   1      42.733  26.363  27.424  1.00  0.00     0.049 A 
ATOM     38  N   UNL A   1      41.264  28.546  28.910  1.00  0.00    -0.248 NA
ATOM     39  C   UNL A   1      39.482  27.063  29.186  1.00  0.00     0.031 C 
ATOM     40  C   UNL A   1      43.493  25.331  26.726  1.00  0.00     0.029 A 
ATOM     41  N   UNL A   1      43.603  27.420  27.521  1.00  0.00    -0.354 N 
ATOM     42  C   UNL A   1      40.269  29.154  29.664  1.00  0.00     0.074 A 
ATOM     43  C   UNL A   1      39.184  28.207  29.783  1.00  0.00     0.031 C 
ATOM     44  C   UNL A   1      44.719  25.807  26.448  1.00  0.00     0.029 A 
ATOM     45  C   UNL A   1      44.813  27.190  26.916  1.00  0.00     0.049 A 
ATOM     46  H   UNL A   1      43.381  28.261  27.980  1.00  0.00     0.167 HD
ATOM     47  C   UNL A   1      40.267  30.391  30.214  1.00  0.00     0.037 A 
ATOM     48  C   UNL A   1      45.863  28.015  26.739  1.00  0.00     0.037 A 
ATOM     49  C   UNL A   1      41.344  31.335  30.088  1.00  0.00     0.049 A 
ATOM     50  C   UNL A   1      45.793  29.424  27.267  1.00  0.00     0.074 A 
ATOM     51  C   UNL A   1      41.431  32.620  30.593  1.00  0.00     0.029 A 
ATOM     52  N   UNL A   1      42.527  31.092  29.403  1.00  0.00    -0.354 N 
ATOM     53  N   UNL A   1      44.838  30.005  27.954  1.00  0.00    -0.248 NA
ATOM     54  C   UNL A   1      46.942  30.295  26.986  1.00  0.00     0.031 C 
ATOM     55  C   UNL A   1      42.649  33.170  30.178  1.00  0.00     0.029 A 
ATOM     56  C   UNL A   1      43.340  32.212  29.452  1.00  0.00     0.049 A 
ATOM     57  H   UNL A   1      42.753  30.249  28.948  1.00  0.00     0.167 HD
ATOM     58  C   UNL A   1      45.275  31.301  28.195  1.00  0.00     0.074 A 
ATOM     59  C   UNL A   1      46.591  31.415  27.602  1.00  0.00     0.031 C 
ATOM     60  C   UNL A   1      44.641  32.310  28.845  1.00  0.00     0.037 A 
BRANCH  47  61
ATOM     61  C   UNL A   1      39.047  30.804  30.982  1.00  0.00     0.064 A 
ATOM     62  C   UNL A   1      37.947  31.399  30.347  1.00  0.00     0.173 A 
ATOM     63  C   UNL A   1      38.962  30.566  32.361  1.00  0.00     0.173 A 
ATOM     64  F   UNL A   1      37.989  31.664  29.033  1.00  0.00    -0.203 F 
ATOM     65  C   UNL A   1      36.811  31.755  31.069  1.00  0.00     0.198 A 
ATOM     66  C   UNL A   1      37.815  30.900  33.076  1.00  0.00     0.198 A 
ATOM     67  F   UNL A   1      39.988  30.000  33.015  1.00  0.00    -0.203 F 
ATOM     68  F   UNL A   1      35.785  32.355  30.449  1.00  0.00    -0.200 F 
ATOM     69  C   UNL A   1      36.742  31.498  32.430  1.00  0.00     0.200 A 
ATOM     70  F   UNL A   1      37.747  30.645  34.390  1.00  0.00    -0.200 F 
ATOM     71  F   UNL A   1      35.645  31.832  33.122  1.00  0.00    -0.200 F 
ENDBRANCH  47  61
BRANCH  48  72
ATOM     72  C   UNL A   1      47.066  27.537  26.010  1.00  0.00     0.064 A 
ATOM     73  C   UNL A   1      48.156  26.988  26.698  1.00  0.00     0.173 A 
ATOM     74  C   UNL A   1      47.153  27.627  24.613  1.00  0.00     0.173 A 
ATOM     75  F   UNL A   1      48.130  26.909  28.037  1.00  0.00    -0.203 F 
ATOM     76  C   UNL A   1      49.292  26.554  26.017  1.00  0.00     0.198 A 
ATOM     77  C   UNL A   1      48.278  27.168  23.931  1.00  0.00     0.198 A 
ATOM     78  F   UNL A   1      46.140  28.151  23.909  1.00  0.00    -0.203 F 
ATOM     79  F   UNL A   1      50.335  26.067  26.702  1.00  0.00    -0.200 F 
ATOM     80  C   UNL A   1      49.349  26.638  24.634  1.00  0.00     0.200 A 
ATOM     81  F   UNL A   1      48.326  27.244  22.594  1.00  0.00    -0.200 F 
ATOM     82  F   UNL A   1      50.439  26.213  23.980  1.00  0.00    -0.200 F 
ENDBRANCH  48  72
BRANCH  60  83
ATOM     83  C   UNL A   1      45.363  33.622  28.950  1.00  0.00     0.064 A 
ATOM     84  C   UNL A   1      45.173  34.637  28.001  1.00  0.00     0.173 A 
ATOM     85  C   UNL A   1      46.215  33.885  30.033  1.00  0.00     0.173 A 
ATOM     86  F   UNL A   1      44.378  34.429  26.940  1.00  0.00    -0.203 F 
ATOM     87  C   UNL A   1      45.827  35.860  28.121  1.00  0.00     0.198 A 
ATOM     88  C   UNL A   1      46.846  35.118  30.165  1.00  0.00     0.198 A 
ATOM     89  F   UNL A   1      46.423  32.949  30.972  1.00  0.00    -0.203 F 
ATOM     90  F   UNL A   1      45.665  36.800  27.180  1.00  0.00    -0.200 F 
ATOM     91  C   UNL A   1      46.657  36.102  29.206  1.00  0.00     0.200 A 
ATOM     92  F   UNL A   1      47.636  35.356  31.221  1.00  0.00    -0.200 F 
ATOM     93  F   UNL A   1      47.279  37.283  29.324  1.00  0.00    -0.200 F 
ENDBRANCH  60  83
ENDBRANCH  34  35
ENDBRANCH  27  29
ENDBRANCH  26  27
ENDBRANCH  25  26
ENDBRANCH   1  25
TORSDOF 15
ENDMDL
