MODEL 1
REMARK VINA RESULT:     -12.4      0.000      0.000
REMARK SMILES CC(C)=C1[C@H]2CC[C@@H]1[C@H](C(=O)NNC(=O)c1ccoc1C)[C@H]2C(=O)OCCOCCOC(=O)c1ccc(-c2c3nc(c(-c4c(F)c(F)c(F)c(F)c4F)c4ccc([nH]4)c(-c4c(F)c(F)c(F)c(F)c4F)c4nc(c(-c5c(F)c(F)c(F)c(F)c5F)c5ccc2[nH]5)C=C4)C=C3)cc1
REMARK SMILES IDX 27 1 26 2 25 3 23 4 24 5 22 6 1 7 2 8 3 9 4 10 5 11 8 12
REMARK SMILES IDX 6 13 7 14 9 15 10 16 11 17 12 18 13 20 14 21 15 23 16 24
REMARK SMILES IDX 17 25 20 26 18 27 19 28 21 29 28 30 29 31 30 32 31 33 32 34
REMARK SMILES IDX 33 35 34 36 35 37 96 38 36 39 95 40 37 41 38 42 39 43 89 44
REMARK SMILES IDX 40 45 94 46 88 47 90 48 41 49 93 50 87 51 86 52 42 54 74 55
REMARK SMILES IDX 54 56 73 57 55 58 58 59 72 60 91 61 56 62 57 63 71 65 92 66
REMARK SMILES IDX 59 67 43 68 44 69 52 70 45 71 46 72 50 73 53 74 47 75 48 76
REMARK SMILES IDX 51 77 49 78 75 79 76 80 84 81 77 82 78 83 82 84 85 85 79 86
REMARK SMILES IDX 80 87 83 88 81 89 60 90 61 91 69 92 62 93 63 94 67 95 70 96
REMARK SMILES IDX 64 97 65 98 68 99 66 100
REMARK H PARENT 12 19 13 22 90 53 58 64
REMARK Flexibility Score: inf
ROOT
ATOM      1  C   UNL A   1      34.745  29.729  27.310  1.00  0.00     0.202 C 
ENDROOT
BRANCH   1   2
ATOM      2  C   UNL A   1      33.773  29.112  26.297  1.00  0.00     0.261 C 
BRANCH   2   3
ATOM      3  O   UNL A   1      33.250  27.843  26.716  1.00  0.00    -0.463 OA
BRANCH   3   4
ATOM      4  C   UNL A   1      31.924  27.843  26.978  1.00  0.00     0.310 C 
ATOM      5  O   UNL A   1      31.353  28.658  27.702  1.00  0.00    -0.252 OA
BRANCH   4   6
ATOM      6  C   UNL A   1      31.120  26.773  26.257  1.00  0.00     0.119 C 
ATOM      7  C   UNL A   1      33.613  27.221  22.363  1.00  0.00     0.039 C 
ATOM      8  C   UNL A   1      32.400  27.653  23.131  1.00  0.00    -0.077 C 
ATOM      9  C   UNL A   1      31.834  29.007  22.804  1.00  0.00     0.039 C 
ATOM     10  C   UNL A   1      31.797  26.858  24.030  1.00  0.00    -0.064 C 
ATOM     11  C   UNL A   1      30.585  27.134  24.864  1.00  0.00     0.030 C 
ATOM     12  C   UNL A   1      32.023  25.428  24.458  1.00  0.00     0.029 C 
ATOM     13  C   UNL A   1      29.675  26.002  24.355  1.00  0.00     0.009 C 
ATOM     14  C   UNL A   1      30.664  24.882  23.984  1.00  0.00     0.009 C 
ATOM     15  C   UNL A   1      32.076  25.579  26.005  1.00  0.00     0.102 C 
BRANCH  15  16
ATOM     16  C   UNL A   1      31.748  24.281  26.748  1.00  0.00     0.243 C 
ATOM     17  O   UNL A   1      30.606  24.065  27.168  1.00  0.00    -0.273 OA
ATOM     18  N   UNL A   1      32.663  23.272  26.902  1.00  0.00    -0.267 N 
ATOM     19  H   UNL A   1      32.381  22.501  27.445  1.00  0.00     0.191 HD
BRANCH  18  20
ATOM     20  N   UNL A   1      33.951  23.222  26.370  1.00  0.00    -0.263 N 
ATOM     21  C   UNL A   1      34.496  22.113  25.748  1.00  0.00     0.273 C 
ATOM     22  H   UNL A   1      34.511  24.030  26.442  1.00  0.00     0.191 HD
ATOM     23  O   UNL A   1      35.706  21.911  25.801  1.00  0.00    -0.267 OA
BRANCH  21  24
ATOM     24  C   UNL A   1      33.616  21.219  25.015  1.00  0.00     0.082 A 
ATOM     25  C   UNL A   1      33.269  19.878  25.359  1.00  0.00     0.056 A 
ATOM     26  C   UNL A   1      33.067  21.425  23.756  1.00  0.00     0.113 A 
ATOM     27  C   UNL A   1      32.494  19.393  24.335  1.00  0.00     0.196 A 
ATOM     28  O   UNL A   1      32.356  20.330  23.365  1.00  0.00    -0.469 OA
ATOM     29  C   UNL A   1      33.138  22.519  22.762  1.00  0.00     0.088 C 
ENDBRANCH  21  24
ENDBRANCH  18  20
ENDBRANCH  15  16
ENDBRANCH   4   6
ENDBRANCH   3   4
ENDBRANCH   2   3
ENDBRANCH   1   2
BRANCH   1  30
ATOM     30  O   UNL A   1      34.583  31.106  27.622  1.00  0.00    -0.374 OA
BRANCH  30  31
ATOM     31  C   UNL A   1      33.263  31.653  27.640  1.00  0.00     0.202 C 
BRANCH  31  32
ATOM     32  C   UNL A   1      33.093  33.129  27.260  1.00  0.00     0.261 C 
BRANCH  32  33
ATOM     33  O   UNL A   1      32.331  33.860  28.242  1.00  0.00    -0.460 OA
BRANCH  33  34
ATOM     34  C   UNL A   1      32.967  34.933  28.769  1.00  0.00     0.338 C 
ATOM     35  O   UNL A   1      32.595  36.097  28.760  1.00  0.00    -0.246 OA
BRANCH  34  36
ATOM     36  C   UNL A   1      34.142  34.499  29.540  1.00  0.00     0.060 A 
ATOM     37  C   UNL A   1      35.398  34.562  28.923  1.00  0.00     0.016 A 
ATOM     38  C   UNL A   1      33.999  33.924  30.803  1.00  0.00     0.016 A 
ATOM     39  C   UNL A   1      36.514  34.015  29.555  1.00  0.00     0.010 A 
ATOM     40  C   UNL A   1      35.120  33.377  31.437  1.00  0.00     0.010 A 
ATOM     41  C   UNL A   1      36.374  33.385  30.799  1.00  0.00    -0.014 A 
BRANCH  41  42
ATOM     42  C   UNL A   1      37.494  32.584  31.349  1.00  0.00     0.031 A 
ATOM     43  C   UNL A   1      38.022  32.922  32.717  1.00  0.00     0.074 A 
ATOM     44  C   UNL A   1      38.023  31.560  30.656  1.00  0.00     0.049 A 
ATOM     45  N   UNL A   1      39.023  32.398  33.376  1.00  0.00    -0.248 NA
ATOM     46  C   UNL A   1      37.324  33.999  33.439  1.00  0.00     0.031 C 
ATOM     47  C   UNL A   1      37.574  31.109  29.343  1.00  0.00     0.029 A 
ATOM     48  N   UNL A   1      39.063  30.720  30.968  1.00  0.00    -0.354 N 
ATOM     49  C   UNL A   1      39.082  33.086  34.581  1.00  0.00     0.074 A 
ATOM     50  C   UNL A   1      38.033  34.082  34.553  1.00  0.00     0.031 C 
ATOM     51  C   UNL A   1      38.342  30.077  28.953  1.00  0.00     0.029 A 
ATOM     52  C   UNL A   1      39.354  29.817  29.976  1.00  0.00     0.049 A 
ATOM     53  H   UNL A   1      39.553  30.760  31.821  1.00  0.00     0.167 HD
ATOM     54  C   UNL A   1      39.930  32.899  35.620  1.00  0.00     0.037 A 
ATOM     55  C   UNL A   1      40.341  28.902  29.898  1.00  0.00     0.037 A 
ATOM     56  C   UNL A   1      40.967  31.904  35.653  1.00  0.00     0.049 A 
ATOM     57  C   UNL A   1      41.310  28.755  31.041  1.00  0.00     0.074 A 
ATOM     58  C   UNL A   1      41.864  31.625  36.670  1.00  0.00     0.029 A 
ATOM     59  N   UNL A   1      41.247  31.025  34.618  1.00  0.00    -0.354 N 
ATOM     60  N   UNL A   1      41.349  29.397  32.183  1.00  0.00    -0.248 NA
ATOM     61  C   UNL A   1      42.376  27.754  30.883  1.00  0.00     0.031 C 
ATOM     62  C   UNL A   1      42.715  30.603  36.233  1.00  0.00     0.029 A 
ATOM     63  C   UNL A   1      42.319  30.217  34.963  1.00  0.00     0.049 A 
ATOM     64  H   UNL A   1      40.757  30.981  33.765  1.00  0.00     0.167 HD
ATOM     65  C   UNL A   1      42.419  28.863  32.888  1.00  0.00     0.074 A 
ATOM     66  C   UNL A   1      43.001  27.836  32.049  1.00  0.00     0.031 C 
ATOM     67  C   UNL A   1      42.878  29.191  34.120  1.00  0.00     0.037 A 
BRANCH  54  68
ATOM     68  C   UNL A   1      39.782  33.809  36.802  1.00  0.00     0.064 A 
ATOM     69  C   UNL A   1      40.426  35.054  36.858  1.00  0.00     0.173 A 
ATOM     70  C   UNL A   1      38.962  33.443  37.880  1.00  0.00     0.173 A 
ATOM     71  F   UNL A   1      41.232  35.442  35.859  1.00  0.00    -0.203 F 
ATOM     72  C   UNL A   1      40.272  35.890  37.961  1.00  0.00     0.198 A 
ATOM     73  C   UNL A   1      38.791  34.292  38.970  1.00  0.00     0.198 A 
ATOM     74  F   UNL A   1      38.323  32.264  37.873  1.00  0.00    -0.203 F 
ATOM     75  F   UNL A   1      40.929  37.056  38.012  1.00  0.00    -0.200 F 
ATOM     76  C   UNL A   1      39.451  35.511  39.012  1.00  0.00     0.200 A 
ATOM     77  F   UNL A   1      37.990  33.928  39.982  1.00  0.00    -0.200 F 
ATOM     78  F   UNL A   1      39.300  36.318  40.072  1.00  0.00    -0.200 F 
ENDBRANCH  54  68
BRANCH  55  79
ATOM     79  C   UNL A   1      40.473  28.057  28.682  1.00  0.00     0.064 A 
ATOM     80  C   UNL A   1      39.843  26.807  28.598  1.00  0.00     0.173 A 
ATOM     81  C   UNL A   1      41.246  28.474  27.590  1.00  0.00     0.173 A 
ATOM     82  F   UNL A   1      39.115  26.355  29.630  1.00  0.00    -0.203 F 
ATOM     83  C   UNL A   1      39.995  25.999  27.473  1.00  0.00     0.198 A 
ATOM     84  C   UNL A   1      41.377  27.675  26.455  1.00  0.00     0.198 A 
ATOM     85  F   UNL A   1      41.872  29.659  27.623  1.00  0.00    -0.203 F 
ATOM     86  F   UNL A   1      39.418  24.790  27.437  1.00  0.00    -0.200 F 
ATOM     87  C   UNL A   1      40.758  26.437  26.401  1.00  0.00     0.200 A 
ATOM     88  F   UNL A   1      42.108  28.106  25.417  1.00  0.00    -0.200 F 
ATOM     89  F   UNL A   1      40.902  25.659  25.318  1.00  0.00    -0.200 F 
ENDBRANCH  55  79
BRANCH  67  90
ATOM     90  C   UNL A   1      44.043  28.413  34.656  1.00  0.00     0.064 A 
ATOM     91  C   UNL A   1      45.362  28.862  34.498  1.00  0.00     0.173 A 
ATOM     92  C   UNL A   1      43.833  27.232  35.384  1.00  0.00     0.173 A 
ATOM     93  F   UNL A   1      45.615  29.979  33.797  1.00  0.00    -0.203 F 
ATOM     94  C   UNL A   1      46.430  28.148  35.034  1.00  0.00     0.198 A 
ATOM     95  C   UNL A   1      44.901  26.535  35.941  1.00  0.00     0.198 A 
ATOM     96  F   UNL A   1      42.589  26.766  35.570  1.00  0.00    -0.203 F 
ATOM     97  F   UNL A   1      47.685  28.576  34.839  1.00  0.00    -0.200 F 
ATOM     98  C   UNL A   1      46.198  26.990  35.761  1.00  0.00     0.200 A 
ATOM     99  F   UNL A   1      44.674  25.422  36.653  1.00  0.00    -0.200 F 
ATOM    100  F   UNL A   1      47.226  26.308  36.285  1.00  0.00    -0.200 F 
ENDBRANCH  67  90
ENDBRANCH  41  42
ENDBRANCH  34  36
ENDBRANCH  33  34
ENDBRANCH  32  33
ENDBRANCH  31  32
ENDBRANCH  30  31
ENDBRANCH   1  30
TORSDOF 17
ENDMDL
MODEL 2
REMARK VINA RESULT:     -12.2      0.592      7.161
REMARK SMILES CC(C)=C1[C@H]2CC[C@@H]1[C@H](C(=O)NNC(=O)c1ccoc1C)[C@H]2C(=O)OCCOCCOC(=O)c1ccc(-c2c3nc(c(-c4c(F)c(F)c(F)c(F)c4F)c4ccc([nH]4)c(-c4c(F)c(F)c(F)c(F)c4F)c4nc(c(-c5c(F)c(F)c(F)c(F)c5F)c5ccc2[nH]5)C=C4)C=C3)cc1
REMARK SMILES IDX 27 1 26 2 25 3 23 4 24 5 22 6 1 7 2 8 3 9 4 10 5 11 8 12
REMARK SMILES IDX 6 13 7 14 9 15 10 16 11 17 12 18 13 20 14 21 15 23 16 24
REMARK SMILES IDX 17 25 20 26 18 27 19 28 21 29 28 30 29 31 30 32 31 33 32 34
REMARK SMILES IDX 33 35 34 36 35 37 96 38 36 39 95 40 37 41 38 42 39 43 89 44
REMARK SMILES IDX 40 45 94 46 88 47 90 48 41 49 93 50 87 51 86 52 42 54 74 55
REMARK SMILES IDX 54 56 73 57 55 58 58 59 72 60 91 61 56 62 57 63 71 65 92 66
REMARK SMILES IDX 59 67 43 68 44 69 52 70 45 71 46 72 50 73 53 74 47 75 48 76
REMARK SMILES IDX 51 77 49 78 75 79 76 80 84 81 77 82 78 83 82 84 85 85 79 86
REMARK SMILES IDX 80 87 83 88 81 89 60 90 61 91 69 92 62 93 63 94 67 95 70 96
REMARK SMILES IDX 64 97 65 98 68 99 66 100
REMARK H PARENT 12 19 13 22 90 53 58 64
REMARK Flexibility Score: inf
ROOT
ATOM      1  C   UNL A   1      33.293  29.901  26.405  1.00  0.00     0.202 C 
ENDROOT
BRANCH   1   2
ATOM      2  C   UNL A   1      33.849  28.636  27.072  1.00  0.00     0.261 C 
BRANCH   2   3
ATOM      3  O   UNL A   1      33.188  27.436  26.647  1.00  0.00    -0.463 OA
BRANCH   3   4
ATOM      4  C   UNL A   1      31.895  27.342  27.031  1.00  0.00     0.310 C 
ATOM      5  O   UNL A   1      31.388  27.994  27.942  1.00  0.00    -0.252 OA
BRANCH   4   6
ATOM      6  C   UNL A   1      31.040  26.392  26.209  1.00  0.00     0.119 C 
ATOM      7  C   UNL A   1      33.664  26.971  22.419  1.00  0.00     0.039 C 
ATOM      8  C   UNL A   1      32.462  27.424  23.193  1.00  0.00    -0.077 C 
ATOM      9  C   UNL A   1      31.998  28.836  22.964  1.00  0.00     0.039 C 
ATOM     10  C   UNL A   1      31.783  26.606  24.011  1.00  0.00    -0.064 C 
ATOM     11  C   UNL A   1      30.569  26.898  24.838  1.00  0.00     0.030 C 
ATOM     12  C   UNL A   1      31.899  25.133  24.327  1.00  0.00     0.029 C 
ATOM     13  C   UNL A   1      29.599  25.877  24.220  1.00  0.00     0.009 C 
ATOM     14  C   UNL A   1      30.519  24.723  23.781  1.00  0.00     0.009 C 
ATOM     15  C   UNL A   1      31.919  25.157  25.882  1.00  0.00     0.102 C 
BRANCH  15  16
ATOM     16  C   UNL A   1      31.484  23.831  26.511  1.00  0.00     0.243 C 
ATOM     17  O   UNL A   1      30.295  23.615  26.770  1.00  0.00    -0.273 OA
ATOM     18  N   UNL A   1      32.360  22.800  26.728  1.00  0.00    -0.267 N 
ATOM     19  H   UNL A   1      32.002  22.008  27.191  1.00  0.00     0.191 HD
BRANCH  18  20
ATOM     20  N   UNL A   1      33.705  22.752  26.361  1.00  0.00    -0.263 N 
ATOM     21  C   UNL A   1      34.254  21.790  25.533  1.00  0.00     0.273 C 
ATOM     22  H   UNL A   1      34.304  23.449  26.716  1.00  0.00     0.191 HD
ATOM     23  O   UNL A   1      35.427  21.454  25.674  1.00  0.00    -0.267 OA
BRANCH  21  24
ATOM     24  C   UNL A   1      33.428  21.216  24.484  1.00  0.00     0.082 A 
ATOM     25  C   UNL A   1      32.924  21.880  23.326  1.00  0.00     0.056 A 
ATOM     26  C   UNL A   1      32.830  19.963  24.474  1.00  0.00     0.113 A 
ATOM     27  C   UNL A   1      32.120  20.981  22.670  1.00  0.00     0.196 A 
ATOM     28  O   UNL A   1      32.069  19.811  23.354  1.00  0.00    -0.469 OA
ATOM     29  C   UNL A   1      32.800  18.824  25.417  1.00  0.00     0.088 C 
ENDBRANCH  21  24
ENDBRANCH  18  20
ENDBRANCH  15  16
ENDBRANCH   4   6
ENDBRANCH   3   4
ENDBRANCH   2   3
ENDBRANCH   1   2
BRANCH   1  30
ATOM     30  O   UNL A   1      32.899  30.971  27.252  1.00  0.00    -0.374 OA
BRANCH  30  31
ATOM     31  C   UNL A   1      31.783  31.776  26.865  1.00  0.00     0.202 C 
BRANCH  31  32
ATOM     32  C   UNL A   1      31.859  33.284  27.130  1.00  0.00     0.261 C 
BRANCH  32  33
ATOM     33  O   UNL A   1      33.194  33.710  27.472  1.00  0.00    -0.460 OA
BRANCH  33  34
ATOM     34  C   UNL A   1      33.259  34.628  28.465  1.00  0.00     0.338 C 
ATOM     35  O   UNL A   1      32.459  35.520  28.708  1.00  0.00    -0.246 OA
BRANCH  34  36
ATOM     36  C   UNL A   1      34.375  34.319  29.373  1.00  0.00     0.060 A 
ATOM     37  C   UNL A   1      35.679  34.552  28.919  1.00  0.00     0.016 A 
ATOM     38  C   UNL A   1      34.150  33.694  30.599  1.00  0.00     0.016 A 
ATOM     39  C   UNL A   1      36.768  34.126  29.679  1.00  0.00     0.010 A 
ATOM     40  C   UNL A   1      35.243  33.269  31.362  1.00  0.00     0.010 A 
ATOM     41  C   UNL A   1      36.555  33.448  30.888  1.00  0.00    -0.014 A 
BRANCH  41  42
ATOM     42  C   UNL A   1      37.690  32.774  31.563  1.00  0.00     0.031 A 
ATOM     43  C   UNL A   1      38.355  31.613  30.874  1.00  0.00     0.074 A 
ATOM     44  C   UNL A   1      38.139  33.196  32.758  1.00  0.00     0.049 A 
ATOM     45  N   UNL A   1      39.325  30.841  31.292  1.00  0.00    -0.248 NA
ATOM     46  C   UNL A   1      37.857  31.278  29.530  1.00  0.00     0.031 C 
ATOM     47  C   UNL A   1      37.608  34.331  33.506  1.00  0.00     0.029 A 
ATOM     48  N   UNL A   1      39.145  32.705  33.553  1.00  0.00    -0.354 N 
ATOM     49  C   UNL A   1      39.544  29.925  30.271  1.00  0.00     0.074 A 
ATOM     50  C   UNL A   1      38.592  30.221  29.224  1.00  0.00     0.031 C 
ATOM     51  C   UNL A   1      38.287  34.445  34.661  1.00  0.00     0.029 A 
ATOM     52  C   UNL A   1      39.278  33.373  34.744  1.00  0.00     0.049 A 
ATOM     53  H   UNL A   1      39.717  31.947  33.293  1.00  0.00     0.167 HD
ATOM     54  C   UNL A   1      40.463  28.933  30.209  1.00  0.00     0.037 A 
ATOM     55  C   UNL A   1      40.094  33.131  35.790  1.00  0.00     0.037 A 
ATOM     56  C   UNL A   1      41.417  28.644  31.246  1.00  0.00     0.049 A 
ATOM     57  C   UNL A   1      41.065  31.982  35.723  1.00  0.00     0.074 A 
ATOM     58  C   UNL A   1      42.401  27.670  31.266  1.00  0.00     0.029 A 
ATOM     59  N   UNL A   1      41.504  29.327  32.449  1.00  0.00    -0.354 N 
ATOM     60  N   UNL A   1      41.278  31.132  34.748  1.00  0.00    -0.248 NA
ATOM     61  C   UNL A   1      41.911  31.756  36.905  1.00  0.00     0.031 C 
ATOM     62  C   UNL A   1      43.057  27.738  32.501  1.00  0.00     0.029 A 
ATOM     63  C   UNL A   1      42.510  28.782  33.230  1.00  0.00     0.049 A 
ATOM     64  H   UNL A   1      40.934  30.087  32.709  1.00  0.00     0.167 HD
ATOM     65  C   UNL A   1      42.295  30.293  35.184  1.00  0.00     0.074 A 
ATOM     66  C   UNL A   1      42.664  30.740  36.511  1.00  0.00     0.031 C 
ATOM     67  C   UNL A   1      42.872  29.247  34.544  1.00  0.00     0.037 A 
BRANCH  54  68
ATOM     68  C   UNL A   1      40.464  28.071  28.983  1.00  0.00     0.064 A 
ATOM     69  C   UNL A   1      41.217  28.406  27.848  1.00  0.00     0.173 A 
ATOM     70  C   UNL A   1      39.726  26.878  28.954  1.00  0.00     0.173 A 
ATOM     71  F   UNL A   1      41.927  29.544  27.821  1.00  0.00    -0.203 F 
ATOM     72  C   UNL A   1      41.212  27.590  26.720  1.00  0.00     0.198 A 
ATOM     73  C   UNL A   1      39.743  26.052  27.834  1.00  0.00     0.198 A 
ATOM     74  F   UNL A   1      38.992  26.512  30.016  1.00  0.00    -0.203 F 
ATOM     75  F   UNL A   1      41.905  27.951  25.631  1.00  0.00    -0.200 F 
ATOM     76  C   UNL A   1      40.480  26.412  26.716  1.00  0.00     0.200 A 
ATOM     77  F   UNL A   1      39.042  24.909  27.836  1.00  0.00    -0.200 F 
ATOM     78  F   UNL A   1      40.480  25.624  25.632  1.00  0.00    -0.200 F 
ENDBRANCH  54  68
BRANCH  55  79
ATOM     79  C   UNL A   1      40.019  33.987  37.002  1.00  0.00     0.064 A 
ATOM     80  C   UNL A   1      40.824  35.127  37.133  1.00  0.00     0.173 A 
ATOM     81  C   UNL A   1      39.156  33.670  38.061  1.00  0.00     0.173 A 
ATOM     82  F   UNL A   1      41.684  35.454  36.157  1.00  0.00    -0.203 F 
ATOM     83  C   UNL A   1      40.780  35.910  38.284  1.00  0.00     0.198 A 
ATOM     84  C   UNL A   1      39.095  34.469  39.202  1.00  0.00     0.198 A 
ATOM     85  F   UNL A   1      38.369  32.588  37.986  1.00  0.00    -0.203 F 
ATOM     86  F   UNL A   1      41.591  36.970  38.402  1.00  0.00    -0.200 F 
ATOM     87  C   UNL A   1      39.912  35.583  39.315  1.00  0.00     0.200 A 
ATOM     88  F   UNL A   1      38.249  34.154  40.192  1.00  0.00    -0.200 F 
ATOM     89  F   UNL A   1      39.869  36.338  40.422  1.00  0.00    -0.200 F 
ENDBRANCH  55  79
BRANCH  67  90
ATOM     90  C   UNL A   1      43.989  28.534  35.248  1.00  0.00     0.064 A 
ATOM     91  C   UNL A   1      43.747  27.429  36.077  1.00  0.00     0.173 A 
ATOM     92  C   UNL A   1      45.320  28.928  35.047  1.00  0.00     0.173 A 
ATOM     93  F   UNL A   1      42.489  27.023  36.311  1.00  0.00    -0.203 F 
ATOM     94  C   UNL A   1      44.797  26.755  36.693  1.00  0.00     0.198 A 
ATOM     95  C   UNL A   1      46.369  28.235  35.644  1.00  0.00     0.198 A 
ATOM     96  F   UNL A   1      45.603  29.974  34.257  1.00  0.00    -0.203 F 
ATOM     97  F   UNL A   1      44.542  25.724  37.510  1.00  0.00    -0.200 F 
ATOM     98  C   UNL A   1      46.107  27.153  36.470  1.00  0.00     0.200 A 
ATOM     99  F   UNL A   1      47.635  28.615  35.418  1.00  0.00    -0.200 F 
ATOM    100  F   UNL A   1      47.118  26.497  37.056  1.00  0.00    -0.200 F 
ENDBRANCH  67  90
ENDBRANCH  41  42
ENDBRANCH  34  36
ENDBRANCH  33  34
ENDBRANCH  32  33
ENDBRANCH  31  32
ENDBRANCH  30  31
ENDBRANCH   1  30
TORSDOF 17
ENDMDL
MODEL 3
REMARK VINA RESULT:     -12.1      1.943      3.987
REMARK SMILES CC(C)=C1[C@H]2CC[C@@H]1[C@H](C(=O)NNC(=O)c1ccoc1C)[C@H]2C(=O)OCCOCCOC(=O)c1ccc(-c2c3nc(c(-c4c(F)c(F)c(F)c(F)c4F)c4ccc([nH]4)c(-c4c(F)c(F)c(F)c(F)c4F)c4nc(c(-c5c(F)c(F)c(F)c(F)c5F)c5ccc2[nH]5)C=C4)C=C3)cc1
REMARK SMILES IDX 27 1 26 2 25 3 23 4 24 5 22 6 1 7 2 8 3 9 4 10 5 11 8 12
REMARK SMILES IDX 6 13 7 14 9 15 10 16 11 17 12 18 13 20 14 21 15 23 16 24
REMARK SMILES IDX 17 25 20 26 18 27 19 28 21 29 28 30 29 31 30 32 31 33 32 34
REMARK SMILES IDX 33 35 34 36 35 37 96 38 36 39 95 40 37 41 38 42 39 43 89 44
REMARK SMILES IDX 40 45 94 46 88 47 90 48 41 49 93 50 87 51 86 52 42 54 74 55
REMARK SMILES IDX 54 56 73 57 55 58 58 59 72 60 91 61 56 62 57 63 71 65 92 66
REMARK SMILES IDX 59 67 43 68 44 69 52 70 45 71 46 72 50 73 53 74 47 75 48 76
REMARK SMILES IDX 51 77 49 78 75 79 76 80 84 81 77 82 78 83 82 84 85 85 79 86
REMARK SMILES IDX 80 87 83 88 81 89 60 90 61 91 69 92 62 93 63 94 67 95 70 96
REMARK SMILES IDX 64 97 65 98 68 99 66 100
REMARK H PARENT 12 19 13 22 90 53 58 64
REMARK Flexibility Score: inf
ROOT
ATOM      1  C   UNL A   1      34.622  30.558  27.128  1.00  0.00     0.202 C 
ENDROOT
BRANCH   1   2
ATOM      2  C   UNL A   1      34.596  29.025  27.088  1.00  0.00     0.261 C 
BRANCH   2   3
ATOM      3  O   UNL A   1      33.426  28.463  27.699  1.00  0.00    -0.463 OA
BRANCH   3   4
ATOM      4  C   UNL A   1      32.506  27.998  26.825  1.00  0.00     0.310 C 
ATOM      5  O   UNL A   1      31.293  27.986  27.028  1.00  0.00    -0.252 OA
BRANCH   4   6
ATOM      6  C   UNL A   1      33.059  27.522  25.492  1.00  0.00     0.119 C 
ATOM      7  C   UNL A   1      30.472  23.663  25.552  1.00  0.00     0.039 C 
ATOM      8  C   UNL A   1      31.786  24.298  25.901  1.00  0.00    -0.077 C 
ATOM      9  C   UNL A   1      32.570  23.668  27.019  1.00  0.00     0.039 C 
ATOM     10  C   UNL A   1      32.283  25.342  25.220  1.00  0.00    -0.064 C 
ATOM     11  C   UNL A   1      33.571  26.076  25.434  1.00  0.00     0.030 C 
ATOM     12  C   UNL A   1      31.825  26.082  23.986  1.00  0.00     0.029 C 
ATOM     13  C   UNL A   1      34.229  25.819  24.067  1.00  0.00     0.009 C 
ATOM     14  C   UNL A   1      33.033  25.722  23.102  1.00  0.00     0.009 C 
ATOM     15  C   UNL A   1      31.889  27.557  24.476  1.00  0.00     0.102 C 
BRANCH  15  16
ATOM     16  C   UNL A   1      32.016  28.566  23.332  1.00  0.00     0.243 C 
ATOM     17  O   UNL A   1      33.099  29.108  23.084  1.00  0.00    -0.273 OA
ATOM     18  N   UNL A   1      30.978  28.845  22.480  1.00  0.00    -0.267 N 
ATOM     19  H   UNL A   1      31.134  29.551  21.812  1.00  0.00     0.191 HD
BRANCH  18  20
ATOM     20  N   UNL A   1      29.724  28.235  22.460  1.00  0.00    -0.263 N 
ATOM     21  C   UNL A   1      28.529  28.901  22.661  1.00  0.00     0.273 C 
ATOM     22  H   UNL A   1      29.688  27.265  22.294  1.00  0.00     0.191 HD
ATOM     23  O   UNL A   1      27.577  28.316  23.169  1.00  0.00    -0.267 OA
BRANCH  21  24
ATOM     24  C   UNL A   1      28.419  30.285  22.232  1.00  0.00     0.082 A 
ATOM     25  C   UNL A   1      28.065  30.758  20.932  1.00  0.00     0.056 A 
ATOM     26  C   UNL A   1      28.791  31.418  22.942  1.00  0.00     0.113 A 
ATOM     27  C   UNL A   1      28.181  32.125  20.961  1.00  0.00     0.196 A 
ATOM     28  O   UNL A   1      28.609  32.535  22.181  1.00  0.00    -0.469 OA
ATOM     29  C   UNL A   1      29.376  31.655  24.280  1.00  0.00     0.088 C 
ENDBRANCH  21  24
ENDBRANCH  18  20
ENDBRANCH  15  16
ENDBRANCH   4   6
ENDBRANCH   3   4
ENDBRANCH   2   3
ENDBRANCH   1   2
BRANCH   1  30
ATOM     30  O   UNL A   1      33.613  31.213  27.884  1.00  0.00    -0.374 OA
BRANCH  30  31
ATOM     31  C   UNL A   1      32.524  31.824  27.188  1.00  0.00     0.202 C 
BRANCH  31  32
ATOM     32  C   UNL A   1      32.449  33.355  27.176  1.00  0.00     0.261 C 
BRANCH  32  33
ATOM     33  O   UNL A   1      32.181  33.898  28.485  1.00  0.00    -0.460 OA
BRANCH  33  34
ATOM     34  C   UNL A   1      32.939  34.968  28.821  1.00  0.00     0.338 C 
ATOM     35  O   UNL A   1      32.664  36.150  28.675  1.00  0.00    -0.246 OA
BRANCH  34  36
ATOM     36  C   UNL A   1      34.127  34.536  29.573  1.00  0.00     0.060 A 
ATOM     37  C   UNL A   1      35.361  34.528  28.910  1.00  0.00     0.016 A 
ATOM     38  C   UNL A   1      34.011  34.028  30.866  1.00  0.00     0.016 A 
ATOM     39  C   UNL A   1      36.481  33.977  29.531  1.00  0.00     0.010 A 
ATOM     40  C   UNL A   1      35.137  33.477  31.488  1.00  0.00     0.010 A 
ATOM     41  C   UNL A   1      36.367  33.413  30.809  1.00  0.00    -0.014 A 
BRANCH  41  42
ATOM     42  C   UNL A   1      37.481  32.604  31.359  1.00  0.00     0.031 A 
ATOM     43  C   UNL A   1      38.009  32.938  32.728  1.00  0.00     0.074 A 
ATOM     44  C   UNL A   1      38.003  31.577  30.667  1.00  0.00     0.049 A 
ATOM     45  N   UNL A   1      39.006  32.407  33.388  1.00  0.00    -0.248 NA
ATOM     46  C   UNL A   1      37.319  34.019  33.449  1.00  0.00     0.031 C 
ATOM     47  C   UNL A   1      37.553  31.129  29.353  1.00  0.00     0.029 A 
ATOM     48  N   UNL A   1      39.038  30.729  30.979  1.00  0.00    -0.354 N 
ATOM     49  C   UNL A   1      39.069  33.094  34.594  1.00  0.00     0.074 A 
ATOM     50  C   UNL A   1      38.027  34.097  34.565  1.00  0.00     0.031 C 
ATOM     51  C   UNL A   1      38.315  30.092  28.963  1.00  0.00     0.029 A 
ATOM     52  C   UNL A   1      39.324  29.825  29.987  1.00  0.00     0.049 A 
ATOM     53  H   UNL A   1      39.526  30.766  31.833  1.00  0.00     0.167 HD
ATOM     54  C   UNL A   1      39.914  32.901  35.633  1.00  0.00     0.037 A 
ATOM     55  C   UNL A   1      40.304  28.903  29.910  1.00  0.00     0.037 A 
ATOM     56  C   UNL A   1      40.944  31.898  35.667  1.00  0.00     0.049 A 
ATOM     57  C   UNL A   1      41.271  28.749  31.054  1.00  0.00     0.074 A 
ATOM     58  C   UNL A   1      41.838  31.613  36.685  1.00  0.00     0.029 A 
ATOM     59  N   UNL A   1      41.220  31.018  34.632  1.00  0.00    -0.354 N 
ATOM     60  N   UNL A   1      41.313  29.390  32.196  1.00  0.00    -0.248 NA
ATOM     61  C   UNL A   1      42.331  27.741  30.897  1.00  0.00     0.031 C 
ATOM     62  C   UNL A   1      42.683  30.585  36.249  1.00  0.00     0.029 A 
ATOM     63  C   UNL A   1      42.285  30.202  34.977  1.00  0.00     0.049 A 
ATOM     64  H   UNL A   1      40.731  30.978  33.778  1.00  0.00     0.167 HD
ATOM     65  C   UNL A   1      42.378  28.848  32.902  1.00  0.00     0.074 A 
ATOM     66  C   UNL A   1      42.955  27.818  32.064  1.00  0.00     0.031 C 
ATOM     67  C   UNL A   1      42.838  29.173  34.135  1.00  0.00     0.037 A 
BRANCH  54  68
ATOM     68  C   UNL A   1      39.771  33.811  36.816  1.00  0.00     0.064 A 
ATOM     69  C   UNL A   1      40.416  35.055  36.869  1.00  0.00     0.173 A 
ATOM     70  C   UNL A   1      38.954  33.446  37.897  1.00  0.00     0.173 A 
ATOM     71  F   UNL A   1      41.220  35.442  35.867  1.00  0.00    -0.203 F 
ATOM     72  C   UNL A   1      40.267  35.891  37.972  1.00  0.00     0.198 A 
ATOM     73  C   UNL A   1      38.788  34.296  38.986  1.00  0.00     0.198 A 
ATOM     74  F   UNL A   1      38.314  32.268  37.892  1.00  0.00    -0.203 F 
ATOM     75  F   UNL A   1      40.926  37.057  38.022  1.00  0.00    -0.200 F 
ATOM     76  C   UNL A   1      39.449  35.514  39.026  1.00  0.00     0.200 A 
ATOM     77  F   UNL A   1      37.989  33.933  40.001  1.00  0.00    -0.200 F 
ATOM     78  F   UNL A   1      39.302  36.321  40.086  1.00  0.00    -0.200 F 
ENDBRANCH  54  68
BRANCH  55  79
ATOM     79  C   UNL A   1      40.431  28.058  28.694  1.00  0.00     0.064 A 
ATOM     80  C   UNL A   1      39.798  26.810  28.611  1.00  0.00     0.173 A 
ATOM     81  C   UNL A   1      41.205  28.473  27.600  1.00  0.00     0.173 A 
ATOM     82  F   UNL A   1      39.070  26.360  29.644  1.00  0.00    -0.203 F 
ATOM     83  C   UNL A   1      39.946  26.001  27.486  1.00  0.00     0.198 A 
ATOM     84  C   UNL A   1      41.331  27.674  26.465  1.00  0.00     0.198 A 
ATOM     85  F   UNL A   1      41.834  29.656  27.632  1.00  0.00    -0.203 F 
ATOM     86  F   UNL A   1      39.366  24.794  27.450  1.00  0.00    -0.200 F 
ATOM     87  C   UNL A   1      40.708  26.437  26.412  1.00  0.00     0.200 A 
ATOM     88  F   UNL A   1      42.062  28.102  25.426  1.00  0.00    -0.200 F 
ATOM     89  F   UNL A   1      40.849  25.659  25.329  1.00  0.00    -0.200 F 
ENDBRANCH  55  79
BRANCH  67  90
ATOM     90  C   UNL A   1      43.998  28.386  34.672  1.00  0.00     0.064 A 
ATOM     91  C   UNL A   1      43.810  27.183  35.367  1.00  0.00     0.173 A 
ATOM     92  C   UNL A   1      45.313  28.814  34.440  1.00  0.00     0.173 A 
ATOM     93  F   UNL A   1      42.570  26.740  35.626  1.00  0.00    -0.203 F 
ATOM     94  C   UNL A   1      44.897  26.445  35.825  1.00  0.00     0.198 A 
ATOM     95  C   UNL A   1      46.399  28.061  34.877  1.00  0.00     0.198 A 
ATOM     96  F   UNL A   1      45.545  29.955  33.773  1.00  0.00    -0.203 F 
ATOM     97  F   UNL A   1      44.695  25.317  36.519  1.00  0.00    -0.200 F 
ATOM     98  C   UNL A   1      46.190  26.880  35.573  1.00  0.00     0.200 A 
ATOM     99  F   UNL A   1      47.647  28.477  34.622  1.00  0.00    -0.200 F 
ATOM    100  F   UNL A   1      47.236  26.164  36.007  1.00  0.00    -0.200 F 
ENDBRANCH  67  90
ENDBRANCH  41  42
ENDBRANCH  34  36
ENDBRANCH  33  34
ENDBRANCH  32  33
ENDBRANCH  31  32
ENDBRANCH  30  31
ENDBRANCH   1  30
TORSDOF 17
ENDMDL
