MODEL 1
REMARK VINA RESULT:     -12.9      0.000      0.000
REMARK SMILES Cn1cc([C@@H]2CC(OCCOCCOC(=O)c3ccc(-c4c5nc(c(-c6c(F)c(F)c(F)c(F)c6F)c6ccc([nH]6)c(-c6c(F)c(F)c(F)c(F)c6F)c6nc(c(-c7c(F)c(F)c(F)c(F)c7F)c7ccc4[nH]7)C=C6)C=C5)cc3)=Nc3c2sc(C(=O)[O-])c3-c2ccc(Cl)cc2)cn1
REMARK SMILES IDX 12 1 11 2 10 3 9 4 8 5 7 6 5 7 6 8 82 9 81 10 83 11 80 12
REMARK SMILES IDX 88 13 84 14 4 15 1 16 2 17 3 18 97 19 96 20 89 21 90 22
REMARK SMILES IDX 95 23 91 24 94 25 92 26 93 27 85 28 86 29 87 30 13 31 14 32
REMARK SMILES IDX 15 33 16 34 17 35 18 36 79 37 19 38 78 39 20 40 21 41 22 42
REMARK SMILES IDX 72 43 23 44 77 45 71 46 73 47 24 48 76 49 70 50 69 51 25 53
REMARK SMILES IDX 57 54 37 55 56 56 38 57 41 58 55 59 74 60 39 61 40 62 54 64
REMARK SMILES IDX 75 65 42 66 26 67 27 68 35 69 28 70 29 71 33 72 36 73 30 74
REMARK SMILES IDX 31 75 34 76 32 77 58 78 59 79 67 80 60 81 61 82 65 83 68 84
REMARK SMILES IDX 62 85 63 86 66 87 64 88 43 89 44 90 52 91 45 92 46 93 50 94
REMARK SMILES IDX 53 95 47 96 48 97 51 98 49 99
REMARK H PARENT 73 52 41 63
REMARK Flexibility Score: inf
ROOT
ATOM      1  C   UNL A   1      41.433  21.220  26.813  1.00  0.00     0.202 C 
ENDROOT
BRANCH   1   2
ATOM      2  O   UNL A   1      40.622  22.130  26.069  1.00  0.00    -0.374 OA
BRANCH   2   3
ATOM      3  C   UNL A   1      39.244  22.135  26.451  1.00  0.00     0.202 C 
BRANCH   3   4
ATOM      4  C   UNL A   1      38.523  23.424  26.052  1.00  0.00     0.259 C 
BRANCH   4   5
ATOM      5  O   UNL A   1      37.132  23.412  26.445  1.00  0.00    -0.478 OA
BRANCH   5   6
ATOM      6  C   UNL A   1      36.089  23.346  25.582  1.00  0.00     0.189 C 
ATOM      7  C   UNL A   1      34.646  21.960  23.940  1.00  0.00     0.074 C 
ATOM      8  C   UNL A   1      36.003  22.144  24.647  1.00  0.00     0.111 C 
ATOM      9  C   UNL A   1      33.885  23.239  23.982  1.00  0.00     0.040 A 
ATOM     10  C   UNL A   1      34.171  24.314  24.775  1.00  0.00     0.090 A 
ATOM     11  S   UNL A   1      32.522  23.512  23.015  1.00  0.00    -0.135 S 
ATOM     12  N   UNL A   1      35.272  24.354  25.638  1.00  0.00    -0.216 NA
ATOM     13  C   UNL A   1      33.204  25.374  24.676  1.00  0.00     0.028 A 
ATOM     14  C   UNL A   1      32.246  25.069  23.704  1.00  0.00     0.060 A 
BRANCH   7  15
ATOM     15  C   UNL A   1      33.815  20.784  24.428  1.00  0.00    -0.001 A 
ATOM     16  C   UNL A   1      32.923  17.400  25.363  1.00  0.00     0.173 C 
ATOM     17  N   UNL A   1      33.059  18.811  25.087  1.00  0.00    -0.276 N 
ATOM     18  C   UNL A   1      34.155  19.448  24.584  1.00  0.00     0.112 A 
ATOM     19  N   UNL A   1      32.039  19.645  25.340  1.00  0.00    -0.182 NA
ATOM     20  C   UNL A   1      32.495  20.835  24.944  1.00  0.00     0.139 A 
ENDBRANCH   7  15
BRANCH  13  21
ATOM     21  C   UNL A   1      33.215  26.641  25.413  1.00  0.00    -0.015 A 
ATOM     22  C   UNL A   1      32.396  26.838  26.537  1.00  0.00     0.010 A 
ATOM     23  C   UNL A   1      34.009  27.703  24.960  1.00  0.00     0.010 A 
ATOM     24  C   UNL A   1      32.298  28.101  27.131  1.00  0.00     0.021 A 
ATOM     25  C   UNL A   1      33.926  28.961  25.566  1.00  0.00     0.021 A 
ATOM     26  C   UNL A   1      33.051  29.161  26.631  1.00  0.00     0.041 A 
ATOM     27  Cl  UNL A   1      32.884  30.729  27.319  1.00  0.00    -0.084 Cl
ENDBRANCH  13  21
BRANCH  14  28
ATOM     28  C   UNL A   1      31.112  25.787  23.159  1.00  0.00     0.082 C 
ATOM     29  O   UNL A   1      31.113  26.668  22.309  1.00  0.00    -0.544 OA
ATOM     30  O   UNL A   1      29.935  25.426  23.707  1.00  0.00    -0.544 OA
ENDBRANCH  14  28
ENDBRANCH   5   6
ENDBRANCH   4   5
ENDBRANCH   3   4
ENDBRANCH   2   3
ENDBRANCH   1   2
BRANCH   1  31
ATOM     31  C   UNL A   1      42.123  20.196  25.936  1.00  0.00     0.261 C 
BRANCH  31  32
ATOM     32  O   UNL A   1      43.515  20.407  26.064  1.00  0.00    -0.460 OA
BRANCH  32  33
ATOM     33  C   UNL A   1      44.166  20.726  24.928  1.00  0.00     0.338 C 
ATOM     34  O   UNL A   1      44.484  19.998  23.999  1.00  0.00    -0.246 OA
BRANCH  33  35
ATOM     35  C   UNL A   1      44.565  22.119  25.090  1.00  0.00     0.060 A 
ATOM     36  C   UNL A   1      45.309  22.385  26.232  1.00  0.00     0.016 A 
ATOM     37  C   UNL A   1      43.862  23.109  24.382  1.00  0.00     0.016 A 
ATOM     38  C   UNL A   1      45.062  23.573  26.866  1.00  0.00     0.010 A 
ATOM     39  C   UNL A   1      43.590  24.279  25.033  1.00  0.00     0.010 A 
ATOM     40  C   UNL A   1      44.109  24.440  26.313  1.00  0.00    -0.014 A 
BRANCH  40  41
ATOM     41  C   UNL A   1      43.795  25.646  27.032  1.00  0.00     0.031 A 
ATOM     42  C   UNL A   1      44.805  26.673  26.729  1.00  0.00     0.074 A 
ATOM     43  C   UNL A   1      42.690  25.791  27.785  1.00  0.00     0.049 A 
ATOM     44  N   UNL A   1      45.832  26.971  27.452  1.00  0.00    -0.248 NA
ATOM     45  C   UNL A   1      44.860  27.203  25.357  1.00  0.00     0.031 C 
ATOM     46  C   UNL A   1      41.541  24.889  27.892  1.00  0.00     0.029 A 
ATOM     47  N   UNL A   1      42.334  26.845  28.573  1.00  0.00    -0.354 N 
ATOM     48  C   UNL A   1      46.497  27.948  26.723  1.00  0.00     0.074 A 
ATOM     49  C   UNL A   1      46.048  27.812  25.367  1.00  0.00     0.031 C 
ATOM     50  C   UNL A   1      40.525  25.530  28.519  1.00  0.00     0.029 A 
ATOM     51  C   UNL A   1      41.001  26.822  28.980  1.00  0.00     0.049 A 
ATOM     52  H   UNL A   1      42.961  27.558  28.831  1.00  0.00     0.167 HD
ATOM     53  C   UNL A   1      46.999  29.032  27.373  1.00  0.00     0.037 A 
ATOM     54  C   UNL A   1      40.360  27.842  29.603  1.00  0.00     0.037 A 
ATOM     55  C   UNL A   1      47.058  28.774  28.794  1.00  0.00     0.049 A 
ATOM     56  C   UNL A   1      41.406  28.691  30.227  1.00  0.00     0.074 A 
ATOM     57  C   UNL A   1      47.849  28.032  29.644  1.00  0.00     0.029 A 
ATOM     58  N   UNL A   1      45.872  29.008  29.440  1.00  0.00    -0.354 N 
ATOM     59  N   UNL A   1      42.150  28.284  31.219  1.00  0.00    -0.248 NA
ATOM     60  C   UNL A   1      41.915  29.849  29.499  1.00  0.00     0.031 C 
ATOM     61  C   UNL A   1      47.040  27.726  30.779  1.00  0.00     0.029 A 
ATOM     62  C   UNL A   1      45.794  28.328  30.623  1.00  0.00     0.049 A 
ATOM     63  H   UNL A   1      45.162  29.596  29.094  1.00  0.00     0.167 HD
ATOM     64  C   UNL A   1      43.388  28.845  30.971  1.00  0.00     0.074 A 
ATOM     65  C   UNL A   1      43.145  29.919  30.017  1.00  0.00     0.031 C 
ATOM     66  C   UNL A   1      44.527  28.170  31.299  1.00  0.00     0.037 A 
BRANCH  53  67
ATOM     67  C   UNL A   1      46.896  30.453  26.852  1.00  0.00     0.064 A 
ATOM     68  C   UNL A   1      48.047  31.265  26.904  1.00  0.00     0.173 A 
ATOM     69  C   UNL A   1      45.687  31.143  26.602  1.00  0.00     0.173 A 
ATOM     70  F   UNL A   1      49.250  30.726  27.151  1.00  0.00    -0.203 F 
ATOM     71  C   UNL A   1      47.976  32.656  26.791  1.00  0.00     0.198 A 
ATOM     72  C   UNL A   1      45.628  32.524  26.442  1.00  0.00     0.198 A 
ATOM     73  F   UNL A   1      44.492  30.545  26.611  1.00  0.00    -0.203 F 
ATOM     74  F   UNL A   1      49.081  33.395  26.965  1.00  0.00    -0.200 F 
ATOM     75  C   UNL A   1      46.766  33.285  26.566  1.00  0.00     0.200 A 
ATOM     76  F   UNL A   1      44.438  33.112  26.249  1.00  0.00    -0.200 F 
ATOM     77  F   UNL A   1      46.686  34.621  26.516  1.00  0.00    -0.200 F 
ENDBRANCH  53  67
BRANCH  54  78
ATOM     78  C   UNL A   1      38.957  28.301  29.468  1.00  0.00     0.064 A 
ATOM     79  C   UNL A   1      38.153  28.523  30.598  1.00  0.00     0.173 A 
ATOM     80  C   UNL A   1      38.486  28.826  28.250  1.00  0.00     0.173 A 
ATOM     81  F   UNL A   1      38.548  28.089  31.803  1.00  0.00    -0.203 F 
ATOM     82  C   UNL A   1      36.969  29.266  30.523  1.00  0.00     0.198 A 
ATOM     83  C   UNL A   1      37.305  29.566  28.176  1.00  0.00     0.198 A 
ATOM     84  F   UNL A   1      39.216  28.720  27.131  1.00  0.00    -0.203 F 
ATOM     85  F   UNL A   1      36.264  29.518  31.635  1.00  0.00    -0.200 F 
ATOM     86  C   UNL A   1      36.554  29.801  29.314  1.00  0.00     0.200 A 
ATOM     87  F   UNL A   1      36.935  30.111  27.009  1.00  0.00    -0.200 F 
ATOM     88  F   UNL A   1      35.462  30.575  29.254  1.00  0.00    -0.200 F 
ENDBRANCH  54  78
BRANCH  66  89
ATOM     89  C   UNL A   1      44.408  27.095  32.332  1.00  0.00     0.064 A 
ATOM     90  C   UNL A   1      44.273  27.327  33.711  1.00  0.00     0.173 A 
ATOM     91  C   UNL A   1      44.353  25.768  31.887  1.00  0.00     0.173 A 
ATOM     92  F   UNL A   1      44.245  28.574  34.199  1.00  0.00    -0.203 F 
ATOM     93  C   UNL A   1      44.126  26.267  34.606  1.00  0.00     0.198 A 
ATOM     94  C   UNL A   1      44.170  24.717  32.776  1.00  0.00     0.198 A 
ATOM     95  F   UNL A   1      44.437  25.498  30.575  1.00  0.00    -0.203 F 
ATOM     96  F   UNL A   1      44.014  26.507  35.921  1.00  0.00    -0.200 F 
ATOM     97  C   UNL A   1      44.068  24.965  34.136  1.00  0.00     0.200 A 
ATOM     98  F   UNL A   1      44.073  23.464  32.313  1.00  0.00    -0.200 F 
ATOM     99  F   UNL A   1      43.891  23.948  34.991  1.00  0.00    -0.200 F 
ENDBRANCH  66  89
ENDBRANCH  40  41
ENDBRANCH  33  35
ENDBRANCH  32  33
ENDBRANCH  31  32
ENDBRANCH   1  31
TORSDOF 16
ENDMDL
MODEL 2
REMARK VINA RESULT:     -12.2      3.634      8.826
REMARK SMILES Cn1cc([C@@H]2CC(OCCOCCOC(=O)c3ccc(-c4c5nc(c(-c6c(F)c(F)c(F)c(F)c6F)c6ccc([nH]6)c(-c6c(F)c(F)c(F)c(F)c6F)c6nc(c(-c7c(F)c(F)c(F)c(F)c7F)c7ccc4[nH]7)C=C6)C=C5)cc3)=Nc3c2sc(C(=O)[O-])c3-c2ccc(Cl)cc2)cn1
REMARK SMILES IDX 12 1 11 2 10 3 9 4 8 5 7 6 5 7 6 8 82 9 81 10 83 11 80 12
REMARK SMILES IDX 88 13 84 14 4 15 1 16 2 17 3 18 97 19 96 20 89 21 90 22
REMARK SMILES IDX 95 23 91 24 94 25 92 26 93 27 85 28 86 29 87 30 13 31 14 32
REMARK SMILES IDX 15 33 16 34 17 35 18 36 79 37 19 38 78 39 20 40 21 41 22 42
REMARK SMILES IDX 72 43 23 44 77 45 71 46 73 47 24 48 76 49 70 50 69 51 25 53
REMARK SMILES IDX 57 54 37 55 56 56 38 57 41 58 55 59 74 60 39 61 40 62 54 64
REMARK SMILES IDX 75 65 42 66 26 67 27 68 35 69 28 70 29 71 33 72 36 73 30 74
REMARK SMILES IDX 31 75 34 76 32 77 58 78 59 79 67 80 60 81 61 82 65 83 68 84
REMARK SMILES IDX 62 85 63 86 66 87 64 88 43 89 44 90 52 91 45 92 46 93 50 94
REMARK SMILES IDX 53 95 47 96 48 97 51 98 49 99
REMARK H PARENT 73 52 41 63
REMARK Flexibility Score: inf
ROOT
ATOM      1  C   UNL A   1      34.541  33.288  29.074  1.00  0.00     0.202 C 
ENDROOT
BRANCH   1   2
ATOM      2  O   UNL A   1      34.186  31.967  28.666  1.00  0.00    -0.374 OA
BRANCH   2   3
ATOM      3  C   UNL A   1      35.041  31.412  27.663  1.00  0.00     0.202 C 
BRANCH   3   4
ATOM      4  C   UNL A   1      34.892  29.895  27.531  1.00  0.00     0.259 C 
BRANCH   4   5
ATOM      5  O   UNL A   1      34.569  29.497  26.180  1.00  0.00    -0.478 OA
BRANCH   5   6
ATOM      6  C   UNL A   1      33.504  28.731  25.837  1.00  0.00     0.189 C 
ATOM      7  C   UNL A   1      31.010  28.564  25.165  1.00  0.00     0.074 C 
ATOM      8  C   UNL A   1      32.119  29.368  25.874  1.00  0.00     0.111 C 
ATOM      9  C   UNL A   1      31.447  27.151  25.000  1.00  0.00     0.040 A 
ATOM     10  C   UNL A   1      32.723  26.685  25.150  1.00  0.00     0.090 A 
ATOM     11  S   UNL A   1      30.368  25.913  24.586  1.00  0.00    -0.135 S 
ATOM     12  N   UNL A   1      33.793  27.504  25.528  1.00  0.00    -0.216 NA
ATOM     13  C   UNL A   1      32.867  25.291  24.831  1.00  0.00     0.028 A 
ATOM     14  C   UNL A   1      31.622  24.730  24.530  1.00  0.00     0.060 A 
BRANCH   7  15
ATOM     15  C   UNL A   1      30.509  29.164  23.861  1.00  0.00    -0.001 A 
ATOM     16  C   UNL A   1      28.533  31.148  21.563  1.00  0.00     0.173 C 
ATOM     17  N   UNL A   1      29.464  30.310  22.282  1.00  0.00    -0.276 N 
ATOM     18  C   UNL A   1      29.485  30.069  23.625  1.00  0.00     0.112 A 
ATOM     19  N   UNL A   1      30.447  29.680  21.622  1.00  0.00    -0.182 NA
ATOM     20  C   UNL A   1      31.078  28.990  22.573  1.00  0.00     0.139 A 
ENDBRANCH   7  15
BRANCH  13  21
ATOM     21  C   UNL A   1      34.105  24.507  24.867  1.00  0.00    -0.015 A 
ATOM     22  C   UNL A   1      34.779  24.151  23.687  1.00  0.00     0.010 A 
ATOM     23  C   UNL A   1      34.602  24.048  26.094  1.00  0.00     0.010 A 
ATOM     24  C   UNL A   1      35.865  23.271  23.727  1.00  0.00     0.021 A 
ATOM     25  C   UNL A   1      35.700  23.182  26.137  1.00  0.00     0.021 A 
ATOM     26  C   UNL A   1      36.309  22.777  24.952  1.00  0.00     0.041 A 
ATOM     27  Cl  UNL A   1      37.605  21.645  24.999  1.00  0.00    -0.084 Cl
ENDBRANCH  13  21
BRANCH  14  28
ATOM     28  C   UNL A   1      31.181  23.387  24.211  1.00  0.00     0.082 C 
ATOM     29  O   UNL A   1      30.805  22.953  23.130  1.00  0.00    -0.544 OA
ATOM     30  O   UNL A   1      31.173  22.558  25.274  1.00  0.00    -0.544 OA
ENDBRANCH  14  28
ENDBRANCH   5   6
ENDBRANCH   4   5
ENDBRANCH   3   4
ENDBRANCH   2   3
ENDBRANCH   1   2
BRANCH   1  31
ATOM     31  C   UNL A   1      34.846  33.385  30.554  1.00  0.00     0.261 C 
BRANCH  31  32
ATOM     32  O   UNL A   1      34.882  32.065  31.060  1.00  0.00    -0.460 OA
BRANCH  32  33
ATOM     33  C   UNL A   1      35.975  31.742  31.777  1.00  0.00     0.338 C 
ATOM     34  O   UNL A   1      36.246  32.035  32.932  1.00  0.00    -0.246 OA
BRANCH  33  35
ATOM     35  C   UNL A   1      36.872  31.080  30.836  1.00  0.00     0.060 A 
ATOM     36  C   UNL A   1      36.666  29.713  30.696  1.00  0.00     0.016 A 
ATOM     37  C   UNL A   1      38.077  31.716  30.490  1.00  0.00     0.016 A 
ATOM     38  C   UNL A   1      37.782  28.934  30.544  1.00  0.00     0.010 A 
ATOM     39  C   UNL A   1      39.192  30.936  30.373  1.00  0.00     0.010 A 
ATOM     40  C   UNL A   1      39.036  29.562  30.512  1.00  0.00    -0.014 A 
BRANCH  40  41
ATOM     41  C   UNL A   1      40.206  28.728  30.437  1.00  0.00     0.031 A 
ATOM     42  C   UNL A   1      40.787  28.578  31.781  1.00  0.00     0.074 A 
ATOM     43  C   UNL A   1      40.617  28.132  29.304  1.00  0.00     0.049 A 
ATOM     44  N   UNL A   1      41.774  29.253  32.267  1.00  0.00    -0.248 NA
ATOM     45  C   UNL A   1      40.011  27.836  32.788  1.00  0.00     0.031 C 
ATOM     46  C   UNL A   1      39.918  28.047  28.019  1.00  0.00     0.029 A 
ATOM     47  N   UNL A   1      41.746  27.399  29.093  1.00  0.00    -0.354 N 
ATOM     48  C   UNL A   1      41.907  28.786  33.568  1.00  0.00     0.074 A 
ATOM     49  C   UNL A   1      40.648  28.186  33.908  1.00  0.00     0.031 C 
ATOM     50  C   UNL A   1      40.528  27.124  27.237  1.00  0.00     0.029 A 
ATOM     51  C   UNL A   1      41.734  26.668  27.906  1.00  0.00     0.049 A 
ATOM     52  H   UNL A   1      42.502  27.385  29.723  1.00  0.00     0.167 HD
ATOM     53  C   UNL A   1      43.151  28.548  34.062  1.00  0.00     0.037 A 
ATOM     54  C   UNL A   1      42.645  25.723  27.564  1.00  0.00     0.037 A 
ATOM     55  C   UNL A   1      44.145  29.189  33.232  1.00  0.00     0.049 A 
ATOM     56  C   UNL A   1      43.867  25.996  28.361  1.00  0.00     0.074 A 
ATOM     57  C   UNL A   1      44.592  30.475  33.018  1.00  0.00     0.029 A 
ATOM     58  N   UNL A   1      44.501  28.446  32.137  1.00  0.00    -0.354 N 
ATOM     59  N   UNL A   1      44.604  27.060  28.186  1.00  0.00    -0.248 NA
ATOM     60  C   UNL A   1      44.065  25.301  29.628  1.00  0.00     0.031 C 
ATOM     61  C   UNL A   1      45.123  30.500  31.694  1.00  0.00     0.029 A 
ATOM     62  C   UNL A   1      45.037  29.222  31.147  1.00  0.00     0.049 A 
ATOM     63  H   UNL A   1      44.386  27.470  32.071  1.00  0.00     0.167 HD
ATOM     64  C   UNL A   1      45.022  27.399  29.458  1.00  0.00     0.074 A 
ATOM     65  C   UNL A   1      44.811  26.206  30.268  1.00  0.00     0.031 C 
ATOM     66  C   UNL A   1      45.177  28.709  29.804  1.00  0.00     0.037 A 
BRANCH  53  67
ATOM     67  C   UNL A   1      43.511  27.334  34.896  1.00  0.00     0.064 A 
ATOM     68  C   UNL A   1      44.020  27.545  36.193  1.00  0.00     0.173 A 
ATOM     69  C   UNL A   1      43.676  26.022  34.395  1.00  0.00     0.173 A 
ATOM     70  F   UNL A   1      43.937  28.754  36.769  1.00  0.00    -0.203 F 
ATOM     71  C   UNL A   1      44.703  26.546  36.892  1.00  0.00     0.198 A 
ATOM     72  C   UNL A   1      44.314  25.016  35.114  1.00  0.00     0.198 A 
ATOM     73  F   UNL A   1      43.337  25.669  33.152  1.00  0.00    -0.203 F 
ATOM     74  F   UNL A   1      45.272  26.829  38.072  1.00  0.00    -0.200 F 
ATOM     75  C   UNL A   1      44.854  25.283  36.350  1.00  0.00     0.200 A 
ATOM     76  F   UNL A   1      44.469  23.806  34.555  1.00  0.00    -0.200 F 
ATOM     77  F   UNL A   1      45.558  24.342  36.990  1.00  0.00    -0.200 F 
ENDBRANCH  53  67
BRANCH  54  78
ATOM     78  C   UNL A   1      42.456  24.450  26.830  1.00  0.00     0.064 A 
ATOM     79  C   UNL A   1      43.138  24.196  25.628  1.00  0.00     0.173 A 
ATOM     80  C   UNL A   1      41.851  23.343  27.453  1.00  0.00     0.173 A 
ATOM     81  F   UNL A   1      43.775  25.189  24.991  1.00  0.00    -0.203 F 
ATOM     82  C   UNL A   1      43.246  22.903  25.103  1.00  0.00     0.198 A 
ATOM     83  C   UNL A   1      41.958  22.053  26.928  1.00  0.00     0.198 A 
ATOM     84  F   UNL A   1      41.233  23.476  28.634  1.00  0.00    -0.203 F 
ATOM     85  F   UNL A   1      43.966  22.688  23.992  1.00  0.00    -0.200 F 
ATOM     86  C   UNL A   1      42.670  21.830  25.763  1.00  0.00     0.200 A 
ATOM     87  F   UNL A   1      41.430  21.019  27.596  1.00  0.00    -0.200 F 
ATOM     88  F   UNL A   1      42.836  20.583  25.303  1.00  0.00    -0.200 F 
ENDBRANCH  54  78
BRANCH  66  89
ATOM     89  C   UNL A   1      45.363  29.690  28.690  1.00  0.00     0.064 A 
ATOM     90  C   UNL A   1      44.318  30.381  28.055  1.00  0.00     0.173 A 
ATOM     91  C   UNL A   1      46.674  29.994  28.303  1.00  0.00     0.173 A 
ATOM     92  F   UNL A   1      43.044  30.193  28.425  1.00  0.00    -0.203 F 
ATOM     93  C   UNL A   1      44.579  31.312  27.050  1.00  0.00     0.198 A 
ATOM     94  C   UNL A   1      46.934  30.948  27.326  1.00  0.00     0.198 A 
ATOM     95  F   UNL A   1      47.708  29.389  28.908  1.00  0.00    -0.203 F 
ATOM     96  F   UNL A   1      43.568  31.951  26.444  1.00  0.00    -0.200 F 
ATOM     97  C   UNL A   1      45.887  31.598  26.692  1.00  0.00     0.200 A 
ATOM     98  F   UNL A   1      48.201  31.250  27.014  1.00  0.00    -0.200 F 
ATOM     99  F   UNL A   1      46.142  32.517  25.750  1.00  0.00    -0.200 F 
ENDBRANCH  66  89
ENDBRANCH  40  41
ENDBRANCH  33  35
ENDBRANCH  32  33
ENDBRANCH  31  32
ENDBRANCH   1  31
TORSDOF 16
ENDMDL
MODEL 3
REMARK VINA RESULT:     -12.1      4.689      9.799
REMARK SMILES Cn1cc([C@@H]2CC(OCCOCCOC(=O)c3ccc(-c4c5nc(c(-c6c(F)c(F)c(F)c(F)c6F)c6ccc([nH]6)c(-c6c(F)c(F)c(F)c(F)c6F)c6nc(c(-c7c(F)c(F)c(F)c(F)c7F)c7ccc4[nH]7)C=C6)C=C5)cc3)=Nc3c2sc(C(=O)[O-])c3-c2ccc(Cl)cc2)cn1
REMARK SMILES IDX 12 1 11 2 10 3 9 4 8 5 7 6 5 7 6 8 82 9 81 10 83 11 80 12
REMARK SMILES IDX 88 13 84 14 4 15 1 16 2 17 3 18 97 19 96 20 89 21 90 22
REMARK SMILES IDX 95 23 91 24 94 25 92 26 93 27 85 28 86 29 87 30 13 31 14 32
REMARK SMILES IDX 15 33 16 34 17 35 18 36 79 37 19 38 78 39 20 40 21 41 22 42
REMARK SMILES IDX 72 43 23 44 77 45 71 46 73 47 24 48 76 49 70 50 69 51 25 53
REMARK SMILES IDX 57 54 37 55 56 56 38 57 41 58 55 59 74 60 39 61 40 62 54 64
REMARK SMILES IDX 75 65 42 66 26 67 27 68 35 69 28 70 29 71 33 72 36 73 30 74
REMARK SMILES IDX 31 75 34 76 32 77 58 78 59 79 67 80 60 81 61 82 65 83 68 84
REMARK SMILES IDX 62 85 63 86 66 87 64 88 43 89 44 90 52 91 45 92 46 93 50 94
REMARK SMILES IDX 53 95 47 96 48 97 51 98 49 99
REMARK H PARENT 73 52 41 63
REMARK Flexibility Score: inf
ROOT
ATOM      1  C   UNL A   1      34.328  33.618  28.695  1.00  0.00     0.202 C 
ENDROOT
BRANCH   1   2
ATOM      2  O   UNL A   1      34.051  32.272  29.082  1.00  0.00    -0.374 OA
BRANCH   2   3
ATOM      3  C   UNL A   1      34.737  31.286  28.306  1.00  0.00     0.202 C 
BRANCH   3   4
ATOM      4  C   UNL A   1      34.003  30.937  27.010  1.00  0.00     0.259 C 
BRANCH   4   5
ATOM      5  O   UNL A   1      34.178  29.549  26.644  1.00  0.00    -0.478 OA
BRANCH   5   6
ATOM      6  C   UNL A   1      33.189  28.742  26.188  1.00  0.00     0.189 C 
ATOM      7  C   UNL A   1      30.799  28.478  25.229  1.00  0.00     0.074 C 
ATOM      8  C   UNL A   1      31.787  29.329  26.051  1.00  0.00     0.111 C 
ATOM      9  C   UNL A   1      31.302  27.079  25.138  1.00  0.00     0.040 A 
ATOM     10  C   UNL A   1      32.566  26.662  25.445  1.00  0.00     0.090 A 
ATOM     11  S   UNL A   1      30.323  25.799  24.618  1.00  0.00    -0.135 S 
ATOM     12  N   UNL A   1      33.555  27.522  25.935  1.00  0.00    -0.216 NA
ATOM     13  C   UNL A   1      32.795  25.270  25.167  1.00  0.00     0.028 A 
ATOM     14  C   UNL A   1      31.614  24.661  24.730  1.00  0.00     0.060 A 
BRANCH   7  15
ATOM     15  C   UNL A   1      30.437  29.044  23.865  1.00  0.00    -0.001 A 
ATOM     16  C   UNL A   1      28.645  30.880  21.307  1.00  0.00     0.173 C 
ATOM     17  N   UNL A   1      29.531  30.114  22.151  1.00  0.00    -0.276 N 
ATOM     18  C   UNL A   1      29.386  29.867  23.486  1.00  0.00     0.112 A 
ATOM     19  N   UNL A   1      30.643  29.568  21.636  1.00  0.00    -0.182 NA
ATOM     20  C   UNL A   1      31.190  28.924  22.669  1.00  0.00     0.139 A 
ENDBRANCH   7  15
BRANCH  13  21
ATOM     21  C   UNL A   1      34.046  24.532  25.362  1.00  0.00    -0.015 A 
ATOM     22  C   UNL A   1      35.068  24.560  24.399  1.00  0.00     0.010 A 
ATOM     23  C   UNL A   1      34.212  23.731  26.501  1.00  0.00     0.010 A 
ATOM     24  C   UNL A   1      36.184  23.726  24.524  1.00  0.00     0.021 A 
ATOM     25  C   UNL A   1      35.337  22.911  26.635  1.00  0.00     0.021 A 
ATOM     26  C   UNL A   1      36.304  22.893  25.634  1.00  0.00     0.041 A 
ATOM     27  Cl  UNL A   1      37.644  21.821  25.758  1.00  0.00    -0.084 Cl
ENDBRANCH  13  21
BRANCH  14  28
ATOM     28  C   UNL A   1      31.261  23.299  24.381  1.00  0.00     0.082 C 
ATOM     29  O   UNL A   1      31.304  22.767  23.281  1.00  0.00    -0.544 OA
ATOM     30  O   UNL A   1      30.807  22.579  25.426  1.00  0.00    -0.544 OA
ENDBRANCH  14  28
ENDBRANCH   5   6
ENDBRANCH   4   5
ENDBRANCH   3   4
ENDBRANCH   2   3
ENDBRANCH   1   2
BRANCH   1  31
ATOM     31  C   UNL A   1      33.366  34.615  29.307  1.00  0.00     0.261 C 
BRANCH  31  32
ATOM     32  O   UNL A   1      34.041  35.242  30.380  1.00  0.00    -0.460 OA
BRANCH  32  33
ATOM     33  C   UNL A   1      33.527  35.021  31.605  1.00  0.00     0.338 C 
ATOM     34  O   UNL A   1      32.447  35.374  32.057  1.00  0.00    -0.246 OA
BRANCH  33  35
ATOM     35  C   UNL A   1      34.599  34.388  32.365  1.00  0.00     0.060 A 
ATOM     36  C   UNL A   1      35.721  35.182  32.566  1.00  0.00     0.016 A 
ATOM     37  C   UNL A   1      34.622  32.986  32.461  1.00  0.00     0.016 A 
ATOM     38  C   UNL A   1      36.937  34.555  32.512  1.00  0.00     0.010 A 
ATOM     39  C   UNL A   1      35.836  32.366  32.373  1.00  0.00     0.010 A 
ATOM     40  C   UNL A   1      36.966  33.171  32.290  1.00  0.00    -0.014 A 
BRANCH  40  41
ATOM     41  C   UNL A   1      38.250  32.537  32.151  1.00  0.00     0.031 A 
ATOM     42  C   UNL A   1      38.977  32.617  33.428  1.00  0.00     0.074 A 
ATOM     43  C   UNL A   1      38.645  31.906  31.030  1.00  0.00     0.049 A 
ATOM     44  N   UNL A   1      39.875  33.489  33.742  1.00  0.00    -0.248 NA
ATOM     45  C   UNL A   1      38.444  31.863  34.573  1.00  0.00     0.031 C 
ATOM     46  C   UNL A   1      37.849  31.581  29.844  1.00  0.00     0.029 A 
ATOM     47  N   UNL A   1      39.858  31.350  30.754  1.00  0.00    -0.354 N 
ATOM     48  C   UNL A   1      40.213  33.182  35.054  1.00  0.00     0.074 A 
ATOM     49  C   UNL A   1      39.117  32.421  35.582  1.00  0.00     0.031 C 
ATOM     50  C   UNL A   1      38.530  30.698  29.075  1.00  0.00     0.029 A 
ATOM     51  C   UNL A   1      39.856  30.513  29.639  1.00  0.00     0.049 A 
ATOM     52  H   UNL A   1      40.663  31.523  31.293  1.00  0.00     0.167 HD
ATOM     53  C   UNL A   1      41.522  33.201  35.422  1.00  0.00     0.037 A 
ATOM     54  C   UNL A   1      40.880  29.700  29.274  1.00  0.00     0.037 A 
ATOM     55  C   UNL A   1      42.304  33.910  34.436  1.00  0.00     0.049 A 
ATOM     56  C   UNL A   1      42.108  30.247  29.902  1.00  0.00     0.074 A 
ATOM     57  C   UNL A   1      42.498  35.224  34.069  1.00  0.00     0.029 A 
ATOM     58  N   UNL A   1      42.675  33.130  33.371  1.00  0.00    -0.354 N 
ATOM     59  N   UNL A   1      42.629  31.394  29.560  1.00  0.00    -0.248 NA
ATOM     60  C   UNL A   1      42.546  29.723  31.192  1.00  0.00     0.031 C 
ATOM     61  C   UNL A   1      42.886  35.204  32.695  1.00  0.00     0.029 A 
ATOM     62  C   UNL A   1      42.969  33.881  32.267  1.00  0.00     0.049 A 
ATOM     63  H   UNL A   1      42.724  32.146  33.398  1.00  0.00     0.167 HD
ATOM     64  C   UNL A   1      43.104  31.922  30.745  1.00  0.00     0.074 A 
ATOM     65  C   UNL A   1      43.183  30.797  31.668  1.00  0.00     0.031 C 
ATOM     66  C   UNL A   1      43.064  33.268  30.963  1.00  0.00     0.037 A 
BRANCH  53  67
ATOM     67  C   UNL A   1      42.166  32.150  36.306  1.00  0.00     0.064 A 
ATOM     68  C   UNL A   1      42.946  32.586  37.396  1.00  0.00     0.173 A 
ATOM     69  C   UNL A   1      42.316  30.784  35.970  1.00  0.00     0.173 A 
ATOM     70  F   UNL A   1      42.901  33.865  37.798  1.00  0.00    -0.203 F 
ATOM     71  C   UNL A   1      43.854  31.741  38.041  1.00  0.00     0.198 A 
ATOM     72  C   UNL A   1      43.186  29.934  36.646  1.00  0.00     0.198 A 
ATOM     73  F   UNL A   1      41.726  30.226  34.910  1.00  0.00    -0.203 F 
ATOM     74  F   UNL A   1      44.658  32.232  38.994  1.00  0.00    -0.200 F 
ATOM     75  C   UNL A   1      43.977  30.417  37.662  1.00  0.00     0.200 A 
ATOM     76  F   UNL A   1      43.305  28.661  36.243  1.00  0.00    -0.200 F 
ATOM     77  F   UNL A   1      44.887  29.621  38.237  1.00  0.00    -0.200 F 
ENDBRANCH  53  67
BRANCH  54  78
ATOM     78  C   UNL A   1      40.843  28.347  28.671  1.00  0.00     0.064 A 
ATOM     79  C   UNL A   1      40.097  27.311  29.257  1.00  0.00     0.173 A 
ATOM     80  C   UNL A   1      41.282  28.135  27.351  1.00  0.00     0.173 A 
ATOM     81  F   UNL A   1      39.609  27.449  30.498  1.00  0.00    -0.203 F 
ATOM     82  C   UNL A   1      39.770  26.149  28.548  1.00  0.00     0.198 A 
ATOM     83  C   UNL A   1      40.956  26.975  26.645  1.00  0.00     0.198 A 
ATOM     84  F   UNL A   1      41.945  29.092  26.688  1.00  0.00    -0.203 F 
ATOM     85  F   UNL A   1      38.996  25.213  29.115  1.00  0.00    -0.200 F 
ATOM     86  C   UNL A   1      40.187  25.989  27.237  1.00  0.00     0.200 A 
ATOM     87  F   UNL A   1      41.332  26.850  25.365  1.00  0.00    -0.200 F 
ATOM     88  F   UNL A   1      39.812  24.913  26.532  1.00  0.00    -0.200 F 
ENDBRANCH  54  78
BRANCH  66  89
ATOM     89  C   UNL A   1      42.967  34.150  29.759  1.00  0.00     0.064 A 
ATOM     90  C   UNL A   1      41.763  34.632  29.221  1.00  0.00     0.173 A 
ATOM     91  C   UNL A   1      44.163  34.584  29.173  1.00  0.00     0.173 A 
ATOM     92  F   UNL A   1      40.586  34.316  29.775  1.00  0.00    -0.203 F 
ATOM     93  C   UNL A   1      41.762  35.486  28.118  1.00  0.00     0.198 A 
ATOM     94  C   UNL A   1      44.160  35.462  28.097  1.00  0.00     0.198 A 
ATOM     95  F   UNL A   1      45.340  34.182  29.677  1.00  0.00    -0.203 F 
ATOM     96  F   UNL A   1      40.602  35.925  27.607  1.00  0.00    -0.200 F 
ATOM     97  C   UNL A   1      42.960  35.905  27.562  1.00  0.00     0.200 A 
ATOM     98  F   UNL A   1      45.322  35.896  27.591  1.00  0.00    -0.200 F 
ATOM     99  F   UNL A   1      42.962  36.753  26.524  1.00  0.00    -0.200 F 
ENDBRANCH  66  89
ENDBRANCH  40  41
ENDBRANCH  33  35
ENDBRANCH  32  33
ENDBRANCH  31  32
ENDBRANCH   1  31
TORSDOF 16
ENDMDL
