MODEL 1
REMARK VINA RESULT:     -11.1      0.000      0.000
REMARK SMILES CC[C@@H](C(=O)OCCOCCOC(=O)c1ccc(-c2c3nc(c(-c4c(F)c(F)c(F)c(F)c4F)c4ccc([nH]4)c(-c4c(F)c(F)c(F)c(F)c4F)c4nc(c(-c5c(F)c(F)c(F)c(F)c5F)c5ccc2[nH]5)C=C4)C=C3)cc1)N1C(=O)/C(=C/c2ccccc2[N+](=O)[O-])SC1=S
REMARK SMILES IDX 8 1 7 2 6 3 4 4 5 5 3 6 2 7 1 8 78 9 79 10 93 11 80 12 81 13
REMARK SMILES IDX 92 14 94 15 82 16 83 17 84 18 88 19 85 20 87 21 86 22 89 23
REMARK SMILES IDX 90 24 91 25 9 26 10 27 11 28 12 29 13 30 14 31 15 32 16 33
REMARK SMILES IDX 77 34 17 35 76 36 18 37 19 38 20 39 70 40 21 41 75 42 69 43
REMARK SMILES IDX 71 44 22 45 74 46 68 47 67 48 23 50 55 51 35 52 54 53 36 54
REMARK SMILES IDX 39 55 53 56 72 57 37 58 38 59 52 61 73 62 40 63 24 64 25 65
REMARK SMILES IDX 33 66 26 67 27 68 31 69 34 70 28 71 29 72 32 73 30 74 56 75
REMARK SMILES IDX 57 76 65 77 58 78 59 79 63 80 66 81 60 82 61 83 64 84 62 85
REMARK SMILES IDX 41 86 42 87 50 88 43 89 44 90 48 91 51 92 45 93 46 94 49 95
REMARK SMILES IDX 47 96
REMARK H PARENT 71 49 39 60
REMARK Flexibility Score: inf
ROOT
ATOM      1  C   UNL A   1      37.203  22.105  24.892  1.00  0.00     0.202 C 
ENDROOT
BRANCH   1   2
ATOM      2  C   UNL A   1      36.061  22.419  25.867  1.00  0.00     0.261 C 
BRANCH   2   3
ATOM      3  O   UNL A   1      35.010  21.460  25.695  1.00  0.00    -0.462 OA
BRANCH   3   4
ATOM      4  C   UNL A   1      33.957  21.518  26.551  1.00  0.00     0.329 C 
ATOM      5  O   UNL A   1      34.046  21.481  27.772  1.00  0.00    -0.250 OA
BRANCH   4   6
ATOM      6  C   UNL A   1      32.646  21.790  25.788  1.00  0.00     0.201 C 
BRANCH   6   7
ATOM      7  C   UNL A   1      32.219  20.646  24.816  1.00  0.00     0.034 C 
ATOM      8  C   UNL A   1      32.553  19.225  25.267  1.00  0.00     0.007 C 
ENDBRANCH   6   7
BRANCH   6   9
ATOM      9  N   UNL A   1      32.493  23.155  25.166  1.00  0.00    -0.278 N 
ATOM     10  C   UNL A   1      31.759  24.091  25.889  1.00  0.00     0.267 C 
ATOM     11  C   UNL A   1      32.976  23.622  23.950  1.00  0.00     0.149 C 
ATOM     12  O   UNL A   1      31.339  23.960  27.031  1.00  0.00    -0.268 OA
ATOM     13  C   UNL A   1      31.537  25.329  25.100  1.00  0.00     0.081 C 
ATOM     14  S   UNL A   1      32.523  25.311  23.711  1.00  0.00    -0.054 SA
ATOM     15  S   UNL A   1      33.873  22.903  22.749  1.00  0.00    -0.052 S 
ATOM     16  C   UNL A   1      30.655  26.275  25.452  1.00  0.00     0.036 C 
BRANCH  16  17
ATOM     17  C   UNL A   1      30.414  27.530  24.717  1.00  0.00     0.054 A 
ATOM     18  C   UNL A   1      29.455  27.454  23.691  1.00  0.00     0.015 A 
ATOM     19  C   UNL A   1      31.008  28.783  24.970  1.00  0.00     0.276 A 
ATOM     20  C   UNL A   1      29.083  28.586  22.963  1.00  0.00     0.001 A 
ATOM     21  C   UNL A   1      30.625  29.925  24.241  1.00  0.00     0.086 A 
ATOM     22  C   UNL A   1      29.660  29.822  23.242  1.00  0.00     0.007 A 
BRANCH  19  23
ATOM     23  N   UNL A   1      32.051  28.955  25.985  1.00  0.00     0.063 N 
ATOM     24  O   UNL A   1      33.141  28.399  25.782  1.00  0.00    -0.258 OA
ATOM     25  O   UNL A   1      31.782  29.621  26.995  1.00  0.00    -0.258 OA
ENDBRANCH  19  23
ENDBRANCH  16  17
ENDBRANCH   6   9
ENDBRANCH   4   6
ENDBRANCH   3   4
ENDBRANCH   2   3
ENDBRANCH   1   2
BRANCH   1  26
ATOM     26  O   UNL A   1      38.307  21.341  25.380  1.00  0.00    -0.374 OA
BRANCH  26  27
ATOM     27  C   UNL A   1      38.393  19.962  25.025  1.00  0.00     0.202 C 
BRANCH  27  28
ATOM     28  C   UNL A   1      39.426  19.100  25.761  1.00  0.00     0.261 C 
BRANCH  28  29
ATOM     29  O   UNL A   1      40.780  19.396  25.379  1.00  0.00    -0.460 OA
BRANCH  29  30
ATOM     30  C   UNL A   1      41.630  19.565  26.418  1.00  0.00     0.338 C 
ATOM     31  O   UNL A   1      42.380  18.732  26.914  1.00  0.00    -0.246 OA
BRANCH  30  32
ATOM     32  C   UNL A   1      41.683  20.984  26.806  1.00  0.00     0.060 A 
ATOM     33  C   UNL A   1      41.535  21.938  25.790  1.00  0.00     0.016 A 
ATOM     34  C   UNL A   1      41.968  21.375  28.114  1.00  0.00     0.016 A 
ATOM     35  C   UNL A   1      41.714  23.289  26.071  1.00  0.00     0.010 A 
ATOM     36  C   UNL A   1      42.158  22.733  28.393  1.00  0.00     0.010 A 
ATOM     37  C   UNL A   1      42.066  23.692  27.365  1.00  0.00    -0.014 A 
BRANCH  37  38
ATOM     38  C   UNL A   1      42.480  25.095  27.607  1.00  0.00     0.031 A 
ATOM     39  C   UNL A   1      43.876  25.516  27.243  1.00  0.00     0.074 A 
ATOM     40  C   UNL A   1      41.614  25.988  28.117  1.00  0.00     0.049 A 
ATOM     41  N   UNL A   1      44.469  26.670  27.416  1.00  0.00    -0.248 NA
ATOM     42  C   UNL A   1      44.720  24.497  26.601  1.00  0.00     0.031 C 
ATOM     43  C   UNL A   1      40.222  25.710  28.462  1.00  0.00     0.029 A 
ATOM     44  N   UNL A   1      41.785  27.311  28.440  1.00  0.00    -0.354 N 
ATOM     45  C   UNL A   1      45.754  26.514  26.913  1.00  0.00     0.074 A 
ATOM     46  C   UNL A   1      45.866  25.145  26.457  1.00  0.00     0.031 C 
ATOM     47  C   UNL A   1      39.667  26.826  28.963  1.00  0.00     0.029 A 
ATOM     48  C   UNL A   1      40.675  27.884  29.008  1.00  0.00     0.049 A 
ATOM     49  H   UNL A   1      42.624  27.801  28.279  1.00  0.00     0.167 HD
ATOM     50  C   UNL A   1      46.746  27.431  26.833  1.00  0.00     0.037 A 
ATOM     51  C   UNL A   1      40.504  29.114  29.529  1.00  0.00     0.037 A 
ATOM     52  C   UNL A   1      46.626  28.793  27.285  1.00  0.00     0.049 A 
ATOM     53  C   UNL A   1      41.650  30.094  29.500  1.00  0.00     0.074 A 
ATOM     54  C   UNL A   1      47.566  29.807  27.228  1.00  0.00     0.029 A 
ATOM     55  N   UNL A   1      45.496  29.329  27.885  1.00  0.00    -0.354 N 
ATOM     56  N   UNL A   1      42.854  29.947  29.003  1.00  0.00    -0.248 NA
ATOM     57  C   UNL A   1      41.410  31.413  30.102  1.00  0.00     0.031 C 
ATOM     58  C   UNL A   1      47.028  30.939  27.849  1.00  0.00     0.029 A 
ATOM     59  C   UNL A   1      45.728  30.651  28.233  1.00  0.00     0.049 A 
ATOM     60  H   UNL A   1      44.655  28.844  28.042  1.00  0.00     0.167 HD
ATOM     61  C   UNL A   1      43.503  31.160  29.203  1.00  0.00     0.074 A 
ATOM     62  C   UNL A   1      42.554  32.037  29.855  1.00  0.00     0.031 C 
ATOM     63  C   UNL A   1      44.770  31.516  28.873  1.00  0.00     0.037 A 
BRANCH  50  64
ATOM     64  C   UNL A   1      48.062  26.986  26.262  1.00  0.00     0.064 A 
ATOM     65  C   UNL A   1      48.350  27.093  24.893  1.00  0.00     0.173 A 
ATOM     66  C   UNL A   1      49.065  26.485  27.106  1.00  0.00     0.173 A 
ATOM     67  F   UNL A   1      47.422  27.555  24.041  1.00  0.00    -0.203 F 
ATOM     68  C   UNL A   1      49.583  26.689  24.387  1.00  0.00     0.198 A 
ATOM     69  C   UNL A   1      50.307  26.111  26.600  1.00  0.00     0.198 A 
ATOM     70  F   UNL A   1      48.844  26.366  28.424  1.00  0.00    -0.203 F 
ATOM     71  F   UNL A   1      49.819  26.755  23.069  1.00  0.00    -0.200 F 
ATOM     72  C   UNL A   1      50.563  26.206  25.241  1.00  0.00     0.200 A 
ATOM     73  F   UNL A   1      51.257  25.659  27.430  1.00  0.00    -0.200 F 
ATOM     74  F   UNL A   1      51.752  25.826  24.753  1.00  0.00    -0.200 F 
ENDBRANCH  50  64
BRANCH  51  75
ATOM     75  C   UNL A   1      39.202  29.487  30.144  1.00  0.00     0.064 A 
ATOM     76  C   UNL A   1      38.206  30.132  29.398  1.00  0.00     0.173 A 
ATOM     77  C   UNL A   1      38.938  29.227  31.497  1.00  0.00     0.173 A 
ATOM     78  F   UNL A   1      38.421  30.426  28.107  1.00  0.00    -0.203 F 
ATOM     79  C   UNL A   1      37.005  30.520  29.987  1.00  0.00     0.198 A 
ATOM     80  C   UNL A   1      37.724  29.588  32.077  1.00  0.00     0.198 A 
ATOM     81  F   UNL A   1      39.858  28.615  32.257  1.00  0.00    -0.203 F 
ATOM     82  F   UNL A   1      36.091  31.182  29.264  1.00  0.00    -0.200 F 
ATOM     83  C   UNL A   1      36.761  30.242  31.323  1.00  0.00     0.200 A 
ATOM     84  F   UNL A   1      37.488  29.306  33.365  1.00  0.00    -0.200 F 
ATOM     85  F   UNL A   1      35.605  30.615  31.888  1.00  0.00    -0.200 F 
ENDBRANCH  51  75
BRANCH  63  86
ATOM     86  C   UNL A   1      45.193  32.927  29.170  1.00  0.00     0.064 A 
ATOM     87  C   UNL A   1      45.851  33.267  30.361  1.00  0.00     0.173 A 
ATOM     88  C   UNL A   1      44.979  33.943  28.226  1.00  0.00     0.173 A 
ATOM     89  F   UNL A   1      46.069  32.336  31.302  1.00  0.00    -0.203 F 
ATOM     90  C   UNL A   1      46.257  34.577  30.605  1.00  0.00     0.198 A 
ATOM     91  C   UNL A   1      45.415  35.244  28.460  1.00  0.00     0.198 A 
ATOM     92  F   UNL A   1      44.360  33.671  27.067  1.00  0.00    -0.203 F 
ATOM     93  F   UNL A   1      46.841  34.888  31.771  1.00  0.00    -0.200 F 
ATOM     94  C   UNL A   1      46.047  35.562  29.653  1.00  0.00     0.200 A 
ATOM     95  F   UNL A   1      45.226  36.191  27.530  1.00  0.00    -0.200 F 
ATOM     96  F   UNL A   1      46.448  36.819  29.886  1.00  0.00    -0.200 F 
ENDBRANCH  63  86
ENDBRANCH  37  38
ENDBRANCH  30  32
ENDBRANCH  29  30
ENDBRANCH  28  29
ENDBRANCH  27  28
ENDBRANCH  26  27
ENDBRANCH   1  26
TORSDOF 18
ENDMDL
MODEL 2
REMARK VINA RESULT:     -11.0      1.036      7.199
REMARK SMILES CC[C@@H](C(=O)OCCOCCOC(=O)c1ccc(-c2c3nc(c(-c4c(F)c(F)c(F)c(F)c4F)c4ccc([nH]4)c(-c4c(F)c(F)c(F)c(F)c4F)c4nc(c(-c5c(F)c(F)c(F)c(F)c5F)c5ccc2[nH]5)C=C4)C=C3)cc1)N1C(=O)/C(=C/c2ccccc2[N+](=O)[O-])SC1=S
REMARK SMILES IDX 8 1 7 2 6 3 4 4 5 5 3 6 2 7 1 8 78 9 79 10 93 11 80 12 81 13
REMARK SMILES IDX 92 14 94 15 82 16 83 17 84 18 88 19 85 20 87 21 86 22 89 23
REMARK SMILES IDX 90 24 91 25 9 26 10 27 11 28 12 29 13 30 14 31 15 32 16 33
REMARK SMILES IDX 77 34 17 35 76 36 18 37 19 38 20 39 70 40 21 41 75 42 69 43
REMARK SMILES IDX 71 44 22 45 74 46 68 47 67 48 23 50 55 51 35 52 54 53 36 54
REMARK SMILES IDX 39 55 53 56 72 57 37 58 38 59 52 61 73 62 40 63 24 64 25 65
REMARK SMILES IDX 33 66 26 67 27 68 31 69 34 70 28 71 29 72 32 73 30 74 56 75
REMARK SMILES IDX 57 76 65 77 58 78 59 79 63 80 66 81 60 82 61 83 64 84 62 85
REMARK SMILES IDX 41 86 42 87 50 88 43 89 44 90 48 91 51 92 45 93 46 94 49 95
REMARK SMILES IDX 47 96
REMARK H PARENT 71 49 39 60
REMARK Flexibility Score: inf
ROOT
ATOM      1  C   UNL A   1      37.393  22.371  24.652  1.00  0.00     0.202 C 
ENDROOT
BRANCH   1   2
ATOM      2  C   UNL A   1      36.036  23.084  24.729  1.00  0.00     0.261 C 
BRANCH   2   3
ATOM      3  O   UNL A   1      34.993  22.112  24.867  1.00  0.00    -0.462 OA
BRANCH   3   4
ATOM      4  C   UNL A   1      34.123  22.261  25.901  1.00  0.00     0.329 C 
ATOM      5  O   UNL A   1      34.448  22.430  27.069  1.00  0.00    -0.250 OA
BRANCH   4   6
ATOM      6  C   UNL A   1      32.673  22.343  25.386  1.00  0.00     0.201 C 
BRANCH   6   7
ATOM      7  C   UNL A   1      32.169  21.049  24.673  1.00  0.00     0.034 C 
ATOM      8  C   UNL A   1      32.652  19.727  25.267  1.00  0.00     0.007 C 
ENDBRANCH   6   7
BRANCH   6   9
ATOM      9  N   UNL A   1      32.287  23.595  24.638  1.00  0.00    -0.278 N 
ATOM     10  C   UNL A   1      31.638  24.584  25.372  1.00  0.00     0.267 C 
ATOM     11  C   UNL A   1      32.477  23.907  23.299  1.00  0.00     0.149 C 
ATOM     12  O   UNL A   1      31.466  24.596  26.583  1.00  0.00    -0.268 OA
ATOM     13  C   UNL A   1      31.162  25.682  24.493  1.00  0.00     0.081 C 
ATOM     14  S   UNL A   1      31.849  25.518  22.943  1.00  0.00    -0.054 SA
ATOM     15  S   UNL A   1      33.173  23.073  22.040  1.00  0.00    -0.052 S 
ATOM     16  C   UNL A   1      30.293  26.620  24.896  1.00  0.00     0.036 C 
BRANCH  16  17
ATOM     17  C   UNL A   1      29.807  27.741  24.071  1.00  0.00     0.054 A 
ATOM     18  C   UNL A   1      28.535  27.564  23.501  1.00  0.00     0.015 A 
ATOM     19  C   UNL A   1      30.466  28.967  23.843  1.00  0.00     0.276 A 
ATOM     20  C   UNL A   1      27.929  28.576  22.754  1.00  0.00     0.001 A 
ATOM     21  C   UNL A   1      29.850  29.990  23.098  1.00  0.00     0.086 A 
ATOM     22  C   UNL A   1      28.581  29.792  22.559  1.00  0.00     0.007 A 
BRANCH  19  23
ATOM     23  N   UNL A   1      31.814  29.229  24.355  1.00  0.00     0.063 N 
ATOM     24  O   UNL A   1      32.769  28.934  23.622  1.00  0.00    -0.258 OA
ATOM     25  O   UNL A   1      31.926  29.706  25.494  1.00  0.00    -0.258 OA
ENDBRANCH  19  23
ENDBRANCH  16  17
ENDBRANCH   6   9
ENDBRANCH   4   6
ENDBRANCH   3   4
ENDBRANCH   2   3
ENDBRANCH   1   2
BRANCH   1  26
ATOM     26  O   UNL A   1      37.625  21.281  25.546  1.00  0.00    -0.374 OA
BRANCH  26  27
ATOM     27  C   UNL A   1      37.795  19.974  24.998  1.00  0.00     0.202 C 
BRANCH  27  28
ATOM     28  C   UNL A   1      39.064  19.203  25.377  1.00  0.00     0.261 C 
BRANCH  28  29
ATOM     29  O   UNL A   1      39.917  19.930  26.279  1.00  0.00    -0.460 OA
BRANCH  29  30
ATOM     30  C   UNL A   1      41.236  19.666  26.136  1.00  0.00     0.338 C 
ATOM     31  O   UNL A   1      41.753  18.624  25.751  1.00  0.00    -0.246 OA
BRANCH  30  32
ATOM     32  C   UNL A   1      42.025  20.891  26.346  1.00  0.00     0.060 A 
ATOM     33  C   UNL A   1      42.269  21.285  27.668  1.00  0.00     0.016 A 
ATOM     34  C   UNL A   1      42.434  21.689  25.278  1.00  0.00     0.016 A 
ATOM     35  C   UNL A   1      42.888  22.504  27.930  1.00  0.00     0.010 A 
ATOM     36  C   UNL A   1      43.046  22.919  25.542  1.00  0.00     0.010 A 
ATOM     37  C   UNL A   1      43.244  23.347  26.870  1.00  0.00    -0.014 A 
BRANCH  37  38
ATOM     38  C   UNL A   1      43.687  24.732  27.155  1.00  0.00     0.031 A 
ATOM     39  C   UNL A   1      42.697  25.711  27.723  1.00  0.00     0.074 A 
ATOM     40  C   UNL A   1      44.959  25.105  26.938  1.00  0.00     0.049 A 
ATOM     41  N   UNL A   1      42.848  26.983  27.998  1.00  0.00    -0.248 NA
ATOM     42  C   UNL A   1      41.355  25.187  28.020  1.00  0.00     0.031 C 
ATOM     43  C   UNL A   1      46.019  24.233  26.437  1.00  0.00     0.029 A 
ATOM     44  N   UNL A   1      45.574  26.321  27.106  1.00  0.00    -0.354 N 
ATOM     45  C   UNL A   1      41.622  27.411  28.488  1.00  0.00     0.074 A 
ATOM     46  C   UNL A   1      40.728  26.273  28.447  1.00  0.00     0.031 C 
ATOM     47  C   UNL A   1      47.153  24.946  26.325  1.00  0.00     0.029 A 
ATOM     48  C   UNL A   1      46.887  26.332  26.709  1.00  0.00     0.049 A 
ATOM     49  H   UNL A   1      45.115  27.110  27.475  1.00  0.00     0.167 HD
ATOM     50  C   UNL A   1      41.277  28.639  28.940  1.00  0.00     0.037 A 
ATOM     51  C   UNL A   1      47.765  27.351  26.638  1.00  0.00     0.037 A 
ATOM     52  C   UNL A   1      42.172  29.766  28.984  1.00  0.00     0.049 A 
ATOM     53  C   UNL A   1      47.332  28.728  27.074  1.00  0.00     0.074 A 
ATOM     54  C   UNL A   1      41.924  31.047  29.444  1.00  0.00     0.029 A 
ATOM     55  N   UNL A   1      43.487  29.747  28.543  1.00  0.00    -0.354 N 
ATOM     56  N   UNL A   1      46.179  29.121  27.558  1.00  0.00    -0.248 NA
ATOM     57  C   UNL A   1      48.327  29.803  26.955  1.00  0.00     0.031 C 
ATOM     58  C   UNL A   1      43.070  31.820  29.225  1.00  0.00     0.029 A 
ATOM     59  C   UNL A   1      44.053  31.003  28.690  1.00  0.00     0.049 A 
ATOM     60  H   UNL A   1      43.949  28.959  28.178  1.00  0.00     0.167 HD
ATOM     61  C   UNL A   1      46.319  30.477  27.830  1.00  0.00     0.074 A 
ATOM     62  C   UNL A   1      47.673  30.836  27.469  1.00  0.00     0.031 C 
ATOM     63  C   UNL A   1      45.407  31.345  28.336  1.00  0.00     0.037 A 
BRANCH  50  64
ATOM     64  C   UNL A   1      39.860  28.841  29.397  1.00  0.00     0.064 A 
ATOM     65  C   UNL A   1      39.473  28.631  30.729  1.00  0.00     0.173 A 
ATOM     66  C   UNL A   1      38.884  29.292  28.495  1.00  0.00     0.173 A 
ATOM     67  F   UNL A   1      40.364  28.188  31.629  1.00  0.00    -0.203 F 
ATOM     68  C   UNL A   1      38.157  28.838  31.135  1.00  0.00     0.198 A 
ATOM     69  C   UNL A   1      37.576  29.528  28.910  1.00  0.00     0.198 A 
ATOM     70  F   UNL A   1      39.201  29.514  27.210  1.00  0.00    -0.203 F 
ATOM     71  F   UNL A   1      37.799  28.585  32.401  1.00  0.00    -0.200 F 
ATOM     72  C   UNL A   1      37.212  29.295  30.228  1.00  0.00     0.200 A 
ATOM     73  F   UNL A   1      36.669  29.984  28.036  1.00  0.00    -0.200 F 
ATOM     74  F   UNL A   1      35.948  29.503  30.622  1.00  0.00    -0.200 F 
ENDBRANCH  50  64
BRANCH  51  75
ATOM     75  C   UNL A   1      49.138  27.115  26.117  1.00  0.00     0.064 A 
ATOM     76  C   UNL A   1      49.414  27.183  24.745  1.00  0.00     0.173 A 
ATOM     77  C   UNL A   1      50.196  26.794  26.981  1.00  0.00     0.173 A 
ATOM     78  F   UNL A   1      48.431  27.460  23.877  1.00  0.00    -0.203 F 
ATOM     79  C   UNL A   1      50.692  26.918  24.255  1.00  0.00     0.198 A 
ATOM     80  C   UNL A   1      51.480  26.561  26.492  1.00  0.00     0.198 A 
ATOM     81  F   UNL A   1      49.985  26.714  28.303  1.00  0.00    -0.203 F 
ATOM     82  F   UNL A   1      50.916  26.937  22.934  1.00  0.00    -0.200 F 
ATOM     83  C   UNL A   1      51.725  26.614  25.128  1.00  0.00     0.200 A 
ATOM     84  F   UNL A   1      52.477  26.280  27.341  1.00  0.00    -0.200 F 
ATOM     85  F   UNL A   1      52.953  26.361  24.656  1.00  0.00    -0.200 F 
ENDBRANCH  51  75
BRANCH  63  86
ATOM     86  C   UNL A   1      45.855  32.760  28.573  1.00  0.00     0.064 A 
ATOM     87  C   UNL A   1      46.474  33.150  29.769  1.00  0.00     0.173 A 
ATOM     88  C   UNL A   1      45.704  33.727  27.567  1.00  0.00     0.173 A 
ATOM     89  F   UNL A   1      46.630  32.268  30.768  1.00  0.00    -0.203 F 
ATOM     90  C   UNL A   1      46.903  34.461  29.958  1.00  0.00     0.198 A 
ATOM     91  C   UNL A   1      46.164  35.028  27.747  1.00  0.00     0.198 A 
ATOM     92  F   UNL A   1      45.125  33.405  26.400  1.00  0.00    -0.203 F 
ATOM     93  F   UNL A   1      47.448  34.823  31.128  1.00  0.00    -0.200 F 
ATOM     94  C   UNL A   1      46.756  35.397  28.946  1.00  0.00     0.200 A 
ATOM     95  F   UNL A   1      46.035  35.926  26.760  1.00  0.00    -0.200 F 
ATOM     96  F   UNL A   1      47.179  36.655  29.126  1.00  0.00    -0.200 F 
ENDBRANCH  63  86
ENDBRANCH  37  38
ENDBRANCH  30  32
ENDBRANCH  29  30
ENDBRANCH  28  29
ENDBRANCH  27  28
ENDBRANCH  26  27
ENDBRANCH   1  26
TORSDOF 18
ENDMDL
MODEL 3
REMARK VINA RESULT:     -11.0      1.239      2.198
REMARK SMILES CC[C@@H](C(=O)OCCOCCOC(=O)c1ccc(-c2c3nc(c(-c4c(F)c(F)c(F)c(F)c4F)c4ccc([nH]4)c(-c4c(F)c(F)c(F)c(F)c4F)c4nc(c(-c5c(F)c(F)c(F)c(F)c5F)c5ccc2[nH]5)C=C4)C=C3)cc1)N1C(=O)/C(=C/c2ccccc2[N+](=O)[O-])SC1=S
REMARK SMILES IDX 8 1 7 2 6 3 4 4 5 5 3 6 2 7 1 8 78 9 79 10 93 11 80 12 81 13
REMARK SMILES IDX 92 14 94 15 82 16 83 17 84 18 88 19 85 20 87 21 86 22 89 23
REMARK SMILES IDX 90 24 91 25 9 26 10 27 11 28 12 29 13 30 14 31 15 32 16 33
REMARK SMILES IDX 77 34 17 35 76 36 18 37 19 38 20 39 70 40 21 41 75 42 69 43
REMARK SMILES IDX 71 44 22 45 74 46 68 47 67 48 23 50 55 51 35 52 54 53 36 54
REMARK SMILES IDX 39 55 53 56 72 57 37 58 38 59 52 61 73 62 40 63 24 64 25 65
REMARK SMILES IDX 33 66 26 67 27 68 31 69 34 70 28 71 29 72 32 73 30 74 56 75
REMARK SMILES IDX 57 76 65 77 58 78 59 79 63 80 66 81 60 82 61 83 64 84 62 85
REMARK SMILES IDX 41 86 42 87 50 88 43 89 44 90 48 91 51 92 45 93 46 94 49 95
REMARK SMILES IDX 47 96
REMARK H PARENT 71 49 39 60
REMARK Flexibility Score: inf
ROOT
ATOM      1  C   UNL A   1      37.067  21.835  25.395  1.00  0.00     0.202 C 
ENDROOT
BRANCH   1   2
ATOM      2  C   UNL A   1      35.947  20.810  25.169  1.00  0.00     0.261 C 
BRANCH   2   3
ATOM      3  O   UNL A   1      34.779  21.481  24.681  1.00  0.00    -0.462 OA
BRANCH   3   4
ATOM      4  C   UNL A   1      33.662  21.447  25.455  1.00  0.00     0.329 C 
ATOM      5  O   UNL A   1      33.639  21.117  26.634  1.00  0.00    -0.250 OA
BRANCH   4   6
ATOM      6  C   UNL A   1      32.453  22.025  24.694  1.00  0.00     0.201 C 
BRANCH   6   7
ATOM      7  C   UNL A   1      32.517  21.837  23.146  1.00  0.00     0.034 C 
ATOM      8  C   UNL A   1      32.153  20.449  22.624  1.00  0.00     0.007 C 
ENDBRANCH   6   7
BRANCH   6   9
ATOM      9  N   UNL A   1      32.004  23.411  25.084  1.00  0.00    -0.278 N 
ATOM     10  C   UNL A   1      32.694  24.475  24.510  1.00  0.00     0.267 C 
ATOM     11  C   UNL A   1      30.991  23.789  25.956  1.00  0.00     0.149 C 
ATOM     12  O   UNL A   1      33.537  24.402  23.627  1.00  0.00    -0.268 OA
ATOM     13  C   UNL A   1      32.275  25.771  25.101  1.00  0.00     0.081 C 
ATOM     14  S   UNL A   1      30.872  25.548  26.042  1.00  0.00    -0.054 SA
ATOM     15  S   UNL A   1      29.918  22.914  26.876  1.00  0.00    -0.052 S 
ATOM     16  C   UNL A   1      32.952  26.913  24.919  1.00  0.00     0.036 C 
BRANCH  16  17
ATOM     17  C   UNL A   1      32.566  28.228  25.464  1.00  0.00     0.054 A 
ATOM     18  C   UNL A   1      33.199  28.593  26.664  1.00  0.00     0.015 A 
ATOM     19  C   UNL A   1      31.675  29.153  24.882  1.00  0.00     0.276 A 
ATOM     20  C   UNL A   1      32.975  29.840  27.251  1.00  0.00     0.001 A 
ATOM     21  C   UNL A   1      31.457  30.413  25.469  1.00  0.00     0.086 A 
ATOM     22  C   UNL A   1      32.112  30.754  26.651  1.00  0.00     0.007 A 
BRANCH  19  23
ATOM     23  N   UNL A   1      30.931  28.846  23.657  1.00  0.00     0.063 N 
ATOM     24  O   UNL A   1      29.902  28.164  23.771  1.00  0.00    -0.258 OA
ATOM     25  O   UNL A   1      31.381  29.262  22.579  1.00  0.00    -0.258 OA
ENDBRANCH  19  23
ENDBRANCH  16  17
ENDBRANCH   6   9
ENDBRANCH   4   6
ENDBRANCH   3   4
ENDBRANCH   2   3
ENDBRANCH   1   2
BRANCH   1  26
ATOM     26  O   UNL A   1      38.416  21.365  25.367  1.00  0.00    -0.374 OA
BRANCH  26  27
ATOM     27  C   UNL A   1      38.658  20.005  25.012  1.00  0.00     0.202 C 
BRANCH  27  28
ATOM     28  C   UNL A   1      39.616  19.197  25.896  1.00  0.00     0.261 C 
BRANCH  28  29
ATOM     29  O   UNL A   1      40.984  19.276  25.462  1.00  0.00    -0.460 OA
BRANCH  29  30
ATOM     30  C   UNL A   1      41.873  19.516  26.453  1.00  0.00     0.338 C 
ATOM     31  O   UNL A   1      42.685  18.735  26.934  1.00  0.00    -0.246 OA
BRANCH  30  32
ATOM     32  C   UNL A   1      41.875  20.947  26.798  1.00  0.00     0.060 A 
ATOM     33  C   UNL A   1      41.781  21.867  25.745  1.00  0.00     0.016 A 
ATOM     34  C   UNL A   1      42.062  21.382  28.110  1.00  0.00     0.016 A 
ATOM     35  C   UNL A   1      41.916  23.229  25.995  1.00  0.00     0.010 A 
ATOM     36  C   UNL A   1      42.209  22.751  28.359  1.00  0.00     0.010 A 
ATOM     37  C   UNL A   1      42.171  23.677  27.297  1.00  0.00    -0.014 A 
BRANCH  37  38
ATOM     38  C   UNL A   1      42.543  25.094  27.523  1.00  0.00     0.031 A 
ATOM     39  C   UNL A   1      43.923  25.555  27.146  1.00  0.00     0.074 A 
ATOM     40  C   UNL A   1      41.654  25.965  28.030  1.00  0.00     0.049 A 
ATOM     41  N   UNL A   1      44.481  26.729  27.304  1.00  0.00    -0.248 NA
ATOM     42  C   UNL A   1      44.794  24.556  26.508  1.00  0.00     0.031 C 
ATOM     43  C   UNL A   1      40.273  25.648  28.387  1.00  0.00     0.029 A 
ATOM     44  N   UNL A   1      41.785  27.297  28.338  1.00  0.00    -0.354 N 
ATOM     45  C   UNL A   1      45.767  26.606  26.794  1.00  0.00     0.074 A 
ATOM     46  C   UNL A   1      45.919  25.237  26.350  1.00  0.00     0.031 C 
ATOM     47  C   UNL A   1      39.686  26.752  28.879  1.00  0.00     0.029 A 
ATOM     48  C   UNL A   1      40.662  27.841  28.908  1.00  0.00     0.049 A 
ATOM     49  H   UNL A   1      42.607  27.810  28.167  1.00  0.00     0.167 HD
ATOM     50  C   UNL A   1      46.730  27.553  26.699  1.00  0.00     0.037 A 
ATOM     51  C   UNL A   1      40.456  29.070  29.418  1.00  0.00     0.037 A 
ATOM     52  C   UNL A   1      46.571  28.916  27.138  1.00  0.00     0.049 A 
ATOM     53  C   UNL A   1      41.571  30.085  29.371  1.00  0.00     0.074 A 
ATOM     54  C   UNL A   1      47.479  29.957  27.065  1.00  0.00     0.029 A 
ATOM     55  N   UNL A   1      45.429  29.422  27.740  1.00  0.00    -0.354 N 
ATOM     56  N   UNL A   1      42.776  29.970  28.868  1.00  0.00    -0.248 NA
ATOM     57  C   UNL A   1      41.294  31.401  29.962  1.00  0.00     0.031 C 
ATOM     58  C   UNL A   1      46.910  31.078  27.678  1.00  0.00     0.029 A 
ATOM     59  C   UNL A   1      45.622  30.754  28.073  1.00  0.00     0.049 A 
ATOM     60  H   UNL A   1      44.604  28.913  27.907  1.00  0.00     0.167 HD
ATOM     61  C   UNL A   1      43.388  31.204  29.052  1.00  0.00     0.074 A 
ATOM     62  C   UNL A   1      42.417  32.057  29.702  1.00  0.00     0.031 C 
ATOM     63  C   UNL A   1      44.641  31.595  28.711  1.00  0.00     0.037 A 
BRANCH  50  64
ATOM     64  C   UNL A   1      48.056  27.144  26.124  1.00  0.00     0.064 A 
ATOM     65  C   UNL A   1      49.087  26.637  26.928  1.00  0.00     0.173 A 
ATOM     66  C   UNL A   1      48.280  27.220  24.741  1.00  0.00     0.173 A 
ATOM     67  F   UNL A   1      48.929  26.554  28.258  1.00  0.00    -0.203 F 
ATOM     68  C   UNL A   1      50.304  26.249  26.373  1.00  0.00     0.198 A 
ATOM     69  C   UNL A   1      49.487  26.802  24.185  1.00  0.00     0.198 A 
ATOM     70  F   UNL A   1      47.326  27.693  23.925  1.00  0.00    -0.203 F 
ATOM     71  F   UNL A   1      51.293  25.813  27.165  1.00  0.00    -0.200 F 
ATOM     72  C   UNL A   1      50.500  26.324  25.001  1.00  0.00     0.200 A 
ATOM     73  F   UNL A   1      49.668  26.862  22.859  1.00  0.00    -0.200 F 
ATOM     74  F   UNL A   1      51.668  25.940  24.467  1.00  0.00    -0.200 F 
ENDBRANCH  50  64
BRANCH  51  75
ATOM     75  C   UNL A   1      39.147  29.409  30.037  1.00  0.00     0.064 A 
ATOM     76  C   UNL A   1      38.144  30.057  29.304  1.00  0.00     0.173 A 
ATOM     77  C   UNL A   1      38.883  29.112  31.383  1.00  0.00     0.173 A 
ATOM     78  F   UNL A   1      38.358  30.385  28.022  1.00  0.00    -0.203 F 
ATOM     79  C   UNL A   1      36.935  30.413  29.898  1.00  0.00     0.198 A 
ATOM     80  C   UNL A   1      37.661  29.441  31.967  1.00  0.00     0.198 A 
ATOM     81  F   UNL A   1      39.809  28.495  32.130  1.00  0.00    -0.203 F 
ATOM     82  F   UNL A   1      36.013  31.079  29.189  1.00  0.00    -0.200 F 
ATOM     83  C   UNL A   1      36.691  30.100  31.227  1.00  0.00     0.200 A 
ATOM     84  F   UNL A   1      37.427  29.125  33.248  1.00  0.00    -0.200 F 
ATOM     85  F   UNL A   1      35.528  30.442  31.797  1.00  0.00    -0.200 F 
ENDBRANCH  51  75
BRANCH  63  86
ATOM     86  C   UNL A   1      45.023  33.022  28.991  1.00  0.00     0.064 A 
ATOM     87  C   UNL A   1      44.744  34.055  28.085  1.00  0.00     0.173 A 
ATOM     88  C   UNL A   1      45.633  33.364  30.208  1.00  0.00     0.173 A 
ATOM     89  F   UNL A   1      44.173  33.779  26.902  1.00  0.00    -0.203 F 
ATOM     90  C   UNL A   1      45.084  35.374  28.376  1.00  0.00     0.198 A 
ATOM     91  C   UNL A   1      45.942  34.687  30.509  1.00  0.00     0.198 A 
ATOM     92  F   UNL A   1      45.916  32.416  31.114  1.00  0.00    -0.203 F 
ATOM     93  F   UNL A   1      44.852  36.337  27.474  1.00  0.00    -0.200 F 
ATOM     94  C   UNL A   1      45.674  35.690  29.590  1.00  0.00     0.200 A 
ATOM     95  F   UNL A   1      46.497  34.993  31.690  1.00  0.00    -0.200 F 
ATOM     96  F   UNL A   1      45.991  36.961  29.872  1.00  0.00    -0.200 F 
ENDBRANCH  63  86
ENDBRANCH  37  38
ENDBRANCH  30  32
ENDBRANCH  29  30
ENDBRANCH  28  29
ENDBRANCH  27  28
ENDBRANCH  26  27
ENDBRANCH   1  26
TORSDOF 18
ENDMDL
