MODEL 1
REMARK VINA RESULT:     -12.0      0.000      0.000
REMARK SMILES CCn1nc(C)c(NS(=O)(=O)c2cc(C(=O)OCCOCCOC(=O)c3ccc(-c4c5nc(c(-c6c(F)c(F)c(F)c(F)c6F)c6ccc([nH]6)c(-c6c(F)c(F)c(F)c(F)c6F)c6nc(c(-c7c(F)c(F)c(F)c(F)c7F)c7ccc4[nH]7)C=C6)C=C5)cc3)cc(F)c2C)c1C
REMARK SMILES IDX 19 1 18 2 17 3 15 4 16 5 14 6 12 7 13 8 92 9 90 10 93 11
REMARK SMILES IDX 89 12 91 13 9 14 10 15 11 16 8 17 7 19 3 20 4 21 94 22 5 23
REMARK SMILES IDX 95 24 6 25 2 26 1 27 20 28 21 29 22 30 23 31 24 32 25 33
REMARK SMILES IDX 26 34 27 35 88 36 28 37 87 38 29 39 30 40 31 41 81 42 32 43
REMARK SMILES IDX 86 44 80 45 82 46 33 47 85 48 79 49 78 50 34 52 66 53 46 54
REMARK SMILES IDX 65 55 47 56 50 57 64 58 83 59 48 60 49 61 63 63 84 64 51 65
REMARK SMILES IDX 35 66 36 67 44 68 37 69 38 70 42 71 45 72 39 73 40 74 43 75
REMARK SMILES IDX 41 76 67 77 68 78 76 79 69 80 70 81 74 82 77 83 71 84 72 85
REMARK SMILES IDX 75 86 73 87 52 88 53 89 61 90 54 91 55 92 59 93 62 94 56 95
REMARK SMILES IDX 57 96 60 97 58 98
REMARK H PARENT 8 18 82 51 50 62
REMARK Flexibility Score: inf
ROOT
ATOM      1  C   UNL A   1      39.518  20.786  26.379  1.00  0.00     0.202 C 
ENDROOT
BRANCH   1   2
ATOM      2  C   UNL A   1      38.845  22.064  25.827  1.00  0.00     0.261 C 
BRANCH   2   3
ATOM      3  O   UNL A   1      37.463  21.972  25.466  1.00  0.00    -0.460 OA
BRANCH   3   4
ATOM      4  C   UNL A   1      36.794  23.128  25.644  1.00  0.00     0.338 C 
ATOM      5  O   UNL A   1      37.262  24.169  26.076  1.00  0.00    -0.246 OA
BRANCH   4   6
ATOM      6  C   UNL A   1      35.411  23.054  25.118  1.00  0.00     0.064 A 
ATOM      7  C   UNL A   1      33.009  23.443  25.229  1.00  0.00     0.094 A 
ATOM      8  C   UNL A   1      34.255  23.255  25.878  1.00  0.00     0.038 A 
ATOM      9  C   UNL A   1      32.958  23.488  23.828  1.00  0.00     0.005 A 
ATOM     10  C   UNL A   1      34.091  23.064  23.122  1.00  0.00     0.128 A 
ATOM     11  C   UNL A   1      31.850  24.046  22.991  1.00  0.00     0.049 C 
ATOM     12  C   UNL A   1      35.302  22.845  23.747  1.00  0.00     0.055 A 
ATOM     13  F   UNL A   1      34.033  22.932  21.790  1.00  0.00    -0.207 F 
BRANCH   7  14
ATOM     14  S   UNL A   1      31.606  23.615  26.318  1.00  0.00     0.262 S 
ATOM     15  O   UNL A   1      32.095  23.251  27.629  1.00  0.00    -0.201 OA
ATOM     16  O   UNL A   1      30.511  22.882  25.709  1.00  0.00    -0.201 OA
BRANCH  14  17
ATOM     17  N   UNL A   1      31.122  25.205  26.465  1.00  0.00    -0.276 N 
ATOM     18  H   UNL A   1      30.545  25.379  27.244  1.00  0.00     0.180 HD
BRANCH  17  19
ATOM     19  C   UNL A   1      31.384  26.335  25.688  1.00  0.00     0.093 A 
ATOM     20  N   UNL A   1      30.920  28.106  24.469  1.00  0.00    -0.268 N 
ATOM     21  N   UNL A   1      32.199  28.290  24.840  1.00  0.00    -0.176 NA
ATOM     22  C   UNL A   1      30.441  26.870  24.824  1.00  0.00     0.060 A 
ATOM     23  C   UNL A   1      32.501  27.206  25.572  1.00  0.00     0.084 A 
ATOM     24  C   UNL A   1      29.128  26.333  24.374  1.00  0.00     0.069 C 
ATOM     25  C   UNL A   1      33.866  27.116  26.142  1.00  0.00     0.071 C 
BRANCH  20  26
ATOM     26  C   UNL A   1      30.180  29.165  23.800  1.00  0.00     0.141 C 
ATOM     27  C   UNL A   1      30.432  29.314  22.307  1.00  0.00     0.029 C 
ENDBRANCH  20  26
ENDBRANCH  17  19
ENDBRANCH  14  17
ENDBRANCH   7  14
ENDBRANCH   4   6
ENDBRANCH   3   4
ENDBRANCH   2   3
ENDBRANCH   1   2
BRANCH   1  28
ATOM     28  O   UNL A   1      40.461  20.763  27.438  1.00  0.00    -0.374 OA
BRANCH  28  29
ATOM     29  C   UNL A   1      41.765  21.305  27.379  1.00  0.00     0.202 C 
BRANCH  29  30
ATOM     30  C   UNL A   1      42.143  22.549  28.157  1.00  0.00     0.261 C 
BRANCH  30  31
ATOM     31  O   UNL A   1      41.171  23.593  28.178  1.00  0.00    -0.460 OA
BRANCH  31  32
ATOM     32  C   UNL A   1      41.244  24.451  27.137  1.00  0.00     0.338 C 
ATOM     33  O   UNL A   1      42.171  24.571  26.355  1.00  0.00    -0.246 OA
BRANCH  32  34
ATOM     34  C   UNL A   1      40.182  25.468  27.188  1.00  0.00     0.060 A 
ATOM     35  C   UNL A   1      40.515  26.629  26.471  1.00  0.00     0.016 A 
ATOM     36  C   UNL A   1      39.452  25.516  28.375  1.00  0.00     0.016 A 
ATOM     37  C   UNL A   1      40.497  27.829  27.147  1.00  0.00     0.010 A 
ATOM     38  C   UNL A   1      39.437  26.712  29.048  1.00  0.00     0.010 A 
ATOM     39  C   UNL A   1      40.063  27.822  28.468  1.00  0.00    -0.014 A 
BRANCH  39  40
ATOM     40  C   UNL A   1      40.121  29.007  29.284  1.00  0.00     0.031 A 
ATOM     41  C   UNL A   1      39.057  29.989  29.047  1.00  0.00     0.074 A 
ATOM     42  C   UNL A   1      41.092  29.168  30.206  1.00  0.00     0.049 A 
ATOM     43  N   UNL A   1      39.189  31.250  29.240  1.00  0.00    -0.248 NA
ATOM     44  C   UNL A   1      37.777  29.623  28.442  1.00  0.00     0.031 C 
ATOM     45  C   UNL A   1      41.103  30.117  31.306  1.00  0.00     0.029 A 
ATOM     46  N   UNL A   1      42.353  28.549  30.267  1.00  0.00    -0.354 N 
ATOM     47  C   UNL A   1      37.937  31.804  29.109  1.00  0.00     0.074 A 
ATOM     48  C   UNL A   1      37.138  30.796  28.457  1.00  0.00     0.031 C 
ATOM     49  C   UNL A   1      42.350  30.205  31.797  1.00  0.00     0.029 A 
ATOM     50  C   UNL A   1      43.230  29.453  30.920  1.00  0.00     0.049 A 
ATOM     51  H   UNL A   1      42.584  27.656  29.922  1.00  0.00     0.167 HD
ATOM     52  C   UNL A   1      37.687  32.980  29.747  1.00  0.00     0.037 A 
ATOM     53  C   UNL A   1      44.332  29.979  30.290  1.00  0.00     0.037 A 
ATOM     54  C   UNL A   1      38.887  33.439  30.445  1.00  0.00     0.049 A 
ATOM     55  C   UNL A   1      44.208  31.447  29.982  1.00  0.00     0.074 A 
ATOM     56  C   UNL A   1      39.345  33.290  31.744  1.00  0.00     0.029 A 
ATOM     57  N   UNL A   1      39.990  33.809  29.699  1.00  0.00    -0.354 N 
ATOM     58  N   UNL A   1      43.158  32.164  30.253  1.00  0.00    -0.248 NA
ATOM     59  C   UNL A   1      45.221  32.183  29.231  1.00  0.00     0.031 C 
ATOM     60  C   UNL A   1      40.733  33.610  31.767  1.00  0.00     0.029 A 
ATOM     61  C   UNL A   1      41.111  33.973  30.487  1.00  0.00     0.049 A 
ATOM     62  H   UNL A   1      39.978  33.939  28.723  1.00  0.00     0.167 HD
ATOM     63  C   UNL A   1      43.312  33.411  29.722  1.00  0.00     0.074 A 
ATOM     64  C   UNL A   1      44.607  33.365  29.061  1.00  0.00     0.031 C 
ATOM     65  C   UNL A   1      42.353  34.375  29.849  1.00  0.00     0.037 A 
BRANCH  52  66
ATOM     66  C   UNL A   1      36.309  33.541  29.999  1.00  0.00     0.064 A 
ATOM     67  C   UNL A   1      35.525  33.993  28.916  1.00  0.00     0.173 A 
ATOM     68  C   UNL A   1      35.710  33.696  31.264  1.00  0.00     0.173 A 
ATOM     69  F   UNL A   1      35.919  33.826  27.647  1.00  0.00    -0.203 F 
ATOM     70  C   UNL A   1      34.298  34.636  29.091  1.00  0.00     0.198 A 
ATOM     71  C   UNL A   1      34.503  34.381  31.444  1.00  0.00     0.198 A 
ATOM     72  F   UNL A   1      36.238  33.142  32.362  1.00  0.00    -0.203 F 
ATOM     73  F   UNL A   1      33.608  35.048  28.018  1.00  0.00    -0.200 F 
ATOM     74  C   UNL A   1      33.801  34.859  30.357  1.00  0.00     0.200 A 
ATOM     75  F   UNL A   1      34.022  34.567  32.682  1.00  0.00    -0.200 F 
ATOM     76  F   UNL A   1      32.639  35.503  30.526  1.00  0.00    -0.200 F 
ENDBRANCH  52  66
BRANCH  53  77
ATOM     77  C   UNL A   1      45.057  29.024  29.395  1.00  0.00     0.064 A 
ATOM     78  C   UNL A   1      44.815  29.240  28.028  1.00  0.00     0.173 A 
ATOM     79  C   UNL A   1      46.347  28.655  29.798  1.00  0.00     0.173 A 
ATOM     80  F   UNL A   1      43.565  29.448  27.587  1.00  0.00    -0.203 F 
ATOM     81  C   UNL A   1      45.874  29.586  27.218  1.00  0.00     0.198 A 
ATOM     82  C   UNL A   1      47.411  28.969  28.978  1.00  0.00     0.198 A 
ATOM     83  F   UNL A   1      46.586  28.260  31.057  1.00  0.00    -0.203 F 
ATOM     84  F   UNL A   1      45.658  30.156  26.024  1.00  0.00    -0.200 F 
ATOM     85  C   UNL A   1      47.148  29.565  27.756  1.00  0.00     0.200 A 
ATOM     86  F   UNL A   1      48.662  28.875  29.444  1.00  0.00    -0.200 F 
ATOM     87  F   UNL A   1      48.061  30.349  27.200  1.00  0.00    -0.200 F 
ENDBRANCH  53  77
BRANCH  65  88
ATOM     88  C   UNL A   1      42.511  35.781  29.339  1.00  0.00     0.064 A 
ATOM     89  C   UNL A   1      42.009  36.193  28.094  1.00  0.00     0.173 A 
ATOM     90  C   UNL A   1      43.254  36.754  30.045  1.00  0.00     0.173 A 
ATOM     91  F   UNL A   1      41.445  35.316  27.250  1.00  0.00    -0.203 F 
ATOM     92  C   UNL A   1      42.106  37.515  27.664  1.00  0.00     0.198 A 
ATOM     93  C   UNL A   1      43.404  38.057  29.584  1.00  0.00     0.198 A 
ATOM     94  F   UNL A   1      43.855  36.492  31.212  1.00  0.00    -0.203 F 
ATOM     95  F   UNL A   1      41.528  37.880  26.512  1.00  0.00    -0.200 F 
ATOM     96  C   UNL A   1      42.798  38.449  28.412  1.00  0.00     0.200 A 
ATOM     97  F   UNL A   1      44.131  38.930  30.297  1.00  0.00    -0.200 F 
ATOM     98  F   UNL A   1      42.892  39.719  27.998  1.00  0.00    -0.200 F 
ENDBRANCH  65  88
ENDBRANCH  39  40
ENDBRANCH  32  34
ENDBRANCH  31  32
ENDBRANCH  30  31
ENDBRANCH  29  30
ENDBRANCH  28  29
ENDBRANCH   1  28
TORSDOF 18
ENDMDL
MODEL 2
REMARK VINA RESULT:     -11.9      4.266      9.680
REMARK SMILES CCn1nc(C)c(NS(=O)(=O)c2cc(C(=O)OCCOCCOC(=O)c3ccc(-c4c5nc(c(-c6c(F)c(F)c(F)c(F)c6F)c6ccc([nH]6)c(-c6c(F)c(F)c(F)c(F)c6F)c6nc(c(-c7c(F)c(F)c(F)c(F)c7F)c7ccc4[nH]7)C=C6)C=C5)cc3)cc(F)c2C)c1C
REMARK SMILES IDX 19 1 18 2 17 3 15 4 16 5 14 6 12 7 13 8 92 9 90 10 93 11
REMARK SMILES IDX 89 12 91 13 9 14 10 15 11 16 8 17 7 19 3 20 4 21 94 22 5 23
REMARK SMILES IDX 95 24 6 25 2 26 1 27 20 28 21 29 22 30 23 31 24 32 25 33
REMARK SMILES IDX 26 34 27 35 88 36 28 37 87 38 29 39 30 40 31 41 81 42 32 43
REMARK SMILES IDX 86 44 80 45 82 46 33 47 85 48 79 49 78 50 34 52 66 53 46 54
REMARK SMILES IDX 65 55 47 56 50 57 64 58 83 59 48 60 49 61 63 63 84 64 51 65
REMARK SMILES IDX 35 66 36 67 44 68 37 69 38 70 42 71 45 72 39 73 40 74 43 75
REMARK SMILES IDX 41 76 67 77 68 78 76 79 69 80 70 81 74 82 77 83 71 84 72 85
REMARK SMILES IDX 75 86 73 87 52 88 53 89 61 90 54 91 55 92 59 93 62 94 56 95
REMARK SMILES IDX 57 96 60 97 58 98
REMARK H PARENT 8 18 82 51 50 62
REMARK Flexibility Score: inf
ROOT
ATOM      1  C   UNL A   1      32.719  33.068  27.577  1.00  0.00     0.202 C 
ENDROOT
BRANCH   1   2
ATOM      2  C   UNL A   1      31.835  32.079  26.783  1.00  0.00     0.261 C 
BRANCH   2   3
ATOM      3  O   UNL A   1      31.888  30.701  27.167  1.00  0.00    -0.460 OA
BRANCH   3   4
ATOM      4  C   UNL A   1      32.964  30.058  26.673  1.00  0.00     0.338 C 
ATOM      5  O   UNL A   1      34.111  30.163  27.078  1.00  0.00    -0.246 OA
BRANCH   4   6
ATOM      6  C   UNL A   1      32.592  29.069  25.636  1.00  0.00     0.064 A 
ATOM      7  C   UNL A   1      31.138  27.381  24.649  1.00  0.00     0.094 A 
ATOM      8  C   UNL A   1      31.611  28.084  25.786  1.00  0.00     0.038 A 
ATOM      9  C   UNL A   1      31.615  27.725  23.376  1.00  0.00     0.005 A 
ATOM     10  C   UNL A   1      32.743  28.551  23.305  1.00  0.00     0.128 A 
ATOM     11  C   UNL A   1      30.980  27.389  22.063  1.00  0.00     0.049 C 
ATOM     12  C   UNL A   1      33.234  29.215  24.410  1.00  0.00     0.055 A 
ATOM     13  F   UNL A   1      33.332  28.771  22.121  1.00  0.00    -0.207 F 
BRANCH   7  14
ATOM     14  S   UNL A   1      29.941  26.104  24.991  1.00  0.00     0.262 S 
ATOM     15  O   UNL A   1      28.728  26.533  24.330  1.00  0.00    -0.201 OA
ATOM     16  O   UNL A   1      29.961  25.884  26.426  1.00  0.00    -0.201 OA
BRANCH  14  17
ATOM     17  N   UNL A   1      30.343  24.659  24.259  1.00  0.00    -0.276 N 
ATOM     18  H   UNL A   1      29.692  24.355  23.586  1.00  0.00     0.180 HD
BRANCH  17  19
ATOM     19  C   UNL A   1      31.433  23.803  24.424  1.00  0.00     0.093 A 
ATOM     20  N   UNL A   1      32.491  21.957  24.981  1.00  0.00    -0.268 N 
ATOM     21  N   UNL A   1      33.344  22.587  24.156  1.00  0.00    -0.176 NA
ATOM     22  C   UNL A   1      31.397  22.724  25.295  1.00  0.00     0.060 A 
ATOM     23  C   UNL A   1      32.717  23.725  23.821  1.00  0.00     0.084 A 
ATOM     24  C   UNL A   1      30.396  22.351  26.330  1.00  0.00     0.069 C 
ATOM     25  C   UNL A   1      33.413  24.650  22.895  1.00  0.00     0.071 C 
BRANCH  20  26
ATOM     26  C   UNL A   1      32.749  20.594  25.421  1.00  0.00     0.141 C 
ATOM     27  C   UNL A   1      32.700  19.524  24.342  1.00  0.00     0.029 C 
ENDBRANCH  20  26
ENDBRANCH  17  19
ENDBRANCH  14  17
ENDBRANCH   7  14
ENDBRANCH   4   6
ENDBRANCH   3   4
ENDBRANCH   2   3
ENDBRANCH   1   2
BRANCH   1  28
ATOM     28  O   UNL A   1      32.296  34.343  28.031  1.00  0.00    -0.374 OA
BRANCH  28  29
ATOM     29  C   UNL A   1      33.137  35.322  28.609  1.00  0.00     0.202 C 
BRANCH  29  30
ATOM     30  C   UNL A   1      33.120  35.602  30.099  1.00  0.00     0.261 C 
BRANCH  30  31
ATOM     31  O   UNL A   1      33.276  34.469  30.951  1.00  0.00    -0.460 OA
BRANCH  31  32
ATOM     32  C   UNL A   1      34.555  34.184  31.279  1.00  0.00     0.338 C 
ATOM     33  O   UNL A   1      35.304  34.866  31.956  1.00  0.00    -0.246 OA
BRANCH  32  34
ATOM     34  C   UNL A   1      35.088  33.064  30.487  1.00  0.00     0.060 A 
ATOM     35  C   UNL A   1      35.234  31.891  31.246  1.00  0.00     0.016 A 
ATOM     36  C   UNL A   1      35.993  33.412  29.484  1.00  0.00     0.016 A 
ATOM     37  C   UNL A   1      36.482  31.310  31.299  1.00  0.00     0.010 A 
ATOM     38  C   UNL A   1      37.236  32.834  29.540  1.00  0.00     0.010 A 
ATOM     39  C   UNL A   1      37.491  31.872  30.524  1.00  0.00    -0.014 A 
BRANCH  39  40
ATOM     40  C   UNL A   1      38.850  31.402  30.605  1.00  0.00     0.031 A 
ATOM     41  C   UNL A   1      39.116  30.121  29.942  1.00  0.00     0.074 A 
ATOM     42  C   UNL A   1      39.796  32.122  31.243  1.00  0.00     0.049 A 
ATOM     43  N   UNL A   1      40.033  29.301  30.307  1.00  0.00    -0.248 NA
ATOM     44  C   UNL A   1      38.264  29.604  28.871  1.00  0.00     0.031 C 
ATOM     45  C   UNL A   1      41.236  31.963  31.134  1.00  0.00     0.029 A 
ATOM     46  N   UNL A   1      39.628  33.109  32.230  1.00  0.00    -0.354 N 
ATOM     47  C   UNL A   1      40.106  28.332  29.334  1.00  0.00     0.074 A 
ATOM     48  C   UNL A   1      38.894  28.468  28.564  1.00  0.00     0.031 C 
ATOM     49  C   UNL A   1      41.828  32.622  32.144  1.00  0.00     0.029 A 
ATOM     50  C   UNL A   1      40.788  33.084  33.047  1.00  0.00     0.049 A 
ATOM     51  H   UNL A   1      38.852  33.706  32.335  1.00  0.00     0.167 HD
ATOM     52  C   UNL A   1      41.282  27.661  29.187  1.00  0.00     0.037 A 
ATOM     53  C   UNL A   1      40.729  32.774  34.384  1.00  0.00     0.037 A 
ATOM     54  C   UNL A   1      42.252  28.123  30.178  1.00  0.00     0.049 A 
ATOM     55  C   UNL A   1      41.338  31.440  34.723  1.00  0.00     0.074 A 
ATOM     56  C   UNL A   1      43.254  29.080  30.151  1.00  0.00     0.029 A 
ATOM     57  N   UNL A   1      42.008  27.875  31.516  1.00  0.00    -0.354 N 
ATOM     58  N   UNL A   1      41.853  30.629  33.848  1.00  0.00    -0.248 NA
ATOM     59  C   UNL A   1      41.296  30.873  36.068  1.00  0.00     0.031 C 
ATOM     60  C   UNL A   1      43.627  29.374  31.493  1.00  0.00     0.029 A 
ATOM     61  C   UNL A   1      42.867  28.581  32.334  1.00  0.00     0.049 A 
ATOM     62  H   UNL A   1      41.306  27.269  31.845  1.00  0.00     0.167 HD
ATOM     63  C   UNL A   1      42.187  29.456  34.459  1.00  0.00     0.074 A 
ATOM     64  C   UNL A   1      41.787  29.644  35.844  1.00  0.00     0.031 C 
ATOM     65  C   UNL A   1      42.744  28.416  33.772  1.00  0.00     0.037 A 
BRANCH  52  66
ATOM     66  C   UNL A   1      41.650  26.835  27.980  1.00  0.00     0.064 A 
ATOM     67  C   UNL A   1      41.128  25.532  27.832  1.00  0.00     0.173 A 
ATOM     68  C   UNL A   1      42.527  27.237  26.953  1.00  0.00     0.173 A 
ATOM     69  F   UNL A   1      40.209  25.045  28.676  1.00  0.00    -0.203 F 
ATOM     70  C   UNL A   1      41.526  24.673  26.807  1.00  0.00     0.198 A 
ATOM     71  C   UNL A   1      42.963  26.361  25.953  1.00  0.00     0.198 A 
ATOM     72  F   UNL A   1      42.948  28.503  26.847  1.00  0.00    -0.203 F 
ATOM     73  F   UNL A   1      40.995  23.444  26.730  1.00  0.00    -0.200 F 
ATOM     74  C   UNL A   1      42.468  25.075  25.885  1.00  0.00     0.200 A 
ATOM     75  F   UNL A   1      43.861  26.778  25.048  1.00  0.00    -0.200 F 
ATOM     76  F   UNL A   1      42.873  24.240  24.920  1.00  0.00    -0.200 F 
ENDBRANCH  52  66
BRANCH  53  77
ATOM     77  C   UNL A   1      39.536  33.324  35.102  1.00  0.00     0.064 A 
ATOM     78  C   UNL A   1      38.571  32.352  35.413  1.00  0.00     0.173 A 
ATOM     79  C   UNL A   1      39.787  34.343  36.029  1.00  0.00     0.173 A 
ATOM     80  F   UNL A   1      38.196  31.450  34.493  1.00  0.00    -0.203 F 
ATOM     81  C   UNL A   1      38.282  32.112  36.739  1.00  0.00     0.198 A 
ATOM     82  C   UNL A   1      39.471  34.124  37.355  1.00  0.00     0.198 A 
ATOM     83  F   UNL A   1      40.559  35.391  35.706  1.00  0.00    -0.203 F 
ATOM     84  F   UNL A   1      37.671  30.976  37.105  1.00  0.00    -0.200 F 
ATOM     85  C   UNL A   1      38.849  32.934  37.695  1.00  0.00     0.200 A 
ATOM     86  F   UNL A   1      39.935  34.954  38.296  1.00  0.00    -0.200 F 
ATOM     87  F   UNL A   1      39.009  32.438  38.914  1.00  0.00    -0.200 F 
ENDBRANCH  53  77
BRANCH  65  88
ATOM     88  C   UNL A   1      43.189  27.132  34.419  1.00  0.00     0.064 A 
ATOM     89  C   UNL A   1      44.542  26.798  34.579  1.00  0.00     0.173 A 
ATOM     90  C   UNL A   1      42.266  26.140  34.824  1.00  0.00     0.173 A 
ATOM     91  F   UNL A   1      45.513  27.572  34.071  1.00  0.00    -0.203 F 
ATOM     92  C   UNL A   1      44.939  25.635  35.238  1.00  0.00     0.198 A 
ATOM     93  C   UNL A   1      42.667  24.952  35.425  1.00  0.00     0.198 A 
ATOM     94  F   UNL A   1      40.945  26.282  34.670  1.00  0.00    -0.203 F 
ATOM     95  F   UNL A   1      46.242  25.408  35.451  1.00  0.00    -0.200 F 
ATOM     96  C   UNL A   1      44.001  24.715  35.667  1.00  0.00     0.200 A 
ATOM     97  F   UNL A   1      41.742  24.047  35.776  1.00  0.00    -0.200 F 
ATOM     98  F   UNL A   1      44.382  23.598  36.297  1.00  0.00    -0.200 F 
ENDBRANCH  65  88
ENDBRANCH  39  40
ENDBRANCH  32  34
ENDBRANCH  31  32
ENDBRANCH  30  31
ENDBRANCH  29  30
ENDBRANCH  28  29
ENDBRANCH   1  28
TORSDOF 18
ENDMDL
MODEL 3
REMARK VINA RESULT:     -11.9      4.272      9.458
REMARK SMILES CCn1nc(C)c(NS(=O)(=O)c2cc(C(=O)OCCOCCOC(=O)c3ccc(-c4c5nc(c(-c6c(F)c(F)c(F)c(F)c6F)c6ccc([nH]6)c(-c6c(F)c(F)c(F)c(F)c6F)c6nc(c(-c7c(F)c(F)c(F)c(F)c7F)c7ccc4[nH]7)C=C6)C=C5)cc3)cc(F)c2C)c1C
REMARK SMILES IDX 19 1 18 2 17 3 15 4 16 5 14 6 12 7 13 8 92 9 90 10 93 11
REMARK SMILES IDX 89 12 91 13 9 14 10 15 11 16 8 17 7 19 3 20 4 21 94 22 5 23
REMARK SMILES IDX 95 24 6 25 2 26 1 27 20 28 21 29 22 30 23 31 24 32 25 33
REMARK SMILES IDX 26 34 27 35 88 36 28 37 87 38 29 39 30 40 31 41 81 42 32 43
REMARK SMILES IDX 86 44 80 45 82 46 33 47 85 48 79 49 78 50 34 52 66 53 46 54
REMARK SMILES IDX 65 55 47 56 50 57 64 58 83 59 48 60 49 61 63 63 84 64 51 65
REMARK SMILES IDX 35 66 36 67 44 68 37 69 38 70 42 71 45 72 39 73 40 74 43 75
REMARK SMILES IDX 41 76 67 77 68 78 76 79 69 80 70 81 74 82 77 83 71 84 72 85
REMARK SMILES IDX 75 86 73 87 52 88 53 89 61 90 54 91 55 92 59 93 62 94 56 95
REMARK SMILES IDX 57 96 60 97 58 98
REMARK H PARENT 8 18 82 51 50 62
REMARK Flexibility Score: inf
ROOT
ATOM      1  C   UNL A   1      34.551  31.746  28.216  1.00  0.00     0.202 C 
ENDROOT
BRANCH   1   2
ATOM      2  C   UNL A   1      34.304  30.575  27.237  1.00  0.00     0.261 C 
BRANCH   2   3
ATOM      3  O   UNL A   1      33.129  29.785  27.444  1.00  0.00    -0.460 OA
BRANCH   3   4
ATOM      4  C   UNL A   1      32.124  30.108  26.607  1.00  0.00     0.338 C 
ATOM      5  O   UNL A   1      31.676  31.228  26.421  1.00  0.00    -0.246 OA
BRANCH   4   6
ATOM      6  C   UNL A   1      31.683  28.948  25.798  1.00  0.00     0.064 A 
ATOM      7  C   UNL A   1      31.015  26.625  25.494  1.00  0.00     0.094 A 
ATOM      8  C   UNL A   1      31.717  27.617  26.224  1.00  0.00     0.038 A 
ATOM      9  C   UNL A   1      30.242  27.000  24.385  1.00  0.00     0.005 A 
ATOM     10  C   UNL A   1      30.420  28.292  23.874  1.00  0.00     0.128 A 
ATOM     11  C   UNL A   1      29.156  26.198  23.740  1.00  0.00     0.049 C 
ATOM     12  C   UNL A   1      31.128  29.258  24.560  1.00  0.00     0.055 A 
ATOM     13  F   UNL A   1      29.829  28.639  22.722  1.00  0.00    -0.207 F 
BRANCH   7  14
ATOM     14  S   UNL A   1      31.202  24.960  26.105  1.00  0.00     0.262 S 
ATOM     15  O   UNL A   1      29.909  24.608  26.649  1.00  0.00    -0.201 OA
ATOM     16  O   UNL A   1      32.384  24.953  26.947  1.00  0.00    -0.201 OA
BRANCH  14  17
ATOM     17  N   UNL A   1      31.462  23.867  24.870  1.00  0.00    -0.276 N 
ATOM     18  H   UNL A   1      30.669  23.694  24.313  1.00  0.00     0.180 HD
BRANCH  17  19
ATOM     19  C   UNL A   1      32.597  23.154  24.481  1.00  0.00     0.093 A 
ATOM     20  N   UNL A   1      34.702  22.847  23.920  1.00  0.00    -0.268 N 
ATOM     21  N   UNL A   1      34.270  21.620  24.258  1.00  0.00    -0.176 NA
ATOM     22  C   UNL A   1      33.688  23.772  23.888  1.00  0.00     0.060 A 
ATOM     23  C   UNL A   1      32.980  21.790  24.587  1.00  0.00     0.084 A 
ATOM     24  C   UNL A   1      33.848  25.155  23.365  1.00  0.00     0.069 C 
ATOM     25  C   UNL A   1      32.215  20.596  25.021  1.00  0.00     0.071 C 
BRANCH  20  26
ATOM     26  C   UNL A   1      36.112  23.097  23.667  1.00  0.00     0.141 C 
ATOM     27  C   UNL A   1      36.915  23.637  24.841  1.00  0.00     0.029 C 
ENDBRANCH  20  26
ENDBRANCH  17  19
ENDBRANCH  14  17
ENDBRANCH   7  14
ENDBRANCH   4   6
ENDBRANCH   3   4
ENDBRANCH   2   3
ENDBRANCH   1   2
BRANCH   1  28
ATOM     28  O   UNL A   1      34.979  33.043  27.833  1.00  0.00    -0.374 OA
BRANCH  28  29
ATOM     29  C   UNL A   1      34.900  34.199  28.643  1.00  0.00     0.202 C 
BRANCH  29  30
ATOM     30  C   UNL A   1      34.031  34.240  29.884  1.00  0.00     0.261 C 
BRANCH  30  31
ATOM     31  O   UNL A   1      34.651  34.742  31.066  1.00  0.00    -0.460 OA
BRANCH  31  32
ATOM     32  C   UNL A   1      34.572  33.919  32.135  1.00  0.00     0.338 C 
ATOM     33  O   UNL A   1      33.572  33.359  32.553  1.00  0.00    -0.246 OA
BRANCH  32  34
ATOM     34  C   UNL A   1      35.789  33.971  32.959  1.00  0.00     0.060 A 
ATOM     35  C   UNL A   1      36.793  34.769  32.387  1.00  0.00     0.016 A 
ATOM     36  C   UNL A   1      36.086  32.807  33.669  1.00  0.00     0.016 A 
ATOM     37  C   UNL A   1      38.021  34.191  32.155  1.00  0.00     0.010 A 
ATOM     38  C   UNL A   1      37.309  32.231  33.435  1.00  0.00     0.010 A 
ATOM     39  C   UNL A   1      38.212  32.882  32.587  1.00  0.00    -0.014 A 
BRANCH  39  40
ATOM     40  C   UNL A   1      39.422  32.161  32.285  1.00  0.00     0.031 A 
ATOM     41  C   UNL A   1      39.252  30.958  31.463  1.00  0.00     0.074 A 
ATOM     42  C   UNL A   1      40.618  32.596  32.733  1.00  0.00     0.049 A 
ATOM     43  N   UNL A   1      40.030  29.939  31.513  1.00  0.00    -0.248 NA
ATOM     44  C   UNL A   1      38.092  30.764  30.593  1.00  0.00     0.031 C 
ATOM     45  C   UNL A   1      41.929  32.188  32.256  1.00  0.00     0.029 A 
ATOM     46  N   UNL A   1      40.891  33.449  33.816  1.00  0.00    -0.354 N 
ATOM     47  C   UNL A   1      39.674  29.119  30.468  1.00  0.00     0.074 A 
ATOM     48  C   UNL A   1      38.379  29.585  30.038  1.00  0.00     0.031 C 
ATOM     49  C   UNL A   1      42.859  32.577  33.144  1.00  0.00     0.029 A 
ATOM     50  C   UNL A   1      42.171  33.094  34.314  1.00  0.00     0.049 A 
ATOM     51  H   UNL A   1      40.304  34.159  34.164  1.00  0.00     0.167 HD
ATOM     52  C   UNL A   1      40.615  28.268  29.974  1.00  0.00     0.037 A 
ATOM     53  C   UNL A   1      42.348  32.617  35.591  1.00  0.00     0.037 A 
ATOM     54  C   UNL A   1      41.859  28.398  30.732  1.00  0.00     0.049 A 
ATOM     55  C   UNL A   1      42.717  31.159  35.645  1.00  0.00     0.074 A 
ATOM     56  C   UNL A   1      43.010  29.146  30.545  1.00  0.00     0.029 A 
ATOM     57  N   UNL A   1      41.873  28.015  32.059  1.00  0.00    -0.354 N 
ATOM     58  N   UNL A   1      42.837  30.396  34.599  1.00  0.00    -0.248 NA
ATOM     59  C   UNL A   1      42.856  30.427  36.900  1.00  0.00     0.031 C 
ATOM     60  C   UNL A   1      43.728  29.175  31.774  1.00  0.00     0.029 A 
ATOM     61  C   UNL A   1      43.024  28.428  32.700  1.00  0.00     0.049 A 
ATOM     62  H   UNL A   1      41.149  27.510  32.496  1.00  0.00     0.167 HD
ATOM     63  C   UNL A   1      43.040  29.108  34.999  1.00  0.00     0.074 A 
ATOM     64  C   UNL A   1      43.010  29.171  36.451  1.00  0.00     0.031 C 
ATOM     65  C   UNL A   1      43.193  28.089  34.103  1.00  0.00     0.037 A 
BRANCH  52  66
ATOM     66  C   UNL A   1      40.519  27.565  28.642  1.00  0.00     0.064 A 
ATOM     67  C   UNL A   1      39.776  26.371  28.529  1.00  0.00     0.173 A 
ATOM     68  C   UNL A   1      41.148  27.982  27.453  1.00  0.00     0.173 A 
ATOM     69  F   UNL A   1      39.046  25.900  29.549  1.00  0.00    -0.203 F 
ATOM     70  C   UNL A   1      39.750  25.607  27.361  1.00  0.00     0.198 A 
ATOM     71  C   UNL A   1      41.161  27.194  26.296  1.00  0.00     0.198 A 
ATOM     72  F   UNL A   1      41.721  29.186  27.348  1.00  0.00    -0.203 F 
ATOM     73  F   UNL A   1      39.030  24.477  27.325  1.00  0.00    -0.200 F 
ATOM     74  C   UNL A   1      40.469  26.002  26.254  1.00  0.00     0.200 A 
ATOM     75  F   UNL A   1      41.846  27.606  25.219  1.00  0.00    -0.200 F 
ATOM     76  F   UNL A   1      40.469  25.253  25.143  1.00  0.00    -0.200 F 
ENDBRANCH  52  66
BRANCH  53  77
ATOM     77  C   UNL A   1      41.492  33.273  36.629  1.00  0.00     0.064 A 
ATOM     78  C   UNL A   1      42.008  34.494  37.093  1.00  0.00     0.173 A 
ATOM     79  C   UNL A   1      40.108  33.149  36.457  1.00  0.00     0.173 A 
ATOM     80  F   UNL A   1      43.306  34.603  37.411  1.00  0.00    -0.203 F 
ATOM     81  C   UNL A   1      41.273  35.640  36.884  1.00  0.00     0.198 A 
ATOM     82  C   UNL A   1      39.359  34.295  36.279  1.00  0.00     0.198 A 
ATOM     83  F   UNL A   1      39.551  31.958  36.195  1.00  0.00    -0.203 F 
ATOM     84  F   UNL A   1      41.858  36.844  36.960  1.00  0.00    -0.200 F 
ATOM     85  C   UNL A   1      40.001  35.519  36.356  1.00  0.00     0.200 A 
ATOM     86  F   UNL A   1      38.094  34.205  35.850  1.00  0.00    -0.200 F 
ATOM     87  F   UNL A   1      39.511  36.557  35.693  1.00  0.00    -0.200 F 
ENDBRANCH  53  77
BRANCH  65  88
ATOM     88  C   UNL A   1      43.486  26.667  34.499  1.00  0.00     0.064 A 
ATOM     89  C   UNL A   1      44.760  26.094  34.368  1.00  0.00     0.173 A 
ATOM     90  C   UNL A   1      42.470  25.791  34.946  1.00  0.00     0.173 A 
ATOM     91  F   UNL A   1      45.765  26.765  33.786  1.00  0.00    -0.203 F 
ATOM     92  C   UNL A   1      45.031  24.797  34.799  1.00  0.00     0.198 A 
ATOM     93  C   UNL A   1      42.730  24.476  35.317  1.00  0.00     0.198 A 
ATOM     94  F   UNL A   1      41.191  26.170  35.054  1.00  0.00    -0.203 F 
ATOM     95  F   UNL A   1      46.284  24.328  34.741  1.00  0.00    -0.200 F 
ATOM     96  C   UNL A   1      44.017  23.989  35.280  1.00  0.00     0.200 A 
ATOM     97  F   UNL A   1      41.719  23.693  35.721  1.00  0.00    -0.200 F 
ATOM     98  F   UNL A   1      44.276  22.743  35.692  1.00  0.00    -0.200 F 
ENDBRANCH  65  88
ENDBRANCH  39  40
ENDBRANCH  32  34
ENDBRANCH  31  32
ENDBRANCH  30  31
ENDBRANCH  29  30
ENDBRANCH  28  29
ENDBRANCH   1  28
TORSDOF 18
ENDMDL
