MODEL 1
REMARK VINA RESULT:     -12.4      0.000      0.000
REMARK SMILES Cc1ccc([C@@H](C)Nc2ccc(N)cc2C(=O)OCCOCCOC(=O)c2ccc(-c3c4nc(c(-c5c(F)c(F)c(F)c(F)c5F)c5ccc([nH]5)c(-c5c(F)c(F)c(F)c(F)c5F)c5nc(c(-c6c(F)c(F)c(F)c(F)c6F)c6ccc3[nH]6)C=C5)C=C4)cc2)cc1F
REMARK SMILES IDX 20 1 19 2 18 3 16 4 17 5 15 6 9 7 10 8 11 9 14 10 12 11 8 12
REMARK SMILES IDX 6 14 7 15 5 16 1 17 2 18 3 19 91 20 4 21 90 22 92 23 13 24
REMARK SMILES IDX 21 27 22 28 23 29 24 30 25 31 26 32 27 33 28 34 89 35 29 36
REMARK SMILES IDX 88 37 30 38 31 39 32 40 82 41 33 42 87 43 81 44 83 45 34 46
REMARK SMILES IDX 86 47 80 48 79 49 35 51 67 52 47 53 66 54 48 55 51 56 65 57
REMARK SMILES IDX 84 58 49 59 50 60 64 62 85 63 52 64 36 65 37 66 45 67 38 68
REMARK SMILES IDX 39 69 43 70 46 71 40 72 41 73 44 74 42 75 68 76 69 77 77 78
REMARK SMILES IDX 70 79 71 80 75 81 78 82 72 83 73 84 76 85 74 86 53 87 54 88
REMARK SMILES IDX 62 89 55 90 56 91 60 92 63 93 57 94 58 95 61 96 59 97
REMARK H PARENT 8 13 13 25 13 26 83 50 51 61
REMARK Flexibility Score: inf
ROOT
ATOM      1  C   UNL A   1      38.118  23.146  26.063  1.00  0.00     0.202 C 
ENDROOT
BRANCH   1   2
ATOM      2  C   UNL A   1      36.965  23.720  25.244  1.00  0.00     0.261 C 
BRANCH   2   3
ATOM      3  O   UNL A   1      36.475  22.756  24.293  1.00  0.00    -0.460 OA
BRANCH   3   4
ATOM      4  C   UNL A   1      35.295  23.121  23.729  1.00  0.00     0.340 C 
ATOM      5  O   UNL A   1      35.148  23.880  22.782  1.00  0.00    -0.246 OA
BRANCH   4   6
ATOM      6  C   UNL A   1      34.213  22.292  24.268  1.00  0.00     0.085 A 
ATOM      7  C   UNL A   1      32.864  22.658  24.328  1.00  0.00     0.049 A 
ATOM      8  C   UNL A   1      31.985  21.626  24.744  1.00  0.00     0.029 A 
ATOM      9  C   UNL A   1      32.400  20.315  25.013  1.00  0.00     0.027 A 
ATOM     10  C   UNL A   1      34.633  20.961  24.531  1.00  0.00     0.043 A 
ATOM     11  C   UNL A   1      33.727  19.957  24.856  1.00  0.00     0.032 A 
BRANCH   7  12
ATOM     12  N   UNL A   1      32.245  23.854  24.048  1.00  0.00    -0.378 N 
ATOM     13  H   UNL A   1      32.507  24.186  23.159  1.00  0.00     0.161 HD
BRANCH  12  14
ATOM     14  C   UNL A   1      31.307  24.773  24.693  1.00  0.00     0.106 C 
ATOM     15  C   UNL A   1      30.138  25.268  23.868  1.00  0.00     0.036 C 
BRANCH  14  16
ATOM     16  C   UNL A   1      32.000  25.812  25.569  1.00  0.00    -0.023 A 
ATOM     17  C   UNL A   1      33.956  29.267  27.310  1.00  0.00     0.047 C 
ATOM     18  C   UNL A   1      33.310  28.030  26.761  1.00  0.00    -0.015 A 
ATOM     19  C   UNL A   1      34.040  27.084  26.039  1.00  0.00     0.007 A 
ATOM     20  C   UNL A   1      31.946  27.805  26.955  1.00  0.00     0.126 A 
ATOM     21  C   UNL A   1      33.393  25.988  25.454  1.00  0.00     0.006 A 
ATOM     22  C   UNL A   1      31.297  26.710  26.384  1.00  0.00     0.045 A 
ATOM     23  F   UNL A   1      31.236  28.655  27.709  1.00  0.00    -0.207 F 
ENDBRANCH  14  16
ENDBRANCH  12  14
ENDBRANCH   7  12
BRANCH  11  24
ATOM     24  N   UNL A   1      34.152  18.668  25.130  1.00  0.00    -0.399 N 
ATOM     25  H   UNL A   1      34.217  18.007  24.404  1.00  0.00     0.156 HD
ATOM     26  H   UNL A   1      34.390  18.414  26.051  1.00  0.00     0.156 HD
ENDBRANCH  11  24
ENDBRANCH   4   6
ENDBRANCH   3   4
ENDBRANCH   2   3
ENDBRANCH   1   2
BRANCH   1  27
ATOM     27  O   UNL A   1      38.454  21.775  25.829  1.00  0.00    -0.374 OA
BRANCH  27  28
ATOM     28  C   UNL A   1      39.788  21.351  26.090  1.00  0.00     0.202 C 
BRANCH  28  29
ATOM     29  C   UNL A   1      40.588  22.143  27.128  1.00  0.00     0.261 C 
BRANCH  29  30
ATOM     30  O   UNL A   1      41.485  23.090  26.555  1.00  0.00    -0.460 OA
BRANCH  30  31
ATOM     31  C   UNL A   1      41.861  24.091  27.385  1.00  0.00     0.338 C 
ATOM     32  O   UNL A   1      42.795  24.104  28.174  1.00  0.00    -0.246 OA
BRANCH  31  33
ATOM     33  C   UNL A   1      40.909  25.209  27.260  1.00  0.00     0.060 A 
ATOM     34  C   UNL A   1      41.164  26.233  26.338  1.00  0.00     0.016 A 
ATOM     35  C   UNL A   1      39.941  25.359  28.247  1.00  0.00     0.016 A 
ATOM     36  C   UNL A   1      40.623  27.502  26.553  1.00  0.00     0.010 A 
ATOM     37  C   UNL A   1      39.400  26.609  28.448  1.00  0.00     0.010 A 
ATOM     38  C   UNL A   1      39.853  27.703  27.701  1.00  0.00    -0.014 A 
BRANCH  38  39
ATOM     39  C   UNL A   1      39.985  28.903  28.537  1.00  0.00     0.031 A 
ATOM     40  C   UNL A   1      38.963  29.953  28.684  1.00  0.00     0.074 A 
ATOM     41  C   UNL A   1      40.954  28.801  29.479  1.00  0.00     0.049 A 
ATOM     42  N   UNL A   1      39.151  31.022  29.385  1.00  0.00    -0.248 NA
ATOM     43  C   UNL A   1      37.660  29.922  28.042  1.00  0.00     0.031 C 
ATOM     44  C   UNL A   1      41.063  29.496  30.756  1.00  0.00     0.029 A 
ATOM     45  N   UNL A   1      42.146  28.062  29.392  1.00  0.00    -0.354 N 
ATOM     46  C   UNL A   1      37.943  31.653  29.553  1.00  0.00     0.074 A 
ATOM     47  C   UNL A   1      37.085  31.006  28.584  1.00  0.00     0.031 C 
ATOM     48  C   UNL A   1      42.329  29.404  31.188  1.00  0.00     0.029 A 
ATOM     49  C   UNL A   1      43.105  28.785  30.129  1.00  0.00     0.049 A 
ATOM     50  H   UNL A   1      42.283  27.211  28.915  1.00  0.00     0.167 HD
ATOM     51  C   UNL A   1      37.826  32.567  30.569  1.00  0.00     0.037 A 
ATOM     52  C   UNL A   1      44.134  29.382  29.459  1.00  0.00     0.037 A 
ATOM     53  C   UNL A   1      39.142  32.881  31.155  1.00  0.00     0.049 A 
ATOM     54  C   UNL A   1      44.098  30.898  29.469  1.00  0.00     0.074 A 
ATOM     55  C   UNL A   1      39.781  32.667  32.367  1.00  0.00     0.029 A 
ATOM     56  N   UNL A   1      40.115  33.388  30.312  1.00  0.00    -0.354 N 
ATOM     57  N   UNL A   1      43.255  31.628  30.146  1.00  0.00    -0.248 NA
ATOM     58  C   UNL A   1      44.964  31.709  28.608  1.00  0.00     0.031 C 
ATOM     59  C   UNL A   1      41.155  33.040  32.220  1.00  0.00     0.029 A 
ATOM     60  C   UNL A   1      41.346  33.482  30.924  1.00  0.00     0.049 A 
ATOM     61  H   UNL A   1      39.947  33.653  29.379  1.00  0.00     0.167 HD
ATOM     62  C   UNL A   1      43.355  32.930  29.734  1.00  0.00     0.074 A 
ATOM     63  C   UNL A   1      44.462  32.939  28.797  1.00  0.00     0.031 C 
ATOM     64  C   UNL A   1      42.478  33.903  30.115  1.00  0.00     0.037 A 
BRANCH  51  65
ATOM     65  C   UNL A   1      36.537  33.150  31.143  1.00  0.00     0.064 A 
ATOM     66  C   UNL A   1      35.717  33.994  30.353  1.00  0.00     0.173 A 
ATOM     67  C   UNL A   1      36.069  32.977  32.460  1.00  0.00     0.173 A 
ATOM     68  F   UNL A   1      36.001  34.256  29.071  1.00  0.00    -0.203 F 
ATOM     69  C   UNL A   1      34.564  34.621  30.847  1.00  0.00     0.198 A 
ATOM     70  C   UNL A   1      34.903  33.581  32.946  1.00  0.00     0.198 A 
ATOM     71  F   UNL A   1      36.712  32.233  33.358  1.00  0.00    -0.203 F 
ATOM     72  F   UNL A   1      33.857  35.438  30.052  1.00  0.00    -0.200 F 
ATOM     73  C   UNL A   1      34.154  34.411  32.144  1.00  0.00     0.200 A 
ATOM     74  F   UNL A   1      34.522  33.354  34.212  1.00  0.00    -0.200 F 
ATOM     75  F   UNL A   1      33.052  35.004  32.620  1.00  0.00    -0.200 F 
ENDBRANCH  51  65
BRANCH  52  76
ATOM     76  C   UNL A   1      44.634  28.554  28.328  1.00  0.00     0.064 A 
ATOM     77  C   UNL A   1      45.437  27.433  28.614  1.00  0.00     0.173 A 
ATOM     78  C   UNL A   1      44.081  28.640  27.043  1.00  0.00     0.173 A 
ATOM     79  F   UNL A   1      45.976  27.293  29.836  1.00  0.00    -0.203 F 
ATOM     80  C   UNL A   1      45.624  26.414  27.681  1.00  0.00     0.198 A 
ATOM     81  C   UNL A   1      44.275  27.621  26.111  1.00  0.00     0.198 A 
ATOM     82  F   UNL A   1      43.268  29.657  26.720  1.00  0.00    -0.203 F 
ATOM     83  F   UNL A   1      46.347  25.334  28.007  1.00  0.00    -0.200 F 
ATOM     84  C   UNL A   1      45.027  26.502  26.435  1.00  0.00     0.200 A 
ATOM     85  F   UNL A   1      43.663  27.689  24.919  1.00  0.00    -0.200 F 
ATOM     86  F   UNL A   1      45.146  25.498  25.554  1.00  0.00    -0.200 F 
ENDBRANCH  52  76
BRANCH  64  87
ATOM     87  C   UNL A   1      42.609  35.331  29.662  1.00  0.00     0.064 A 
ATOM     88  C   UNL A   1      42.011  35.788  28.475  1.00  0.00     0.173 A 
ATOM     89  C   UNL A   1      43.415  36.262  30.348  1.00  0.00     0.173 A 
ATOM     90  F   UNL A   1      41.265  34.964  27.723  1.00  0.00    -0.203 F 
ATOM     91  C   UNL A   1      42.173  37.102  28.031  1.00  0.00     0.198 A 
ATOM     92  C   UNL A   1      43.619  37.557  29.874  1.00  0.00     0.198 A 
ATOM     93  F   UNL A   1      44.001  35.958  31.515  1.00  0.00    -0.203 F 
ATOM     94  F   UNL A   1      41.536  37.513  26.926  1.00  0.00    -0.200 F 
ATOM     95  C   UNL A   1      42.987  37.982  28.723  1.00  0.00     0.200 A 
ATOM     96  F   UNL A   1      44.423  38.392  30.548  1.00  0.00    -0.200 F 
ATOM     97  F   UNL A   1      43.157  39.236  28.285  1.00  0.00    -0.200 F 
ENDBRANCH  64  87
ENDBRANCH  38  39
ENDBRANCH  31  33
ENDBRANCH  30  31
ENDBRANCH  29  30
ENDBRANCH  28  29
ENDBRANCH  27  28
ENDBRANCH   1  27
TORSDOF 18
ENDMDL
MODEL 2
REMARK VINA RESULT:     -12.3      3.920      9.951
REMARK SMILES Cc1ccc([C@@H](C)Nc2ccc(N)cc2C(=O)OCCOCCOC(=O)c2ccc(-c3c4nc(c(-c5c(F)c(F)c(F)c(F)c5F)c5ccc([nH]5)c(-c5c(F)c(F)c(F)c(F)c5F)c5nc(c(-c6c(F)c(F)c(F)c(F)c6F)c6ccc3[nH]6)C=C5)C=C4)cc2)cc1F
REMARK SMILES IDX 20 1 19 2 18 3 16 4 17 5 15 6 9 7 10 8 11 9 14 10 12 11 8 12
REMARK SMILES IDX 6 14 7 15 5 16 1 17 2 18 3 19 91 20 4 21 90 22 92 23 13 24
REMARK SMILES IDX 21 27 22 28 23 29 24 30 25 31 26 32 27 33 28 34 89 35 29 36
REMARK SMILES IDX 88 37 30 38 31 39 32 40 82 41 33 42 87 43 81 44 83 45 34 46
REMARK SMILES IDX 86 47 80 48 79 49 35 51 67 52 47 53 66 54 48 55 51 56 65 57
REMARK SMILES IDX 84 58 49 59 50 60 64 62 85 63 52 64 36 65 37 66 45 67 38 68
REMARK SMILES IDX 39 69 43 70 46 71 40 72 41 73 44 74 42 75 68 76 69 77 77 78
REMARK SMILES IDX 70 79 71 80 75 81 78 82 72 83 73 84 76 85 74 86 53 87 54 88
REMARK SMILES IDX 62 89 55 90 56 91 60 92 63 93 57 94 58 95 61 96 59 97
REMARK H PARENT 8 13 13 25 13 26 83 50 51 61
REMARK Flexibility Score: inf
ROOT
ATOM      1  C   UNL A   1      33.497  29.089  26.746  1.00  0.00     0.202 C 
ENDROOT
BRANCH   1   2
ATOM      2  C   UNL A   1      31.993  28.909  26.933  1.00  0.00     0.261 C 
BRANCH   2   3
ATOM      3  O   UNL A   1      31.402  28.270  25.786  1.00  0.00    -0.460 OA
BRANCH   3   4
ATOM      4  C   UNL A   1      31.307  26.922  25.921  1.00  0.00     0.340 C 
ATOM      5  O   UNL A   1      30.825  26.320  26.869  1.00  0.00    -0.246 OA
BRANCH   4   6
ATOM      6  C   UNL A   1      31.660  26.274  24.655  1.00  0.00     0.085 A 
ATOM      7  C   UNL A   1      31.190  25.028  24.223  1.00  0.00     0.049 A 
ATOM      8  C   UNL A   1      31.547  24.685  22.895  1.00  0.00     0.029 A 
ATOM      9  C   UNL A   1      32.254  25.537  22.037  1.00  0.00     0.027 A 
ATOM     10  C   UNL A   1      32.369  27.141  23.783  1.00  0.00     0.043 A 
ATOM     11  C   UNL A   1      32.626  26.801  22.460  1.00  0.00     0.032 A 
BRANCH   7  12
ATOM     12  N   UNL A   1      30.435  24.079  24.873  1.00  0.00    -0.378 N 
ATOM     13  H   UNL A   1      29.475  24.217  24.705  1.00  0.00     0.161 HD
BRANCH  12  14
ATOM     14  C   UNL A   1      30.652  22.921  25.741  1.00  0.00     0.106 C 
ATOM     15  C   UNL A   1      29.984  22.936  27.101  1.00  0.00     0.036 C 
BRANCH  14  16
ATOM     16  C   UNL A   1      32.087  22.408  25.703  1.00  0.00    -0.023 A 
ATOM     17  C   UNL A   1      36.187  21.342  24.780  1.00  0.00     0.047 C 
ATOM     18  C   UNL A   1      34.767  21.653  25.147  1.00  0.00    -0.015 A 
ATOM     19  C   UNL A   1      33.704  20.878  24.679  1.00  0.00     0.007 A 
ATOM     20  C   UNL A   1      34.477  22.747  25.965  1.00  0.00     0.126 A 
ATOM     21  C   UNL A   1      32.383  21.249  24.956  1.00  0.00     0.006 A 
ATOM     22  C   UNL A   1      33.163  23.117  26.254  1.00  0.00     0.045 A 
ATOM     23  F   UNL A   1      35.480  23.463  26.492  1.00  0.00    -0.207 F 
ENDBRANCH  14  16
ENDBRANCH  12  14
ENDBRANCH   7  12
BRANCH  11  24
ATOM     24  N   UNL A   1      33.337  27.648  21.626  1.00  0.00    -0.399 N 
ATOM     25  H   UNL A   1      33.045  27.780  20.695  1.00  0.00     0.156 HD
ATOM     26  H   UNL A   1      34.133  28.118  21.964  1.00  0.00     0.156 HD
ENDBRANCH  11  24
ENDBRANCH   4   6
ENDBRANCH   3   4
ENDBRANCH   2   3
ENDBRANCH   1   2
BRANCH   1  27
ATOM     27  O   UNL A   1      34.164  29.944  27.680  1.00  0.00    -0.374 OA
BRANCH  27  28
ATOM     28  C   UNL A   1      33.904  31.343  27.623  1.00  0.00     0.202 C 
BRANCH  28  29
ATOM     29  C   UNL A   1      34.743  32.253  28.523  1.00  0.00     0.261 C 
BRANCH  29  30
ATOM     30  O   UNL A   1      36.140  32.195  28.247  1.00  0.00    -0.460 OA
BRANCH  30  31
ATOM     31  C   UNL A   1      36.907  31.786  29.285  1.00  0.00     0.338 C 
ATOM     32  O   UNL A   1      37.367  32.463  30.193  1.00  0.00    -0.246 OA
BRANCH  31  33
ATOM     33  C   UNL A   1      37.191  30.347  29.141  1.00  0.00     0.060 A 
ATOM     34  C   UNL A   1      37.170  29.523  30.275  1.00  0.00     0.016 A 
ATOM     35  C   UNL A   1      37.742  29.904  27.944  1.00  0.00     0.016 A 
ATOM     36  C   UNL A   1      37.920  28.345  30.282  1.00  0.00     0.010 A 
ATOM     37  C   UNL A   1      38.469  28.735  27.952  1.00  0.00     0.010 A 
ATOM     38  C   UNL A   1      38.680  28.042  29.151  1.00  0.00    -0.014 A 
BRANCH  38  39
ATOM     39  C   UNL A   1      40.055  27.532  29.239  1.00  0.00     0.031 A 
ATOM     40  C   UNL A   1      40.512  26.229  28.729  1.00  0.00     0.074 A 
ATOM     41  C   UNL A   1      40.976  28.499  29.473  1.00  0.00     0.049 A 
ATOM     42  N   UNL A   1      41.720  25.799  28.886  1.00  0.00    -0.248 NA
ATOM     43  C   UNL A   1      39.661  25.279  28.033  1.00  0.00     0.031 C 
ATOM     44  C   UNL A   1      42.394  28.509  29.139  1.00  0.00     0.029 A 
ATOM     45  N   UNL A   1      40.788  29.692  30.192  1.00  0.00    -0.354 N 
ATOM     46  C   UNL A   1      41.904  24.706  28.075  1.00  0.00     0.074 A 
ATOM     47  C   UNL A   1      40.559  24.346  27.680  1.00  0.00     0.031 C 
ATOM     48  C   UNL A   1      43.002  29.452  29.873  1.00  0.00     0.029 A 
ATOM     49  C   UNL A   1      42.022  29.969  30.812  1.00  0.00     0.049 A 
ATOM     50  H   UNL A   1      39.962  30.226  30.250  1.00  0.00     0.167 HD
ATOM     51  C   UNL A   1      43.189  24.331  27.776  1.00  0.00     0.037 A 
ATOM     52  C   UNL A   1      42.112  29.870  32.171  1.00  0.00     0.037 A 
ATOM     53  C   UNL A   1      44.162  25.059  28.610  1.00  0.00     0.049 A 
ATOM     54  C   UNL A   1      42.984  28.733  32.666  1.00  0.00     0.074 A 
ATOM     55  C   UNL A   1      45.143  26.018  28.408  1.00  0.00     0.029 A 
ATOM     56  N   UNL A   1      44.051  24.933  29.983  1.00  0.00    -0.354 N 
ATOM     57  N   UNL A   1      43.714  27.959  31.910  1.00  0.00    -0.248 NA
ATOM     58  C   UNL A   1      43.006  28.315  34.070  1.00  0.00     0.031 C 
ATOM     59  C   UNL A   1      45.597  26.471  29.687  1.00  0.00     0.029 A 
ATOM     60  C   UNL A   1      44.896  25.784  30.662  1.00  0.00     0.049 A 
ATOM     61  H   UNL A   1      43.437  24.304  30.427  1.00  0.00     0.167 HD
ATOM     62  C   UNL A   1      44.170  26.905  32.655  1.00  0.00     0.074 A 
ATOM     63  C   UNL A   1      43.733  27.189  34.009  1.00  0.00     0.031 C 
ATOM     64  C   UNL A   1      44.802  25.824  32.112  1.00  0.00     0.037 A 
BRANCH  51  65
ATOM     65  C   UNL A   1      43.639  23.375  26.674  1.00  0.00     0.064 A 
ATOM     66  C   UNL A   1      43.273  22.006  26.717  1.00  0.00     0.173 A 
ATOM     67  C   UNL A   1      44.468  23.705  25.584  1.00  0.00     0.173 A 
ATOM     68  F   UNL A   1      42.474  21.519  27.676  1.00  0.00    -0.203 F 
ATOM     69  C   UNL A   1      43.718  21.065  25.779  1.00  0.00     0.198 A 
ATOM     70  C   UNL A   1      44.891  22.770  24.631  1.00  0.00     0.198 A 
ATOM     71  F   UNL A   1      44.931  24.937  25.382  1.00  0.00    -0.203 F 
ATOM     72  F   UNL A   1      43.362  19.778  25.905  1.00  0.00    -0.200 F 
ATOM     73  C   UNL A   1      44.526  21.447  24.732  1.00  0.00     0.200 A 
ATOM     74  F   UNL A   1      45.672  23.171  23.616  1.00  0.00    -0.200 F 
ATOM     75  F   UNL A   1      44.952  20.553  23.831  1.00  0.00    -0.200 F 
ENDBRANCH  51  65
BRANCH  52  76
ATOM     76  C   UNL A   1      40.885  30.358  32.859  1.00  0.00     0.064 A 
ATOM     77  C   UNL A   1      40.673  31.747  32.959  1.00  0.00     0.173 A 
ATOM     78  C   UNL A   1      39.791  29.519  33.110  1.00  0.00     0.173 A 
ATOM     79  F   UNL A   1      41.683  32.595  32.710  1.00  0.00    -0.203 F 
ATOM     80  C   UNL A   1      39.412  32.273  33.234  1.00  0.00     0.198 A 
ATOM     81  C   UNL A   1      38.532  30.049  33.391  1.00  0.00     0.198 A 
ATOM     82  F   UNL A   1      39.913  28.188  32.986  1.00  0.00    -0.203 F 
ATOM     83  F   UNL A   1      39.234  33.600  33.265  1.00  0.00    -0.200 F 
ATOM     84  C   UNL A   1      38.337  31.421  33.432  1.00  0.00     0.200 A 
ATOM     85  F   UNL A   1      37.485  29.224  33.543  1.00  0.00    -0.200 F 
ATOM     86  F   UNL A   1      37.108  31.917  33.631  1.00  0.00    -0.200 F 
ENDBRANCH  52  76
BRANCH  64  87
ATOM     87  C   UNL A   1      45.307  24.680  32.945  1.00  0.00     0.064 A 
ATOM     88  C   UNL A   1      44.486  23.590  33.281  1.00  0.00     0.173 A 
ATOM     89  C   UNL A   1      46.597  24.682  33.516  1.00  0.00     0.173 A 
ATOM     90  F   UNL A   1      43.225  23.519  32.830  1.00  0.00    -0.203 F 
ATOM     91  C   UNL A   1      44.942  22.551  34.095  1.00  0.00     0.198 A 
ATOM     92  C   UNL A   1      47.030  23.671  34.371  1.00  0.00     0.198 A 
ATOM     93  F   UNL A   1      47.487  25.644  33.234  1.00  0.00    -0.203 F 
ATOM     94  F   UNL A   1      44.146  21.501  34.341  1.00  0.00    -0.200 F 
ATOM     95  C   UNL A   1      46.209  22.598  34.650  1.00  0.00     0.200 A 
ATOM     96  F   UNL A   1      48.255  23.740  34.913  1.00  0.00    -0.200 F 
ATOM     97  F   UNL A   1      46.638  21.611  35.447  1.00  0.00    -0.200 F 
ENDBRANCH  64  87
ENDBRANCH  38  39
ENDBRANCH  31  33
ENDBRANCH  30  31
ENDBRANCH  29  30
ENDBRANCH  28  29
ENDBRANCH  27  28
ENDBRANCH   1  27
TORSDOF 18
ENDMDL
MODEL 3
REMARK VINA RESULT:     -12.3      1.452      3.158
REMARK SMILES Cc1ccc([C@@H](C)Nc2ccc(N)cc2C(=O)OCCOCCOC(=O)c2ccc(-c3c4nc(c(-c5c(F)c(F)c(F)c(F)c5F)c5ccc([nH]5)c(-c5c(F)c(F)c(F)c(F)c5F)c5nc(c(-c6c(F)c(F)c(F)c(F)c6F)c6ccc3[nH]6)C=C5)C=C4)cc2)cc1F
REMARK SMILES IDX 20 1 19 2 18 3 16 4 17 5 15 6 9 7 10 8 11 9 14 10 12 11 8 12
REMARK SMILES IDX 6 14 7 15 5 16 1 17 2 18 3 19 91 20 4 21 90 22 92 23 13 24
REMARK SMILES IDX 21 27 22 28 23 29 24 30 25 31 26 32 27 33 28 34 89 35 29 36
REMARK SMILES IDX 88 37 30 38 31 39 32 40 82 41 33 42 87 43 81 44 83 45 34 46
REMARK SMILES IDX 86 47 80 48 79 49 35 51 67 52 47 53 66 54 48 55 51 56 65 57
REMARK SMILES IDX 84 58 49 59 50 60 64 62 85 63 52 64 36 65 37 66 45 67 38 68
REMARK SMILES IDX 39 69 43 70 46 71 40 72 41 73 44 74 42 75 68 76 69 77 77 78
REMARK SMILES IDX 70 79 71 80 75 81 78 82 72 83 73 84 76 85 74 86 53 87 54 88
REMARK SMILES IDX 62 89 55 90 56 91 60 92 63 93 57 94 58 95 61 96 59 97
REMARK H PARENT 8 13 13 25 13 26 83 50 51 61
REMARK Flexibility Score: inf
ROOT
ATOM      1  C   UNL A   1      37.445  23.354  25.657  1.00  0.00     0.202 C 
ENDROOT
BRANCH   1   2
ATOM      2  C   UNL A   1      36.387  23.514  24.568  1.00  0.00     0.261 C 
BRANCH   2   3
ATOM      3  O   UNL A   1      35.309  24.358  25.014  1.00  0.00    -0.460 OA
BRANCH   3   4
ATOM      4  C   UNL A   1      34.488  24.747  24.005  1.00  0.00     0.340 C 
ATOM      5  O   UNL A   1      34.458  24.283  22.874  1.00  0.00    -0.246 OA
BRANCH   4   6
ATOM      6  C   UNL A   1      33.466  25.660  24.525  1.00  0.00     0.085 A 
ATOM      7  C   UNL A   1      32.285  25.273  25.169  1.00  0.00     0.049 A 
ATOM      8  C   UNL A   1      31.532  26.340  25.722  1.00  0.00     0.029 A 
ATOM      9  C   UNL A   1      31.948  27.677  25.699  1.00  0.00     0.027 A 
ATOM     10  C   UNL A   1      33.892  27.014  24.509  1.00  0.00     0.043 A 
ATOM     11  C   UNL A   1      33.165  28.020  25.136  1.00  0.00     0.032 A 
BRANCH   7  12
ATOM     12  N   UNL A   1      31.732  24.028  25.360  1.00  0.00    -0.378 N 
ATOM     13  H   UNL A   1      30.841  23.971  24.947  1.00  0.00     0.161 HD
BRANCH  12  14
ATOM     14  C   UNL A   1      32.092  22.763  26.001  1.00  0.00     0.106 C 
ATOM     15  C   UNL A   1      33.001  22.829  27.210  1.00  0.00     0.036 C 
BRANCH  14  16
ATOM     16  C   UNL A   1      32.383  21.650  25.001  1.00  0.00    -0.023 A 
ATOM     17  C   UNL A   1      32.388  18.194  22.383  1.00  0.00     0.047 C 
ATOM     18  C   UNL A   1      32.461  19.388  23.287  1.00  0.00    -0.015 A 
ATOM     19  C   UNL A   1      32.807  19.265  24.634  1.00  0.00     0.007 A 
ATOM     20  C   UNL A   1      32.168  20.661  22.794  1.00  0.00     0.126 A 
ATOM     21  C   UNL A   1      32.771  20.381  25.478  1.00  0.00     0.006 A 
ATOM     22  C   UNL A   1      32.141  21.780  23.627  1.00  0.00     0.045 A 
ATOM     23  F   UNL A   1      31.908  20.821  21.489  1.00  0.00    -0.207 F 
ENDBRANCH  14  16
ENDBRANCH  12  14
ENDBRANCH   7  12
BRANCH  11  24
ATOM     24  N   UNL A   1      33.583  29.339  25.096  1.00  0.00    -0.399 N 
ATOM     25  H   UNL A   1      34.482  29.580  25.414  1.00  0.00     0.156 HD
ATOM     26  H   UNL A   1      32.980  30.036  24.749  1.00  0.00     0.156 HD
ENDBRANCH  11  24
ENDBRANCH   4   6
ENDBRANCH   3   4
ENDBRANCH   2   3
ENDBRANCH   1   2
BRANCH   1  27
ATOM     27  O   UNL A   1      38.485  22.405  25.408  1.00  0.00    -0.374 OA
BRANCH  27  28
ATOM     28  C   UNL A   1      39.326  22.021  26.492  1.00  0.00     0.202 C 
BRANCH  28  29
ATOM     29  C   UNL A   1      40.832  21.963  26.229  1.00  0.00     0.261 C 
BRANCH  29  30
ATOM     30  O   UNL A   1      41.455  23.244  26.199  1.00  0.00    -0.460 OA
BRANCH  30  31
ATOM     31  C   UNL A   1      41.392  23.934  27.362  1.00  0.00     0.338 C 
ATOM     32  O   UNL A   1      41.868  23.627  28.445  1.00  0.00    -0.246 OA
BRANCH  31  33
ATOM     33  C   UNL A   1      40.574  25.143  27.165  1.00  0.00     0.060 A 
ATOM     34  C   UNL A   1      41.022  26.147  26.295  1.00  0.00     0.016 A 
ATOM     35  C   UNL A   1      39.530  25.380  28.053  1.00  0.00     0.016 A 
ATOM     36  C   UNL A   1      40.591  27.461  26.482  1.00  0.00     0.010 A 
ATOM     37  C   UNL A   1      39.098  26.677  28.224  1.00  0.00     0.010 A 
ATOM     38  C   UNL A   1      39.732  27.727  27.550  1.00  0.00    -0.014 A 
BRANCH  38  39
ATOM     39  C   UNL A   1      39.897  28.899  28.420  1.00  0.00     0.031 A 
ATOM     40  C   UNL A   1      38.895  29.959  28.616  1.00  0.00     0.074 A 
ATOM     41  C   UNL A   1      40.879  28.752  29.343  1.00  0.00     0.049 A 
ATOM     42  N   UNL A   1      39.111  31.003  29.345  1.00  0.00    -0.248 NA
ATOM     43  C   UNL A   1      37.582  29.969  27.994  1.00  0.00     0.031 C 
ATOM     44  C   UNL A   1      41.019  29.405  30.639  1.00  0.00     0.029 A 
ATOM     45  N   UNL A   1      42.057  27.997  29.215  1.00  0.00    -0.354 N 
ATOM     46  C   UNL A   1      37.917  31.648  29.552  1.00  0.00     0.074 A 
ATOM     47  C   UNL A   1      37.034  31.045  28.578  1.00  0.00     0.031 C 
ATOM     48  C   UNL A   1      42.290  29.280  31.048  1.00  0.00     0.029 A 
ATOM     49  C   UNL A   1      43.039  28.681  29.958  1.00  0.00     0.049 A 
ATOM     50  H   UNL A   1      42.172  27.159  28.710  1.00  0.00     0.167 HD
ATOM     51  C   UNL A   1      37.831  32.532  30.597  1.00  0.00     0.037 A 
ATOM     52  C   UNL A   1      44.067  29.283  29.290  1.00  0.00     0.037 A 
ATOM     53  C   UNL A   1      39.161  32.807  31.171  1.00  0.00     0.049 A 
ATOM     54  C   UNL A   1      44.057  30.798  29.347  1.00  0.00     0.074 A 
ATOM     55  C   UNL A   1      39.815  32.546  32.365  1.00  0.00     0.029 A 
ATOM     56  N   UNL A   1      40.128  33.324  30.329  1.00  0.00    -0.354 N 
ATOM     57  N   UNL A   1      43.236  31.520  30.059  1.00  0.00    -0.248 NA
ATOM     58  C   UNL A   1      44.922  31.620  28.497  1.00  0.00     0.031 C 
ATOM     59  C   UNL A   1      41.192  32.900  32.208  1.00  0.00     0.029 A 
ATOM     60  C   UNL A   1      41.371  33.380  30.924  1.00  0.00     0.049 A 
ATOM     61  H   UNL A   1      39.950  33.621  29.407  1.00  0.00     0.167 HD
ATOM     62  C   UNL A   1      43.351  32.832  29.685  1.00  0.00     0.074 A 
ATOM     63  C   UNL A   1      44.444  32.852  28.732  1.00  0.00     0.031 C 
ATOM     64  C   UNL A   1      42.497  33.807  30.110  1.00  0.00     0.037 A 
BRANCH  51  65
ATOM     65  C   UNL A   1      36.561  33.117  31.209  1.00  0.00     0.064 A 
ATOM     66  C   UNL A   1      35.721  33.967  30.445  1.00  0.00     0.173 A 
ATOM     67  C   UNL A   1      36.130  32.943  32.539  1.00  0.00     0.173 A 
ATOM     68  F   UNL A   1      35.969  34.231  29.156  1.00  0.00    -0.203 F 
ATOM     69  C   UNL A   1      34.585  34.596  30.973  1.00  0.00     0.198 A 
ATOM     70  C   UNL A   1      34.980  33.549  33.059  1.00  0.00     0.198 A 
ATOM     71  F   UNL A   1      36.796  32.195  33.416  1.00  0.00    -0.203 F 
ATOM     72  F   UNL A   1      33.858  35.416  30.201  1.00  0.00    -0.200 F 
ATOM     73  C   UNL A   1      34.211  34.384  32.281  1.00  0.00     0.200 A 
ATOM     74  F   UNL A   1      34.634  33.321  34.335  1.00  0.00    -0.200 F 
ATOM     75  F   UNL A   1      33.125  34.980  32.790  1.00  0.00    -0.200 F 
ENDBRANCH  51  65
BRANCH  52  76
ATOM     76  C   UNL A   1      44.536  28.481  28.126  1.00  0.00     0.064 A 
ATOM     77  C   UNL A   1      45.339  27.349  28.364  1.00  0.00     0.173 A 
ATOM     78  C   UNL A   1      43.953  28.604  26.858  1.00  0.00     0.173 A 
ATOM     79  F   UNL A   1      45.906  27.175  29.569  1.00  0.00    -0.203 F 
ATOM     80  C   UNL A   1      45.499  26.355  27.401  1.00  0.00     0.198 A 
ATOM     81  C   UNL A   1      44.120  27.609  25.895  1.00  0.00     0.198 A 
ATOM     82  F   UNL A   1      43.139  29.633  26.580  1.00  0.00    -0.203 F 
ATOM     83  F   UNL A   1      46.223  25.263  27.682  1.00  0.00    -0.200 F 
ATOM     84  C   UNL A   1      44.873  26.478  26.172  1.00  0.00     0.200 A 
ATOM     85  F   UNL A   1      43.481  27.710  24.719  1.00  0.00    -0.200 F 
ATOM     86  F   UNL A   1      44.965  25.496  25.263  1.00  0.00    -0.200 F 
ENDBRANCH  52  76
BRANCH  64  87
ATOM     87  C   UNL A   1      42.644  35.246  29.699  1.00  0.00     0.064 A 
ATOM     88  C   UNL A   1      42.048  35.745  28.528  1.00  0.00     0.173 A 
ATOM     89  C   UNL A   1      43.464  36.146  30.408  1.00  0.00     0.173 A 
ATOM     90  F   UNL A   1      41.289  34.954  27.755  1.00  0.00    -0.203 F 
ATOM     91  C   UNL A   1      42.225  37.069  28.122  1.00  0.00     0.198 A 
ATOM     92  C   UNL A   1      43.683  37.451  29.972  1.00  0.00     0.198 A 
ATOM     93  F   UNL A   1      44.050  35.801  31.563  1.00  0.00    -0.203 F 
ATOM     94  F   UNL A   1      41.589  37.521  27.032  1.00  0.00    -0.200 F 
ATOM     95  C   UNL A   1      43.052  37.918  28.836  1.00  0.00     0.200 A 
ATOM     96  F   UNL A   1      44.499  38.256  30.667  1.00  0.00    -0.200 F 
ATOM     97  F   UNL A   1      43.237  39.182  28.435  1.00  0.00    -0.200 F 
ENDBRANCH  64  87
ENDBRANCH  38  39
ENDBRANCH  31  33
ENDBRANCH  30  31
ENDBRANCH  29  30
ENDBRANCH  28  29
ENDBRANCH  27  28
ENDBRANCH   1  27
TORSDOF 18
ENDMDL
