MODEL 1
REMARK VINA RESULT:     -11.9      0.000      0.000
REMARK SMILES CC(C)Cc1cc2c(cc1Cl)C=C(C(=O)OCCOCCOC(=O)c1ccc(-c3c4nc(c(-c5c(F)c(F)c(F)c(F)c5F)c5ccc([nH]5)c(-c5c(F)c(F)c(F)c(F)c5F)c5nc(c(-c6c(F)c(F)c(F)c(F)c6F)c6ccc3[nH]6)C=C5)C=C4)cc1)[C@@H](C(F)(F)F)O2
REMARK SMILES IDX 19 1 18 2 17 3 16 4 14 5 15 6 13 7 5 8 6 9 10 10 7 11 9 12
REMARK SMILES IDX 11 13 8 14 93 15 12 16 88 17 4 18 2 19 1 20 3 21 89 22 90 23
REMARK SMILES IDX 91 24 92 25 20 26 21 27 22 28 23 29 24 30 25 31 26 32 87 33
REMARK SMILES IDX 27 34 86 35 28 36 29 37 30 38 80 39 31 40 85 41 79 42 81 43
REMARK SMILES IDX 32 44 84 45 78 46 77 47 33 49 65 50 45 51 64 52 46 53 49 54
REMARK SMILES IDX 63 55 82 56 47 57 48 58 62 60 83 61 50 62 34 63 35 64 43 65
REMARK SMILES IDX 36 66 37 67 41 68 44 69 38 70 39 71 42 72 40 73 66 74 67 75
REMARK SMILES IDX 75 76 68 77 69 78 73 79 76 80 70 81 71 82 74 83 72 84 51 85
REMARK SMILES IDX 52 86 60 87 53 88 54 89 58 90 61 91 55 92 56 93 59 94 57 95
REMARK H PARENT 81 48 49 59
REMARK Flexibility Score: inf
ROOT
ATOM      1  O   UNL A   1      31.412  28.742  24.392  1.00  0.00    -0.374 OA
ENDROOT
BRANCH   1   2
ATOM      2  C   UNL A   1      32.251  28.670  23.243  1.00  0.00     0.202 C 
BRANCH   2   3
ATOM      3  C   UNL A   1      32.764  27.294  22.808  1.00  0.00     0.261 C 
BRANCH   3   4
ATOM      4  O   UNL A   1      32.636  26.315  23.847  1.00  0.00    -0.460 OA
BRANCH   4   5
ATOM      5  C   UNL A   1      31.712  25.358  23.596  1.00  0.00     0.338 C 
ATOM      6  O   UNL A   1      30.656  25.496  22.997  1.00  0.00    -0.246 OA
BRANCH   5   7
ATOM      7  C   UNL A   1      32.219  24.049  24.043  1.00  0.00     0.087 C 
ATOM      8  C   UNL A   1      32.755  19.109  24.514  1.00  0.00    -0.025 A 
ATOM      9  C   UNL A   1      33.046  20.210  25.345  1.00  0.00     0.052 A 
ATOM     10  C   UNL A   1      32.465  19.350  23.162  1.00  0.00     0.045 A 
ATOM     11  C   UNL A   1      32.913  21.514  24.874  1.00  0.00     0.128 A 
ATOM     12  C   UNL A   1      32.362  20.659  22.684  1.00  0.00     0.032 A 
ATOM     13  Cl  UNL A   1      32.155  18.078  22.036  1.00  0.00    -0.084 Cl
ATOM     14  C   UNL A   1      32.532  21.738  23.554  1.00  0.00     0.019 A 
ATOM     15  O   UNL A   1      33.145  22.513  25.776  1.00  0.00    -0.475 OA
ATOM     16  C   UNL A   1      32.208  23.081  23.118  1.00  0.00     0.027 C 
ATOM     17  C   UNL A   1      32.671  23.852  25.464  1.00  0.00     0.316 C 
BRANCH   8  18
ATOM     18  C   UNL A   1      32.655  17.738  25.149  1.00  0.00     0.040 C 
BRANCH  18  19
ATOM     19  C   UNL A   1      33.706  16.747  24.592  1.00  0.00    -0.013 C 
ATOM     20  C   UNL A   1      35.132  17.309  24.625  1.00  0.00     0.008 C 
ATOM     21  C   UNL A   1      33.655  15.434  25.374  1.00  0.00     0.008 C 
ENDBRANCH  18  19
ENDBRANCH   8  18
BRANCH  17  22
ATOM     22  C   UNL A   1      31.594  24.244  26.486  1.00  0.00     0.430 C 
ATOM     23  F   UNL A   1      31.718  23.525  27.629  1.00  0.00    -0.167 F 
ATOM     24  F   UNL A   1      31.692  25.548  26.841  1.00  0.00    -0.167 F 
ATOM     25  F   UNL A   1      30.345  24.045  26.012  1.00  0.00    -0.167 F 
ENDBRANCH  17  22
ENDBRANCH   5   7
ENDBRANCH   4   5
ENDBRANCH   3   4
ENDBRANCH   2   3
ENDBRANCH   1   2
BRANCH   1  26
ATOM     26  C   UNL A   1      31.162  30.014  24.984  1.00  0.00     0.202 C 
BRANCH  26  27
ATOM     27  C   UNL A   1      31.725  30.302  26.383  1.00  0.00     0.261 C 
BRANCH  27  28
ATOM     28  O   UNL A   1      33.153  30.466  26.390  1.00  0.00    -0.460 OA
BRANCH  28  29
ATOM     29  C   UNL A   1      33.604  31.442  27.217  1.00  0.00     0.338 C 
ATOM     30  O   UNL A   1      32.985  32.413  27.627  1.00  0.00    -0.246 OA
BRANCH  29  31
ATOM     31  C   UNL A   1      34.931  31.072  27.739  1.00  0.00     0.060 A 
ATOM     32  C   UNL A   1      35.903  32.038  28.001  1.00  0.00     0.016 A 
ATOM     33  C   UNL A   1      35.169  29.721  28.028  1.00  0.00     0.016 A 
ATOM     34  C   UNL A   1      37.106  31.647  28.595  1.00  0.00     0.010 A 
ATOM     35  C   UNL A   1      36.370  29.335  28.620  1.00  0.00     0.010 A 
ATOM     36  C   UNL A   1      37.336  30.299  28.935  1.00  0.00    -0.014 A 
BRANCH  36  37
ATOM     37  C   UNL A   1      38.508  29.932  29.766  1.00  0.00     0.031 A 
ATOM     38  C   UNL A   1      38.700  30.477  31.148  1.00  0.00     0.074 A 
ATOM     39  C   UNL A   1      39.427  29.105  29.233  1.00  0.00     0.049 A 
ATOM     40  N   UNL A   1      39.625  30.180  32.026  1.00  0.00    -0.248 NA
ATOM     41  C   UNL A   1      37.738  31.490  31.605  1.00  0.00     0.031 C 
ATOM     42  C   UNL A   1      39.375  28.564  27.875  1.00  0.00     0.029 A 
ATOM     43  N   UNL A   1      40.574  28.569  29.762  1.00  0.00    -0.354 N 
ATOM     44  C   UNL A   1      39.346  30.947  33.147  1.00  0.00     0.074 A 
ATOM     45  C   UNL A   1      38.199  31.768  32.819  1.00  0.00     0.031 C 
ATOM     46  C   UNL A   1      40.414  27.736  27.691  1.00  0.00     0.029 A 
ATOM     47  C   UNL A   1      41.224  27.713  28.907  1.00  0.00     0.049 A 
ATOM     48  H   UNL A   1      40.899  28.777  30.668  1.00  0.00     0.167 HD
ATOM     49  C   UNL A   1      39.977  30.942  34.346  1.00  0.00     0.037 A 
ATOM     50  C   UNL A   1      42.340  26.980  29.083  1.00  0.00     0.037 A 
ATOM     51  C   UNL A   1      41.131  30.133  34.652  1.00  0.00     0.049 A 
ATOM     52  C   UNL A   1      43.045  27.025  30.411  1.00  0.00     0.074 A 
ATOM     53  C   UNL A   1      41.816  30.033  35.851  1.00  0.00     0.029 A 
ATOM     54  N   UNL A   1      41.780  29.299  33.753  1.00  0.00    -0.354 N 
ATOM     55  N   UNL A   1      42.718  27.681  31.497  1.00  0.00    -0.248 NA
ATOM     56  C   UNL A   1      44.270  26.223  30.540  1.00  0.00     0.031 C 
ATOM     57  C   UNL A   1      42.912  29.187  35.661  1.00  0.00     0.029 A 
ATOM     58  C   UNL A   1      42.874  28.706  34.362  1.00  0.00     0.049 A 
ATOM     59  H   UNL A   1      41.504  29.152  32.819  1.00  0.00     0.167 HD
ATOM     60  C   UNL A   1      43.674  27.351  32.445  1.00  0.00     0.074 A 
ATOM     61  C   UNL A   1      44.592  26.427  31.812  1.00  0.00     0.031 C 
ATOM     62  C   UNL A   1      43.777  27.777  33.727  1.00  0.00     0.037 A 
BRANCH  49  63
ATOM     63  C   UNL A   1      39.430  31.819  35.434  1.00  0.00     0.064 A 
ATOM     64  C   UNL A   1      38.513  31.326  36.374  1.00  0.00     0.173 A 
ATOM     65  C   UNL A   1      39.898  33.133  35.602  1.00  0.00     0.173 A 
ATOM     66  F   UNL A   1      38.032  30.079  36.258  1.00  0.00    -0.203 F 
ATOM     67  C   UNL A   1      38.072  32.118  37.430  1.00  0.00     0.198 A 
ATOM     68  C   UNL A   1      39.478  33.911  36.678  1.00  0.00     0.198 A 
ATOM     69  F   UNL A   1      40.786  33.651  34.741  1.00  0.00    -0.203 F 
ATOM     70  F   UNL A   1      37.173  31.635  38.299  1.00  0.00    -0.200 F 
ATOM     71  C   UNL A   1      38.563  33.406  37.588  1.00  0.00     0.200 A 
ATOM     72  F   UNL A   1      39.968  35.148  36.840  1.00  0.00    -0.200 F 
ATOM     73  F   UNL A   1      38.155  34.159  38.620  1.00  0.00    -0.200 F 
ENDBRANCH  49  63
BRANCH  50  74
ATOM     74  C   UNL A   1      42.815  26.099  27.986  1.00  0.00     0.064 A 
ATOM     75  C   UNL A   1      42.325  24.793  27.851  1.00  0.00     0.173 A 
ATOM     76  C   UNL A   1      43.731  26.555  27.026  1.00  0.00     0.173 A 
ATOM     77  F   UNL A   1      41.459  24.307  28.753  1.00  0.00    -0.203 F 
ATOM     78  C   UNL A   1      42.738  23.974  26.803  1.00  0.00     0.198 A 
ATOM     79  C   UNL A   1      44.120  25.746  25.961  1.00  0.00     0.198 A 
ATOM     80  F   UNL A   1      44.223  27.800  27.105  1.00  0.00    -0.203 F 
ATOM     81  F   UNL A   1      42.275  22.720  26.714  1.00  0.00    -0.200 F 
ATOM     82  C   UNL A   1      43.627  24.454  25.853  1.00  0.00     0.200 A 
ATOM     83  F   UNL A   1      44.964  26.221  25.035  1.00  0.00    -0.200 F 
ATOM     84  F   UNL A   1      44.009  23.672  24.835  1.00  0.00    -0.200 F 
ENDBRANCH  50  74
BRANCH  62  85
ATOM     85  C   UNL A   1      44.904  27.238  34.562  1.00  0.00     0.064 A 
ATOM     86  C   UNL A   1      44.781  26.036  35.272  1.00  0.00     0.173 A 
ATOM     87  C   UNL A   1      46.153  27.878  34.562  1.00  0.00     0.173 A 
ATOM     88  F   UNL A   1      43.605  25.393  35.315  1.00  0.00    -0.203 F 
ATOM     89  C   UNL A   1      45.869  25.494  35.954  1.00  0.00     0.198 A 
ATOM     90  C   UNL A   1      47.246  27.318  35.219  1.00  0.00     0.198 A 
ATOM     91  F   UNL A   1      46.324  29.028  33.893  1.00  0.00    -0.203 F 
ATOM     92  F   UNL A   1      45.725  24.355  36.645  1.00  0.00    -0.200 F 
ATOM     93  C   UNL A   1      47.103  26.128  35.914  1.00  0.00     0.200 A 
ATOM     94  F   UNL A   1      48.441  27.923  35.164  1.00  0.00    -0.200 F 
ATOM     95  F   UNL A   1      48.155  25.589  36.546  1.00  0.00    -0.200 F 
ENDBRANCH  62  85
ENDBRANCH  36  37
ENDBRANCH  29  31
ENDBRANCH  28  29
ENDBRANCH  27  28
ENDBRANCH  26  27
ENDBRANCH   1  26
TORSDOF 17
ENDMDL
MODEL 2
REMARK VINA RESULT:     -11.9      1.895      2.805
REMARK SMILES CC(C)Cc1cc2c(cc1Cl)C=C(C(=O)OCCOCCOC(=O)c1ccc(-c3c4nc(c(-c5c(F)c(F)c(F)c(F)c5F)c5ccc([nH]5)c(-c5c(F)c(F)c(F)c(F)c5F)c5nc(c(-c6c(F)c(F)c(F)c(F)c6F)c6ccc3[nH]6)C=C5)C=C4)cc1)[C@@H](C(F)(F)F)O2
REMARK SMILES IDX 19 1 18 2 17 3 16 4 14 5 15 6 13 7 5 8 6 9 10 10 7 11 9 12
REMARK SMILES IDX 11 13 8 14 93 15 12 16 88 17 4 18 2 19 1 20 3 21 89 22 90 23
REMARK SMILES IDX 91 24 92 25 20 26 21 27 22 28 23 29 24 30 25 31 26 32 87 33
REMARK SMILES IDX 27 34 86 35 28 36 29 37 30 38 80 39 31 40 85 41 79 42 81 43
REMARK SMILES IDX 32 44 84 45 78 46 77 47 33 49 65 50 45 51 64 52 46 53 49 54
REMARK SMILES IDX 63 55 82 56 47 57 48 58 62 60 83 61 50 62 34 63 35 64 43 65
REMARK SMILES IDX 36 66 37 67 41 68 44 69 38 70 39 71 42 72 40 73 66 74 67 75
REMARK SMILES IDX 75 76 68 77 69 78 73 79 76 80 70 81 71 82 74 83 72 84 51 85
REMARK SMILES IDX 52 86 60 87 53 88 54 89 58 90 61 91 55 92 56 93 59 94 57 95
REMARK H PARENT 81 48 49 59
REMARK Flexibility Score: inf
ROOT
ATOM      1  O   UNL A   1      32.619  30.469  27.174  1.00  0.00    -0.374 OA
ENDROOT
BRANCH   1   2
ATOM      2  C   UNL A   1      33.435  29.655  26.337  1.00  0.00     0.202 C 
BRANCH   2   3
ATOM      3  C   UNL A   1      33.458  28.146  26.600  1.00  0.00     0.261 C 
BRANCH   3   4
ATOM      4  O   UNL A   1      32.622  27.425  25.687  1.00  0.00    -0.460 OA
BRANCH   4   5
ATOM      5  C   UNL A   1      33.299  26.754  24.726  1.00  0.00     0.338 C 
ATOM      6  O   UNL A   1      33.981  27.237  23.835  1.00  0.00    -0.246 OA
BRANCH   5   7
ATOM      7  C   UNL A   1      33.210  25.305  24.976  1.00  0.00     0.087 C 
ATOM      8  C   UNL A   1      34.297  20.434  24.918  1.00  0.00    -0.025 A 
ATOM      9  C   UNL A   1      33.106  21.170  25.078  1.00  0.00     0.052 A 
ATOM     10  C   UNL A   1      35.522  21.112  25.019  1.00  0.00     0.045 A 
ATOM     11  C   UNL A   1      33.135  22.557  25.193  1.00  0.00     0.128 A 
ATOM     12  C   UNL A   1      35.549  22.501  25.166  1.00  0.00     0.032 A 
ATOM     13  Cl  UNL A   1      37.044  20.307  24.904  1.00  0.00    -0.084 Cl
ATOM     14  C   UNL A   1      34.355  23.227  25.197  1.00  0.00     0.019 A 
ATOM     15  O   UNL A   1      31.926  23.187  25.267  1.00  0.00    -0.475 OA
ATOM     16  C   UNL A   1      34.382  24.673  25.123  1.00  0.00     0.027 C 
ATOM     17  C   UNL A   1      31.873  24.619  25.016  1.00  0.00     0.316 C 
BRANCH   8  18
ATOM     18  C   UNL A   1      34.191  18.974  24.530  1.00  0.00     0.040 C 
BRANCH  18  19
ATOM     19  C   UNL A   1      32.728  18.523  24.302  1.00  0.00    -0.013 C 
ATOM     20  C   UNL A   1      32.435  18.168  22.839  1.00  0.00     0.008 C 
ATOM     21  C   UNL A   1      32.403  17.324  25.194  1.00  0.00     0.008 C 
ENDBRANCH  18  19
ENDBRANCH   8  18
BRANCH  17  22
ATOM     22  C   UNL A   1      31.043  24.866  23.748  1.00  0.00     0.430 C 
ATOM     23  F   UNL A   1      31.838  25.174  22.694  1.00  0.00    -0.167 F 
ATOM     24  F   UNL A   1      30.338  23.766  23.389  1.00  0.00    -0.167 F 
ATOM     25  F   UNL A   1      30.163  25.879  23.904  1.00  0.00    -0.167 F 
ENDBRANCH  17  22
ENDBRANCH   5   7
ENDBRANCH   4   5
ENDBRANCH   3   4
ENDBRANCH   2   3
ENDBRANCH   1   2
BRANCH   1  26
ATOM     26  C   UNL A   1      31.703  31.379  26.568  1.00  0.00     0.202 C 
BRANCH  26  27
ATOM     27  C   UNL A   1      31.762  32.861  26.967  1.00  0.00     0.261 C 
BRANCH  27  28
ATOM     28  O   UNL A   1      33.100  33.325  27.207  1.00  0.00    -0.460 OA
BRANCH  28  29
ATOM     29  C   UNL A   1      33.225  34.163  28.266  1.00  0.00     0.338 C 
ATOM     30  O   UNL A   1      32.464  35.060  28.597  1.00  0.00    -0.246 OA
BRANCH  29  31
ATOM     31  C   UNL A   1      34.341  33.719  29.119  1.00  0.00     0.060 A 
ATOM     32  C   UNL A   1      34.165  32.728  30.085  1.00  0.00     0.016 A 
ATOM     33  C   UNL A   1      35.606  34.277  28.889  1.00  0.00     0.016 A 
ATOM     34  C   UNL A   1      35.277  32.267  30.796  1.00  0.00     0.010 A 
ATOM     35  C   UNL A   1      36.712  33.816  29.599  1.00  0.00     0.010 A 
ATOM     36  C   UNL A   1      36.561  32.786  30.537  1.00  0.00    -0.014 A 
BRANCH  36  37
ATOM     37  C   UNL A   1      37.758  32.136  31.125  1.00  0.00     0.031 A 
ATOM     38  C   UNL A   1      38.252  32.481  32.496  1.00  0.00     0.074 A 
ATOM     39  C   UNL A   1      38.420  31.234  30.377  1.00  0.00     0.049 A 
ATOM     40  N   UNL A   1      39.229  31.936  33.177  1.00  0.00    -0.248 NA
ATOM     41  C   UNL A   1      37.572  33.583  33.193  1.00  0.00     0.031 C 
ATOM     42  C   UNL A   1      38.065  30.867  29.005  1.00  0.00     0.029 A 
ATOM     43  N   UNL A   1      39.515  30.457  30.657  1.00  0.00    -0.354 N 
ATOM     44  C   UNL A   1      39.267  32.607  34.391  1.00  0.00     0.074 A 
ATOM     45  C   UNL A   1      38.253  33.640  34.331  1.00  0.00     0.031 C 
ATOM     46  C   UNL A   1      38.896  29.903  28.580  1.00  0.00     0.029 A 
ATOM     47  C   UNL A   1      39.861  29.607  29.635  1.00  0.00     0.049 A 
ATOM     48  H   UNL A   1      40.005  30.503  31.510  1.00  0.00     0.167 HD
ATOM     49  C   UNL A   1      40.060  32.360  35.461  1.00  0.00     0.037 A 
ATOM     50  C   UNL A   1      40.838  28.683  29.558  1.00  0.00     0.037 A 
ATOM     51  C   UNL A   1      41.079  31.341  35.500  1.00  0.00     0.049 A 
ATOM     52  C   UNL A   1      41.730  28.458  30.747  1.00  0.00     0.074 A 
ATOM     53  C   UNL A   1      41.906  30.992  36.553  1.00  0.00     0.029 A 
ATOM     54  N   UNL A   1      41.421  30.518  34.436  1.00  0.00    -0.354 N 
ATOM     55  N   UNL A   1      41.696  29.033  31.925  1.00  0.00    -0.248 NA
ATOM     56  C   UNL A   1      42.793  27.454  30.600  1.00  0.00     0.031 C 
ATOM     57  C   UNL A   1      42.787  30.002  36.110  1.00  0.00     0.029 A 
ATOM     58  C   UNL A   1      42.467  29.685  34.800  1.00  0.00     0.049 A 
ATOM     59  H   UNL A   1      40.986  30.526  33.553  1.00  0.00     0.167 HD
ATOM     60  C   UNL A   1      42.707  28.442  32.668  1.00  0.00     0.074 A 
ATOM     61  C   UNL A   1      43.335  27.456  31.813  1.00  0.00     0.031 C 
ATOM     62  C   UNL A   1      43.078  28.697  33.946  1.00  0.00     0.037 A 
BRANCH  49  63
ATOM     63  C   UNL A   1      39.852  33.188  36.697  1.00  0.00     0.064 A 
ATOM     64  C   UNL A   1      38.924  32.810  37.678  1.00  0.00     0.173 A 
ATOM     65  C   UNL A   1      40.655  34.311  36.952  1.00  0.00     0.173 A 
ATOM     66  F   UNL A   1      38.131  31.745  37.483  1.00  0.00    -0.203 F 
ATOM     67  C   UNL A   1      38.794  33.533  38.861  1.00  0.00     0.198 A 
ATOM     68  C   UNL A   1      40.543  35.014  38.150  1.00  0.00     0.198 A 
ATOM     69  F   UNL A   1      41.568  34.710  36.055  1.00  0.00    -0.203 F 
ATOM     70  F   UNL A   1      37.879  33.169  39.770  1.00  0.00    -0.200 F 
ATOM     71  C   UNL A   1      39.611  34.628  39.101  1.00  0.00     0.200 A 
ATOM     72  F   UNL A   1      41.347  36.059  38.389  1.00  0.00    -0.200 F 
ATOM     73  F   UNL A   1      39.501  35.309  40.250  1.00  0.00    -0.200 F 
ENDBRANCH  49  63
BRANCH  50  74
ATOM     74  C   UNL A   1      40.973  27.866  28.326  1.00  0.00     0.064 A 
ATOM     75  C   UNL A   1      41.777  28.298  27.263  1.00  0.00     0.173 A 
ATOM     76  C   UNL A   1      40.341  26.619  28.202  1.00  0.00     0.173 A 
ATOM     77  F   UNL A   1      42.391  29.489  27.329  1.00  0.00    -0.203 F 
ATOM     78  C   UNL A   1      41.939  27.519  26.119  1.00  0.00     0.198 A 
ATOM     79  C   UNL A   1      40.527  25.828  27.071  1.00  0.00     0.198 A 
ATOM     80  F   UNL A   1      39.568  26.156  29.195  1.00  0.00    -0.203 F 
ATOM     81  F   UNL A   1      42.690  27.970  25.106  1.00  0.00    -0.200 F 
ATOM     82  C   UNL A   1      41.322  26.281  26.028  1.00  0.00     0.200 A 
ATOM     83  F   UNL A   1      39.945  24.624  26.995  1.00  0.00    -0.200 F 
ATOM     84  F   UNL A   1      41.493  25.524  24.936  1.00  0.00    -0.200 F 
ENDBRANCH  50  74
BRANCH  62  85
ATOM     85  C   UNL A   1      44.200  27.886  34.529  1.00  0.00     0.064 A 
ATOM     86  C   UNL A   1      43.973  26.631  35.112  1.00  0.00     0.173 A 
ATOM     87  C   UNL A   1      45.528  28.324  34.407  1.00  0.00     0.173 A 
ATOM     88  F   UNL A   1      42.722  26.174  35.265  1.00  0.00    -0.203 F 
ATOM     89  C   UNL A   1      45.036  25.845  35.553  1.00  0.00     0.198 A 
ATOM     90  C   UNL A   1      46.589  27.522  34.820  1.00  0.00     0.198 A 
ATOM     91  F   UNL A   1      45.800  29.514  33.851  1.00  0.00    -0.203 F 
ATOM     92  F   UNL A   1      44.795  24.658  36.127  1.00  0.00    -0.200 F 
ATOM     93  C   UNL A   1      46.342  26.284  35.392  1.00  0.00     0.200 A 
ATOM     94  F   UNL A   1      47.850  27.940  34.647  1.00  0.00    -0.200 F 
ATOM     95  F   UNL A   1      47.364  25.512  35.789  1.00  0.00    -0.200 F 
ENDBRANCH  62  85
ENDBRANCH  36  37
ENDBRANCH  29  31
ENDBRANCH  28  29
ENDBRANCH  27  28
ENDBRANCH  26  27
ENDBRANCH   1  26
TORSDOF 17
ENDMDL
MODEL 3
REMARK VINA RESULT:     -11.9      4.492     10.259
REMARK SMILES CC(C)Cc1cc2c(cc1Cl)C=C(C(=O)OCCOCCOC(=O)c1ccc(-c3c4nc(c(-c5c(F)c(F)c(F)c(F)c5F)c5ccc([nH]5)c(-c5c(F)c(F)c(F)c(F)c5F)c5nc(c(-c6c(F)c(F)c(F)c(F)c6F)c6ccc3[nH]6)C=C5)C=C4)cc1)[C@@H](C(F)(F)F)O2
REMARK SMILES IDX 19 1 18 2 17 3 16 4 14 5 15 6 13 7 5 8 6 9 10 10 7 11 9 12
REMARK SMILES IDX 11 13 8 14 93 15 12 16 88 17 4 18 2 19 1 20 3 21 89 22 90 23
REMARK SMILES IDX 91 24 92 25 20 26 21 27 22 28 23 29 24 30 25 31 26 32 87 33
REMARK SMILES IDX 27 34 86 35 28 36 29 37 30 38 80 39 31 40 85 41 79 42 81 43
REMARK SMILES IDX 32 44 84 45 78 46 77 47 33 49 65 50 45 51 64 52 46 53 49 54
REMARK SMILES IDX 63 55 82 56 47 57 48 58 62 60 83 61 50 62 34 63 35 64 43 65
REMARK SMILES IDX 36 66 37 67 41 68 44 69 38 70 39 71 42 72 40 73 66 74 67 75
REMARK SMILES IDX 75 76 68 77 69 78 73 79 76 80 70 81 71 82 74 83 72 84 51 85
REMARK SMILES IDX 52 86 60 87 53 88 54 89 58 90 61 91 55 92 56 93 59 94 57 95
REMARK H PARENT 81 48 49 59
REMARK Flexibility Score: inf
ROOT
ATOM      1  O   UNL A   1      36.183  20.226  25.057  1.00  0.00    -0.374 OA
ENDROOT
BRANCH   1   2
ATOM      2  C   UNL A   1      35.098  21.150  25.039  1.00  0.00     0.202 C 
BRANCH   2   3
ATOM      3  C   UNL A   1      34.518  21.610  26.380  1.00  0.00     0.261 C 
BRANCH   3   4
ATOM      4  O   UNL A   1      34.412  23.036  26.464  1.00  0.00    -0.460 OA
BRANCH   4   5
ATOM      5  C   UNL A   1      33.152  23.487  26.669  1.00  0.00     0.338 C 
ATOM      6  O   UNL A   1      32.405  23.185  27.587  1.00  0.00    -0.246 OA
BRANCH   5   7
ATOM      7  C   UNL A   1      32.829  24.525  25.675  1.00  0.00     0.087 C 
ATOM      8  C   UNL A   1      31.091  28.749  23.663  1.00  0.00    -0.025 A 
ATOM      9  C   UNL A   1      31.363  27.463  23.156  1.00  0.00     0.052 A 
ATOM     10  C   UNL A   1      31.591  29.089  24.930  1.00  0.00     0.045 A 
ATOM     11  C   UNL A   1      31.991  26.503  23.947  1.00  0.00     0.128 A 
ATOM     12  C   UNL A   1      32.248  28.134  25.708  1.00  0.00     0.032 A 
ATOM     13  Cl  UNL A   1      31.375  30.655  25.626  1.00  0.00    -0.084 Cl
ATOM     14  C   UNL A   1      32.398  26.828  25.238  1.00  0.00     0.019 A 
ATOM     15  O   UNL A   1      32.144  25.264  23.394  1.00  0.00    -0.475 OA
ATOM     16  C   UNL A   1      32.874  25.786  26.125  1.00  0.00     0.027 C 
ATOM     17  C   UNL A   1      32.442  24.144  24.273  1.00  0.00     0.316 C 
BRANCH   8  18
ATOM     18  C   UNL A   1      30.175  29.654  22.866  1.00  0.00     0.040 C 
BRANCH  18  19
ATOM     19  C   UNL A   1      28.775  29.802  23.510  1.00  0.00    -0.013 C 
ATOM     20  C   UNL A   1      28.258  31.245  23.489  1.00  0.00     0.008 C 
ATOM     21  C   UNL A   1      27.773  28.890  22.802  1.00  0.00     0.008 C 
ENDBRANCH  18  19
ENDBRANCH   8  18
BRANCH  17  22
ATOM     22  C   UNL A   1      31.264  23.159  24.232  1.00  0.00     0.430 C 
ATOM     23  F   UNL A   1      30.379  23.411  25.226  1.00  0.00    -0.167 F 
ATOM     24  F   UNL A   1      30.574  23.253  23.070  1.00  0.00    -0.167 F 
ATOM     25  F   UNL A   1      31.668  21.876  24.361  1.00  0.00    -0.167 F 
ENDBRANCH  17  22
ENDBRANCH   5   7
ENDBRANCH   4   5
ENDBRANCH   3   4
ENDBRANCH   2   3
ENDBRANCH   1   2
BRANCH   1  26
ATOM     26  C   UNL A   1      37.516  20.727  24.994  1.00  0.00     0.202 C 
BRANCH  26  27
ATOM     27  C   UNL A   1      38.674  19.795  25.376  1.00  0.00     0.261 C 
BRANCH  27  28
ATOM     28  O   UNL A   1      39.324  20.180  26.599  1.00  0.00    -0.460 OA
BRANCH  28  29
ATOM     29  C   UNL A   1      40.650  20.435  26.477  1.00  0.00     0.338 C 
ATOM     30  O   UNL A   1      41.491  19.746  25.917  1.00  0.00    -0.246 OA
BRANCH  29  31
ATOM     31  C   UNL A   1      40.937  21.799  26.954  1.00  0.00     0.060 A 
ATOM     32  C   UNL A   1      41.762  22.024  28.056  1.00  0.00     0.016 A 
ATOM     33  C   UNL A   1      40.405  22.874  26.228  1.00  0.00     0.016 A 
ATOM     34  C   UNL A   1      42.088  23.338  28.404  1.00  0.00     0.010 A 
ATOM     35  C   UNL A   1      40.731  24.182  26.578  1.00  0.00     0.010 A 
ATOM     36  C   UNL A   1      41.599  24.423  27.651  1.00  0.00    -0.014 A 
BRANCH  36  37
ATOM     37  C   UNL A   1      42.129  25.789  27.884  1.00  0.00     0.031 A 
ATOM     38  C   UNL A   1      43.479  26.208  27.390  1.00  0.00     0.074 A 
ATOM     39  C   UNL A   1      41.370  26.651  28.587  1.00  0.00     0.049 A 
ATOM     40  N   UNL A   1      44.040  27.390  27.440  1.00  0.00    -0.248 NA
ATOM     41  C   UNL A   1      44.313  25.171  26.766  1.00  0.00     0.031 C 
ATOM     42  C   UNL A   1      40.067  26.331  29.171  1.00  0.00     0.029 A 
ATOM     43  N   UNL A   1      41.573  27.965  28.924  1.00  0.00    -0.354 N 
ATOM     44  C   UNL A   1      45.280  27.249  26.833  1.00  0.00     0.074 A 
ATOM     45  C   UNL A   1      45.414  25.852  26.474  1.00  0.00     0.031 C 
ATOM     46  C   UNL A   1      39.565  27.430  29.753  1.00  0.00     0.029 A 
ATOM     47  C   UNL A   1      40.523  28.523  29.612  1.00  0.00     0.049 A 
ATOM     48  H   UNL A   1      42.391  28.461  28.693  1.00  0.00     0.167 HD
ATOM     49  C   UNL A   1      46.203  28.207  26.579  1.00  0.00     0.037 A 
ATOM     50  C   UNL A   1      40.344  29.777  30.069  1.00  0.00     0.037 A 
ATOM     51  C   UNL A   1      46.065  29.591  26.960  1.00  0.00     0.049 A 
ATOM     52  C   UNL A   1      41.404  30.811  29.808  1.00  0.00     0.074 A 
ATOM     53  C   UNL A   1      46.931  30.641  26.712  1.00  0.00     0.029 A 
ATOM     54  N   UNL A   1      45.001  30.114  27.681  1.00  0.00    -0.354 N 
ATOM     55  N   UNL A   1      42.531  30.690  29.150  1.00  0.00    -0.248 NA
ATOM     56  C   UNL A   1      41.167  32.157  30.348  1.00  0.00     0.031 C 
ATOM     57  C   UNL A   1      46.423  31.785  27.332  1.00  0.00     0.029 A 
ATOM     58  C   UNL A   1      45.206  31.465  27.912  1.00  0.00     0.049 A 
ATOM     59  H   UNL A   1      44.217  29.601  27.985  1.00  0.00     0.167 HD
ATOM     60  C   UNL A   1      43.122  31.944  29.169  1.00  0.00     0.074 A 
ATOM     61  C   UNL A   1      42.226  32.819  29.897  1.00  0.00     0.031 C 
ATOM     62  C   UNL A   1      44.302  32.332  28.628  1.00  0.00     0.037 A 
BRANCH  49  63
ATOM     63  C   UNL A   1      47.445  27.808  25.835  1.00  0.00     0.064 A 
ATOM     64  C   UNL A   1      48.607  27.416  26.517  1.00  0.00     0.173 A 
ATOM     65  C   UNL A   1      47.446  27.720  24.434  1.00  0.00     0.173 A 
ATOM     66  F   UNL A   1      48.659  27.483  27.856  1.00  0.00    -0.203 F 
ATOM     67  C   UNL A   1      49.728  26.967  25.825  1.00  0.00     0.198 A 
ATOM     68  C   UNL A   1      48.560  27.242  23.747  1.00  0.00     0.198 A 
ATOM     69  F   UNL A   1      46.359  28.069  23.732  1.00  0.00    -0.203 F 
ATOM     70  F   UNL A   1      50.837  26.626  26.497  1.00  0.00    -0.200 F 
ATOM     71  C   UNL A   1      49.701  26.870  24.442  1.00  0.00     0.200 A 
ATOM     72  F   UNL A   1      48.524  27.129  22.412  1.00  0.00    -0.200 F 
ATOM     73  F   UNL A   1      50.773  26.415  23.779  1.00  0.00    -0.200 F 
ENDBRANCH  49  63
BRANCH  50  74
ATOM     74  C   UNL A   1      39.080  30.127  30.764  1.00  0.00     0.064 A 
ATOM     75  C   UNL A   1      38.997  30.091  32.163  1.00  0.00     0.173 A 
ATOM     76  C   UNL A   1      37.945  30.545  30.054  1.00  0.00     0.173 A 
ATOM     77  F   UNL A   1      40.051  29.684  32.886  1.00  0.00    -0.203 F 
ATOM     78  C   UNL A   1      37.826  30.454  32.824  1.00  0.00     0.198 A 
ATOM     79  C   UNL A   1      36.784  30.936  30.717  1.00  0.00     0.198 A 
ATOM     80  F   UNL A   1      37.975  30.605  28.714  1.00  0.00    -0.203 F 
ATOM     81  F   UNL A   1      37.765  30.383  34.160  1.00  0.00    -0.200 F 
ATOM     82  C   UNL A   1      36.723  30.885  32.102  1.00  0.00     0.200 A 
ATOM     83  F   UNL A   1      35.729  31.370  30.016  1.00  0.00    -0.200 F 
ATOM     84  F   UNL A   1      35.604  31.252  32.739  1.00  0.00    -0.200 F 
ENDBRANCH  50  74
BRANCH  62  85
ATOM     85  C   UNL A   1      44.702  33.774  28.768  1.00  0.00     0.064 A 
ATOM     86  C   UNL A   1      45.495  34.215  29.836  1.00  0.00     0.173 A 
ATOM     87  C   UNL A   1      44.376  34.699  27.764  1.00  0.00     0.173 A 
ATOM     88  F   UNL A   1      45.822  33.373  30.828  1.00  0.00    -0.203 F 
ATOM     89  C   UNL A   1      45.947  35.532  29.896  1.00  0.00     0.198 A 
ATOM     90  C   UNL A   1      44.854  36.007  27.811  1.00  0.00     0.198 A 
ATOM     91  F   UNL A   1      43.624  34.326  26.718  1.00  0.00    -0.203 F 
ATOM     92  F   UNL A   1      46.686  35.938  30.937  1.00  0.00    -0.200 F 
ATOM     93  C   UNL A   1      45.639  36.421  28.876  1.00  0.00     0.200 A 
ATOM     94  F   UNL A   1      44.571  36.858  26.816  1.00  0.00    -0.200 F 
ATOM     95  F   UNL A   1      46.100  37.679  28.920  1.00  0.00    -0.200 F 
ENDBRANCH  62  85
ENDBRANCH  36  37
ENDBRANCH  29  31
ENDBRANCH  28  29
ENDBRANCH  27  28
ENDBRANCH  26  27
ENDBRANCH   1  26
TORSDOF 17
ENDMDL
