MODEL 1
REMARK VINA RESULT:     -11.1      0.000      0.000
REMARK SMILES COc1ccccc1Nc1nc(C)c(C(=O)OCCOCCOC(=O)c2ccc(-c3c4nc(c(-c5c(F)c(F)c(F)c(F)c5F)c5ccc([nH]5)c(-c5c(F)c(F)c(F)c(F)c5F)c5nc(c(-c6c(F)c(F)c(F)c(F)c6F)c6ccc3[nH]6)C=C5)C=C4)cc2)s1
REMARK SMILES IDX 19 1 18 2 17 3 15 4 16 5 14 6 10 7 11 8 89 9 12 10 13 11
REMARK SMILES IDX 9 12 8 14 3 15 4 16 5 17 7 18 6 19 2 20 1 21 20 22 21 23
REMARK SMILES IDX 22 24 23 25 24 26 25 27 26 28 27 29 88 30 28 31 87 32 29 33
REMARK SMILES IDX 30 34 31 35 81 36 32 37 86 38 80 39 82 40 33 41 85 42 79 43
REMARK SMILES IDX 78 44 34 46 66 47 46 48 65 49 47 50 50 51 64 52 83 53 48 54
REMARK SMILES IDX 49 55 63 57 84 58 51 59 35 60 36 61 44 62 37 63 38 64 42 65
REMARK SMILES IDX 45 66 39 67 40 68 43 69 41 70 67 71 68 72 76 73 69 74 70 75
REMARK SMILES IDX 74 76 77 77 71 78 72 79 75 80 73 81 52 82 53 83 61 84 54 85
REMARK SMILES IDX 55 86 59 87 62 88 56 89 57 90 60 91 58 92
REMARK H PARENT 9 13 82 45 50 56
REMARK Flexibility Score: inf
ROOT
ATOM      1  C   UNL A   1      32.080  29.547  24.982  1.00  0.00     0.202 C 
ENDROOT
BRANCH   1   2
ATOM      2  C   UNL A   1      31.483  28.137  25.005  1.00  0.00     0.261 C 
BRANCH   2   3
ATOM      3  O   UNL A   1      30.408  28.059  24.050  1.00  0.00    -0.459 OA
BRANCH   3   4
ATOM      4  C   UNL A   1      30.761  28.085  22.735  1.00  0.00     0.350 C 
ATOM      5  O   UNL A   1      30.371  28.929  21.936  1.00  0.00    -0.245 OA
BRANCH   4   6
ATOM      6  C   UNL A   1      31.732  27.048  22.463  1.00  0.00     0.137 A 
ATOM      7  C   UNL A   1      32.757  24.875  22.007  1.00  0.00     0.188 A 
ATOM      8  N   UNL A   1      33.655  25.830  21.943  1.00  0.00    -0.224 NA
ATOM      9  S   UNL A   1      31.188  25.414  22.452  1.00  0.00    -0.089 S 
ATOM     10  C   UNL A   1      33.079  27.080  22.130  1.00  0.00     0.065 A 
ATOM     11  C   UNL A   1      33.986  28.250  21.975  1.00  0.00     0.069 C 
BRANCH   7  12
ATOM     12  N   UNL A   1      33.079  23.577  21.837  1.00  0.00    -0.328 N 
ATOM     13  H   UNL A   1      33.217  23.288  20.906  1.00  0.00     0.169 HD
BRANCH  12  14
ATOM     14  C   UNL A   1      33.244  22.580  22.822  1.00  0.00     0.083 A 
ATOM     15  C   UNL A   1      34.426  22.550  23.590  1.00  0.00     0.142 A 
ATOM     16  C   UNL A   1      34.682  21.505  24.482  1.00  0.00     0.048 A 
ATOM     17  C   UNL A   1      33.737  20.500  24.665  1.00  0.00     0.004 A 
ATOM     18  C   UNL A   1      32.290  21.578  23.051  1.00  0.00     0.030 A 
ATOM     19  C   UNL A   1      32.537  20.542  23.960  1.00  0.00     0.002 A 
BRANCH  15  20
ATOM     20  O   UNL A   1      35.422  23.487  23.449  1.00  0.00    -0.495 OA
ATOM     21  C   UNL A   1      36.665  23.036  23.994  1.00  0.00     0.278 C 
ENDBRANCH  15  20
ENDBRANCH  12  14
ENDBRANCH   7  12
ENDBRANCH   4   6
ENDBRANCH   3   4
ENDBRANCH   2   3
ENDBRANCH   1   2
BRANCH   1  22
ATOM     22  O   UNL A   1      31.256  30.529  25.614  1.00  0.00    -0.374 OA
BRANCH  22  23
ATOM     23  C   UNL A   1      31.751  31.080  26.836  1.00  0.00     0.202 C 
BRANCH  23  24
ATOM     24  C   UNL A   1      31.751  32.611  26.884  1.00  0.00     0.261 C 
BRANCH  24  25
ATOM     25  O   UNL A   1      33.098  33.119  26.847  1.00  0.00    -0.460 OA
BRANCH  25  26
ATOM     26  C   UNL A   1      33.554  33.618  28.019  1.00  0.00     0.338 C 
ATOM     27  O   UNL A   1      32.999  34.422  28.749  1.00  0.00    -0.246 OA
BRANCH  26  28
ATOM     28  C   UNL A   1      34.794  32.917  28.410  1.00  0.00     0.060 A 
ATOM     29  C   UNL A   1      34.670  31.598  28.863  1.00  0.00     0.016 A 
ATOM     30  C   UNL A   1      36.044  33.542  28.385  1.00  0.00     0.016 A 
ATOM     31  C   UNL A   1      35.787  30.916  29.341  1.00  0.00     0.010 A 
ATOM     32  C   UNL A   1      37.163  32.858  28.871  1.00  0.00     0.010 A 
ATOM     33  C   UNL A   1      37.032  31.555  29.382  1.00  0.00    -0.014 A 
BRANCH  33  34
ATOM     34  C   UNL A   1      38.162  30.904  30.088  1.00  0.00     0.031 A 
ATOM     35  C   UNL A   1      38.420  31.250  31.527  1.00  0.00     0.074 A 
ATOM     36  C   UNL A   1      38.927  29.991  29.466  1.00  0.00     0.049 A 
ATOM     37  N   UNL A   1      39.348  30.805  32.337  1.00  0.00    -0.248 NA
ATOM     38  C   UNL A   1      37.509  32.230  32.137  1.00  0.00     0.031 C 
ATOM     39  C   UNL A   1      38.756  29.547  28.085  1.00  0.00     0.029 A 
ATOM     40  N   UNL A   1      40.005  29.274  29.921  1.00  0.00    -0.354 N 
ATOM     41  C   UNL A   1      39.133  31.449  33.547  1.00  0.00     0.074 A 
ATOM     42  C   UNL A   1      38.007  32.339  33.360  1.00  0.00     0.031 C 
ATOM     43  C   UNL A   1      39.703  28.636  27.801  1.00  0.00     0.029 A 
ATOM     44  C   UNL A   1      40.559  28.453  28.972  1.00  0.00     0.049 A 
ATOM     45  H   UNL A   1      40.349  29.344  30.841  1.00  0.00     0.167 HD
ATOM     46  C   UNL A   1      39.807  31.305  34.713  1.00  0.00     0.037 A 
ATOM     47  C   UNL A   1      41.642  27.655  29.040  1.00  0.00     0.037 A 
ATOM     48  C   UNL A   1      40.926  30.421  34.900  1.00  0.00     0.049 A 
ATOM     49  C   UNL A   1      42.417  27.562  30.328  1.00  0.00     0.074 A 
ATOM     50  C   UNL A   1      41.657  30.183  36.052  1.00  0.00     0.029 A 
ATOM     51  N   UNL A   1      41.483  29.633  33.904  1.00  0.00    -0.354 N 
ATOM     52  N   UNL A   1      42.186  28.149  31.477  1.00  0.00    -0.248 NA
ATOM     53  C   UNL A   1      43.603  26.694  30.326  1.00  0.00     0.031 C 
ATOM     54  C   UNL A   1      42.685  29.286  35.740  1.00  0.00     0.029 A 
ATOM     55  C   UNL A   1      42.567  28.930  34.407  1.00  0.00     0.049 A 
ATOM     56  H   UNL A   1      41.157  29.581  32.976  1.00  0.00     0.167 HD
ATOM     57  C   UNL A   1      43.179  27.703  32.341  1.00  0.00     0.074 A 
ATOM     58  C   UNL A   1      44.010  26.789  31.584  1.00  0.00     0.031 C 
ATOM     59  C   UNL A   1      43.383  28.021  33.642  1.00  0.00     0.037 A 
BRANCH  46  60
ATOM     60  C   UNL A   1      39.362  32.144  35.872  1.00  0.00     0.064 A 
ATOM     61  C   UNL A   1      38.392  31.690  36.779  1.00  0.00     0.173 A 
ATOM     62  C   UNL A   1      39.927  33.409  36.091  1.00  0.00     0.173 A 
ATOM     63  F   UNL A   1      37.811  30.495  36.604  1.00  0.00    -0.203 F 
ATOM     64  C   UNL A   1      37.987  32.485  37.848  1.00  0.00     0.198 A 
ATOM     65  C   UNL A   1      39.538  34.190  37.176  1.00  0.00     0.198 A 
ATOM     66  F   UNL A   1      40.861  33.886  35.254  1.00  0.00    -0.203 F 
ATOM     67  F   UNL A   1      37.026  32.052  38.677  1.00  0.00    -0.200 F 
ATOM     68  C   UNL A   1      38.563  33.731  38.049  1.00  0.00     0.200 A 
ATOM     69  F   UNL A   1      40.101  35.389  37.373  1.00  0.00    -0.200 F 
ATOM     70  F   UNL A   1      38.172  34.494  39.079  1.00  0.00    -0.200 F 
ENDBRANCH  46  60
BRANCH  47  71
ATOM     71  C   UNL A   1      42.062  26.879  27.845  1.00  0.00     0.064 A 
ATOM     72  C   UNL A   1      42.997  27.398  26.940  1.00  0.00     0.173 A 
ATOM     73  C   UNL A   1      41.533  25.606  27.583  1.00  0.00     0.173 A 
ATOM     74  F   UNL A   1      43.510  28.621  27.136  1.00  0.00    -0.203 F 
ATOM     75  C   UNL A   1      43.379  26.677  25.811  1.00  0.00     0.198 A 
ATOM     76  C   UNL A   1      41.933  24.878  26.466  1.00  0.00     0.198 A 
ATOM     77  F   UNL A   1      40.633  25.068  28.420  1.00  0.00    -0.203 F 
ATOM     78  F   UNL A   1      44.247  27.212  24.940  1.00  0.00    -0.200 F 
ATOM     79  C   UNL A   1      42.853  25.416  25.578  1.00  0.00     0.200 A 
ATOM     80  F   UNL A   1      41.430  23.656  26.250  1.00  0.00    -0.200 F 
ATOM     81  F   UNL A   1      43.224  24.722  24.494  1.00  0.00    -0.200 F 
ENDBRANCH  47  71
BRANCH  59  82
ATOM     82  C   UNL A   1      44.531  27.357  34.343  1.00  0.00     0.064 A 
ATOM     83  C   UNL A   1      44.388  26.105  34.960  1.00  0.00     0.173 A 
ATOM     84  C   UNL A   1      45.798  27.959  34.361  1.00  0.00     0.173 A 
ATOM     85  F   UNL A   1      43.193  25.496  34.984  1.00  0.00    -0.203 F 
ATOM     86  C   UNL A   1      45.470  25.490  35.586  1.00  0.00     0.198 A 
ATOM     87  C   UNL A   1      46.882  27.330  34.965  1.00  0.00     0.198 A 
ATOM     88  F   UNL A   1      45.987  29.153  33.779  1.00  0.00    -0.203 F 
ATOM     89  F   UNL A   1      45.302  24.313  36.204  1.00  0.00    -0.200 F 
ATOM     90  C   UNL A   1      46.716  26.099  35.582  1.00  0.00     0.200 A 
ATOM     91  F   UNL A   1      48.088  27.914  34.951  1.00  0.00    -0.200 F 
ATOM     92  F   UNL A   1      47.756  25.502  36.180  1.00  0.00    -0.200 F 
ENDBRANCH  59  82
ENDBRANCH  33  34
ENDBRANCH  26  28
ENDBRANCH  25  26
ENDBRANCH  24  25
ENDBRANCH  23  24
ENDBRANCH  22  23
ENDBRANCH   1  22
TORSDOF 17
ENDMDL
MODEL 2
REMARK VINA RESULT:     -10.9      4.422     10.408
REMARK SMILES COc1ccccc1Nc1nc(C)c(C(=O)OCCOCCOC(=O)c2ccc(-c3c4nc(c(-c5c(F)c(F)c(F)c(F)c5F)c5ccc([nH]5)c(-c5c(F)c(F)c(F)c(F)c5F)c5nc(c(-c6c(F)c(F)c(F)c(F)c6F)c6ccc3[nH]6)C=C5)C=C4)cc2)s1
REMARK SMILES IDX 19 1 18 2 17 3 15 4 16 5 14 6 10 7 11 8 89 9 12 10 13 11
REMARK SMILES IDX 9 12 8 14 3 15 4 16 5 17 7 18 6 19 2 20 1 21 20 22 21 23
REMARK SMILES IDX 22 24 23 25 24 26 25 27 26 28 27 29 88 30 28 31 87 32 29 33
REMARK SMILES IDX 30 34 31 35 81 36 32 37 86 38 80 39 82 40 33 41 85 42 79 43
REMARK SMILES IDX 78 44 34 46 66 47 46 48 65 49 47 50 50 51 64 52 83 53 48 54
REMARK SMILES IDX 49 55 63 57 84 58 51 59 35 60 36 61 44 62 37 63 38 64 42 65
REMARK SMILES IDX 45 66 39 67 40 68 43 69 41 70 67 71 68 72 76 73 69 74 70 75
REMARK SMILES IDX 74 76 77 77 71 78 72 79 75 80 73 81 52 82 53 83 61 84 54 85
REMARK SMILES IDX 55 86 59 87 62 88 56 89 57 90 60 91 58 92
REMARK H PARENT 9 13 82 45 50 56
REMARK Flexibility Score: inf
ROOT
ATOM      1  C   UNL A   1      37.092  22.316  25.031  1.00  0.00     0.202 C 
ENDROOT
BRANCH   1   2
ATOM      2  C   UNL A   1      35.628  22.755  24.926  1.00  0.00     0.261 C 
BRANCH   2   3
ATOM      3  O   UNL A   1      34.792  21.593  24.765  1.00  0.00    -0.459 OA
BRANCH   3   4
ATOM      4  C   UNL A   1      33.726  21.491  25.605  1.00  0.00     0.350 C 
ATOM      5  O   UNL A   1      33.683  20.736  26.570  1.00  0.00    -0.245 OA
BRANCH   4   6
ATOM      6  C   UNL A   1      32.721  22.469  25.250  1.00  0.00     0.137 A 
ATOM      7  C   UNL A   1      31.220  24.398  25.312  1.00  0.00     0.188 A 
ATOM      8  N   UNL A   1      31.135  23.786  24.154  1.00  0.00    -0.224 NA
ATOM      9  S   UNL A   1      32.278  23.639  26.433  1.00  0.00    -0.089 S 
ATOM     10  C   UNL A   1      32.031  22.728  24.074  1.00  0.00     0.065 A 
ATOM     11  C   UNL A   1      32.098  22.023  22.765  1.00  0.00     0.069 C 
BRANCH   7  12
ATOM     12  N   UNL A   1      30.459  25.469  25.614  1.00  0.00    -0.328 N 
ATOM     13  H   UNL A   1      29.524  25.276  25.857  1.00  0.00     0.169 HD
BRANCH  12  14
ATOM     14  C   UNL A   1      30.829  26.831  25.628  1.00  0.00     0.083 A 
ATOM     15  C   UNL A   1      30.702  27.598  24.453  1.00  0.00     0.142 A 
ATOM     16  C   UNL A   1      31.178  28.911  24.392  1.00  0.00     0.048 A 
ATOM     17  C   UNL A   1      31.738  29.500  25.522  1.00  0.00     0.004 A 
ATOM     18  C   UNL A   1      31.362  27.457  26.764  1.00  0.00     0.030 A 
ATOM     19  C   UNL A   1      31.820  28.779  26.710  1.00  0.00     0.002 A 
BRANCH  15  20
ATOM     20  O   UNL A   1      30.187  27.084  23.286  1.00  0.00    -0.495 OA
ATOM     21  C   UNL A   1      31.185  26.953  22.270  1.00  0.00     0.278 C 
ENDBRANCH  15  20
ENDBRANCH  12  14
ENDBRANCH   7  12
ENDBRANCH   4   6
ENDBRANCH   3   4
ENDBRANCH   2   3
ENDBRANCH   1   2
BRANCH   1  22
ATOM     22  O   UNL A   1      37.271  21.073  25.714  1.00  0.00    -0.374 OA
BRANCH  22  23
ATOM     23  C   UNL A   1      37.921  20.035  24.978  1.00  0.00     0.202 C 
BRANCH  23  24
ATOM     24  C   UNL A   1      39.182  19.482  25.647  1.00  0.00     0.261 C 
BRANCH  24  25
ATOM     25  O   UNL A   1      40.157  20.526  25.832  1.00  0.00    -0.460 OA
BRANCH  25  26
ATOM     26  C   UNL A   1      40.769  20.529  27.039  1.00  0.00     0.338 C 
ATOM     27  O   UNL A   1      41.185  19.567  27.663  1.00  0.00    -0.246 OA
BRANCH  26  28
ATOM     28  C   UNL A   1      41.030  21.920  27.461  1.00  0.00     0.060 A 
ATOM     29  C   UNL A   1      40.364  22.937  26.766  1.00  0.00     0.016 A 
ATOM     30  C   UNL A   1      41.939  22.235  28.475  1.00  0.00     0.016 A 
ATOM     31  C   UNL A   1      40.642  24.273  27.047  1.00  0.00     0.010 A 
ATOM     32  C   UNL A   1      42.222  23.576  28.752  1.00  0.00     0.010 A 
ATOM     33  C   UNL A   1      41.599  24.600  28.016  1.00  0.00    -0.014 A 
BRANCH  33  34
ATOM     34  C   UNL A   1      42.045  26.007  28.154  1.00  0.00     0.031 A 
ATOM     35  C   UNL A   1      43.370  26.414  27.576  1.00  0.00     0.074 A 
ATOM     36  C   UNL A   1      41.263  26.919  28.758  1.00  0.00     0.049 A 
ATOM     37  N   UNL A   1      43.956  27.585  27.581  1.00  0.00    -0.248 NA
ATOM     38  C   UNL A   1      44.140  25.359  26.900  1.00  0.00     0.031 C 
ATOM     39  C   UNL A   1      39.945  26.655  29.328  1.00  0.00     0.029 A 
ATOM     40  N   UNL A   1      41.472  28.255  28.991  1.00  0.00    -0.354 N 
ATOM     41  C   UNL A   1      45.159  27.407  26.912  1.00  0.00     0.074 A 
ATOM     42  C   UNL A   1      45.237  26.010  26.542  1.00  0.00     0.031 C 
ATOM     43  C   UNL A   1      39.462  27.794  29.854  1.00  0.00     0.029 A 
ATOM     44  C   UNL A   1      40.448  28.859  29.678  1.00  0.00     0.049 A 
ATOM     45  H   UNL A   1      42.279  28.735  28.695  1.00  0.00     0.167 HD
ATOM     46  C   UNL A   1      46.110  28.328  26.624  1.00  0.00     0.037 A 
ATOM     47  C   UNL A   1      40.330  30.125  30.123  1.00  0.00     0.037 A 
ATOM     48  C   UNL A   1      46.034  29.716  26.992  1.00  0.00     0.049 A 
ATOM     49  C   UNL A   1      41.432  31.114  29.850  1.00  0.00     0.074 A 
ATOM     50  C   UNL A   1      46.934  30.733  26.720  1.00  0.00     0.029 A 
ATOM     51  N   UNL A   1      45.000  30.283  27.721  1.00  0.00    -0.354 N 
ATOM     52  N   UNL A   1      42.551  30.946  29.188  1.00  0.00    -0.248 NA
ATOM     53  C   UNL A   1      41.252  32.471  30.386  1.00  0.00     0.031 C 
ATOM     54  C   UNL A   1      46.466  31.905  27.326  1.00  0.00     0.029 A 
ATOM     55  C   UNL A   1      45.253  31.629  27.934  1.00  0.00     0.049 A 
ATOM     56  H   UNL A   1      44.204  29.800  28.041  1.00  0.00     0.167 HD
ATOM     57  C   UNL A   1      43.195  32.177  29.205  1.00  0.00     0.074 A 
ATOM     58  C   UNL A   1      42.337  33.086  29.937  1.00  0.00     0.031 C 
ATOM     59  C   UNL A   1      44.388  32.522  28.662  1.00  0.00     0.037 A 
BRANCH  46  60
ATOM     60  C   UNL A   1      47.328  27.851  25.892  1.00  0.00     0.064 A 
ATOM     61  C   UNL A   1      48.495  27.473  26.574  1.00  0.00     0.173 A 
ATOM     62  C   UNL A   1      47.321  27.750  24.494  1.00  0.00     0.173 A 
ATOM     63  F   UNL A   1      48.556  27.566  27.910  1.00  0.00    -0.203 F 
ATOM     64  C   UNL A   1      49.619  27.037  25.879  1.00  0.00     0.198 A 
ATOM     65  C   UNL A   1      48.439  27.289  23.803  1.00  0.00     0.198 A 
ATOM     66  F   UNL A   1      46.228  28.096  23.796  1.00  0.00    -0.203 F 
ATOM     67  F   UNL A   1      50.739  26.725  26.546  1.00  0.00    -0.200 F 
ATOM     68  C   UNL A   1      49.590  26.941  24.495  1.00  0.00     0.200 A 
ATOM     69  F   UNL A   1      48.405  27.189  22.468  1.00  0.00    -0.200 F 
ATOM     70  F   UNL A   1      50.672  26.520  23.827  1.00  0.00    -0.200 F 
ENDBRANCH  46  60
BRANCH  47  71
ATOM     71  C   UNL A   1      39.119  30.530  30.881  1.00  0.00     0.064 A 
ATOM     72  C   UNL A   1      38.002  31.064  30.225  1.00  0.00     0.173 A 
ATOM     73  C   UNL A   1      39.057  30.395  32.276  1.00  0.00     0.173 A 
ATOM     74  F   UNL A   1      38.026  31.235  28.896  1.00  0.00    -0.203 F 
ATOM     75  C   UNL A   1      36.872  31.459  30.938  1.00  0.00     0.198 A 
ATOM     76  C   UNL A   1      37.918  30.768  32.984  1.00  0.00     0.198 A 
ATOM     77  F   UNL A   1      40.103  29.891  32.949  1.00  0.00    -0.203 F 
ATOM     78  F   UNL A   1      35.831  32.001  30.291  1.00  0.00    -0.200 F 
ATOM     79  C   UNL A   1      36.828  31.304  32.315  1.00  0.00     0.200 A 
ATOM     80  F   UNL A   1      37.876  30.609  34.313  1.00  0.00    -0.200 F 
ATOM     81  F   UNL A   1      35.739  31.680  32.999  1.00  0.00    -0.200 F 
ENDBRANCH  47  71
BRANCH  59  82
ATOM     82  C   UNL A   1      44.826  33.949  28.813  1.00  0.00     0.064 A 
ATOM     83  C   UNL A   1      45.651  34.355  29.872  1.00  0.00     0.173 A 
ATOM     84  C   UNL A   1      44.453  34.912  27.863  1.00  0.00     0.173 A 
ATOM     85  F   UNL A   1      46.023  33.475  30.814  1.00  0.00    -0.203 F 
ATOM     86  C   UNL A   1      46.070  35.679  29.984  1.00  0.00     0.198 A 
ATOM     87  C   UNL A   1      44.893  36.228  27.965  1.00  0.00     0.198 A 
ATOM     88  F   UNL A   1      43.670  34.572  26.828  1.00  0.00    -0.203 F 
ATOM     89  F   UNL A   1      46.825  36.054  31.026  1.00  0.00    -0.200 F 
ATOM     90  C   UNL A   1      45.697  36.611  29.028  1.00  0.00     0.200 A 
ATOM     91  F   UNL A   1      44.541  37.126  27.034  1.00  0.00    -0.200 F 
ATOM     92  F   UNL A   1      46.106  37.884  29.136  1.00  0.00    -0.200 F 
ENDBRANCH  59  82
ENDBRANCH  33  34
ENDBRANCH  26  28
ENDBRANCH  25  26
ENDBRANCH  24  25
ENDBRANCH  23  24
ENDBRANCH  22  23
ENDBRANCH   1  22
TORSDOF 17
ENDMDL
MODEL 3
REMARK VINA RESULT:     -10.9      4.415     10.388
REMARK SMILES COc1ccccc1Nc1nc(C)c(C(=O)OCCOCCOC(=O)c2ccc(-c3c4nc(c(-c5c(F)c(F)c(F)c(F)c5F)c5ccc([nH]5)c(-c5c(F)c(F)c(F)c(F)c5F)c5nc(c(-c6c(F)c(F)c(F)c(F)c6F)c6ccc3[nH]6)C=C5)C=C4)cc2)s1
REMARK SMILES IDX 19 1 18 2 17 3 15 4 16 5 14 6 10 7 11 8 89 9 12 10 13 11
REMARK SMILES IDX 9 12 8 14 3 15 4 16 5 17 7 18 6 19 2 20 1 21 20 22 21 23
REMARK SMILES IDX 22 24 23 25 24 26 25 27 26 28 27 29 88 30 28 31 87 32 29 33
REMARK SMILES IDX 30 34 31 35 81 36 32 37 86 38 80 39 82 40 33 41 85 42 79 43
REMARK SMILES IDX 78 44 34 46 66 47 46 48 65 49 47 50 50 51 64 52 83 53 48 54
REMARK SMILES IDX 49 55 63 57 84 58 51 59 35 60 36 61 44 62 37 63 38 64 42 65
REMARK SMILES IDX 45 66 39 67 40 68 43 69 41 70 67 71 68 72 76 73 69 74 70 75
REMARK SMILES IDX 74 76 77 77 71 78 72 79 75 80 73 81 52 82 53 83 61 84 54 85
REMARK SMILES IDX 55 86 59 87 62 88 56 89 57 90 60 91 58 92
REMARK H PARENT 9 13 82 45 50 56
REMARK Flexibility Score: inf
ROOT
ATOM      1  C   UNL A   1      37.120  22.584  25.076  1.00  0.00     0.202 C 
ENDROOT
BRANCH   1   2
ATOM      2  C   UNL A   1      35.665  23.010  24.863  1.00  0.00     0.261 C 
BRANCH   2   3
ATOM      3  O   UNL A   1      34.868  21.850  24.559  1.00  0.00    -0.459 OA
BRANCH   3   4
ATOM      4  C   UNL A   1      33.790  21.627  25.361  1.00  0.00     0.350 C 
ATOM      5  O   UNL A   1      33.801  20.883  26.335  1.00  0.00    -0.245 OA
BRANCH   4   6
ATOM      6  C   UNL A   1      32.688  22.470  24.952  1.00  0.00     0.137 A 
ATOM      7  C   UNL A   1      31.005  24.243  24.896  1.00  0.00     0.188 A 
ATOM      8  N   UNL A   1      30.962  23.533  23.793  1.00  0.00    -0.224 NA
ATOM      9  S   UNL A   1      32.150  23.684  26.048  1.00  0.00    -0.089 S 
ATOM     10  C   UNL A   1      31.957  22.564  23.776  1.00  0.00     0.065 A 
ATOM     11  C   UNL A   1      32.072  21.764  22.527  1.00  0.00     0.069 C 
BRANCH   7  12
ATOM     12  N   UNL A   1      30.147  25.256  25.129  1.00  0.00    -0.328 N 
ATOM     13  H   UNL A   1      29.454  25.084  25.808  1.00  0.00     0.169 HD
BRANCH  12  14
ATOM     14  C   UNL A   1      30.114  26.532  24.528  1.00  0.00     0.083 A 
ATOM     15  C   UNL A   1      31.065  27.503  24.904  1.00  0.00     0.142 A 
ATOM     16  C   UNL A   1      30.986  28.814  24.427  1.00  0.00     0.048 A 
ATOM     17  C   UNL A   1      29.989  29.167  23.523  1.00  0.00     0.004 A 
ATOM     18  C   UNL A   1      29.142  26.900  23.586  1.00  0.00     0.030 A 
ATOM     19  C   UNL A   1      29.074  28.208  23.093  1.00  0.00     0.002 A 
BRANCH  15  20
ATOM     20  O   UNL A   1      32.063  27.245  25.813  1.00  0.00    -0.495 OA
ATOM     21  C   UNL A   1      33.357  27.242  25.204  1.00  0.00     0.278 C 
ENDBRANCH  15  20
ENDBRANCH  12  14
ENDBRANCH   7  12
ENDBRANCH   4   6
ENDBRANCH   3   4
ENDBRANCH   2   3
ENDBRANCH   1   2
BRANCH   1  22
ATOM     22  O   UNL A   1      37.259  21.322  25.733  1.00  0.00    -0.374 OA
BRANCH  22  23
ATOM     23  C   UNL A   1      37.891  20.284  24.982  1.00  0.00     0.202 C 
BRANCH  23  24
ATOM     24  C   UNL A   1      39.063  19.609  25.701  1.00  0.00     0.261 C 
BRANCH  24  25
ATOM     25  O   UNL A   1      40.177  20.514  25.815  1.00  0.00    -0.460 OA
BRANCH  25  26
ATOM     26  C   UNL A   1      40.785  20.523  27.024  1.00  0.00     0.338 C 
ATOM     27  O   UNL A   1      41.201  19.565  27.653  1.00  0.00    -0.246 OA
BRANCH  26  28
ATOM     28  C   UNL A   1      41.041  21.917  27.442  1.00  0.00     0.060 A 
ATOM     29  C   UNL A   1      40.409  22.931  26.713  1.00  0.00     0.016 A 
ATOM     30  C   UNL A   1      41.915  22.234  28.486  1.00  0.00     0.016 A 
ATOM     31  C   UNL A   1      40.688  24.268  26.991  1.00  0.00     0.010 A 
ATOM     32  C   UNL A   1      42.198  23.576  28.760  1.00  0.00     0.010 A 
ATOM     33  C   UNL A   1      41.611  24.597  27.991  1.00  0.00    -0.014 A 
BRANCH  33  34
ATOM     34  C   UNL A   1      42.062  26.002  28.132  1.00  0.00     0.031 A 
ATOM     35  C   UNL A   1      43.386  26.406  27.548  1.00  0.00     0.074 A 
ATOM     36  C   UNL A   1      41.288  26.915  28.743  1.00  0.00     0.049 A 
ATOM     37  N   UNL A   1      43.976  27.576  27.554  1.00  0.00    -0.248 NA
ATOM     38  C   UNL A   1      44.149  25.351  26.865  1.00  0.00     0.031 C 
ATOM     39  C   UNL A   1      39.971  26.654  29.319  1.00  0.00     0.029 A 
ATOM     40  N   UNL A   1      41.502  28.250  28.979  1.00  0.00    -0.354 N 
ATOM     41  C   UNL A   1      45.176  27.396  26.878  1.00  0.00     0.074 A 
ATOM     42  C   UNL A   1      45.246  26.000  26.502  1.00  0.00     0.031 C 
ATOM     43  C   UNL A   1      39.496  27.793  29.851  1.00  0.00     0.029 A 
ATOM     44  C   UNL A   1      40.484  28.855  29.673  1.00  0.00     0.049 A 
ATOM     45  H   UNL A   1      42.309  28.727  28.681  1.00  0.00     0.167 HD
ATOM     46  C   UNL A   1      46.128  28.313  26.588  1.00  0.00     0.037 A 
ATOM     47  C   UNL A   1      40.373  30.120  30.123  1.00  0.00     0.037 A 
ATOM     48  C   UNL A   1      46.060  29.701  26.961  1.00  0.00     0.049 A 
ATOM     49  C   UNL A   1      41.478  31.106  29.848  1.00  0.00     0.074 A 
ATOM     50  C   UNL A   1      46.961  30.715  26.688  1.00  0.00     0.029 A 
ATOM     51  N   UNL A   1      45.031  30.270  27.698  1.00  0.00    -0.354 N 
ATOM     52  N   UNL A   1      42.592  30.936  29.179  1.00  0.00    -0.248 NA
ATOM     53  C   UNL A   1      41.305  32.462  30.390  1.00  0.00     0.031 C 
ATOM     54  C   UNL A   1      46.501  31.887  27.300  1.00  0.00     0.029 A 
ATOM     55  C   UNL A   1      45.290  31.614  27.914  1.00  0.00     0.049 A 
ATOM     56  H   UNL A   1      44.235  29.788  28.020  1.00  0.00     0.167 HD
ATOM     57  C   UNL A   1      43.241  32.164  29.197  1.00  0.00     0.074 A 
ATOM     58  C   UNL A   1      42.390  33.074  29.937  1.00  0.00     0.031 C 
ATOM     59  C   UNL A   1      44.432  32.507  28.650  1.00  0.00     0.037 A 
BRANCH  46  60
ATOM     60  C   UNL A   1      47.341  27.835  25.848  1.00  0.00     0.064 A 
ATOM     61  C   UNL A   1      47.366  27.763  24.447  1.00  0.00     0.173 A 
ATOM     62  C   UNL A   1      48.498  27.465  26.548  1.00  0.00     0.173 A 
ATOM     63  F   UNL A   1      46.280  28.091  23.735  1.00  0.00    -0.203 F 
ATOM     64  C   UNL A   1      48.499  27.312  23.776  1.00  0.00     0.198 A 
ATOM     65  C   UNL A   1      49.639  27.038  25.872  1.00  0.00     0.198 A 
ATOM     66  F   UNL A   1      48.525  27.519  27.889  1.00  0.00    -0.203 F 
ATOM     67  F   UNL A   1      48.488  27.207  22.440  1.00  0.00    -0.200 F 
ATOM     68  C   UNL A   1      49.636  26.954  24.488  1.00  0.00     0.200 A 
ATOM     69  F   UNL A   1      50.737  26.702  26.560  1.00  0.00    -0.200 F 
ATOM     70  F   UNL A   1      50.726  26.521  23.840  1.00  0.00    -0.200 F 
ENDBRANCH  46  60
BRANCH  47  71
ATOM     71  C   UNL A   1      39.168  30.526  30.889  1.00  0.00     0.064 A 
ATOM     72  C   UNL A   1      39.102  30.350  32.278  1.00  0.00     0.173 A 
ATOM     73  C   UNL A   1      38.057  31.093  30.247  1.00  0.00     0.173 A 
ATOM     74  F   UNL A   1      40.129  29.790  32.931  1.00  0.00    -0.203 F 
ATOM     75  C   UNL A   1      37.964  30.717  32.994  1.00  0.00     0.198 A 
ATOM     76  C   UNL A   1      36.930  31.479  30.968  1.00  0.00     0.198 A 
ATOM     77  F   UNL A   1      38.072  31.278  28.919  1.00  0.00    -0.203 F 
ATOM     78  F   UNL A   1      37.912  30.504  34.317  1.00  0.00    -0.200 F 
ATOM     79  C   UNL A   1      36.883  31.287  32.341  1.00  0.00     0.200 A 
ATOM     80  F   UNL A   1      35.891  32.038  30.334  1.00  0.00    -0.200 F 
ATOM     81  F   UNL A   1      35.791  31.643  33.031  1.00  0.00    -0.200 F 
ENDBRANCH  47  71
BRANCH  59  82
ATOM     82  C   UNL A   1      44.876  33.932  28.803  1.00  0.00     0.064 A 
ATOM     83  C   UNL A   1      44.508  34.919  27.876  1.00  0.00     0.173 A 
ATOM     84  C   UNL A   1      45.643  34.323  29.911  1.00  0.00     0.173 A 
ATOM     85  F   UNL A   1      43.789  34.592  26.791  1.00  0.00    -0.203 F 
ATOM     86  C   UNL A   1      44.908  36.242  28.045  1.00  0.00     0.198 A 
ATOM     87  C   UNL A   1      46.019  35.651  30.089  1.00  0.00     0.198 A 
ATOM     88  F   UNL A   1      46.015  33.418  30.828  1.00  0.00    -0.203 F 
ATOM     89  F   UNL A   1      44.580  37.161  27.126  1.00  0.00    -0.200 F 
ATOM     90  C   UNL A   1      45.657  36.608  29.154  1.00  0.00     0.200 A 
ATOM     91  F   UNL A   1      46.733  36.005  31.167  1.00  0.00    -0.200 F 
ATOM     92  F   UNL A   1      46.036  37.884  29.316  1.00  0.00    -0.200 F 
ENDBRANCH  59  82
ENDBRANCH  33  34
ENDBRANCH  26  28
ENDBRANCH  25  26
ENDBRANCH  24  25
ENDBRANCH  23  24
ENDBRANCH  22  23
ENDBRANCH   1  22
TORSDOF 17
ENDMDL
