MODEL 1
REMARK VINA RESULT:     -11.9      0.000      0.000
REMARK SMILES CC(C)(C)OC(=O)N1[C@@H](C(=O)OCCOCCOC(=O)c2ccc(-c3c4nc(c(-c5c(F)c(F)c(F)c(F)c5F)c5ccc([nH]5)c(-c5c(F)c(F)c(F)c(F)c5F)c5nc(c(-c6c(F)c(F)c(F)c(F)c6F)c6ccc3[nH]6)C=C5)C=C4)cc2)C[C@H]2CCCC[C@@H]21
REMARK SMILES IDX 14 1 13 2 12 3 10 4 11 5 9 6 8 7 90 8 84 9 85 10 89 11 86 12
REMARK SMILES IDX 88 13 87 14 6 15 7 16 5 17 2 18 1 19 3 20 4 21 15 22 16 23
REMARK SMILES IDX 17 24 18 25 19 26 20 27 21 28 22 29 83 30 23 31 82 32 24 33
REMARK SMILES IDX 25 34 26 35 76 36 27 37 81 38 75 39 77 40 28 41 80 42 74 43
REMARK SMILES IDX 73 44 29 46 61 47 41 48 60 49 42 50 45 51 59 52 78 53 43 54
REMARK SMILES IDX 44 55 58 57 79 58 46 59 30 60 31 61 39 62 32 63 33 64 37 65
REMARK SMILES IDX 40 66 34 67 35 68 38 69 36 70 62 71 63 72 71 73 64 74 65 75
REMARK SMILES IDX 69 76 72 77 66 78 67 79 70 80 68 81 47 82 48 83 56 84 49 85
REMARK SMILES IDX 50 86 54 87 57 88 51 89 52 90 55 91 53 92
REMARK H PARENT 77 45 45 56
REMARK Flexibility Score: inf
ROOT
ATOM      1  C   UNL A   1      33.860  22.667  24.353  1.00  0.00     0.202 C 
ENDROOT
BRANCH   1   2
ATOM      2  C   UNL A   1      33.514  24.129  24.045  1.00  0.00     0.261 C 
BRANCH   2   3
ATOM      3  O   UNL A   1      32.115  24.387  23.809  1.00  0.00    -0.462 OA
BRANCH   3   4
ATOM      4  C   UNL A   1      31.875  25.456  23.000  1.00  0.00     0.329 C 
ATOM      5  O   UNL A   1      32.581  25.756  22.039  1.00  0.00    -0.250 OA
BRANCH   4   6
ATOM      6  C   UNL A   1      30.605  26.245  23.392  1.00  0.00     0.199 C 
ATOM      7  N   UNL A   1      30.889  27.688  23.495  1.00  0.00    -0.291 N 
ATOM      8  C   UNL A   1      31.532  27.946  24.762  1.00  0.00     0.092 C 
ATOM      9  C   UNL A   1      30.318  25.817  24.847  1.00  0.00     0.043 C 
ATOM     10  C   UNL A   1      30.737  27.023  25.697  1.00  0.00     0.014 C 
ATOM     11  C   UNL A   1      31.535  29.335  25.394  1.00  0.00     0.025 C 
ATOM     12  C   UNL A   1      31.555  26.780  26.954  1.00  0.00     0.006 C 
ATOM     13  C   UNL A   1      32.253  29.256  26.754  1.00  0.00     0.002 C 
ATOM     14  C   UNL A   1      31.754  28.125  27.671  1.00  0.00     0.000 C 
BRANCH   7  15
ATOM     15  C   UNL A   1      30.745  28.620  22.502  1.00  0.00     0.411 C 
ATOM     16  O   UNL A   1      31.637  29.395  22.165  1.00  0.00    -0.224 OA
BRANCH  15  17
ATOM     17  O   UNL A   1      29.479  28.665  22.014  1.00  0.00    -0.444 OA
BRANCH  17  18
ATOM     18  C   UNL A   1      28.573  29.746  22.403  1.00  0.00     0.106 C 
ATOM     19  C   UNL A   1      27.337  29.039  22.980  1.00  0.00     0.056 C 
ATOM     20  C   UNL A   1      28.138  30.570  21.191  1.00  0.00     0.056 C 
ATOM     21  C   UNL A   1      29.144  30.660  23.500  1.00  0.00     0.056 C 
ENDBRANCH  17  18
ENDBRANCH  15  17
ENDBRANCH   7  15
ENDBRANCH   4   6
ENDBRANCH   3   4
ENDBRANCH   2   3
ENDBRANCH   1   2
BRANCH   1  22
ATOM     22  O   UNL A   1      35.231  22.297  24.442  1.00  0.00    -0.374 OA
BRANCH  22  23
ATOM     23  C   UNL A   1      35.558  21.039  25.019  1.00  0.00     0.202 C 
BRANCH  23  24
ATOM     24  C   UNL A   1      37.031  20.625  25.027  1.00  0.00     0.261 C 
BRANCH  24  25
ATOM     25  O   UNL A   1      37.940  21.729  25.175  1.00  0.00    -0.460 OA
BRANCH  25  26
ATOM     26  C   UNL A   1      39.028  21.446  25.932  1.00  0.00     0.338 C 
ATOM     27  O   UNL A   1      39.716  20.439  25.897  1.00  0.00    -0.246 OA
BRANCH  26  28
ATOM     28  C   UNL A   1      39.423  22.604  26.753  1.00  0.00     0.060 A 
ATOM     29  C   UNL A   1      38.759  23.813  26.520  1.00  0.00     0.016 A 
ATOM     30  C   UNL A   1      40.544  22.557  27.584  1.00  0.00     0.016 A 
ATOM     31  C   UNL A   1      39.253  24.997  27.063  1.00  0.00     0.010 A 
ATOM     32  C   UNL A   1      41.044  23.750  28.126  1.00  0.00     0.010 A 
ATOM     33  C   UNL A   1      40.430  24.980  27.825  1.00  0.00    -0.014 A 
BRANCH  33  34
ATOM     34  C   UNL A   1      41.096  26.271  28.137  1.00  0.00     0.031 A 
ATOM     35  C   UNL A   1      42.499  26.508  27.644  1.00  0.00     0.074 A 
ATOM     36  C   UNL A   1      40.435  27.247  28.785  1.00  0.00     0.049 A 
ATOM     37  N   UNL A   1      43.252  27.574  27.757  1.00  0.00    -0.248 NA
ATOM     38  C   UNL A   1      43.141  25.395  26.925  1.00  0.00     0.031 C 
ATOM     39  C   UNL A   1      39.066  27.151  29.287  1.00  0.00     0.029 A 
ATOM     40  N   UNL A   1      40.831  28.517  29.127  1.00  0.00    -0.354 N 
ATOM     41  C   UNL A   1      44.452  27.259  27.131  1.00  0.00     0.074 A 
ATOM     42  C   UNL A   1      44.341  25.895  26.662  1.00  0.00     0.031 C 
ATOM     43  C   UNL A   1      38.736  28.311  29.880  1.00  0.00     0.029 A 
ATOM     44  C   UNL A   1      39.875  29.226  29.812  1.00  0.00     0.049 A 
ATOM     45  H   UNL A   1      41.715  28.886  28.900  1.00  0.00     0.167 HD
ATOM     46  C   UNL A   1      45.543  28.041  26.952  1.00  0.00     0.037 A 
ATOM     47  C   UNL A   1      39.920  30.468  30.331  1.00  0.00     0.037 A 
ATOM     48  C   UNL A   1      45.650  29.404  27.401  1.00  0.00     0.049 A 
ATOM     49  C   UNL A   1      41.155  31.309  30.135  1.00  0.00     0.074 A 
ATOM     50  C   UNL A   1      46.707  30.284  27.247  1.00  0.00     0.029 A 
ATOM     51  N   UNL A   1      44.660  30.085  28.092  1.00  0.00    -0.354 N 
ATOM     52  N   UNL A   1      42.268  31.014  29.506  1.00  0.00    -0.248 NA
ATOM     53  C   UNL A   1      41.135  32.664  30.706  1.00  0.00     0.031 C 
ATOM     54  C   UNL A   1      46.373  31.485  27.881  1.00  0.00     0.029 A 
ATOM     55  C   UNL A   1      45.088  31.368  28.387  1.00  0.00     0.049 A 
ATOM     56  H   UNL A   1      43.782  29.711  28.338  1.00  0.00     0.167 HD
ATOM     57  C   UNL A   1      43.061  32.152  29.575  1.00  0.00     0.074 A 
ATOM     58  C   UNL A   1      42.298  33.148  30.297  1.00  0.00     0.031 C 
ATOM     59  C   UNL A   1      44.308  32.355  29.085  1.00  0.00     0.037 A 
BRANCH  46  60
ATOM     60  C   UNL A   1      46.726  27.440  26.253  1.00  0.00     0.064 A 
ATOM     61  C   UNL A   1      46.908  27.571  24.867  1.00  0.00     0.173 A 
ATOM     62  C   UNL A   1      47.723  26.780  26.986  1.00  0.00     0.173 A 
ATOM     63  F   UNL A   1      45.977  28.183  24.120  1.00  0.00    -0.203 F 
ATOM     64  C   UNL A   1      48.038  27.052  24.242  1.00  0.00     0.198 A 
ATOM     65  C   UNL A   1      48.863  26.283  26.361  1.00  0.00     0.198 A 
ATOM     66  F   UNL A   1      47.599  26.632  28.314  1.00  0.00    -0.203 F 
ATOM     67  F   UNL A   1      48.179  27.163  22.914  1.00  0.00    -0.200 F 
ATOM     68  C   UNL A   1      49.019  26.416  24.990  1.00  0.00     0.200 A 
ATOM     69  F   UNL A   1      49.816  25.680  27.087  1.00  0.00    -0.200 F 
ATOM     70  F   UNL A   1      50.113  25.931  24.388  1.00  0.00    -0.200 F 
ENDBRANCH  46  60
BRANCH  47  71
ATOM     71  C   UNL A   1      38.759  31.001  31.094  1.00  0.00     0.064 A 
ATOM     72  C   UNL A   1      38.678  30.866  32.486  1.00  0.00     0.173 A 
ATOM     73  C   UNL A   1      37.687  31.622  30.435  1.00  0.00     0.173 A 
ATOM     74  F   UNL A   1      39.665  30.256  33.159  1.00  0.00    -0.203 F 
ATOM     75  C   UNL A   1      37.557  31.306  33.189  1.00  0.00     0.198 A 
ATOM     76  C   UNL A   1      36.581  32.088  31.141  1.00  0.00     0.198 A 
ATOM     77  F   UNL A   1      37.717  31.776  29.103  1.00  0.00    -0.203 F 
ATOM     78  F   UNL A   1      37.479  31.113  34.512  1.00  0.00    -0.200 F 
ATOM     79  C   UNL A   1      36.511  31.920  32.516  1.00  0.00     0.200 A 
ATOM     80  F   UNL A   1      35.578  32.691  30.488  1.00  0.00    -0.200 F 
ATOM     81  F   UNL A   1      35.431  32.340  33.189  1.00  0.00    -0.200 F 
ENDBRANCH  47  71
BRANCH  59  82
ATOM     82  C   UNL A   1      44.907  33.719  29.267  1.00  0.00     0.064 A 
ATOM     83  C   UNL A   1      45.706  34.034  30.375  1.00  0.00     0.173 A 
ATOM     84  C   UNL A   1      44.705  34.714  28.297  1.00  0.00     0.173 A 
ATOM     85  F   UNL A   1      45.918  33.122  31.335  1.00  0.00    -0.203 F 
ATOM     86  C   UNL A   1      46.257  35.304  30.521  1.00  0.00     0.198 A 
ATOM     87  C   UNL A   1      45.282  35.974  28.432  1.00  0.00     0.198 A 
ATOM     88  F   UNL A   1      43.957  34.460  27.213  1.00  0.00    -0.203 F 
ATOM     89  F   UNL A   1      46.976  35.599  31.613  1.00  0.00    -0.200 F 
ATOM     90  C   UNL A   1      46.050  36.270  29.548  1.00  0.00     0.200 A 
ATOM     91  F   UNL A   1      45.091  36.901  27.484  1.00  0.00    -0.200 F 
ATOM     92  F   UNL A   1      46.584  37.491  29.689  1.00  0.00    -0.200 F 
ENDBRANCH  59  82
ENDBRANCH  33  34
ENDBRANCH  26  28
ENDBRANCH  25  26
ENDBRANCH  24  25
ENDBRANCH  23  24
ENDBRANCH  22  23
ENDBRANCH   1  22
TORSDOF 17
ENDMDL
MODEL 2
REMARK VINA RESULT:     -11.8      4.116      9.864
REMARK SMILES CC(C)(C)OC(=O)N1[C@@H](C(=O)OCCOCCOC(=O)c2ccc(-c3c4nc(c(-c5c(F)c(F)c(F)c(F)c5F)c5ccc([nH]5)c(-c5c(F)c(F)c(F)c(F)c5F)c5nc(c(-c6c(F)c(F)c(F)c(F)c6F)c6ccc3[nH]6)C=C5)C=C4)cc2)C[C@H]2CCCC[C@@H]21
REMARK SMILES IDX 14 1 13 2 12 3 10 4 11 5 9 6 8 7 90 8 84 9 85 10 89 11 86 12
REMARK SMILES IDX 88 13 87 14 6 15 7 16 5 17 2 18 1 19 3 20 4 21 15 22 16 23
REMARK SMILES IDX 17 24 18 25 19 26 20 27 21 28 22 29 83 30 23 31 82 32 24 33
REMARK SMILES IDX 25 34 26 35 76 36 27 37 81 38 75 39 77 40 28 41 80 42 74 43
REMARK SMILES IDX 73 44 29 46 61 47 41 48 60 49 42 50 45 51 59 52 78 53 43 54
REMARK SMILES IDX 44 55 58 57 79 58 46 59 30 60 31 61 39 62 32 63 33 64 37 65
REMARK SMILES IDX 40 66 34 67 35 68 38 69 36 70 62 71 63 72 71 73 64 74 65 75
REMARK SMILES IDX 69 76 72 77 66 78 67 79 70 80 68 81 47 82 48 83 56 84 49 85
REMARK SMILES IDX 50 86 54 87 57 88 51 89 52 90 55 91 53 92
REMARK H PARENT 77 45 45 56
REMARK Flexibility Score: inf
ROOT
ATOM      1  C   UNL A   1      31.688  28.743  27.373  1.00  0.00     0.202 C 
ENDROOT
BRANCH   1   2
ATOM      2  C   UNL A   1      31.917  27.283  26.964  1.00  0.00     0.261 C 
BRANCH   2   3
ATOM      3  O   UNL A   1      30.737  26.582  26.522  1.00  0.00    -0.462 OA
BRANCH   3   4
ATOM      4  C   UNL A   1      30.960  25.287  26.162  1.00  0.00     0.329 C 
ATOM      5  O   UNL A   1      31.352  24.421  26.941  1.00  0.00    -0.250 OA
BRANCH   4   6
ATOM      6  C   UNL A   1      30.643  25.003  24.676  1.00  0.00     0.199 C 
ATOM      7  N   UNL A   1      31.881  24.865  23.888  1.00  0.00    -0.291 N 
ATOM      8  C   UNL A   1      32.402  26.181  23.604  1.00  0.00     0.092 C 
ATOM      9  C   UNL A   1      30.017  26.316  24.157  1.00  0.00     0.043 C 
ATOM     10  C   UNL A   1      31.112  26.955  23.295  1.00  0.00     0.014 C 
ATOM     11  C   UNL A   1      33.367  26.432  22.449  1.00  0.00     0.025 C 
ATOM     12  C   UNL A   1      31.387  28.441  23.449  1.00  0.00     0.006 C 
ATOM     13  C   UNL A   1      33.686  27.938  22.390  1.00  0.00     0.002 C 
ATOM     14  C   UNL A   1      32.446  28.850  22.413  1.00  0.00     0.000 C 
BRANCH   7  15
ATOM     15  C   UNL A   1      32.546  23.698  23.613  1.00  0.00     0.411 C 
ATOM     16  O   UNL A   1      32.535  23.155  22.512  1.00  0.00    -0.224 OA
BRANCH  15  17
ATOM     17  O   UNL A   1      33.118  23.156  24.719  1.00  0.00    -0.444 OA
BRANCH  17  18
ATOM     18  C   UNL A   1      34.548  23.329  24.974  1.00  0.00     0.106 C 
ATOM     19  C   UNL A   1      34.931  22.158  25.892  1.00  0.00     0.056 C 
ATOM     20  C   UNL A   1      34.826  24.637  25.715  1.00  0.00     0.056 C 
ATOM     21  C   UNL A   1      35.414  23.232  23.706  1.00  0.00     0.056 C 
ENDBRANCH  17  18
ENDBRANCH  15  17
ENDBRANCH   7  15
ENDBRANCH   4   6
ENDBRANCH   3   4
ENDBRANCH   2   3
ENDBRANCH   1   2
BRANCH   1  22
ATOM     22  O   UNL A   1      32.415  29.760  26.695  1.00  0.00    -0.374 OA
BRANCH  22  23
ATOM     23  C   UNL A   1      31.694  30.854  26.140  1.00  0.00     0.202 C 
BRANCH  23  24
ATOM     24  C   UNL A   1      31.874  32.225  26.793  1.00  0.00     0.261 C 
BRANCH  24  25
ATOM     25  O   UNL A   1      32.746  32.210  27.937  1.00  0.00    -0.460 OA
BRANCH  25  26
ATOM     26  C   UNL A   1      33.747  33.121  27.876  1.00  0.00     0.338 C 
ATOM     27  O   UNL A   1      33.644  34.335  27.795  1.00  0.00    -0.246 OA
BRANCH  26  28
ATOM     28  C   UNL A   1      35.060  32.485  28.078  1.00  0.00     0.060 A 
ATOM     29  C   UNL A   1      35.074  31.111  28.345  1.00  0.00     0.016 A 
ATOM     30  C   UNL A   1      36.224  33.246  28.201  1.00  0.00     0.016 A 
ATOM     31  C   UNL A   1      36.240  30.502  28.803  1.00  0.00     0.010 A 
ATOM     32  C   UNL A   1      37.396  32.632  28.668  1.00  0.00     0.010 A 
ATOM     33  C   UNL A   1      37.393  31.269  29.019  1.00  0.00    -0.014 A 
BRANCH  33  34
ATOM     34  C   UNL A   1      38.518  30.667  29.781  1.00  0.00     0.031 A 
ATOM     35  C   UNL A   1      38.694  31.030  31.233  1.00  0.00     0.074 A 
ATOM     36  C   UNL A   1      39.325  29.755  29.212  1.00  0.00     0.049 A 
ATOM     37  N   UNL A   1      39.572  30.589  32.100  1.00  0.00    -0.248 NA
ATOM     38  C   UNL A   1      37.754  32.020  31.783  1.00  0.00     0.031 C 
ATOM     39  C   UNL A   1      39.239  29.300  27.826  1.00  0.00     0.029 A 
ATOM     40  N   UNL A   1      40.376  29.042  29.736  1.00  0.00    -0.354 N 
ATOM     41  C   UNL A   1      39.294  31.250  33.290  1.00  0.00     0.074 A 
ATOM     42  C   UNL A   1      38.183  32.142  33.031  1.00  0.00     0.031 C 
ATOM     43  C   UNL A   1      40.203  28.388  27.605  1.00  0.00     0.029 A 
ATOM     44  C   UNL A   1      40.982  28.207  28.830  1.00  0.00     0.049 A 
ATOM     45  H   UNL A   1      40.667  29.122  30.673  1.00  0.00     0.167 HD
ATOM     46  C   UNL A   1      39.900  31.117  34.493  1.00  0.00     0.037 A 
ATOM     47  C   UNL A   1      42.048  27.397  28.973  1.00  0.00     0.037 A 
ATOM     48  C   UNL A   1      40.992  30.218  34.758  1.00  0.00     0.049 A 
ATOM     49  C   UNL A   1      42.717  27.283  30.318  1.00  0.00     0.074 A 
ATOM     50  C   UNL A   1      41.659  29.997  35.951  1.00  0.00     0.029 A 
ATOM     51  N   UNL A   1      41.577  29.390  33.813  1.00  0.00    -0.354 N 
ATOM     52  N   UNL A   1      42.419  27.882  31.446  1.00  0.00    -0.248 NA
ATOM     53  C   UNL A   1      43.862  26.365  30.416  1.00  0.00     0.031 C 
ATOM     54  C   UNL A   1      42.674  29.063  35.719  1.00  0.00     0.029 A 
ATOM     55  C   UNL A   1      42.608  28.669  34.392  1.00  0.00     0.049 A 
ATOM     56  H   UNL A   1      41.301  29.325  32.870  1.00  0.00     0.167 HD
ATOM     57  C   UNL A   1      43.312  27.391  32.389  1.00  0.00     0.074 A 
ATOM     58  C   UNL A   1      44.156  26.434  31.706  1.00  0.00     0.031 C 
ATOM     59  C   UNL A   1      43.423  27.703  33.704  1.00  0.00     0.037 A 
BRANCH  46  60
ATOM     60  C   UNL A   1      39.411  31.976  35.622  1.00  0.00     0.064 A 
ATOM     61  C   UNL A   1      38.440  31.521  36.527  1.00  0.00     0.173 A 
ATOM     62  C   UNL A   1      39.967  33.245  35.838  1.00  0.00     0.173 A 
ATOM     63  F   UNL A   1      37.870  30.319  36.356  1.00  0.00    -0.203 F 
ATOM     64  C   UNL A   1      38.035  32.311  37.599  1.00  0.00     0.198 A 
ATOM     65  C   UNL A   1      39.577  34.023  36.925  1.00  0.00     0.198 A 
ATOM     66  F   UNL A   1      40.902  33.725  35.004  1.00  0.00    -0.203 F 
ATOM     67  F   UNL A   1      37.086  31.869  38.436  1.00  0.00    -0.200 F 
ATOM     68  C   UNL A   1      38.610  33.557  37.803  1.00  0.00     0.200 A 
ATOM     69  F   UNL A   1      40.142  35.222  37.127  1.00  0.00    -0.200 F 
ATOM     70  F   UNL A   1      38.230  34.310  38.844  1.00  0.00    -0.200 F 
ENDBRANCH  46  60
BRANCH  47  71
ATOM     71  C   UNL A   1      42.559  26.624  27.809  1.00  0.00     0.064 A 
ATOM     72  C   UNL A   1      43.508  27.168  26.933  1.00  0.00     0.173 A 
ATOM     73  C   UNL A   1      42.075  25.337  27.530  1.00  0.00     0.173 A 
ATOM     74  F   UNL A   1      43.983  28.404  27.143  1.00  0.00    -0.203 F 
ATOM     75  C   UNL A   1      43.934  26.466  25.806  1.00  0.00     0.198 A 
ATOM     76  C   UNL A   1      42.523  24.625  26.419  1.00  0.00     0.198 A 
ATOM     77  F   UNL A   1      41.166  24.772  28.337  1.00  0.00    -0.203 F 
ATOM     78  F   UNL A   1      44.799  27.032  24.954  1.00  0.00    -0.200 F 
ATOM     79  C   UNL A   1      43.444  25.194  25.552  1.00  0.00     0.200 A 
ATOM     80  F   UNL A   1      42.054  23.391  26.184  1.00  0.00    -0.200 F 
ATOM     81  F   UNL A   1      43.849  24.520  24.467  1.00  0.00    -0.200 F 
ENDBRANCH  47  71
BRANCH  59  82
ATOM     82  C   UNL A   1      44.459  26.968  34.502  1.00  0.00     0.064 A 
ATOM     83  C   UNL A   1      45.756  27.473  34.675  1.00  0.00     0.173 A 
ATOM     84  C   UNL A   1      44.136  25.755  35.132  1.00  0.00     0.173 A 
ATOM     85  F   UNL A   1      46.116  28.621  34.083  1.00  0.00    -0.203 F 
ATOM     86  C   UNL A   1      46.700  26.778  35.425  1.00  0.00     0.198 A 
ATOM     87  C   UNL A   1      45.075  25.077  35.904  1.00  0.00     0.198 A 
ATOM     88  F   UNL A   1      42.907  25.233  35.005  1.00  0.00    -0.203 F 
ATOM     89  F   UNL A   1      47.947  27.254  35.536  1.00  0.00    -0.200 F 
ATOM     90  C   UNL A   1      46.358  25.584  36.043  1.00  0.00     0.200 A 
ATOM     91  F   UNL A   1      44.738  23.930  36.511  1.00  0.00    -0.200 F 
ATOM     92  F   UNL A   1      47.268  24.918  36.767  1.00  0.00    -0.200 F 
ENDBRANCH  59  82
ENDBRANCH  33  34
ENDBRANCH  26  28
ENDBRANCH  25  26
ENDBRANCH  24  25
ENDBRANCH  23  24
ENDBRANCH  22  23
ENDBRANCH   1  22
TORSDOF 17
ENDMDL
MODEL 3
REMARK VINA RESULT:     -11.7      0.697      7.393
REMARK SMILES CC(C)(C)OC(=O)N1[C@@H](C(=O)OCCOCCOC(=O)c2ccc(-c3c4nc(c(-c5c(F)c(F)c(F)c(F)c5F)c5ccc([nH]5)c(-c5c(F)c(F)c(F)c(F)c5F)c5nc(c(-c6c(F)c(F)c(F)c(F)c6F)c6ccc3[nH]6)C=C5)C=C4)cc2)C[C@H]2CCCC[C@@H]21
REMARK SMILES IDX 14 1 13 2 12 3 10 4 11 5 9 6 8 7 90 8 84 9 85 10 89 11 86 12
REMARK SMILES IDX 88 13 87 14 6 15 7 16 5 17 2 18 1 19 3 20 4 21 15 22 16 23
REMARK SMILES IDX 17 24 18 25 19 26 20 27 21 28 22 29 83 30 23 31 82 32 24 33
REMARK SMILES IDX 25 34 26 35 76 36 27 37 81 38 75 39 77 40 28 41 80 42 74 43
REMARK SMILES IDX 73 44 29 46 61 47 41 48 60 49 42 50 45 51 59 52 78 53 43 54
REMARK SMILES IDX 44 55 58 57 79 58 46 59 30 60 31 61 39 62 32 63 33 64 37 65
REMARK SMILES IDX 40 66 34 67 35 68 38 69 36 70 62 71 63 72 71 73 64 74 65 75
REMARK SMILES IDX 69 76 72 77 66 78 67 79 70 80 68 81 47 82 48 83 56 84 49 85
REMARK SMILES IDX 50 86 54 87 57 88 51 89 52 90 55 91 53 92
REMARK H PARENT 77 45 45 56
REMARK Flexibility Score: inf
ROOT
ATOM      1  C   UNL A   1      33.886  23.864  24.588  1.00  0.00     0.202 C 
ENDROOT
BRANCH   1   2
ATOM      2  C   UNL A   1      33.314  24.669  23.414  1.00  0.00     0.261 C 
BRANCH   2   3
ATOM      3  O   UNL A   1      31.888  24.872  23.452  1.00  0.00    -0.462 OA
BRANCH   3   4
ATOM      4  C   UNL A   1      31.461  25.960  22.752  1.00  0.00     0.329 C 
ATOM      5  O   UNL A   1      31.922  26.292  21.662  1.00  0.00    -0.250 OA
BRANCH   4   6
ATOM      6  C   UNL A   1      30.315  26.726  23.451  1.00  0.00     0.199 C 
ATOM      7  N   UNL A   1      30.648  28.153  23.605  1.00  0.00    -0.291 N 
ATOM      8  C   UNL A   1      31.538  28.304  24.732  1.00  0.00     0.092 C 
ATOM      9  C   UNL A   1      30.316  26.185  24.898  1.00  0.00     0.043 C 
ATOM     10  C   UNL A   1      30.925  27.316  25.735  1.00  0.00     0.014 C 
ATOM     11  C   UNL A   1      31.702  29.638  25.455  1.00  0.00     0.025 C 
ATOM     12  C   UNL A   1      31.973  26.967  26.778  1.00  0.00     0.006 C 
ATOM     13  C   UNL A   1      32.677  29.446  26.632  1.00  0.00     0.002 C 
ATOM     14  C   UNL A   1      32.345  28.249  27.541  1.00  0.00     0.000 C 
BRANCH   7  15
ATOM     15  C   UNL A   1      30.330  29.162  22.735  1.00  0.00     0.411 C 
ATOM     16  O   UNL A   1      30.842  29.288  21.626  1.00  0.00    -0.224 OA
BRANCH  15  17
ATOM     17  O   UNL A   1      29.476  30.066  23.281  1.00  0.00    -0.444 OA
BRANCH  17  18
ATOM     18  C   UNL A   1      28.106  30.186  22.782  1.00  0.00     0.106 C 
ATOM     19  C   UNL A   1      27.516  31.392  23.528  1.00  0.00     0.056 C 
ATOM     20  C   UNL A   1      27.278  28.949  23.129  1.00  0.00     0.056 C 
ATOM     21  C   UNL A   1      28.026  30.484  21.275  1.00  0.00     0.056 C 
ENDBRANCH  17  18
ENDBRANCH  15  17
ENDBRANCH   7  15
ENDBRANCH   4   6
ENDBRANCH   3   4
ENDBRANCH   2   3
ENDBRANCH   1   2
BRANCH   1  22
ATOM     22  O   UNL A   1      34.949  22.954  24.334  1.00  0.00    -0.374 OA
BRANCH  22  23
ATOM     23  C   UNL A   1      35.217  21.939  25.294  1.00  0.00     0.202 C 
BRANCH  23  24
ATOM     24  C   UNL A   1      36.411  21.017  25.036  1.00  0.00     0.261 C 
BRANCH  24  25
ATOM     25  O   UNL A   1      37.646  21.721  24.813  1.00  0.00    -0.460 OA
BRANCH  25  26
ATOM     26  C   UNL A   1      38.638  21.373  25.667  1.00  0.00     0.338 C 
ATOM     27  O   UNL A   1      39.186  20.287  25.766  1.00  0.00    -0.246 OA
BRANCH  26  28
ATOM     28  C   UNL A   1      39.133  22.541  26.416  1.00  0.00     0.060 A 
ATOM     29  C   UNL A   1      38.540  23.779  26.140  1.00  0.00     0.016 A 
ATOM     30  C   UNL A   1      40.275  22.461  27.215  1.00  0.00     0.016 A 
ATOM     31  C   UNL A   1      39.128  24.952  26.606  1.00  0.00     0.010 A 
ATOM     32  C   UNL A   1      40.868  23.644  27.679  1.00  0.00     0.010 A 
ATOM     33  C   UNL A   1      40.325  24.895  27.333  1.00  0.00    -0.014 A 
BRANCH  33  34
ATOM     34  C   UNL A   1      41.082  26.154  27.559  1.00  0.00     0.031 A 
ATOM     35  C   UNL A   1      40.415  27.287  28.294  1.00  0.00     0.074 A 
ATOM     36  C   UNL A   1      42.368  26.261  27.180  1.00  0.00     0.049 A 
ATOM     37  N   UNL A   1      40.901  28.452  28.645  1.00  0.00    -0.248 NA
ATOM     38  C   UNL A   1      39.013  27.078  28.692  1.00  0.00     0.031 C 
ATOM     39  C   UNL A   1      43.133  25.227  26.486  1.00  0.00     0.029 A 
ATOM     40  N   UNL A   1      43.260  27.294  27.332  1.00  0.00    -0.354 N 
ATOM     41  C   UNL A   1      39.867  29.114  29.295  1.00  0.00     0.074 A 
ATOM     42  C   UNL A   1      38.718  28.234  29.271  1.00  0.00     0.031 C 
ATOM     43  C   UNL A   1      44.379  25.679  26.266  1.00  0.00     0.029 A 
ATOM     44  C   UNL A   1      44.496  27.040  26.790  1.00  0.00     0.049 A 
ATOM     45  H   UNL A   1      43.036  28.137  27.789  1.00  0.00     0.167 HD
ATOM     46  C   UNL A   1      39.877  30.339  29.872  1.00  0.00     0.037 A 
ATOM     47  C   UNL A   1      45.591  27.821  26.718  1.00  0.00     0.037 A 
ATOM     48  C   UNL A   1      41.024  31.208  29.914  1.00  0.00     0.049 A 
ATOM     49  C   UNL A   1      45.568  29.188  27.351  1.00  0.00     0.074 A 
ATOM     50  C   UNL A   1      41.138  32.459  30.496  1.00  0.00     0.029 A 
ATOM     51  N   UNL A   1      42.256  30.914  29.353  1.00  0.00    -0.354 N 
ATOM     52  N   UNL A   1      44.597  29.786  27.999  1.00  0.00    -0.248 NA
ATOM     53  C   UNL A   1      46.801  29.984  27.258  1.00  0.00     0.031 C 
ATOM     54  C   UNL A   1      42.429  32.939  30.251  1.00  0.00     0.029 A 
ATOM     55  C   UNL A   1      43.131  31.967  29.559  1.00  0.00     0.049 A 
ATOM     56  H   UNL A   1      42.476  30.080  28.877  1.00  0.00     0.167 HD
ATOM     57  C   UNL A   1      45.111  31.006  28.419  1.00  0.00     0.074 A 
ATOM     58  C   UNL A   1      46.484  31.060  27.963  1.00  0.00     0.031 C 
ATOM     59  C   UNL A   1      44.502  31.995  29.119  1.00  0.00     0.037 A 
BRANCH  46  60
ATOM     60  C   UNL A   1      38.604  30.829  30.496  1.00  0.00     0.064 A 
ATOM     61  C   UNL A   1      38.389  30.763  31.881  1.00  0.00     0.173 A 
ATOM     62  C   UNL A   1      37.614  31.431  29.705  1.00  0.00     0.173 A 
ATOM     63  F   UNL A   1      39.301  30.186  32.678  1.00  0.00    -0.203 F 
ATOM     64  C   UNL A   1      37.223  31.270  32.449  1.00  0.00     0.198 A 
ATOM     65  C   UNL A   1      36.460  31.958  30.279  1.00  0.00     0.198 A 
ATOM     66  F   UNL A   1      37.773  31.522  28.376  1.00  0.00    -0.203 F 
ATOM     67  F   UNL A   1      37.025  31.171  33.771  1.00  0.00    -0.200 F 
ATOM     68  C   UNL A   1      36.264  31.875  31.649  1.00  0.00     0.200 A 
ATOM     69  F   UNL A   1      35.540  32.552  29.506  1.00  0.00    -0.200 F 
ATOM     70  F   UNL A   1      35.150  32.376  32.200  1.00  0.00    -0.200 F 
ENDBRANCH  46  60
BRANCH  47  71
ATOM     71  C   UNL A   1      46.809  27.335  26.016  1.00  0.00     0.064 A 
ATOM     72  C   UNL A   1      47.839  26.686  26.710  1.00  0.00     0.173 A 
ATOM     73  C   UNL A   1      46.982  27.548  24.640  1.00  0.00     0.173 A 
ATOM     74  F   UNL A   1      47.733  26.481  28.031  1.00  0.00    -0.203 F 
ATOM     75  C   UNL A   1      49.009  26.293  26.060  1.00  0.00     0.198 A 
ATOM     76  C   UNL A   1      48.139  27.129  23.987  1.00  0.00     0.198 A 
ATOM     77  F   UNL A   1      46.025  28.165  23.931  1.00  0.00    -0.203 F 
ATOM     78  F   UNL A   1      50.003  25.726  26.757  1.00  0.00    -0.200 F 
ATOM     79  C   UNL A   1      49.156  26.512  24.699  1.00  0.00     0.200 A 
ATOM     80  F   UNL A   1      48.271  27.333  22.669  1.00  0.00    -0.200 F 
ATOM     81  F   UNL A   1      50.281  26.139  24.074  1.00  0.00    -0.200 F 
ENDBRANCH  47  71
BRANCH  59  82
ATOM     82  C   UNL A   1      45.327  33.194  29.481  1.00  0.00     0.064 A 
ATOM     83  C   UNL A   1      45.394  34.323  28.652  1.00  0.00     0.173 A 
ATOM     84  C   UNL A   1      46.034  33.225  30.694  1.00  0.00     0.173 A 
ATOM     85  F   UNL A   1      44.747  34.336  27.478  1.00  0.00    -0.203 F 
ATOM     86  C   UNL A   1      46.161  35.427  29.010  1.00  0.00     0.198 A 
ATOM     87  C   UNL A   1      46.777  34.344  31.061  1.00  0.00     0.198 A 
ATOM     88  F   UNL A   1      45.996  32.174  31.526  1.00  0.00    -0.203 F 
ATOM     89  F   UNL A   1      46.251  36.476  28.179  1.00  0.00    -0.200 F 
ATOM     90  C   UNL A   1      46.847  35.439  30.215  1.00  0.00     0.200 A 
ATOM     91  F   UNL A   1      47.428  34.357  32.233  1.00  0.00    -0.200 F 
ATOM     92  F   UNL A   1      47.583  36.506  30.559  1.00  0.00    -0.200 F 
ENDBRANCH  59  82
ENDBRANCH  33  34
ENDBRANCH  26  28
ENDBRANCH  25  26
ENDBRANCH  24  25
ENDBRANCH  23  24
ENDBRANCH  22  23
ENDBRANCH   1  22
TORSDOF 17
ENDMDL
