MODEL 1
REMARK VINA RESULT:      -9.8      0.000      0.000
REMARK SMILES CC[C@@H](C)N(C)c1ccc(/C=C/C(=O)OCCOCCOC(=O)c2ccc(-c3c4nc(c(-c5c(F)c(F)c(F)c(F)c5F)c5ccc([nH]5)c(-c5c(F)c(F)c(F)c(F)c5F)c5nc(c(-c6c(F)c(F)c(F)c(F)c6F)c6ccc3[nH]6)C=C5)C=C4)cc2)cc1F
REMARK SMILES IDX 17 1 16 2 15 3 13 4 14 5 12 6 11 7 10 8 7 9 8 10 88 11 9 12
REMARK SMILES IDX 87 13 89 14 5 15 6 16 3 17 4 18 2 19 1 20 18 21 19 22 20 23
REMARK SMILES IDX 21 24 22 25 23 26 24 27 25 28 86 29 26 30 85 31 27 32 28 33
REMARK SMILES IDX 29 34 79 35 30 36 84 37 78 38 80 39 31 40 83 41 77 42 76 43
REMARK SMILES IDX 32 45 64 46 44 47 63 48 45 49 48 50 62 51 81 52 46 53 47 54
REMARK SMILES IDX 61 56 82 57 49 58 33 59 34 60 42 61 35 62 36 63 40 64 43 65
REMARK SMILES IDX 37 66 38 67 41 68 39 69 65 70 66 71 74 72 67 73 68 74 72 75
REMARK SMILES IDX 75 76 69 77 70 78 73 79 71 80 50 81 51 82 59 83 52 84 53 85
REMARK SMILES IDX 57 86 60 87 54 88 55 89 58 90 56 91
REMARK H PARENT 80 44 48 55
REMARK Flexibility Score: inf
ROOT
ATOM      1  C   UNL A   1      42.803  18.484  26.977  1.00  0.00     0.202 C 
ENDROOT
BRANCH   1   2
ATOM      2  C   UNL A   1      43.114  18.765  25.507  1.00  0.00     0.261 C 
BRANCH   2   3
ATOM      3  O   UNL A   1      44.362  18.157  25.131  1.00  0.00    -0.460 OA
BRANCH   3   4
ATOM      4  C   UNL A   1      45.192  18.941  24.404  1.00  0.00     0.330 C 
ATOM      5  O   UNL A   1      45.964  18.572  23.531  1.00  0.00    -0.247 OA
BRANCH   4   6
ATOM      6  C   UNL A   1      45.040  20.373  24.730  1.00  0.00     0.094 C 
ATOM      7  C   UNL A   1      46.019  21.218  25.091  1.00  0.00     0.016 C 
BRANCH   7   8
ATOM      8  C   UNL A   1      45.779  22.640  25.398  1.00  0.00    -0.022 A 
ATOM      9  C   UNL A   1      45.407  25.375  26.150  1.00  0.00     0.073 A 
ATOM     10  C   UNL A   1      46.161  25.020  25.023  1.00  0.00     0.029 A 
ATOM     11  C   UNL A   1      44.769  24.321  26.825  1.00  0.00     0.147 A 
ATOM     12  C   UNL A   1      46.337  23.680  24.648  1.00  0.00     0.010 A 
ATOM     13  C   UNL A   1      44.951  22.980  26.468  1.00  0.00     0.049 A 
ATOM     14  F   UNL A   1      43.928  24.573  27.841  1.00  0.00    -0.205 F 
BRANCH   9  15
ATOM     15  N   UNL A   1      45.331  26.703  26.580  1.00  0.00    -0.370 N 
ATOM     16  C   UNL A   1      46.235  27.119  27.650  1.00  0.00     0.144 C 
BRANCH  15  17
ATOM     17  C   UNL A   1      44.043  27.438  26.478  1.00  0.00     0.078 C 
ATOM     18  C   UNL A   1      43.409  27.277  25.092  1.00  0.00     0.031 C 
BRANCH  17  19
ATOM     19  C   UNL A   1      44.181  28.909  26.901  1.00  0.00     0.021 C 
ATOM     20  C   UNL A   1      42.864  29.673  26.871  1.00  0.00     0.006 C 
ENDBRANCH  17  19
ENDBRANCH  15  17
ENDBRANCH   9  15
ENDBRANCH   7   8
ENDBRANCH   4   6
ENDBRANCH   3   4
ENDBRANCH   2   3
ENDBRANCH   1   2
BRANCH   1  21
ATOM     21  O   UNL A   1      41.908  19.412  27.592  1.00  0.00    -0.374 OA
BRANCH  21  22
ATOM     22  C   UNL A   1      42.149  20.798  27.343  1.00  0.00     0.202 C 
BRANCH  22  23
ATOM     23  C   UNL A   1      41.288  21.422  26.240  1.00  0.00     0.261 C 
BRANCH  23  24
ATOM     24  O   UNL A   1      41.104  22.834  26.454  1.00  0.00    -0.460 OA
BRANCH  24  25
ATOM     25  C   UNL A   1      39.817  23.244  26.461  1.00  0.00     0.338 C 
ATOM     26  O   UNL A   1      38.836  22.614  26.082  1.00  0.00    -0.246 OA
BRANCH  25  27
ATOM     27  C   UNL A   1      39.690  24.541  27.152  1.00  0.00     0.060 A 
ATOM     28  C   UNL A   1      40.320  25.644  26.562  1.00  0.00     0.016 A 
ATOM     29  C   UNL A   1      39.054  24.667  28.389  1.00  0.00     0.016 A 
ATOM     30  C   UNL A   1      40.391  26.855  27.244  1.00  0.00     0.010 A 
ATOM     31  C   UNL A   1      39.128  25.884  29.077  1.00  0.00     0.010 A 
ATOM     32  C   UNL A   1      39.844  26.964  28.530  1.00  0.00    -0.014 A 
BRANCH  32  33
ATOM     33  C   UNL A   1      40.206  28.137  29.361  1.00  0.00     0.031 A 
ATOM     34  C   UNL A   1      41.598  28.214  29.931  1.00  0.00     0.074 A 
ATOM     35  C   UNL A   1      39.346  29.152  29.546  1.00  0.00     0.049 A 
ATOM     36  N   UNL A   1      42.152  29.157  30.650  1.00  0.00    -0.248 NA
ATOM     37  C   UNL A   1      42.486  27.074  29.648  1.00  0.00     0.031 C 
ATOM     38  C   UNL A   1      37.990  29.215  29.008  1.00  0.00     0.029 A 
ATOM     39  N   UNL A   1      39.496  30.333  30.228  1.00  0.00    -0.354 N 
ATOM     40  C   UNL A   1      43.447  28.725  30.904  1.00  0.00     0.074 A 
ATOM     41  C   UNL A   1      43.589  27.421  30.294  1.00  0.00     0.031 C 
ATOM     42  C   UNL A   1      37.431  30.380  29.375  1.00  0.00     0.029 A 
ATOM     43  C   UNL A   1      38.382  31.135  30.191  1.00  0.00     0.049 A 
ATOM     44  H   UNL A   1      40.323  30.581  30.701  1.00  0.00     0.167 HD
ATOM     45  C   UNL A   1      44.435  29.363  31.572  1.00  0.00     0.037 A 
ATOM     46  C   UNL A   1      38.158  32.339  30.752  1.00  0.00     0.037 A 
ATOM     47  C   UNL A   1      44.299  30.664  32.172  1.00  0.00     0.049 A 
ATOM     48  C   UNL A   1      39.256  33.010  31.535  1.00  0.00     0.074 A 
ATOM     49  C   UNL A   1      45.242  31.394  32.872  1.00  0.00     0.029 A 
ATOM     50  N   UNL A   1      43.141  31.427  32.142  1.00  0.00    -0.354 N 
ATOM     51  N   UNL A   1      40.479  32.598  31.764  1.00  0.00    -0.248 NA
ATOM     52  C   UNL A   1      38.946  34.320  32.127  1.00  0.00     0.031 C 
ATOM     53  C   UNL A   1      44.644  32.582  33.302  1.00  0.00     0.029 A 
ATOM     54  C   UNL A   1      43.344  32.617  32.823  1.00  0.00     0.049 A 
ATOM     55  H   UNL A   1      42.301  31.164  31.702  1.00  0.00     0.167 HD
ATOM     56  C   UNL A   1      41.093  33.605  32.497  1.00  0.00     0.074 A 
ATOM     57  C   UNL A   1      40.109  34.653  32.673  1.00  0.00     0.031 C 
ATOM     58  C   UNL A   1      42.361  33.658  32.976  1.00  0.00     0.037 A 
BRANCH  45  59
ATOM     59  C   UNL A   1      45.752  28.659  31.704  1.00  0.00     0.064 A 
ATOM     60  C   UNL A   1      46.767  28.865  30.756  1.00  0.00     0.173 A 
ATOM     61  C   UNL A   1      45.998  27.748  32.742  1.00  0.00     0.173 A 
ATOM     62  F   UNL A   1      46.580  29.725  29.743  1.00  0.00    -0.203 F 
ATOM     63  C   UNL A   1      47.974  28.178  30.839  1.00  0.00     0.198 A 
ATOM     64  C   UNL A   1      47.218  27.083  32.835  1.00  0.00     0.198 A 
ATOM     65  F   UNL A   1      45.066  27.527  33.681  1.00  0.00    -0.203 F 
ATOM     66  F   UNL A   1      48.918  28.374  29.908  1.00  0.00    -0.200 F 
ATOM     67  C   UNL A   1      48.201  27.292  31.880  1.00  0.00     0.200 A 
ATOM     68  F   UNL A   1      47.445  26.245  33.858  1.00  0.00    -0.200 F 
ATOM     69  F   UNL A   1      49.370  26.642  31.967  1.00  0.00    -0.200 F 
ENDBRANCH  45  59
BRANCH  46  70
ATOM     70  C   UNL A   1      36.840  32.997  30.565  1.00  0.00     0.064 A 
ATOM     71  C   UNL A   1      35.887  33.019  31.592  1.00  0.00     0.173 A 
ATOM     72  C   UNL A   1      36.501  33.596  29.343  1.00  0.00     0.173 A 
ATOM     73  F   UNL A   1      36.165  32.461  32.779  1.00  0.00    -0.203 F 
ATOM     74  C   UNL A   1      34.633  33.595  31.397  1.00  0.00     0.198 A 
ATOM     75  C   UNL A   1      35.256  34.192  29.157  1.00  0.00     0.198 A 
ATOM     76  F   UNL A   1      37.390  33.620  28.341  1.00  0.00    -0.203 F 
ATOM     77  F   UNL A   1      33.728  33.575  32.385  1.00  0.00    -0.200 F 
ATOM     78  C   UNL A   1      34.320  34.183  30.181  1.00  0.00     0.200 A 
ATOM     79  F   UNL A   1      34.964  34.780  27.990  1.00  0.00    -0.200 F 
ATOM     80  F   UNL A   1      33.117  34.745  29.997  1.00  0.00    -0.200 F 
ENDBRANCH  46  70
BRANCH  58  81
ATOM     81  C   UNL A   1      42.784  34.901  33.701  1.00  0.00     0.064 A 
ATOM     82  C   UNL A   1      42.675  34.975  35.098  1.00  0.00     0.173 A 
ATOM     83  C   UNL A   1      43.216  36.044  33.013  1.00  0.00     0.173 A 
ATOM     84  F   UNL A   1      42.257  33.912  35.802  1.00  0.00    -0.203 F 
ATOM     85  C   UNL A   1      42.971  36.153  35.780  1.00  0.00     0.198 A 
ATOM     86  C   UNL A   1      43.537  37.213  33.701  1.00  0.00     0.198 A 
ATOM     87  F   UNL A   1      43.345  36.021  31.679  1.00  0.00    -0.203 F 
ATOM     88  F   UNL A   1      42.828  36.209  37.111  1.00  0.00    -0.200 F 
ATOM     89  C   UNL A   1      43.404  37.269  35.081  1.00  0.00     0.200 A 
ATOM     90  F   UNL A   1      43.975  38.285  33.027  1.00  0.00    -0.200 F 
ATOM     91  F   UNL A   1      43.697  38.400  35.738  1.00  0.00    -0.200 F 
ENDBRANCH  58  81
ENDBRANCH  32  33
ENDBRANCH  25  27
ENDBRANCH  24  25
ENDBRANCH  23  24
ENDBRANCH  22  23
ENDBRANCH  21  22
ENDBRANCH   1  21
TORSDOF 18
ENDMDL
MODEL 2
REMARK VINA RESULT:      -9.5      5.467     11.765
REMARK SMILES CC[C@@H](C)N(C)c1ccc(/C=C/C(=O)OCCOCCOC(=O)c2ccc(-c3c4nc(c(-c5c(F)c(F)c(F)c(F)c5F)c5ccc([nH]5)c(-c5c(F)c(F)c(F)c(F)c5F)c5nc(c(-c6c(F)c(F)c(F)c(F)c6F)c6ccc3[nH]6)C=C5)C=C4)cc2)cc1F
REMARK SMILES IDX 17 1 16 2 15 3 13 4 14 5 12 6 11 7 10 8 7 9 8 10 88 11 9 12
REMARK SMILES IDX 87 13 89 14 5 15 6 16 3 17 4 18 2 19 1 20 18 21 19 22 20 23
REMARK SMILES IDX 21 24 22 25 23 26 24 27 25 28 86 29 26 30 85 31 27 32 28 33
REMARK SMILES IDX 29 34 79 35 30 36 84 37 78 38 80 39 31 40 83 41 77 42 76 43
REMARK SMILES IDX 32 45 64 46 44 47 63 48 45 49 48 50 62 51 81 52 46 53 47 54
REMARK SMILES IDX 61 56 82 57 49 58 33 59 34 60 42 61 35 62 36 63 40 64 43 65
REMARK SMILES IDX 37 66 38 67 41 68 39 69 65 70 66 71 74 72 67 73 68 74 72 75
REMARK SMILES IDX 75 76 69 77 70 78 73 79 71 80 50 81 51 82 59 83 52 84 53 85
REMARK SMILES IDX 57 86 60 87 54 88 55 89 58 90 56 91
REMARK H PARENT 80 44 48 55
REMARK Flexibility Score: inf
ROOT
ATOM      1  C   UNL A   1      34.091  34.946  30.331  1.00  0.00     0.202 C 
ENDROOT
BRANCH   1   2
ATOM      2  C   UNL A   1      33.743  34.272  29.004  1.00  0.00     0.261 C 
BRANCH   2   3
ATOM      3  O   UNL A   1      33.966  32.853  29.085  1.00  0.00    -0.460 OA
BRANCH   3   4
ATOM      4  C   UNL A   1      34.842  32.353  28.185  1.00  0.00     0.330 C 
ATOM      5  O   UNL A   1      35.955  32.789  27.930  1.00  0.00    -0.247 OA
BRANCH   4   6
ATOM      6  C   UNL A   1      34.338  31.127  27.533  1.00  0.00     0.094 C 
ATOM      7  C   UNL A   1      33.053  30.822  27.292  1.00  0.00     0.016 C 
BRANCH   7   8
ATOM      8  C   UNL A   1      32.636  29.572  26.631  1.00  0.00    -0.022 A 
ATOM      9  C   UNL A   1      31.997  27.086  25.365  1.00  0.00     0.073 A 
ATOM     10  C   UNL A   1      31.440  27.446  26.600  1.00  0.00     0.029 A 
ATOM     11  C   UNL A   1      32.805  28.055  24.745  1.00  0.00     0.147 A 
ATOM     12  C   UNL A   1      31.745  28.666  27.218  1.00  0.00     0.010 A 
ATOM     13  C   UNL A   1      33.127  29.271  25.360  1.00  0.00     0.049 A 
ATOM     14  F   UNL A   1      33.283  27.852  23.507  1.00  0.00    -0.205 F 
BRANCH   9  15
ATOM     15  N   UNL A   1      31.777  25.822  24.812  1.00  0.00    -0.370 N 
ATOM     16  C   UNL A   1      30.550  25.625  24.044  1.00  0.00     0.144 C 
BRANCH  15  17
ATOM     17  C   UNL A   1      32.340  24.618  25.479  1.00  0.00     0.078 C 
ATOM     18  C   UNL A   1      31.336  23.987  26.449  1.00  0.00     0.031 C 
BRANCH  17  19
ATOM     19  C   UNL A   1      33.701  24.905  26.135  1.00  0.00     0.021 C 
ATOM     20  C   UNL A   1      34.887  24.527  25.257  1.00  0.00     0.006 C 
ENDBRANCH  17  19
ENDBRANCH  15  17
ENDBRANCH   9  15
ENDBRANCH   7   8
ENDBRANCH   4   6
ENDBRANCH   3   4
ENDBRANCH   2   3
ENDBRANCH   1   2
BRANCH   1  21
ATOM     21  O   UNL A   1      33.292  34.538  31.443  1.00  0.00    -0.374 OA
BRANCH  21  22
ATOM     22  C   UNL A   1      33.965  33.853  32.500  1.00  0.00     0.202 C 
BRANCH  22  23
ATOM     23  C   UNL A   1      35.427  33.491  32.217  1.00  0.00     0.261 C 
BRANCH  23  24
ATOM     24  O   UNL A   1      35.628  32.065  32.235  1.00  0.00    -0.460 OA
BRANCH  24  25
ATOM     25  C   UNL A   1      36.714  31.655  32.925  1.00  0.00     0.338 C 
ATOM     26  O   UNL A   1      36.903  31.744  34.132  1.00  0.00    -0.246 OA
BRANCH  25  27
ATOM     27  C   UNL A   1      37.634  30.908  32.046  1.00  0.00     0.060 A 
ATOM     28  C   UNL A   1      38.664  30.187  32.664  1.00  0.00     0.016 A 
ATOM     29  C   UNL A   1      37.558  30.982  30.653  1.00  0.00     0.016 A 
ATOM     30  C   UNL A   1      39.668  29.606  31.895  1.00  0.00     0.010 A 
ATOM     31  C   UNL A   1      38.571  30.401  29.880  1.00  0.00     0.010 A 
ATOM     32  C   UNL A   1      39.657  29.758  30.502  1.00  0.00    -0.014 A 
BRANCH  32  33
ATOM     33  C   UNL A   1      40.882  29.423  29.738  1.00  0.00     0.031 A 
ATOM     34  C   UNL A   1      41.007  28.045  29.144  1.00  0.00     0.074 A 
ATOM     35  C   UNL A   1      41.833  30.344  29.509  1.00  0.00     0.049 A 
ATOM     36  N   UNL A   1      41.964  27.541  28.407  1.00  0.00    -0.248 NA
ATOM     37  C   UNL A   1      39.901  27.113  29.415  1.00  0.00     0.031 C 
ATOM     38  C   UNL A   1      41.804  31.722  29.991  1.00  0.00     0.029 A 
ATOM     39  N   UNL A   1      43.003  30.258  28.798  1.00  0.00    -0.354 N 
ATOM     40  C   UNL A   1      41.575  26.237  28.128  1.00  0.00     0.074 A 
ATOM     41  C   UNL A   1      40.315  26.013  28.802  1.00  0.00     0.031 C 
ATOM     42  C   UNL A   1      42.905  32.358  29.556  1.00  0.00     0.029 A 
ATOM     43  C   UNL A   1      43.725  31.425  28.782  1.00  0.00     0.049 A 
ATOM     44  H   UNL A   1      43.298  29.436  28.342  1.00  0.00     0.167 HD
ATOM     45  C   UNL A   1      42.204  25.313  27.366  1.00  0.00     0.037 A 
ATOM     46  C   UNL A   1      44.912  31.707  28.209  1.00  0.00     0.037 A 
ATOM     47  C   UNL A   1      43.454  25.535  26.689  1.00  0.00     0.049 A 
ATOM     48  C   UNL A   1      45.619  30.647  27.406  1.00  0.00     0.074 A 
ATOM     49  C   UNL A   1      44.171  24.659  25.894  1.00  0.00     0.029 A 
ATOM     50  N   UNL A   1      44.170  26.722  26.728  1.00  0.00    -0.354 N 
ATOM     51  N   UNL A   1      45.243  29.420  27.143  1.00  0.00    -0.248 NA
ATOM     52  C   UNL A   1      46.913  31.016  26.812  1.00  0.00     0.031 C 
ATOM     53  C   UNL A   1      45.344  25.301  25.485  1.00  0.00     0.029 A 
ATOM     54  C   UNL A   1      45.331  26.596  25.981  1.00  0.00     0.049 A 
ATOM     55  H   UNL A   1      43.896  27.533  27.213  1.00  0.00     0.167 HD
ATOM     56  C   UNL A   1      46.231  28.880  26.330  1.00  0.00     0.074 A 
ATOM     57  C   UNL A   1      47.226  29.915  26.140  1.00  0.00     0.031 C 
ATOM     58  C   UNL A   1      46.304  27.640  25.786  1.00  0.00     0.037 A 
BRANCH  45  59
ATOM     59  C   UNL A   1      41.559  23.965  27.235  1.00  0.00     0.064 A 
ATOM     60  C   UNL A   1      42.150  22.834  27.816  1.00  0.00     0.173 A 
ATOM     61  C   UNL A   1      40.378  23.785  26.498  1.00  0.00     0.173 A 
ATOM     62  F   UNL A   1      43.281  22.954  28.529  1.00  0.00    -0.203 F 
ATOM     63  C   UNL A   1      41.589  21.571  27.658  1.00  0.00     0.198 A 
ATOM     64  C   UNL A   1      39.806  22.523  26.364  1.00  0.00     0.198 A 
ATOM     65  F   UNL A   1      39.766  24.837  25.935  1.00  0.00    -0.203 F 
ATOM     66  F   UNL A   1      42.185  20.501  28.202  1.00  0.00    -0.200 F 
ATOM     67  C   UNL A   1      40.415  21.416  26.936  1.00  0.00     0.200 A 
ATOM     68  F   UNL A   1      38.656  22.379  25.688  1.00  0.00    -0.200 F 
ATOM     69  F   UNL A   1      39.867  20.201  26.797  1.00  0.00    -0.200 F 
ENDBRANCH  45  59
BRANCH  46  70
ATOM     70  C   UNL A   1      45.487  33.068  28.355  1.00  0.00     0.064 A 
ATOM     71  C   UNL A   1      45.180  34.088  27.444  1.00  0.00     0.173 A 
ATOM     72  C   UNL A   1      46.377  33.367  29.396  1.00  0.00     0.173 A 
ATOM     73  F   UNL A   1      44.332  33.851  26.431  1.00  0.00    -0.203 F 
ATOM     74  C   UNL A   1      45.758  35.350  27.555  1.00  0.00     0.198 A 
ATOM     75  C   UNL A   1      46.937  34.636  29.520  1.00  0.00     0.198 A 
ATOM     76  F   UNL A   1      46.682  32.430  30.305  1.00  0.00    -0.203 F 
ATOM     77  F   UNL A   1      45.471  36.298  26.653  1.00  0.00    -0.200 F 
ATOM     78  C   UNL A   1      46.634  35.624  28.594  1.00  0.00     0.200 A 
ATOM     79  F   UNL A   1      47.765  34.904  30.538  1.00  0.00    -0.200 F 
ATOM     80  F   UNL A   1      47.184  36.841  28.706  1.00  0.00    -0.200 F 
ENDBRANCH  46  70
BRANCH  58  81
ATOM     81  C   UNL A   1      47.472  27.332  24.896  1.00  0.00     0.064 A 
ATOM     82  C   UNL A   1      48.630  26.746  25.429  1.00  0.00     0.173 A 
ATOM     83  C   UNL A   1      47.480  27.692  23.541  1.00  0.00     0.173 A 
ATOM     84  F   UNL A   1      48.676  26.393  26.723  1.00  0.00    -0.203 F 
ATOM     85  C   UNL A   1      49.759  26.542  24.640  1.00  0.00     0.198 A 
ATOM     86  C   UNL A   1      48.602  27.463  22.748  1.00  0.00     0.198 A 
ATOM     87  F   UNL A   1      46.394  28.248  22.984  1.00  0.00    -0.203 F 
ATOM     88  F   UNL A   1      50.865  26.011  25.179  1.00  0.00    -0.200 F 
ATOM     89  C   UNL A   1      49.743  26.898  23.301  1.00  0.00     0.200 A 
ATOM     90  F   UNL A   1      48.579  27.788  21.448  1.00  0.00    -0.200 F 
ATOM     91  F   UNL A   1      50.827  26.694  22.539  1.00  0.00    -0.200 F 
ENDBRANCH  58  81
ENDBRANCH  32  33
ENDBRANCH  25  27
ENDBRANCH  24  25
ENDBRANCH  23  24
ENDBRANCH  22  23
ENDBRANCH  21  22
ENDBRANCH   1  21
TORSDOF 18
ENDMDL
MODEL 3
REMARK VINA RESULT:      -9.4      5.180     11.252
REMARK SMILES CC[C@@H](C)N(C)c1ccc(/C=C/C(=O)OCCOCCOC(=O)c2ccc(-c3c4nc(c(-c5c(F)c(F)c(F)c(F)c5F)c5ccc([nH]5)c(-c5c(F)c(F)c(F)c(F)c5F)c5nc(c(-c6c(F)c(F)c(F)c(F)c6F)c6ccc3[nH]6)C=C5)C=C4)cc2)cc1F
REMARK SMILES IDX 17 1 16 2 15 3 13 4 14 5 12 6 11 7 10 8 7 9 8 10 88 11 9 12
REMARK SMILES IDX 87 13 89 14 5 15 6 16 3 17 4 18 2 19 1 20 18 21 19 22 20 23
REMARK SMILES IDX 21 24 22 25 23 26 24 27 25 28 86 29 26 30 85 31 27 32 28 33
REMARK SMILES IDX 29 34 79 35 30 36 84 37 78 38 80 39 31 40 83 41 77 42 76 43
REMARK SMILES IDX 32 45 64 46 44 47 63 48 45 49 48 50 62 51 81 52 46 53 47 54
REMARK SMILES IDX 61 56 82 57 49 58 33 59 34 60 42 61 35 62 36 63 40 64 43 65
REMARK SMILES IDX 37 66 38 67 41 68 39 69 65 70 66 71 74 72 67 73 68 74 72 75
REMARK SMILES IDX 75 76 69 77 70 78 73 79 71 80 50 81 51 82 59 83 52 84 53 85
REMARK SMILES IDX 57 86 60 87 54 88 55 89 58 90 56 91
REMARK H PARENT 80 44 48 55
REMARK Flexibility Score: inf
ROOT
ATOM      1  C   UNL A   1      33.602  33.262  28.120  1.00  0.00     0.202 C 
ENDROOT
BRANCH   1   2
ATOM      2  C   UNL A   1      34.072  31.890  27.635  1.00  0.00     0.261 C 
BRANCH   2   3
ATOM      3  O   UNL A   1      33.054  30.900  27.859  1.00  0.00    -0.460 OA
BRANCH   3   4
ATOM      4  C   UNL A   1      32.271  30.622  26.792  1.00  0.00     0.330 C 
ATOM      5  O   UNL A   1      31.503  31.389  26.232  1.00  0.00    -0.247 OA
BRANCH   4   6
ATOM      6  C   UNL A   1      32.474  29.248  26.291  1.00  0.00     0.094 C 
ATOM      7  C   UNL A   1      33.421  28.844  25.428  1.00  0.00     0.016 C 
BRANCH   7   8
ATOM      8  C   UNL A   1      33.555  27.446  24.980  1.00  0.00    -0.022 A 
ATOM      9  C   UNL A   1      33.971  24.779  24.028  1.00  0.00     0.073 A 
ATOM     10  C   UNL A   1      33.975  25.079  25.398  1.00  0.00     0.029 A 
ATOM     11  C   UNL A   1      33.656  25.841  23.163  1.00  0.00     0.147 A 
ATOM     12  C   UNL A   1      33.762  26.383  25.866  1.00  0.00     0.010 A 
ATOM     13  C   UNL A   1      33.458  27.149  23.620  1.00  0.00     0.049 A 
ATOM     14  F   UNL A   1      33.509  25.625  21.846  1.00  0.00    -0.205 F 
BRANCH   9  15
ATOM     15  N   UNL A   1      34.296  23.500  23.567  1.00  0.00    -0.370 N 
ATOM     16  C   UNL A   1      33.194  22.615  23.201  1.00  0.00     0.144 C 
BRANCH  15  17
ATOM     17  C   UNL A   1      35.546  22.845  24.036  1.00  0.00     0.078 C 
ATOM     18  C   UNL A   1      36.626  22.844  22.949  1.00  0.00     0.031 C 
BRANCH  17  19
ATOM     19  C   UNL A   1      35.283  21.444  24.613  1.00  0.00     0.021 C 
ATOM     20  C   UNL A   1      34.914  21.459  26.091  1.00  0.00     0.006 C 
ENDBRANCH  17  19
ENDBRANCH  15  17
ENDBRANCH   9  15
ENDBRANCH   7   8
ENDBRANCH   4   6
ENDBRANCH   3   4
ENDBRANCH   2   3
ENDBRANCH   1   2
BRANCH   1  21
ATOM     21  O   UNL A   1      34.545  33.973  28.924  1.00  0.00    -0.374 OA
BRANCH  21  22
ATOM     22  C   UNL A   1      34.023  34.689  30.044  1.00  0.00     0.202 C 
BRANCH  22  23
ATOM     23  C   UNL A   1      34.445  34.152  31.416  1.00  0.00     0.261 C 
BRANCH  23  24
ATOM     24  O   UNL A   1      34.571  32.717  31.402  1.00  0.00    -0.460 OA
BRANCH  24  25
ATOM     25  C   UNL A   1      35.493  32.221  32.254  1.00  0.00     0.338 C 
ATOM     26  O   UNL A   1      35.507  32.326  33.475  1.00  0.00    -0.246 OA
BRANCH  25  27
ATOM     27  C   UNL A   1      36.454  31.361  31.536  1.00  0.00     0.060 A 
ATOM     28  C   UNL A   1      37.437  30.724  32.303  1.00  0.00     0.016 A 
ATOM     29  C   UNL A   1      36.458  31.251  30.143  1.00  0.00     0.016 A 
ATOM     30  C   UNL A   1      38.477  30.042  31.676  1.00  0.00     0.010 A 
ATOM     31  C   UNL A   1      37.506  30.569  29.514  1.00  0.00     0.010 A 
ATOM     32  C   UNL A   1      38.547  30.010  30.277  1.00  0.00    -0.014 A 
BRANCH  32  33
ATOM     33  C   UNL A   1      39.810  29.572  29.637  1.00  0.00     0.031 A 
ATOM     34  C   UNL A   1      40.967  30.534  29.592  1.00  0.00     0.074 A 
ATOM     35  C   UNL A   1      39.957  28.320  29.172  1.00  0.00     0.049 A 
ATOM     36  N   UNL A   1      42.177  30.360  29.121  1.00  0.00    -0.248 NA
ATOM     37  C   UNL A   1      40.729  31.872  30.158  1.00  0.00     0.031 C 
ATOM     38  C   UNL A   1      38.928  27.285  29.200  1.00  0.00     0.029 A 
ATOM     39  N   UNL A   1      41.040  27.705  28.596  1.00  0.00    -0.354 N 
ATOM     40  C   UNL A   1      42.839  31.562  29.335  1.00  0.00     0.074 A 
ATOM     41  C   UNL A   1      41.891  32.470  29.943  1.00  0.00     0.031 C 
ATOM     42  C   UNL A   1      39.430  26.157  28.671  1.00  0.00     0.029 A 
ATOM     43  C   UNL A   1      40.811  26.398  28.247  1.00  0.00     0.049 A 
ATOM     44  H   UNL A   1      41.901  28.159  28.446  1.00  0.00     0.167 HD
ATOM     45  C   UNL A   1      44.126  31.877  29.062  1.00  0.00     0.037 A 
ATOM     46  C   UNL A   1      41.621  25.500  27.655  1.00  0.00     0.037 A 
ATOM     47  C   UNL A   1      45.073  30.973  28.464  1.00  0.00     0.049 A 
ATOM     48  C   UNL A   1      43.036  25.887  27.314  1.00  0.00     0.074 A 
ATOM     49  C   UNL A   1      46.400  31.201  28.146  1.00  0.00     0.029 A 
ATOM     50  N   UNL A   1      44.788  29.667  28.093  1.00  0.00    -0.354 N 
ATOM     51  N   UNL A   1      43.656  27.023  27.523  1.00  0.00    -0.248 NA
ATOM     52  C   UNL A   1      43.868  24.863  26.663  1.00  0.00     0.031 C 
ATOM     53  C   UNL A   1      46.909  30.046  27.545  1.00  0.00     0.029 A 
ATOM     54  C   UNL A   1      45.913  29.080  27.537  1.00  0.00     0.049 A 
ATOM     55  H   UNL A   1      43.918  29.224  28.208  1.00  0.00     0.167 HD
ATOM     56  C   UNL A   1      44.954  26.843  27.063  1.00  0.00     0.074 A 
ATOM     57  C   UNL A   1      45.035  25.487  26.563  1.00  0.00     0.031 C 
ATOM     58  C   UNL A   1      45.985  27.723  27.059  1.00  0.00     0.037 A 
BRANCH  45  59
ATOM     59  C   UNL A   1      44.587  33.265  29.394  1.00  0.00     0.064 A 
ATOM     60  C   UNL A   1      44.559  34.275  28.421  1.00  0.00     0.173 A 
ATOM     61  C   UNL A   1      45.096  33.587  30.661  1.00  0.00     0.173 A 
ATOM     62  F   UNL A   1      44.083  34.017  27.193  1.00  0.00    -0.203 F 
ATOM     63  C   UNL A   1      45.031  35.553  28.701  1.00  0.00     0.198 A 
ATOM     64  C   UNL A   1      45.543  34.874  30.945  1.00  0.00     0.198 A 
ATOM     65  F   UNL A   1      45.131  32.660  31.630  1.00  0.00    -0.203 F 
ATOM     66  F   UNL A   1      45.016  36.495  27.748  1.00  0.00    -0.200 F 
ATOM     67  C   UNL A   1      45.519  35.854  29.964  1.00  0.00     0.200 A 
ATOM     68  F   UNL A   1      45.991  35.170  32.175  1.00  0.00    -0.200 F 
ATOM     69  F   UNL A   1      45.960  37.090  30.237  1.00  0.00    -0.200 F 
ENDBRANCH  45  59
BRANCH  46  70
ATOM     70  C   UNL A   1      41.114  24.133  27.374  1.00  0.00     0.064 A 
ATOM     71  C   UNL A   1      40.055  23.920  26.481  1.00  0.00     0.173 A 
ATOM     72  C   UNL A   1      41.664  23.014  28.016  1.00  0.00     0.173 A 
ATOM     73  F   UNL A   1      39.497  24.958  25.841  1.00  0.00    -0.203 F 
ATOM     74  C   UNL A   1      39.550  22.642  26.256  1.00  0.00     0.198 A 
ATOM     75  C   UNL A   1      41.173  21.733  27.773  1.00  0.00     0.198 A 
ATOM     76  F   UNL A   1      42.693  23.166  28.860  1.00  0.00    -0.203 F 
ATOM     77  F   UNL A   1      38.516  22.469  25.420  1.00  0.00    -0.200 F 
ATOM     78  C   UNL A   1      40.110  21.549  26.900  1.00  0.00     0.200 A 
ATOM     79  F   UNL A   1      41.732  20.677  28.379  1.00  0.00    -0.200 F 
ATOM     80  F   UNL A   1      39.629  20.318  26.677  1.00  0.00    -0.200 F 
ENDBRANCH  46  70
BRANCH  58  81
ATOM     81  C   UNL A   1      47.310  27.248  26.540  1.00  0.00     0.064 A 
ATOM     82  C   UNL A   1      47.635  27.405  25.184  1.00  0.00     0.173 A 
ATOM     83  C   UNL A   1      48.219  26.564  27.360  1.00  0.00     0.173 A 
ATOM     84  F   UNL A   1      46.794  28.044  24.356  1.00  0.00    -0.203 F 
ATOM     85  C   UNL A   1      48.817  26.884  24.664  1.00  0.00     0.198 A 
ATOM     86  C   UNL A   1      49.414  26.066  26.841  1.00  0.00     0.198 A 
ATOM     87  F   UNL A   1      47.958  26.395  28.664  1.00  0.00    -0.203 F 
ATOM     88  F   UNL A   1      49.090  27.019  23.359  1.00  0.00    -0.200 F 
ATOM     89  C   UNL A   1      49.706  26.219  25.494  1.00  0.00     0.200 A 
ATOM     90  F   UNL A   1      50.282  25.441  27.648  1.00  0.00    -0.200 F 
ATOM     91  F   UNL A   1      50.848  25.724  24.995  1.00  0.00    -0.200 F 
ENDBRANCH  58  81
ENDBRANCH  32  33
ENDBRANCH  25  27
ENDBRANCH  24  25
ENDBRANCH  23  24
ENDBRANCH  22  23
ENDBRANCH  21  22
ENDBRANCH   1  21
TORSDOF 18
ENDMDL
