MODEL 1
REMARK VINA RESULT:     -10.8      0.000      0.000
REMARK SMILES CC(C)(O)C#Cc1ccc(C(=O)N[C@@H](CCC(N)=O)C(=O)OCCOCCOC(=O)c2ccc(-c3c4nc(c(-c5c(F)c(F)c(F)c(F)c5F)c5ccc([nH]5)c(-c5c(F)c(F)c(F)c(F)c5F)c5nc(c(-c6c(F)c(F)c(F)c(F)c6F)c6ccc3[nH]6)C=C5)C=C4)cc2)s1
REMARK SMILES IDX 23 1 22 2 20 3 21 4 14 5 13 6 11 7 12 8 10 10 7 11 8 12
REMARK SMILES IDX 94 13 9 14 6 15 5 16 2 17 1 18 3 19 4 20 15 22 16 23 17 24
REMARK SMILES IDX 18 25 19 26 24 29 25 30 26 31 27 32 28 33 29 34 30 35 31 36
REMARK SMILES IDX 32 37 93 38 33 39 92 40 34 41 35 42 36 43 86 44 37 45 91 46
REMARK SMILES IDX 85 47 87 48 38 49 90 50 84 51 83 52 39 54 71 55 51 56 70 57
REMARK SMILES IDX 52 58 55 59 69 60 88 61 53 62 54 63 68 65 89 66 56 67 40 68
REMARK SMILES IDX 41 69 49 70 42 71 43 72 47 73 50 74 44 75 45 76 48 77 46 78
REMARK SMILES IDX 72 79 73 80 81 81 74 82 75 83 79 84 82 85 76 86 77 87 80 88
REMARK SMILES IDX 78 89 57 90 58 91 66 92 59 93 60 94 64 95 67 96 61 97 62 98
REMARK SMILES IDX 65 99 63 100
REMARK H PARENT 13 9 4 21 18 27 18 28 87 53 55 64
REMARK Flexibility Score: inf
ROOT
ATOM      1  C   UNL A   1      32.184  26.495  26.514  1.00  0.00     0.261 C 
ENDROOT
BRANCH   1   2
ATOM      2  O   UNL A   1      33.613  26.337  26.404  1.00  0.00    -0.462 OA
BRANCH   2   3
ATOM      3  C   UNL A   1      34.070  26.128  25.139  1.00  0.00     0.328 C 
ATOM      4  O   UNL A   1      34.131  26.995  24.269  1.00  0.00    -0.250 OA
BRANCH   3   5
ATOM      5  C   UNL A   1      34.430  24.657  24.842  1.00  0.00     0.193 C 
BRANCH   5   6
ATOM      6  N   UNL A   1      34.324  24.208  23.448  1.00  0.00    -0.338 N 
ATOM      7  C   UNL A   1      33.270  24.233  22.552  1.00  0.00     0.262 C 
ATOM      8  O   UNL A   1      33.449  23.632  21.491  1.00  0.00    -0.268 OA
ATOM      9  H   UNL A   1      35.154  23.819  23.085  1.00  0.00     0.164 HD
BRANCH   7  10
ATOM     10  C   UNL A   1      32.006  24.891  22.855  1.00  0.00     0.093 A 
ATOM     11  C   UNL A   1      30.172  26.523  23.066  1.00  0.00     0.078 A 
ATOM     12  C   UNL A   1      29.925  25.404  23.823  1.00  0.00     0.030 A 
ATOM     13  S   UNL A   1      31.491  26.296  22.042  1.00  0.00    -0.121 S 
ATOM     14  C   UNL A   1      30.984  24.444  23.684  1.00  0.00     0.027 A 
BRANCH  11  15
ATOM     15  C   UNL A   1      29.462  27.745  23.014  1.00  0.00    -0.053 C 
ATOM     16  C   UNL A   1      28.961  28.940  22.871  1.00  0.00    -0.063 C 
BRANCH  16  17
ATOM     17  C   UNL A   1      28.378  30.334  22.703  1.00  0.00     0.120 C 
ATOM     18  C   UNL A   1      28.706  30.867  21.310  1.00  0.00     0.056 C 
ATOM     19  C   UNL A   1      28.921  31.256  23.792  1.00  0.00     0.056 C 
BRANCH  17  20
ATOM     20  O   UNL A   1      26.965  30.238  22.844  1.00  0.00    -0.378 OA
ATOM     21  H   UNL A   1      26.664  29.382  22.504  1.00  0.00     0.212 HD
ENDBRANCH  17  20
ENDBRANCH  16  17
ENDBRANCH  11  15
ENDBRANCH   7  10
ENDBRANCH   5   6
BRANCH   5  22
ATOM     22  C   UNL A   1      35.784  24.296  25.481  1.00  0.00     0.047 C 
BRANCH  22  23
ATOM     23  C   UNL A   1      36.003  22.831  25.835  1.00  0.00     0.102 C 
BRANCH  23  24
ATOM     24  C   UNL A   1      34.790  22.154  26.424  1.00  0.00     0.217 C 
ATOM     25  N   UNL A   1      34.564  22.391  27.745  1.00  0.00    -0.370 N 
ATOM     26  O   UNL A   1      34.070  21.414  25.772  1.00  0.00    -0.275 OA
ATOM     27  H   UNL A   1      35.161  22.992  28.246  1.00  0.00     0.159 HD
ATOM     28  H   UNL A   1      33.804  21.961  28.199  1.00  0.00     0.159 HD
ENDBRANCH  23  24
ENDBRANCH  22  23
ENDBRANCH   5  22
ENDBRANCH   3   5
ENDBRANCH   2   3
ENDBRANCH   1   2
BRANCH   1  29
ATOM     29  C   UNL A   1      31.739  27.928  26.817  1.00  0.00     0.202 C 
BRANCH  29  30
ATOM     30  O   UNL A   1      31.416  28.782  25.722  1.00  0.00    -0.374 OA
BRANCH  30  31
ATOM     31  C   UNL A   1      32.131  30.001  25.569  1.00  0.00     0.202 C 
BRANCH  31  32
ATOM     32  C   UNL A   1      31.744  31.172  26.459  1.00  0.00     0.261 C 
BRANCH  32  33
ATOM     33  O   UNL A   1      32.812  31.576  27.315  1.00  0.00    -0.460 OA
BRANCH  33  34
ATOM     34  C   UNL A   1      32.748  32.858  27.691  1.00  0.00     0.338 C 
ATOM     35  O   UNL A   1      31.903  33.698  27.344  1.00  0.00    -0.246 OA
BRANCH  34  36
ATOM     36  C   UNL A   1      33.937  33.218  28.451  1.00  0.00     0.060 A 
ATOM     37  C   UNL A   1      34.973  33.796  27.709  1.00  0.00     0.016 A 
ATOM     38  C   UNL A   1      34.152  32.641  29.716  1.00  0.00     0.016 A 
ATOM     39  C   UNL A   1      36.262  33.540  28.099  1.00  0.00     0.010 A 
ATOM     40  C   UNL A   1      35.446  32.388  30.101  1.00  0.00     0.010 A 
ATOM     41  C   UNL A   1      36.473  32.750  29.232  1.00  0.00    -0.014 A 
BRANCH  41  42
ATOM     42  C   UNL A   1      37.835  32.345  29.498  1.00  0.00     0.031 A 
ATOM     43  C   UNL A   1      38.095  30.924  29.188  1.00  0.00     0.074 A 
ATOM     44  C   UNL A   1      38.764  33.225  29.912  1.00  0.00     0.049 A 
ATOM     45  N   UNL A   1      38.563  30.006  29.965  1.00  0.00    -0.248 NA
ATOM     46  C   UNL A   1      37.656  30.439  27.868  1.00  0.00     0.031 C 
ATOM     47  C   UNL A   1      38.655  34.686  29.984  1.00  0.00     0.029 A 
ATOM     48  N   UNL A   1      40.060  32.995  30.246  1.00  0.00    -0.354 N 
ATOM     49  C   UNL A   1      38.632  28.860  29.180  1.00  0.00     0.074 A 
ATOM     50  C   UNL A   1      37.931  29.142  27.957  1.00  0.00     0.031 C 
ATOM     51  C   UNL A   1      39.893  35.215  30.107  1.00  0.00     0.029 A 
ATOM     52  C   UNL A   1      40.856  34.130  30.226  1.00  0.00     0.049 A 
ATOM     53  H   UNL A   1      40.404  32.103  30.483  1.00  0.00     0.167 HD
ATOM     54  C   UNL A   1      39.473  27.841  29.494  1.00  0.00     0.037 A 
ATOM     55  C   UNL A   1      42.212  34.154  30.196  1.00  0.00     0.037 A 
ATOM     56  C   UNL A   1      39.810  27.840  30.892  1.00  0.00     0.049 A 
ATOM     57  C   UNL A   1      42.696  32.815  30.620  1.00  0.00     0.074 A 
ATOM     58  C   UNL A   1      39.076  27.724  32.057  1.00  0.00     0.029 A 
ATOM     59  N   UNL A   1      41.037  28.320  31.271  1.00  0.00    -0.354 N 
ATOM     60  N   UNL A   1      42.608  32.351  31.836  1.00  0.00    -0.248 NA
ATOM     61  C   UNL A   1      42.901  31.808  29.587  1.00  0.00     0.031 C 
ATOM     62  C   UNL A   1      39.730  28.572  32.997  1.00  0.00     0.029 A 
ATOM     63  C   UNL A   1      40.840  29.128  32.362  1.00  0.00     0.049 A 
ATOM     64  H   UNL A   1      41.901  28.122  30.840  1.00  0.00     0.167 HD
ATOM     65  C   UNL A   1      42.323  31.003  31.681  1.00  0.00     0.074 A 
ATOM     66  C   UNL A   1      42.619  30.706  30.284  1.00  0.00     0.031 C 
ATOM     67  C   UNL A   1      41.604  30.324  32.622  1.00  0.00     0.037 A 
BRANCH  54  68
ATOM     68  C   UNL A   1      40.266  27.097  28.454  1.00  0.00     0.064 A 
ATOM     69  C   UNL A   1      41.155  27.807  27.629  1.00  0.00     0.173 A 
ATOM     70  C   UNL A   1      39.967  25.778  28.038  1.00  0.00     0.173 A 
ATOM     71  F   UNL A   1      41.488  29.075  27.917  1.00  0.00    -0.203 F 
ATOM     72  C   UNL A   1      41.645  27.266  26.438  1.00  0.00     0.198 A 
ATOM     73  C   UNL A   1      40.503  25.221  26.881  1.00  0.00     0.198 A 
ATOM     74  F   UNL A   1      39.061  25.018  28.665  1.00  0.00    -0.203 F 
ATOM     75  F   UNL A   1      42.383  28.025  25.618  1.00  0.00    -0.200 F 
ATOM     76  C   UNL A   1      41.314  25.976  26.063  1.00  0.00     0.200 A 
ATOM     77  F   UNL A   1      40.154  23.976  26.527  1.00  0.00    -0.200 F 
ATOM     78  F   UNL A   1      41.730  25.479  24.892  1.00  0.00    -0.200 F 
ENDBRANCH  54  68
BRANCH  55  79
ATOM     79  C   UNL A   1      43.091  35.140  29.525  1.00  0.00     0.064 A 
ATOM     80  C   UNL A   1      42.831  35.563  28.211  1.00  0.00     0.173 A 
ATOM     81  C   UNL A   1      44.054  35.881  30.239  1.00  0.00     0.173 A 
ATOM     82  F   UNL A   1      41.893  34.946  27.477  1.00  0.00    -0.203 F 
ATOM     83  C   UNL A   1      43.482  36.669  27.654  1.00  0.00     0.198 A 
ATOM     84  C   UNL A   1      44.714  36.973  29.677  1.00  0.00     0.198 A 
ATOM     85  F   UNL A   1      44.309  35.623  31.529  1.00  0.00    -0.203 F 
ATOM     86  F   UNL A   1      43.161  37.081  26.420  1.00  0.00    -0.200 F 
ATOM     87  C   UNL A   1      44.418  37.376  28.389  1.00  0.00     0.200 A 
ATOM     88  F   UNL A   1      45.592  37.670  30.413  1.00  0.00    -0.200 F 
ATOM     89  F   UNL A   1      45.002  38.467  27.875  1.00  0.00    -0.200 F 
ENDBRANCH  55  79
BRANCH  67  90
ATOM     90  C   UNL A   1      41.377  31.000  33.944  1.00  0.00     0.064 A 
ATOM     91  C   UNL A   1      40.311  31.882  34.196  1.00  0.00     0.173 A 
ATOM     92  C   UNL A   1      42.185  30.637  35.029  1.00  0.00     0.173 A 
ATOM     93  F   UNL A   1      39.431  32.192  33.236  1.00  0.00    -0.203 F 
ATOM     94  C   UNL A   1      40.101  32.416  35.465  1.00  0.00     0.198 A 
ATOM     95  C   UNL A   1      41.948  31.140  36.305  1.00  0.00     0.198 A 
ATOM     96  F   UNL A   1      43.179  29.751  34.860  1.00  0.00    -0.203 F 
ATOM     97  F   UNL A   1      39.089  33.270  35.676  1.00  0.00    -0.200 F 
ATOM     98  C   UNL A   1      40.916  32.039  36.520  1.00  0.00     0.200 A 
ATOM     99  F   UNL A   1      42.707  30.735  37.332  1.00  0.00    -0.200 F 
ATOM    100  F   UNL A   1      40.690  32.522  37.750  1.00  0.00    -0.200 F 
ENDBRANCH  67  90
ENDBRANCH  41  42
ENDBRANCH  34  36
ENDBRANCH  33  34
ENDBRANCH  32  33
ENDBRANCH  31  32
ENDBRANCH  30  31
ENDBRANCH  29  30
ENDBRANCH   1  29
TORSDOF 22
ENDMDL
MODEL 2
REMARK VINA RESULT:     -10.8      3.069      7.131
REMARK SMILES CC(C)(O)C#Cc1ccc(C(=O)N[C@@H](CCC(N)=O)C(=O)OCCOCCOC(=O)c2ccc(-c3c4nc(c(-c5c(F)c(F)c(F)c(F)c5F)c5ccc([nH]5)c(-c5c(F)c(F)c(F)c(F)c5F)c5nc(c(-c6c(F)c(F)c(F)c(F)c6F)c6ccc3[nH]6)C=C5)C=C4)cc2)s1
REMARK SMILES IDX 23 1 22 2 20 3 21 4 14 5 13 6 11 7 12 8 10 10 7 11 8 12
REMARK SMILES IDX 94 13 9 14 6 15 5 16 2 17 1 18 3 19 4 20 15 22 16 23 17 24
REMARK SMILES IDX 18 25 19 26 24 29 25 30 26 31 27 32 28 33 29 34 30 35 31 36
REMARK SMILES IDX 32 37 93 38 33 39 92 40 34 41 35 42 36 43 86 44 37 45 91 46
REMARK SMILES IDX 85 47 87 48 38 49 90 50 84 51 83 52 39 54 71 55 51 56 70 57
REMARK SMILES IDX 52 58 55 59 69 60 88 61 53 62 54 63 68 65 89 66 56 67 40 68
REMARK SMILES IDX 41 69 49 70 42 71 43 72 47 73 50 74 44 75 45 76 48 77 46 78
REMARK SMILES IDX 72 79 73 80 81 81 74 82 75 83 79 84 82 85 76 86 77 87 80 88
REMARK SMILES IDX 78 89 57 90 58 91 66 92 59 93 60 94 64 95 67 96 61 97 62 98
REMARK SMILES IDX 65 99 63 100
REMARK H PARENT 13 9 4 21 18 27 18 28 87 53 55 64
REMARK Flexibility Score: inf
ROOT
ATOM      1  C   UNL A   1      36.379  23.385  26.106  1.00  0.00     0.261 C 
ENDROOT
BRANCH   1   2
ATOM      2  O   UNL A   1      34.992  23.429  26.500  1.00  0.00    -0.462 OA
BRANCH   2   3
ATOM      3  C   UNL A   1      34.105  23.205  25.492  1.00  0.00     0.328 C 
ATOM      4  O   UNL A   1      33.960  23.938  24.516  1.00  0.00    -0.250 OA
BRANCH   3   5
ATOM      5  C   UNL A   1      33.203  21.973  25.719  1.00  0.00     0.193 C 
BRANCH   5   6
ATOM      6  N   UNL A   1      32.026  22.151  26.578  1.00  0.00    -0.338 N 
ATOM      7  C   UNL A   1      30.971  23.044  26.518  1.00  0.00     0.262 C 
ATOM      8  O   UNL A   1      30.207  23.044  27.485  1.00  0.00    -0.268 OA
ATOM      9  H   UNL A   1      31.979  21.520  27.334  1.00  0.00     0.164 HD
BRANCH   7  10
ATOM     10  C   UNL A   1      30.790  23.962  25.401  1.00  0.00     0.093 A 
ATOM     11  C   UNL A   1      30.367  25.952  24.011  1.00  0.00     0.078 A 
ATOM     12  C   UNL A   1      30.401  24.813  23.243  1.00  0.00     0.030 A 
ATOM     13  S   UNL A   1      30.894  25.652  25.583  1.00  0.00    -0.121 S 
ATOM     14  C   UNL A   1      30.668  23.655  24.051  1.00  0.00     0.027 A 
BRANCH  11  15
ATOM     15  C   UNL A   1      30.013  27.270  23.642  1.00  0.00    -0.053 C 
ATOM     16  C   UNL A   1      29.721  28.429  23.121  1.00  0.00    -0.063 C 
BRANCH  16  17
ATOM     17  C   UNL A   1      29.381  29.780  22.512  1.00  0.00     0.120 C 
ATOM     18  C   UNL A   1      29.426  30.859  23.592  1.00  0.00     0.056 C 
ATOM     19  C   UNL A   1      28.008  29.717  21.848  1.00  0.00     0.056 C 
BRANCH  17  20
ATOM     20  O   UNL A   1      30.360  30.073  21.521  1.00  0.00    -0.378 OA
ATOM     21  H   UNL A   1      31.222  29.736  21.808  1.00  0.00     0.212 HD
ENDBRANCH  17  20
ENDBRANCH  16  17
ENDBRANCH  11  15
ENDBRANCH   7  10
ENDBRANCH   5   6
BRANCH   5  22
ATOM     22  C   UNL A   1      32.862  21.303  24.376  1.00  0.00     0.047 C 
BRANCH  22  23
ATOM     23  C   UNL A   1      32.253  19.908  24.443  1.00  0.00     0.102 C 
BRANCH  23  24
ATOM     24  C   UNL A   1      33.141  18.882  25.104  1.00  0.00     0.217 C 
ATOM     25  N   UNL A   1      32.864  18.614  26.410  1.00  0.00    -0.370 N 
ATOM     26  O   UNL A   1      34.070  18.345  24.522  1.00  0.00    -0.275 OA
ATOM     27  H   UNL A   1      32.108  19.062  26.854  1.00  0.00     0.159 HD
ATOM     28  H   UNL A   1      33.419  17.973  26.909  1.00  0.00     0.159 HD
ENDBRANCH  23  24
ENDBRANCH  22  23
ENDBRANCH   5  22
ENDBRANCH   3   5
ENDBRANCH   2   3
ENDBRANCH   1   2
BRANCH   1  29
ATOM     29  C   UNL A   1      36.847  22.006  25.633  1.00  0.00     0.202 C 
BRANCH  29  30
ATOM     30  O   UNL A   1      38.231  21.825  25.341  1.00  0.00    -0.374 OA
BRANCH  30  31
ATOM     31  C   UNL A   1      38.799  20.530  25.489  1.00  0.00     0.202 C 
BRANCH  31  32
ATOM     32  C   UNL A   1      40.232  20.432  25.990  1.00  0.00     0.261 C 
BRANCH  32  33
ATOM     33  O   UNL A   1      40.915  21.683  25.923  1.00  0.00    -0.460 OA
BRANCH  33  34
ATOM     34  C   UNL A   1      41.212  22.202  27.120  1.00  0.00     0.338 C 
ATOM     35  O   UNL A   1      41.055  21.663  28.228  1.00  0.00    -0.246 OA
BRANCH  34  36
ATOM     36  C   UNL A   1      41.595  23.599  26.981  1.00  0.00     0.060 A 
ATOM     37  C   UNL A   1      42.718  23.991  27.719  1.00  0.00     0.016 A 
ATOM     38  C   UNL A   1      40.663  24.527  26.483  1.00  0.00     0.016 A 
ATOM     39  C   UNL A   1      42.751  25.273  28.203  1.00  0.00     0.010 A 
ATOM     40  C   UNL A   1      40.703  25.810  26.972  1.00  0.00     0.010 A 
ATOM     41  C   UNL A   1      41.687  26.128  27.905  1.00  0.00    -0.014 A 
BRANCH  41  42
ATOM     42  C   UNL A   1      41.665  27.402  28.589  1.00  0.00     0.031 A 
ATOM     43  C   UNL A   1      42.837  28.250  28.287  1.00  0.00     0.074 A 
ATOM     44  C   UNL A   1      40.624  27.772  29.355  1.00  0.00     0.049 A 
ATOM     45  N   UNL A   1      43.680  28.777  29.110  1.00  0.00    -0.248 NA
ATOM     46  C   UNL A   1      43.182  28.427  26.865  1.00  0.00     0.031 C 
ATOM     47  C   UNL A   1      39.320  27.112  29.487  1.00  0.00     0.029 A 
ATOM     48  N   UNL A   1      40.474  28.903  30.092  1.00  0.00    -0.354 N 
ATOM     49  C   UNL A   1      44.571  29.492  28.317  1.00  0.00     0.074 A 
ATOM     50  C   UNL A   1      44.310  29.126  26.952  1.00  0.00     0.031 C 
ATOM     51  C   UNL A   1      38.448  27.971  30.060  1.00  0.00     0.029 A 
ATOM     52  C   UNL A   1      39.158  29.189  30.423  1.00  0.00     0.049 A 
ATOM     53  H   UNL A   1      41.231  29.469  30.368  1.00  0.00     0.167 HD
ATOM     54  C   UNL A   1      45.296  30.521  28.826  1.00  0.00     0.037 A 
ATOM     55  C   UNL A   1      38.685  30.383  30.856  1.00  0.00     0.037 A 
ATOM     56  C   UNL A   1      45.450  30.410  30.251  1.00  0.00     0.049 A 
ATOM     57  C   UNL A   1      39.846  31.184  31.325  1.00  0.00     0.074 A 
ATOM     58  C   UNL A   1      46.017  29.467  31.087  1.00  0.00     0.029 A 
ATOM     59  N   UNL A   1      44.674  31.203  31.058  1.00  0.00    -0.354 N 
ATOM     60  N   UNL A   1      40.533  30.925  32.403  1.00  0.00    -0.248 NA
ATOM     61  C   UNL A   1      40.516  32.041  30.356  1.00  0.00     0.031 C 
ATOM     62  C   UNL A   1      45.195  29.454  32.250  1.00  0.00     0.029 A 
ATOM     63  C   UNL A   1      44.196  30.411  32.070  1.00  0.00     0.049 A 
ATOM     64  H   UNL A   1      44.493  32.163  30.933  1.00  0.00     0.167 HD
ATOM     65  C   UNL A   1      41.846  31.220  32.067  1.00  0.00     0.074 A 
ATOM     66  C   UNL A   1      41.761  31.998  30.836  1.00  0.00     0.031 C 
ATOM     67  C   UNL A   1      42.887  30.565  32.658  1.00  0.00     0.037 A 
BRANCH  54  68
ATOM     68  C   UNL A   1      45.530  31.800  28.068  1.00  0.00     0.064 A 
ATOM     69  C   UNL A   1      44.425  32.554  27.636  1.00  0.00     0.173 A 
ATOM     70  C   UNL A   1      46.774  32.152  27.493  1.00  0.00     0.173 A 
ATOM     71  F   UNL A   1      43.194  32.287  28.099  1.00  0.00    -0.203 F 
ATOM     72  C   UNL A   1      44.545  33.533  26.647  1.00  0.00     0.198 A 
ATOM     73  C   UNL A   1      46.898  33.168  26.550  1.00  0.00     0.198 A 
ATOM     74  F   UNL A   1      47.894  31.459  27.729  1.00  0.00    -0.203 F 
ATOM     75  F   UNL A   1      43.446  34.135  26.173  1.00  0.00    -0.200 F 
ATOM     76  C   UNL A   1      45.780  33.835  26.102  1.00  0.00     0.200 A 
ATOM     77  F   UNL A   1      48.102  33.431  26.021  1.00  0.00    -0.200 F 
ATOM     78  F   UNL A   1      45.887  34.727  25.109  1.00  0.00    -0.200 F 
ENDBRANCH  54  68
BRANCH  55  79
ATOM     79  C   UNL A   1      37.358  30.988  30.595  1.00  0.00     0.064 A 
ATOM     80  C   UNL A   1      36.501  31.331  31.653  1.00  0.00     0.173 A 
ATOM     81  C   UNL A   1      37.004  31.476  29.321  1.00  0.00     0.173 A 
ATOM     82  F   UNL A   1      36.790  30.951  32.906  1.00  0.00    -0.203 F 
ATOM     83  C   UNL A   1      35.370  32.130  31.450  1.00  0.00     0.198 A 
ATOM     84  C   UNL A   1      35.867  32.258  29.118  1.00  0.00     0.198 A 
ATOM     85  F   UNL A   1      37.802  31.288  28.261  1.00  0.00    -0.203 F 
ATOM     86  F   UNL A   1      34.611  32.490  32.494  1.00  0.00    -0.200 F 
ATOM     87  C   UNL A   1      35.057  32.596  30.185  1.00  0.00     0.200 A 
ATOM     88  F   UNL A   1      35.597  32.732  27.893  1.00  0.00    -0.200 F 
ATOM     89  F   UNL A   1      34.005  33.404  29.999  1.00  0.00    -0.200 F 
ENDBRANCH  55  79
BRANCH  67  90
ATOM     90  C   UNL A   1      42.585  29.728  33.868  1.00  0.00     0.064 A 
ATOM     91  C   UNL A   1      42.187  28.380  33.805  1.00  0.00     0.173 A 
ATOM     92  C   UNL A   1      42.836  30.267  35.135  1.00  0.00     0.173 A 
ATOM     93  F   UNL A   1      42.032  27.761  32.627  1.00  0.00    -0.203 F 
ATOM     94  C   UNL A   1      42.000  27.628  34.962  1.00  0.00     0.198 A 
ATOM     95  C   UNL A   1      42.687  29.502  36.288  1.00  0.00     0.198 A 
ATOM     96  F   UNL A   1      43.276  31.531  35.252  1.00  0.00    -0.203 F 
ATOM     97  F   UNL A   1      41.602  26.350  34.877  1.00  0.00    -0.200 F 
ATOM     98  C   UNL A   1      42.256  28.188  36.203  1.00  0.00     0.200 A 
ATOM     99  F   UNL A   1      42.985  30.032  37.482  1.00  0.00    -0.200 F 
ATOM    100  F   UNL A   1      42.114  27.454  37.315  1.00  0.00    -0.200 F 
ENDBRANCH  67  90
ENDBRANCH  41  42
ENDBRANCH  34  36
ENDBRANCH  33  34
ENDBRANCH  32  33
ENDBRANCH  31  32
ENDBRANCH  30  31
ENDBRANCH  29  30
ENDBRANCH   1  29
TORSDOF 22
ENDMDL
MODEL 3
REMARK VINA RESULT:     -10.7      3.286      8.398
REMARK SMILES CC(C)(O)C#Cc1ccc(C(=O)N[C@@H](CCC(N)=O)C(=O)OCCOCCOC(=O)c2ccc(-c3c4nc(c(-c5c(F)c(F)c(F)c(F)c5F)c5ccc([nH]5)c(-c5c(F)c(F)c(F)c(F)c5F)c5nc(c(-c6c(F)c(F)c(F)c(F)c6F)c6ccc3[nH]6)C=C5)C=C4)cc2)s1
REMARK SMILES IDX 23 1 22 2 20 3 21 4 14 5 13 6 11 7 12 8 10 10 7 11 8 12
REMARK SMILES IDX 94 13 9 14 6 15 5 16 2 17 1 18 3 19 4 20 15 22 16 23 17 24
REMARK SMILES IDX 18 25 19 26 24 29 25 30 26 31 27 32 28 33 29 34 30 35 31 36
REMARK SMILES IDX 32 37 93 38 33 39 92 40 34 41 35 42 36 43 86 44 37 45 91 46
REMARK SMILES IDX 85 47 87 48 38 49 90 50 84 51 83 52 39 54 71 55 51 56 70 57
REMARK SMILES IDX 52 58 55 59 69 60 88 61 53 62 54 63 68 65 89 66 56 67 40 68
REMARK SMILES IDX 41 69 49 70 42 71 43 72 47 73 50 74 44 75 45 76 48 77 46 78
REMARK SMILES IDX 72 79 73 80 81 81 74 82 75 83 79 84 82 85 76 86 77 87 80 88
REMARK SMILES IDX 78 89 57 90 58 91 66 92 59 93 60 94 64 95 67 96 61 97 62 98
REMARK SMILES IDX 65 99 63 100
REMARK H PARENT 13 9 4 21 18 27 18 28 87 53 55 64
REMARK Flexibility Score: inf
ROOT
ATOM      1  C   UNL A   1      33.974  27.300  25.845  1.00  0.00     0.261 C 
ENDROOT
BRANCH   1   2
ATOM      2  O   UNL A   1      32.637  26.836  25.570  1.00  0.00    -0.462 OA
BRANCH   2   3
ATOM      3  C   UNL A   1      32.566  25.734  24.774  1.00  0.00     0.328 C 
ATOM      4  O   UNL A   1      33.528  25.227  24.200  1.00  0.00    -0.250 OA
BRANCH   3   5
ATOM      5  C   UNL A   1      31.131  25.206  24.567  1.00  0.00     0.193 C 
BRANCH   5   6
ATOM      6  N   UNL A   1      30.405  24.748  25.758  1.00  0.00    -0.338 N 
ATOM      7  C   UNL A   1      30.543  23.613  26.537  1.00  0.00     0.262 C 
ATOM      8  O   UNL A   1      29.671  23.434  27.390  1.00  0.00    -0.268 OA
ATOM      9  H   UNL A   1      29.692  25.358  26.055  1.00  0.00     0.164 HD
BRANCH   7  10
ATOM     10  C   UNL A   1      31.627  22.659  26.341  1.00  0.00     0.093 A 
ATOM     11  C   UNL A   1      32.986  20.720  25.659  1.00  0.00     0.078 A 
ATOM     12  C   UNL A   1      33.636  21.466  26.613  1.00  0.00     0.030 A 
ATOM     13  S   UNL A   1      31.620  21.517  25.077  1.00  0.00    -0.121 S 
ATOM     14  C   UNL A   1      32.852  22.607  26.996  1.00  0.00     0.027 A 
BRANCH  11  15
ATOM     15  C   UNL A   1      33.338  19.466  25.110  1.00  0.00    -0.053 C 
ATOM     16  C   UNL A   1      33.555  18.233  24.745  1.00  0.00    -0.063 C 
BRANCH  16  17
ATOM     17  C   UNL A   1      33.808  16.795  24.321  1.00  0.00     0.120 C 
ATOM     18  C   UNL A   1      34.906  16.186  25.189  1.00  0.00     0.056 C 
ATOM     19  C   UNL A   1      34.181  16.750  22.841  1.00  0.00     0.056 C 
BRANCH  17  20
ATOM     20  O   UNL A   1      32.603  16.063  24.514  1.00  0.00    -0.378 OA
ATOM     21  H   UNL A   1      32.113  16.437  25.262  1.00  0.00     0.212 HD
ENDBRANCH  17  20
ENDBRANCH  16  17
ENDBRANCH  11  15
ENDBRANCH   7  10
ENDBRANCH   5   6
BRANCH   5  22
ATOM     22  C   UNL A   1      30.313  26.195  23.717  1.00  0.00     0.047 C 
BRANCH  22  23
ATOM     23  C   UNL A   1      31.053  26.904  22.590  1.00  0.00     0.102 C 
BRANCH  23  24
ATOM     24  C   UNL A   1      30.916  28.406  22.615  1.00  0.00     0.217 C 
ATOM     25  N   UNL A   1      31.667  29.053  23.547  1.00  0.00    -0.370 N 
ATOM     26  O   UNL A   1      30.157  29.008  21.872  1.00  0.00    -0.275 OA
ATOM     27  H   UNL A   1      32.271  28.542  24.134  1.00  0.00     0.159 HD
ATOM     28  H   UNL A   1      31.608  30.031  23.635  1.00  0.00     0.159 HD
ENDBRANCH  23  24
ENDBRANCH  22  23
ENDBRANCH   5  22
ENDBRANCH   3   5
ENDBRANCH   2   3
ENDBRANCH   1   2
BRANCH   1  29
ATOM     29  C   UNL A   1      34.027  28.600  26.652  1.00  0.00     0.202 C 
BRANCH  29  30
ATOM     30  O   UNL A   1      33.423  29.766  26.095  1.00  0.00    -0.374 OA
BRANCH  30  31
ATOM     31  C   UNL A   1      32.639  30.601  26.937  1.00  0.00     0.202 C 
BRANCH  31  32
ATOM     32  C   UNL A   1      33.257  31.901  27.430  1.00  0.00     0.261 C 
BRANCH  32  33
ATOM     33  O   UNL A   1      34.128  31.698  28.541  1.00  0.00    -0.460 OA
BRANCH  33  34
ATOM     34  C   UNL A   1      35.395  32.058  28.308  1.00  0.00     0.338 C 
ATOM     35  O   UNL A   1      35.807  32.795  27.398  1.00  0.00    -0.246 OA
BRANCH  34  36
ATOM     36  C   UNL A   1      36.296  31.315  29.176  1.00  0.00     0.060 A 
ATOM     37  C   UNL A   1      37.332  32.062  29.749  1.00  0.00     0.016 A 
ATOM     38  C   UNL A   1      36.344  29.912  29.089  1.00  0.00     0.016 A 
ATOM     39  C   UNL A   1      38.531  31.435  29.967  1.00  0.00     0.010 A 
ATOM     40  C   UNL A   1      37.548  29.290  29.310  1.00  0.00     0.010 A 
ATOM     41  C   UNL A   1      38.645  30.081  29.644  1.00  0.00    -0.014 A 
BRANCH  41  42
ATOM     42  C   UNL A   1      39.971  29.506  29.707  1.00  0.00     0.031 A 
ATOM     43  C   UNL A   1      40.499  29.400  31.083  1.00  0.00     0.074 A 
ATOM     44  C   UNL A   1      40.595  29.053  28.605  1.00  0.00     0.049 A 
ATOM     45  N   UNL A   1      41.600  29.876  31.559  1.00  0.00    -0.248 NA
ATOM     46  C   UNL A   1      39.616  28.785  32.090  1.00  0.00     0.031 C 
ATOM     47  C   UNL A   1      40.039  28.877  27.260  1.00  0.00     0.029 A 
ATOM     48  N   UNL A   1      41.846  28.535  28.493  1.00  0.00    -0.354 N 
ATOM     49  C   UNL A   1      41.628  29.478  32.891  1.00  0.00     0.074 A 
ATOM     50  C   UNL A   1      40.329  28.944  33.200  1.00  0.00     0.031 C 
ATOM     51  C   UNL A   1      40.864  28.083  26.543  1.00  0.00     0.029 A 
ATOM     52  C   UNL A   1      42.044  27.788  27.342  1.00  0.00     0.049 A 
ATOM     53  H   UNL A   1      42.549  28.679  29.167  1.00  0.00     0.167 HD
ATOM     54  C   UNL A   1      42.797  29.393  33.576  1.00  0.00     0.037 A 
ATOM     55  C   UNL A   1      43.052  26.908  27.126  1.00  0.00     0.037 A 
ATOM     56  C   UNL A   1      43.814  30.230  33.000  1.00  0.00     0.049 A 
ATOM     57  C   UNL A   1      44.122  27.196  28.117  1.00  0.00     0.074 A 
ATOM     58  C   UNL A   1      43.929  31.590  32.779  1.00  0.00     0.029 A 
ATOM     59  N   UNL A   1      44.788  29.645  32.231  1.00  0.00    -0.354 N 
ATOM     60  N   UNL A   1      44.879  28.257  28.096  1.00  0.00    -0.248 NA
ATOM     61  C   UNL A   1      44.070  26.497  29.394  1.00  0.00     0.031 C 
ATOM     62  C   UNL A   1      44.641  31.711  31.551  1.00  0.00     0.029 A 
ATOM     63  C   UNL A   1      44.947  30.422  31.113  1.00  0.00     0.049 A 
ATOM     64  H   UNL A   1      45.281  28.819  32.443  1.00  0.00     0.167 HD
ATOM     65  C   UNL A   1      45.050  28.596  29.430  1.00  0.00     0.074 A 
ATOM     66  C   UNL A   1      44.620  27.423  30.182  1.00  0.00     0.031 C 
ATOM     67  C   UNL A   1      45.252  29.893  29.806  1.00  0.00     0.037 A 
BRANCH  54  68
ATOM     68  C   UNL A   1      43.098  28.266  34.527  1.00  0.00     0.064 A 
ATOM     69  C   UNL A   1      43.479  28.565  35.846  1.00  0.00     0.173 A 
ATOM     70  C   UNL A   1      43.318  26.931  34.114  1.00  0.00     0.173 A 
ATOM     71  F   UNL A   1      43.337  29.807  36.333  1.00  0.00    -0.203 F 
ATOM     72  C   UNL A   1      44.104  27.619  36.662  1.00  0.00     0.198 A 
ATOM     73  C   UNL A   1      43.888  25.976  34.949  1.00  0.00     0.198 A 
ATOM     74  F   UNL A   1      43.100  26.525  32.857  1.00  0.00    -0.203 F 
ATOM     75  F   UNL A   1      44.568  27.984  37.865  1.00  0.00    -0.200 F 
ATOM     76  C   UNL A   1      44.313  26.329  36.211  1.00  0.00     0.200 A 
ATOM     77  F   UNL A   1      44.099  24.736  34.485  1.00  0.00    -0.200 F 
ATOM     78  F   UNL A   1      44.969  25.440  36.968  1.00  0.00    -0.200 F 
ENDBRANCH  54  68
BRANCH  55  79
ATOM     79  C   UNL A   1      43.012  25.650  26.343  1.00  0.00     0.064 A 
ATOM     80  C   UNL A   1      44.037  25.331  25.439  1.00  0.00     0.173 A 
ATOM     81  C   UNL A   1      42.105  24.616  26.649  1.00  0.00     0.173 A 
ATOM     82  F   UNL A   1      44.973  26.240  25.131  1.00  0.00    -0.203 F 
ATOM     83  C   UNL A   1      44.156  24.050  24.888  1.00  0.00     0.198 A 
ATOM     84  C   UNL A   1      42.215  23.344  26.087  1.00  0.00     0.198 A 
ATOM     85  F   UNL A   1      41.147  24.784  27.572  1.00  0.00    -0.203 F 
ATOM     86  F   UNL A   1      45.185  23.764  24.078  1.00  0.00    -0.200 F 
ATOM     87  C   UNL A   1      43.249  23.057  25.217  1.00  0.00     0.200 A 
ATOM     88  F   UNL A   1      41.350  22.383  26.442  1.00  0.00    -0.200 F 
ATOM     89  F   UNL A   1      43.394  21.817  24.732  1.00  0.00    -0.200 F 
ENDBRANCH  55  79
BRANCH  67  90
ATOM     90  C   UNL A   1      45.560  30.889  28.725  1.00  0.00     0.064 A 
ATOM     91  C   UNL A   1      46.855  31.126  28.229  1.00  0.00     0.173 A 
ATOM     92  C   UNL A   1      44.494  31.526  28.077  1.00  0.00     0.173 A 
ATOM     93  F   UNL A   1      47.913  30.473  28.724  1.00  0.00    -0.203 F 
ATOM     94  C   UNL A   1      47.071  32.003  27.169  1.00  0.00     0.198 A 
ATOM     95  C   UNL A   1      44.709  32.370  26.992  1.00  0.00     0.198 A 
ATOM     96  F   UNL A   1      43.232  31.290  28.470  1.00  0.00    -0.203 F 
ATOM     97  F   UNL A   1      48.317  32.228  26.725  1.00  0.00    -0.200 F 
ATOM     98  C   UNL A   1      45.998  32.619  26.547  1.00  0.00     0.200 A 
ATOM     99  F   UNL A   1      43.665  32.924  26.362  1.00  0.00    -0.200 F 
ATOM    100  F   UNL A   1      46.202  33.432  25.501  1.00  0.00    -0.200 F 
ENDBRANCH  67  90
ENDBRANCH  41  42
ENDBRANCH  34  36
ENDBRANCH  33  34
ENDBRANCH  32  33
ENDBRANCH  31  32
ENDBRANCH  30  31
ENDBRANCH  29  30
ENDBRANCH   1  29
TORSDOF 22
ENDMDL
