MODEL 1
REMARK VINA RESULT:     -11.9      0.000      0.000
REMARK SMILES C[N@@H+]1[C@H]2CC[C@@H]1[C@@H](C(=O)OCCOCCOC(=O)c1ccc(-c3c4nc(c(-c5c(F)c(F)c(F)c(F)c5F)c5ccc([nH]5)c(-c5c(F)c(F)c(F)c(F)c5F)c5nc(c(-c6c(F)c(F)c(F)c(F)c6F)c6ccc3[nH]6)C=C5)C=C4)cc1)[C@@H](OC(=O)c1ccccc1)C2
REMARK SMILES IDX 12 1 11 2 10 3 8 4 9 5 7 6 1 7 2 8 3 9 6 10 4 12 92 13 5 14
REMARK SMILES IDX 82 15 83 16 84 17 85 18 86 19 87 20 91 21 88 22 90 23 89 24
REMARK SMILES IDX 13 25 14 26 15 27 16 28 17 29 18 30 19 31 20 32 81 33 21 34
REMARK SMILES IDX 80 35 22 36 23 37 24 38 74 39 25 40 79 41 73 42 75 43 26 44
REMARK SMILES IDX 78 45 72 46 71 47 27 49 59 50 39 51 58 52 40 53 43 54 57 55
REMARK SMILES IDX 76 56 41 57 42 58 56 60 77 61 44 62 28 63 29 64 37 65 30 66
REMARK SMILES IDX 31 67 35 68 38 69 32 70 33 71 36 72 34 73 60 74 61 75 69 76
REMARK SMILES IDX 62 77 63 78 67 79 70 80 64 81 65 82 68 83 66 84 45 85 46 86
REMARK SMILES IDX 54 87 47 88 48 89 52 90 55 91 49 92 50 93 53 94 51 95
REMARK H PARENT 2 11 75 48 43 59
REMARK Flexibility Score: inf
ROOT
ATOM      1  C   UNL A   1      32.427  29.628  26.944  1.00  0.00     0.202 C 
ENDROOT
BRANCH   1   2
ATOM      2  C   UNL A   1      32.073  28.204  27.397  1.00  0.00     0.261 C 
BRANCH   2   3
ATOM      3  O   UNL A   1      32.844  27.138  26.781  1.00  0.00    -0.463 OA
BRANCH   3   4
ATOM      4  C   UNL A   1      32.393  26.708  25.579  1.00  0.00     0.318 C 
ATOM      5  O   UNL A   1      32.669  27.265  24.515  1.00  0.00    -0.252 OA
BRANCH   4   6
ATOM      6  C   UNL A   1      31.377  25.583  25.591  1.00  0.00     0.198 C 
ATOM      7  C   UNL A   1      33.994  23.953  24.853  1.00  0.00     0.333 C 
ATOM      8  N   UNL A   1      32.815  23.486  25.548  1.00  0.00    -0.332 N 
ATOM      9  C   UNL A   1      31.803  22.845  24.716  1.00  0.00     0.188 C 
ATOM     10  C   UNL A   1      32.057  24.430  26.375  1.00  0.00     0.202 C 
ATOM     11  H   UNL A   1      33.306  22.830  26.155  1.00  0.00     0.348 HD
ATOM     12  C   UNL A   1      30.815  22.426  25.816  1.00  0.00     0.071 C 
ATOM     13  C   UNL A   1      31.188  23.834  23.705  1.00  0.00     0.111 C 
ATOM     14  C   UNL A   1      31.001  23.464  26.929  1.00  0.00     0.072 C 
ATOM     15  C   UNL A   1      30.565  25.079  24.364  1.00  0.00     0.203 C 
BRANCH  15  16
ATOM     16  O   UNL A   1      30.150  26.149  23.466  1.00  0.00    -0.457 OA
BRANCH  16  17
ATOM     17  C   UNL A   1      28.959  26.796  23.666  1.00  0.00     0.338 C 
ATOM     18  O   UNL A   1      27.942  26.333  24.147  1.00  0.00    -0.246 OA
BRANCH  17  19
ATOM     19  C   UNL A   1      28.991  28.170  23.097  1.00  0.00     0.060 A 
ATOM     20  C   UNL A   1      27.794  28.893  23.016  1.00  0.00     0.015 A 
ATOM     21  C   UNL A   1      30.167  28.725  22.581  1.00  0.00     0.015 A 
ATOM     22  C   UNL A   1      27.739  30.082  22.285  1.00  0.00     0.001 A 
ATOM     23  C   UNL A   1      30.113  29.930  21.870  1.00  0.00     0.001 A 
ATOM     24  C   UNL A   1      28.894  30.587  21.692  1.00  0.00     0.000 A 
ENDBRANCH  17  19
ENDBRANCH  16  17
ENDBRANCH  15  16
ENDBRANCH   4   6
ENDBRANCH   3   4
ENDBRANCH   2   3
ENDBRANCH   1   2
BRANCH   1  25
ATOM     25  O   UNL A   1      31.553  30.296  26.043  1.00  0.00    -0.374 OA
BRANCH  25  26
ATOM     26  C   UNL A   1      31.370  31.685  26.225  1.00  0.00     0.202 C 
BRANCH  26  27
ATOM     27  C   UNL A   1      32.279  32.409  27.221  1.00  0.00     0.261 C 
BRANCH  27  28
ATOM     28  O   UNL A   1      32.174  33.847  27.303  1.00  0.00    -0.460 OA
BRANCH  28  29
ATOM     29  C   UNL A   1      32.875  34.410  28.316  1.00  0.00     0.338 C 
ATOM     30  O   UNL A   1      32.499  35.324  29.036  1.00  0.00    -0.246 OA
BRANCH  29  31
ATOM     31  C   UNL A   1      34.155  33.716  28.595  1.00  0.00     0.060 A 
ATOM     32  C   UNL A   1      34.070  32.587  29.417  1.00  0.00     0.016 A 
ATOM     33  C   UNL A   1      35.411  34.227  28.253  1.00  0.00     0.016 A 
ATOM     34  C   UNL A   1      35.223  32.016  29.955  1.00  0.00     0.010 A 
ATOM     35  C   UNL A   1      36.573  33.665  28.814  1.00  0.00     0.010 A 
ATOM     36  C   UNL A   1      36.484  32.573  29.693  1.00  0.00    -0.014 A 
BRANCH  36  37
ATOM     37  C   UNL A   1      37.678  31.970  30.346  1.00  0.00     0.031 A 
ATOM     38  C   UNL A   1      38.075  32.348  31.748  1.00  0.00     0.074 A 
ATOM     39  C   UNL A   1      38.355  31.004  29.700  1.00  0.00     0.049 A 
ATOM     40  N   UNL A   1      39.007  31.831  32.513  1.00  0.00    -0.248 NA
ATOM     41  C   UNL A   1      37.326  33.444  32.377  1.00  0.00     0.031 C 
ATOM     42  C   UNL A   1      38.059  30.538  28.347  1.00  0.00     0.029 A 
ATOM     43  N   UNL A   1      39.416  30.228  30.100  1.00  0.00    -0.354 N 
ATOM     44  C   UNL A   1      38.942  32.519  33.718  1.00  0.00     0.074 A 
ATOM     45  C   UNL A   1      37.910  33.525  33.566  1.00  0.00     0.031 C 
ATOM     46  C   UNL A   1      38.905  29.544  28.032  1.00  0.00     0.029 A 
ATOM     47  C   UNL A   1      39.818  29.322  29.150  1.00  0.00     0.049 A 
ATOM     48  H   UNL A   1      39.846  30.313  30.981  1.00  0.00     0.167 HD
ATOM     49  C   UNL A   1      39.664  32.320  34.851  1.00  0.00     0.037 A 
ATOM     50  C   UNL A   1      40.814  28.414  29.176  1.00  0.00     0.037 A 
ATOM     51  C   UNL A   1      40.708  31.332  34.993  1.00  0.00     0.049 A 
ATOM     52  C   UNL A   1      41.650  28.268  30.420  1.00  0.00     0.074 A 
ATOM     53  C   UNL A   1      41.490  31.055  36.101  1.00  0.00     0.029 A 
ATOM     54  N   UNL A   1      41.124  30.468  33.990  1.00  0.00    -0.354 N 
ATOM     55  N   UNL A   1      41.541  28.886  31.570  1.00  0.00    -0.248 NA
ATOM     56  C   UNL A   1      42.742  27.286  30.371  1.00  0.00     0.031 C 
ATOM     57  C   UNL A   1      42.412  30.061  35.755  1.00  0.00     0.029 A 
ATOM     58  C   UNL A   1      42.166  29.675  34.448  1.00  0.00     0.049 A 
ATOM     59  H   UNL A   1      40.735  30.424  33.086  1.00  0.00     0.167 HD
ATOM     60  C   UNL A   1      42.525  28.347  32.389  1.00  0.00     0.074 A 
ATOM     61  C   UNL A   1      43.209  27.338  31.610  1.00  0.00     0.031 C 
ATOM     62  C   UNL A   1      42.835  28.663  33.671  1.00  0.00     0.037 A 
BRANCH  49  63
ATOM     63  C   UNL A   1      39.358  33.187  36.041  1.00  0.00     0.064 A 
ATOM     64  C   UNL A   1      38.519  32.741  37.073  1.00  0.00     0.173 A 
ATOM     65  C   UNL A   1      39.968  34.442  36.191  1.00  0.00     0.173 A 
ATOM     66  F   UNL A   1      37.910  31.550  36.982  1.00  0.00    -0.203 F 
ATOM     67  C   UNL A   1      38.285  33.528  38.199  1.00  0.00     0.198 A 
ATOM     68  C   UNL A   1      39.755  35.214  37.332  1.00  0.00     0.198 A 
ATOM     69  F   UNL A   1      40.793  34.911  35.243  1.00  0.00    -0.203 F 
ATOM     70  F   UNL A   1      37.451  33.096  39.156  1.00  0.00    -0.200 F 
ATOM     71  C   UNL A   1      38.908  34.759  38.331  1.00  0.00     0.200 A 
ATOM     72  F   UNL A   1      40.374  36.395  37.466  1.00  0.00    -0.200 F 
ATOM     73  F   UNL A   1      38.693  35.509  39.422  1.00  0.00    -0.200 F 
ENDBRANCH  49  63
BRANCH  50  74
ATOM     74  C   UNL A   1      41.078  27.565  27.984  1.00  0.00     0.064 A 
ATOM     75  C   UNL A   1      40.544  26.272  27.881  1.00  0.00     0.173 A 
ATOM     76  C   UNL A   1      41.899  28.018  26.940  1.00  0.00     0.173 A 
ATOM     77  F   UNL A   1      39.772  25.787  28.863  1.00  0.00    -0.203 F 
ATOM     78  C   UNL A   1      40.847  25.454  26.794  1.00  0.00     0.198 A 
ATOM     79  C   UNL A   1      42.172  27.211  25.838  1.00  0.00     0.198 A 
ATOM     80  F   UNL A   1      42.432  29.247  26.988  1.00  0.00    -0.203 F 
ATOM     81  F   UNL A   1      40.373  24.202  26.751  1.00  0.00    -0.200 F 
ATOM     82  C   UNL A   1      41.656  25.926  25.772  1.00  0.00     0.200 A 
ATOM     83  F   UNL A   1      42.941  27.677  24.845  1.00  0.00    -0.200 F 
ATOM     84  F   UNL A   1      41.948  25.138  24.728  1.00  0.00    -0.200 F 
ENDBRANCH  50  74
BRANCH  62  85
ATOM     85  C   UNL A   1      43.935  27.876  34.328  1.00  0.00     0.064 A 
ATOM     86  C   UNL A   1      43.685  26.662  34.985  1.00  0.00     0.173 A 
ATOM     87  C   UNL A   1      45.261  28.333  34.280  1.00  0.00     0.173 A 
ATOM     88  F   UNL A   1      42.432  26.188  35.075  1.00  0.00    -0.203 F 
ATOM     89  C   UNL A   1      44.715  25.952  35.598  1.00  0.00     0.198 A 
ATOM     90  C   UNL A   1      46.294  27.603  34.865  1.00  0.00     0.198 A 
ATOM     91  F   UNL A   1      45.558  29.484  33.660  1.00  0.00    -0.203 F 
ATOM     92  F   UNL A   1      44.442  24.825  36.268  1.00  0.00    -0.200 F 
ATOM     93  C   UNL A   1      46.019  26.419  35.531  1.00  0.00     0.200 A 
ATOM     94  F   UNL A   1      47.555  28.050  34.787  1.00  0.00    -0.200 F 
ATOM     95  F   UNL A   1      47.009  25.733  36.116  1.00  0.00    -0.200 F 
ENDBRANCH  62  85
ENDBRANCH  36  37
ENDBRANCH  29  31
ENDBRANCH  28  29
ENDBRANCH  27  28
ENDBRANCH  26  27
ENDBRANCH  25  26
ENDBRANCH   1  25
TORSDOF 17
ENDMDL
MODEL 2
REMARK VINA RESULT:     -11.8      4.754     10.234
REMARK SMILES C[N@@H+]1[C@H]2CC[C@@H]1[C@@H](C(=O)OCCOCCOC(=O)c1ccc(-c3c4nc(c(-c5c(F)c(F)c(F)c(F)c5F)c5ccc([nH]5)c(-c5c(F)c(F)c(F)c(F)c5F)c5nc(c(-c6c(F)c(F)c(F)c(F)c6F)c6ccc3[nH]6)C=C5)C=C4)cc1)[C@@H](OC(=O)c1ccccc1)C2
REMARK SMILES IDX 12 1 11 2 10 3 8 4 9 5 7 6 1 7 2 8 3 9 6 10 4 12 92 13 5 14
REMARK SMILES IDX 82 15 83 16 84 17 85 18 86 19 87 20 91 21 88 22 90 23 89 24
REMARK SMILES IDX 13 25 14 26 15 27 16 28 17 29 18 30 19 31 20 32 81 33 21 34
REMARK SMILES IDX 80 35 22 36 23 37 24 38 74 39 25 40 79 41 73 42 75 43 26 44
REMARK SMILES IDX 78 45 72 46 71 47 27 49 59 50 39 51 58 52 40 53 43 54 57 55
REMARK SMILES IDX 76 56 41 57 42 58 56 60 77 61 44 62 28 63 29 64 37 65 30 66
REMARK SMILES IDX 31 67 35 68 38 69 32 70 33 71 36 72 34 73 60 74 61 75 69 76
REMARK SMILES IDX 62 77 63 78 67 79 70 80 64 81 65 82 68 83 66 84 45 85 46 86
REMARK SMILES IDX 54 87 47 88 48 89 52 90 55 91 49 92 50 93 53 94 51 95
REMARK H PARENT 2 11 75 48 43 59
REMARK Flexibility Score: inf
ROOT
ATOM      1  C   UNL A   1      36.267  23.893  25.746  1.00  0.00     0.202 C 
ENDROOT
BRANCH   1   2
ATOM      2  C   UNL A   1      35.346  24.057  24.528  1.00  0.00     0.261 C 
BRANCH   2   3
ATOM      3  O   UNL A   1      34.313  25.070  24.653  1.00  0.00    -0.463 OA
BRANCH   3   4
ATOM      4  C   UNL A   1      33.515  25.231  23.570  1.00  0.00     0.318 C 
ATOM      5  O   UNL A   1      33.878  24.976  22.421  1.00  0.00    -0.252 OA
BRANCH   4   6
ATOM      6  C   UNL A   1      32.178  25.906  23.799  1.00  0.00     0.198 C 
ATOM      7  C   UNL A   1      34.032  28.456  23.469  1.00  0.00     0.333 C 
ATOM      8  N   UNL A   1      32.622  28.330  23.171  1.00  0.00    -0.332 N 
ATOM      9  C   UNL A   1      31.713  28.741  24.233  1.00  0.00     0.188 C 
ATOM     10  C   UNL A   1      32.102  27.031  22.733  1.00  0.00     0.202 C 
ATOM     11  H   UNL A   1      32.626  28.972  22.378  1.00  0.00     0.348 HD
ATOM     12  C   UNL A   1      30.377  28.552  23.496  1.00  0.00     0.071 C 
ATOM     13  C   UNL A   1      31.843  27.837  25.476  1.00  0.00     0.111 C 
ATOM     14  C   UNL A   1      30.643  27.433  22.482  1.00  0.00     0.072 C 
ATOM     15  C   UNL A   1      31.606  26.344  25.177  1.00  0.00     0.203 C 
BRANCH  15  16
ATOM     16  O   UNL A   1      31.912  25.411  26.254  1.00  0.00    -0.457 OA
BRANCH  16  17
ATOM     17  C   UNL A   1      31.107  24.325  26.477  1.00  0.00     0.338 C 
ATOM     18  O   UNL A   1      29.955  24.332  26.869  1.00  0.00    -0.246 OA
BRANCH  17  19
ATOM     19  C   UNL A   1      31.857  23.054  26.297  1.00  0.00     0.060 A 
ATOM     20  C   UNL A   1      32.763  22.659  27.291  1.00  0.00     0.015 A 
ATOM     21  C   UNL A   1      31.732  22.285  25.134  1.00  0.00     0.015 A 
ATOM     22  C   UNL A   1      33.647  21.604  27.057  1.00  0.00     0.001 A 
ATOM     23  C   UNL A   1      32.605  21.212  24.914  1.00  0.00     0.001 A 
ATOM     24  C   UNL A   1      33.584  20.897  25.858  1.00  0.00     0.000 A 
ENDBRANCH  17  19
ENDBRANCH  16  17
ENDBRANCH  15  16
ENDBRANCH   4   6
ENDBRANCH   3   4
ENDBRANCH   2   3
ENDBRANCH   1   2
BRANCH   1  25
ATOM     25  O   UNL A   1      36.695  22.586  26.108  1.00  0.00    -0.374 OA
BRANCH  25  26
ATOM     26  C   UNL A   1      37.089  21.718  25.065  1.00  0.00     0.202 C 
BRANCH  26  27
ATOM     27  C   UNL A   1      38.160  20.668  25.365  1.00  0.00     0.261 C 
BRANCH  27  28
ATOM     28  O   UNL A   1      39.532  21.111  25.439  1.00  0.00    -0.460 OA
BRANCH  28  29
ATOM     29  C   UNL A   1      40.098  21.004  26.665  1.00  0.00     0.338 C 
ATOM     30  O   UNL A   1      40.403  19.966  27.233  1.00  0.00    -0.246 OA
BRANCH  29  31
ATOM     31  C   UNL A   1      40.468  22.314  27.252  1.00  0.00     0.060 A 
ATOM     32  C   UNL A   1      40.023  23.443  26.556  1.00  0.00     0.016 A 
ATOM     33  C   UNL A   1      41.368  22.468  28.312  1.00  0.00     0.016 A 
ATOM     34  C   UNL A   1      40.526  24.707  26.863  1.00  0.00     0.010 A 
ATOM     35  C   UNL A   1      41.892  23.740  28.607  1.00  0.00     0.010 A 
ATOM     36  C   UNL A   1      41.496  24.865  27.865  1.00  0.00    -0.014 A 
BRANCH  36  37
ATOM     37  C   UNL A   1      42.053  26.223  28.108  1.00  0.00     0.031 A 
ATOM     38  C   UNL A   1      43.400  26.623  27.568  1.00  0.00     0.074 A 
ATOM     39  C   UNL A   1      41.294  27.133  28.744  1.00  0.00     0.049 A 
ATOM     40  N   UNL A   1      43.980  27.800  27.578  1.00  0.00    -0.248 NA
ATOM     41  C   UNL A   1      44.198  25.568  26.929  1.00  0.00     0.031 C 
ATOM     42  C   UNL A   1      39.967  26.874  29.298  1.00  0.00     0.029 A 
ATOM     43  N   UNL A   1      41.518  28.461  29.014  1.00  0.00    -0.354 N 
ATOM     44  C   UNL A   1      45.197  27.634  26.928  1.00  0.00     0.074 A 
ATOM     45  C   UNL A   1      45.294  26.231  26.578  1.00  0.00     0.031 C 
ATOM     46  C   UNL A   1      39.484  28.010  29.828  1.00  0.00     0.029 A 
ATOM     47  C   UNL A   1      40.478  29.069  29.673  1.00  0.00     0.049 A 
ATOM     48  H   UNL A   1      42.344  28.932  28.759  1.00  0.00     0.167 HD
ATOM     49  C   UNL A   1      46.138  28.569  26.636  1.00  0.00     0.037 A 
ATOM     50  C   UNL A   1      40.341  30.337  30.106  1.00  0.00     0.037 A 
ATOM     51  C   UNL A   1      46.051  29.961  27.005  1.00  0.00     0.049 A 
ATOM     52  C   UNL A   1      41.437  31.334  29.835  1.00  0.00     0.074 A 
ATOM     53  C   UNL A   1      46.952  30.982  26.749  1.00  0.00     0.029 A 
ATOM     54  N   UNL A   1      45.005  30.529  27.719  1.00  0.00    -0.354 N 
ATOM     55  N   UNL A   1      42.555  31.177  29.171  1.00  0.00    -0.248 NA
ATOM     56  C   UNL A   1      41.242  32.691  30.366  1.00  0.00     0.031 C 
ATOM     57  C   UNL A   1      46.479  32.152  27.352  1.00  0.00     0.029 A 
ATOM     58  C   UNL A   1      45.252  31.877  27.933  1.00  0.00     0.049 A 
ATOM     59  H   UNL A   1      44.205  30.045  28.029  1.00  0.00     0.167 HD
ATOM     60  C   UNL A   1      43.180  32.419  29.176  1.00  0.00     0.074 A 
ATOM     61  C   UNL A   1      42.306  33.323  29.893  1.00  0.00     0.031 C 
ATOM     62  C   UNL A   1      44.372  32.775  28.637  1.00  0.00     0.037 A 
BRANCH  49  63
ATOM     63  C   UNL A   1      47.357  28.124  25.875  1.00  0.00     0.064 A 
ATOM     64  C   UNL A   1      48.557  27.817  26.533  1.00  0.00     0.173 A 
ATOM     65  C   UNL A   1      47.304  27.925  24.486  1.00  0.00     0.173 A 
ATOM     66  F   UNL A   1      48.664  27.988  27.859  1.00  0.00    -0.203 F 
ATOM     67  C   UNL A   1      49.665  27.351  25.827  1.00  0.00     0.198 A 
ATOM     68  C   UNL A   1      48.404  27.432  23.787  1.00  0.00     0.198 A 
ATOM     69  F   UNL A   1      46.176  28.186  23.808  1.00  0.00    -0.203 F 
ATOM     70  F   UNL A   1      50.812  27.099  26.473  1.00  0.00    -0.200 F 
ATOM     71  C   UNL A   1      49.585  27.152  24.457  1.00  0.00     0.200 A 
ATOM     72  F   UNL A   1      48.318  27.221  22.466  1.00  0.00    -0.200 F 
ATOM     73  F   UNL A   1      50.647  26.691  23.782  1.00  0.00    -0.200 F 
ENDBRANCH  49  63
BRANCH  50  74
ATOM     74  C   UNL A   1      39.115  30.744  30.843  1.00  0.00     0.064 A 
ATOM     75  C   UNL A   1      39.029  30.613  32.236  1.00  0.00     0.173 A 
ATOM     76  C   UNL A   1      37.993  31.240  30.163  1.00  0.00     0.173 A 
ATOM     77  F   UNL A   1      40.067  30.123  32.929  1.00  0.00    -0.203 F 
ATOM     78  C   UNL A   1      37.855  30.933  32.917  1.00  0.00     0.198 A 
ATOM     79  C   UNL A   1      36.832  31.592  30.850  1.00  0.00     0.198 A 
ATOM     80  F   UNL A   1      38.024  31.388  28.831  1.00  0.00    -0.203 F 
ATOM     81  F   UNL A   1      37.779  30.740  34.241  1.00  0.00    -0.200 F 
ATOM     82  C   UNL A   1      36.761  31.427  32.224  1.00  0.00     0.200 A 
ATOM     83  F   UNL A   1      35.783  32.084  30.177  1.00  0.00    -0.200 F 
ATOM     84  F   UNL A   1      35.632  31.733  32.879  1.00  0.00    -0.200 F 
ENDBRANCH  50  74
BRANCH  62  85
ATOM     85  C   UNL A   1      44.781  34.216  28.762  1.00  0.00     0.064 A 
ATOM     86  C   UNL A   1      45.589  34.667  29.817  1.00  0.00     0.173 A 
ATOM     87  C   UNL A   1      44.379  35.155  27.799  1.00  0.00     0.173 A 
ATOM     88  F   UNL A   1      45.988  33.814  30.773  1.00  0.00    -0.203 F 
ATOM     89  C   UNL A   1      45.950  36.009  29.922  1.00  0.00     0.198 A 
ATOM     90  C   UNL A   1      44.769  36.489  27.889  1.00  0.00     0.198 A 
ATOM     91  F   UNL A   1      43.611  34.778  26.766  1.00  0.00    -0.203 F 
ATOM     92  F   UNL A   1      46.673  36.425  30.970  1.00  0.00    -0.200 F 
ATOM     93  C   UNL A   1      45.546  36.916  28.955  1.00  0.00     0.200 A 
ATOM     94  F   UNL A   1      44.389  37.362  26.946  1.00  0.00    -0.200 F 
ATOM     95  F   UNL A   1      45.897  38.205  29.055  1.00  0.00    -0.200 F 
ENDBRANCH  62  85
ENDBRANCH  36  37
ENDBRANCH  29  31
ENDBRANCH  28  29
ENDBRANCH  27  28
ENDBRANCH  26  27
ENDBRANCH  25  26
ENDBRANCH   1  25
TORSDOF 17
ENDMDL
MODEL 3
REMARK VINA RESULT:     -11.8      1.260      2.025
REMARK SMILES C[N@@H+]1[C@H]2CC[C@@H]1[C@@H](C(=O)OCCOCCOC(=O)c1ccc(-c3c4nc(c(-c5c(F)c(F)c(F)c(F)c5F)c5ccc([nH]5)c(-c5c(F)c(F)c(F)c(F)c5F)c5nc(c(-c6c(F)c(F)c(F)c(F)c6F)c6ccc3[nH]6)C=C5)C=C4)cc1)[C@@H](OC(=O)c1ccccc1)C2
REMARK SMILES IDX 12 1 11 2 10 3 8 4 9 5 7 6 1 7 2 8 3 9 6 10 4 12 92 13 5 14
REMARK SMILES IDX 82 15 83 16 84 17 85 18 86 19 87 20 91 21 88 22 90 23 89 24
REMARK SMILES IDX 13 25 14 26 15 27 16 28 17 29 18 30 19 31 20 32 81 33 21 34
REMARK SMILES IDX 80 35 22 36 23 37 24 38 74 39 25 40 79 41 73 42 75 43 26 44
REMARK SMILES IDX 78 45 72 46 71 47 27 49 59 50 39 51 58 52 40 53 43 54 57 55
REMARK SMILES IDX 76 56 41 57 42 58 56 60 77 61 44 62 28 63 29 64 37 65 30 66
REMARK SMILES IDX 31 67 35 68 38 69 32 70 33 71 36 72 34 73 60 74 61 75 69 76
REMARK SMILES IDX 62 77 63 78 67 79 70 80 64 81 65 82 68 83 66 84 45 85 46 86
REMARK SMILES IDX 54 87 47 88 48 89 52 90 55 91 49 92 50 93 53 94 51 95
REMARK H PARENT 2 11 75 48 43 59
REMARK Flexibility Score: inf
ROOT
ATOM      1  C   UNL A   1      31.793  28.487  27.175  1.00  0.00     0.202 C 
ENDROOT
BRANCH   1   2
ATOM      2  C   UNL A   1      31.249  27.197  26.543  1.00  0.00     0.261 C 
BRANCH   2   3
ATOM      3  O   UNL A   1      31.982  25.984  26.860  1.00  0.00    -0.463 OA
BRANCH   3   4
ATOM      4  C   UNL A   1      32.890  25.588  25.936  1.00  0.00     0.318 C 
ATOM      5  O   UNL A   1      33.935  26.200  25.713  1.00  0.00    -0.252 OA
BRANCH   4   6
ATOM      6  C   UNL A   1      32.497  24.427  25.044  1.00  0.00     0.198 C 
ATOM      7  C   UNL A   1      34.319  22.911  27.149  1.00  0.00     0.333 C 
ATOM      8  N   UNL A   1      33.213  22.385  26.379  1.00  0.00    -0.332 N 
ATOM      9  C   UNL A   1      33.571  21.729  25.128  1.00  0.00     0.188 C 
ATOM     10  C   UNL A   1      32.111  23.281  26.015  1.00  0.00     0.202 C 
ATOM     11  H   UNL A   1      32.891  21.733  27.094  1.00  0.00     0.348 HD
ATOM     12  C   UNL A   1      32.176  21.247  24.699  1.00  0.00     0.071 C 
ATOM     13  C   UNL A   1      34.196  22.719  24.124  1.00  0.00     0.111 C 
ATOM     14  C   UNL A   1      31.204  22.264  25.310  1.00  0.00     0.072 C 
ATOM     15  C   UNL A   1      33.291  23.924  23.806  1.00  0.00     0.203 C 
BRANCH  15  16
ATOM     16  O   UNL A   1      33.894  25.001  23.030  1.00  0.00    -0.457 OA
BRANCH  16  17
ATOM     17  C   UNL A   1      33.247  25.509  21.934  1.00  0.00     0.338 C 
ATOM     18  O   UNL A   1      33.310  25.103  20.789  1.00  0.00    -0.246 OA
BRANCH  17  19
ATOM     19  C   UNL A   1      32.506  26.752  22.276  1.00  0.00     0.060 A 
ATOM     20  C   UNL A   1      33.234  27.884  22.668  1.00  0.00     0.015 A 
ATOM     21  C   UNL A   1      31.107  26.796  22.284  1.00  0.00     0.015 A 
ATOM     22  C   UNL A   1      32.576  28.988  23.214  1.00  0.00     0.001 A 
ATOM     23  C   UNL A   1      30.451  27.915  22.811  1.00  0.00     0.001 A 
ATOM     24  C   UNL A   1      31.186  28.993  23.308  1.00  0.00     0.000 A 
ENDBRANCH  17  19
ENDBRANCH  16  17
ENDBRANCH  15  16
ENDBRANCH   4   6
ENDBRANCH   3   4
ENDBRANCH   2   3
ENDBRANCH   1   2
BRANCH   1  25
ATOM     25  O   UNL A   1      31.417  29.736  26.611  1.00  0.00    -0.374 OA
BRANCH  25  26
ATOM     26  C   UNL A   1      32.344  30.798  26.707  1.00  0.00     0.202 C 
BRANCH  26  27
ATOM     27  C   UNL A   1      31.827  32.172  27.139  1.00  0.00     0.261 C 
BRANCH  27  28
ATOM     28  O   UNL A   1      32.705  33.304  26.966  1.00  0.00    -0.460 OA
BRANCH  28  29
ATOM     29  C   UNL A   1      33.279  33.757  28.106  1.00  0.00     0.338 C 
ATOM     30  O   UNL A   1      32.786  34.542  28.904  1.00  0.00    -0.246 OA
BRANCH  29  31
ATOM     31  C   UNL A   1      34.571  33.097  28.409  1.00  0.00     0.060 A 
ATOM     32  C   UNL A   1      34.497  31.937  29.187  1.00  0.00     0.016 A 
ATOM     33  C   UNL A   1      35.821  33.663  28.133  1.00  0.00     0.016 A 
ATOM     34  C   UNL A   1      35.649  31.387  29.748  1.00  0.00     0.010 A 
ATOM     35  C   UNL A   1      36.981  33.121  28.717  1.00  0.00     0.010 A 
ATOM     36  C   UNL A   1      36.899  31.995  29.554  1.00  0.00    -0.014 A 
BRANCH  36  37
ATOM     37  C   UNL A   1      38.089  31.411  30.230  1.00  0.00     0.031 A 
ATOM     38  C   UNL A   1      38.427  31.760  31.654  1.00  0.00     0.074 A 
ATOM     39  C   UNL A   1      38.817  30.485  29.580  1.00  0.00     0.049 A 
ATOM     40  N   UNL A   1      39.349  31.249  32.435  1.00  0.00    -0.248 NA
ATOM     41  C   UNL A   1      37.623  32.814  32.287  1.00  0.00     0.031 C 
ATOM     42  C   UNL A   1      38.580  30.049  28.205  1.00  0.00     0.029 A 
ATOM     43  N   UNL A   1      39.887  29.730  29.993  1.00  0.00    -0.354 N 
ATOM     44  C   UNL A   1      39.223  31.900  33.656  1.00  0.00     0.074 A 
ATOM     45  C   UNL A   1      38.165  32.878  33.498  1.00  0.00     0.031 C 
ATOM     46  C   UNL A   1      39.467  29.091  27.892  1.00  0.00     0.029 A 
ATOM     47  C   UNL A   1      40.349  28.864  29.033  1.00  0.00     0.049 A 
ATOM     48  H   UNL A   1      40.285  29.803  30.891  1.00  0.00     0.167 HD
ATOM     49  C   UNL A   1      39.913  31.690  34.807  1.00  0.00     0.037 A 
ATOM     50  C   UNL A   1      41.371  27.987  29.067  1.00  0.00     0.037 A 
ATOM     51  C   UNL A   1      40.982  30.731  34.956  1.00  0.00     0.049 A 
ATOM     52  C   UNL A   1      42.170  27.831  30.334  1.00  0.00     0.074 A 
ATOM     53  C   UNL A   1      41.736  30.445  36.082  1.00  0.00     0.029 A 
ATOM     54  N   UNL A   1      41.457  29.909  33.945  1.00  0.00    -0.354 N 
ATOM     55  N   UNL A   1      42.003  28.412  31.497  1.00  0.00    -0.248 NA
ATOM     56  C   UNL A   1      43.294  26.884  30.294  1.00  0.00     0.031 C 
ATOM     57  C   UNL A   1      42.700  29.490  35.740  1.00  0.00     0.029 A 
ATOM     58  C   UNL A   1      42.508  29.135  34.415  1.00  0.00     0.049 A 
ATOM     59  H   UNL A   1      41.100  29.879  33.027  1.00  0.00     0.167 HD
ATOM     60  C   UNL A   1      42.977  27.879  32.333  1.00  0.00     0.074 A 
ATOM     61  C   UNL A   1      43.718  26.914  31.549  1.00  0.00     0.031 C 
ATOM     62  C   UNL A   1      43.234  28.166  33.633  1.00  0.00     0.037 A 
BRANCH  49  63
ATOM     63  C   UNL A   1      39.540  32.512  36.009  1.00  0.00     0.064 A 
ATOM     64  C   UNL A   1      40.169  33.737  36.281  1.00  0.00     0.173 A 
ATOM     65  C   UNL A   1      38.493  32.114  36.855  1.00  0.00     0.173 A 
ATOM     66  F   UNL A   1      41.175  34.166  35.505  1.00  0.00    -0.203 F 
ATOM     67  C   UNL A   1      39.779  34.520  37.365  1.00  0.00     0.198 A 
ATOM     68  C   UNL A   1      38.086  32.913  37.922  1.00  0.00     0.198 A 
ATOM     69  F   UNL A   1      37.846  30.960  36.634  1.00  0.00    -0.203 F 
ATOM     70  F   UNL A   1      40.418  35.669  37.625  1.00  0.00    -0.200 F 
ATOM     71  C   UNL A   1      38.734  34.112  38.180  1.00  0.00     0.200 A 
ATOM     72  F   UNL A   1      37.063  32.526  38.697  1.00  0.00    -0.200 F 
ATOM     73  F   UNL A   1      38.351  34.873  39.215  1.00  0.00    -0.200 F 
ENDBRANCH  49  63
BRANCH  50  74
ATOM     74  C   UNL A   1      41.701  27.181  27.862  1.00  0.00     0.064 A 
ATOM     75  C   UNL A   1      41.099  25.936  27.634  1.00  0.00     0.173 A 
ATOM     76  C   UNL A   1      42.652  27.627  26.931  1.00  0.00     0.173 A 
ATOM     77  F   UNL A   1      40.201  25.457  28.506  1.00  0.00    -0.203 F 
ATOM     78  C   UNL A   1      41.459  25.153  26.538  1.00  0.00     0.198 A 
ATOM     79  C   UNL A   1      42.984  26.858  25.817  1.00  0.00     0.198 A 
ATOM     80  F   UNL A   1      43.255  28.812  27.100  1.00  0.00    -0.203 F 
ATOM     81  F   UNL A   1      40.913  23.940  26.378  1.00  0.00    -0.200 F 
ATOM     82  C   UNL A   1      42.396  25.617  25.629  1.00  0.00     0.200 A 
ATOM     83  F   UNL A   1      43.879  27.319  24.933  1.00  0.00    -0.200 F 
ATOM     84  F   UNL A   1      42.743  24.863  24.576  1.00  0.00    -0.200 F 
ENDBRANCH  50  74
BRANCH  62  85
ATOM     85  C   UNL A   1      44.336  27.395  34.305  1.00  0.00     0.064 A 
ATOM     86  C   UNL A   1      44.090  26.188  34.977  1.00  0.00     0.173 A 
ATOM     87  C   UNL A   1      45.660  27.858  34.256  1.00  0.00     0.173 A 
ATOM     88  F   UNL A   1      42.840  25.709  35.068  1.00  0.00    -0.203 F 
ATOM     89  C   UNL A   1      45.122  25.492  35.603  1.00  0.00     0.198 A 
ATOM     90  C   UNL A   1      46.694  27.143  34.854  1.00  0.00     0.198 A 
ATOM     91  F   UNL A   1      45.953  29.004  33.622  1.00  0.00    -0.203 F 
ATOM     92  F   UNL A   1      44.853  24.372  36.287  1.00  0.00    -0.200 F 
ATOM     93  C   UNL A   1      46.423  25.966  35.535  1.00  0.00     0.200 A 
ATOM     94  F   UNL A   1      47.953  27.596  34.775  1.00  0.00    -0.200 F 
ATOM     95  F   UNL A   1      47.415  25.293  36.133  1.00  0.00    -0.200 F 
ENDBRANCH  62  85
ENDBRANCH  36  37
ENDBRANCH  29  31
ENDBRANCH  28  29
ENDBRANCH  27  28
ENDBRANCH  26  27
ENDBRANCH  25  26
ENDBRANCH   1  25
TORSDOF 17
ENDMDL
