MODEL 1
REMARK VINA RESULT:     -11.5      0.000      0.000
REMARK SMILES O=C(OCCOCCOC(=O)c1ccccc1C(=O)N1CCS[C@H]1c1ccccc1)c1ccc(-c2c3nc(c(-c4c(F)c(F)c(F)c(F)c4F)c4ccc([nH]4)c(-c4c(F)c(F)c(F)c(F)c4F)c4nc(c(-c5c(F)c(F)c(F)c(F)c5F)c5ccc2[nH]5)C=C4)C=C3)cc1
REMARK SMILES IDX 7 1 6 2 5 3 4 4 3 5 2 6 1 7 31 8 32 9 93 10 33 11 92 12
REMARK SMILES IDX 34 13 35 14 36 15 86 16 37 17 91 18 85 19 87 20 38 21 90 22
REMARK SMILES IDX 84 23 83 24 39 26 71 27 51 28 70 29 52 30 55 31 69 32 88 33
REMARK SMILES IDX 53 34 54 35 68 37 89 38 56 39 40 40 41 41 49 42 42 43 43 44
REMARK SMILES IDX 47 45 50 46 44 47 45 48 48 49 46 50 72 51 73 52 81 53 74 54
REMARK SMILES IDX 75 55 79 56 82 57 76 58 77 59 80 60 78 61 57 62 58 63 66 64
REMARK SMILES IDX 59 65 60 66 64 67 67 68 61 69 62 70 65 71 63 72 8 73 9 74
REMARK SMILES IDX 10 75 11 76 12 77 13 78 17 79 14 80 16 81 15 82 18 83 19 84
REMARK SMILES IDX 20 85 21 86 24 87 22 88 23 89 25 90 26 91 30 92 27 93 29 94
REMARK SMILES IDX 28 95
REMARK H PARENT 87 25 55 36
REMARK Flexibility Score: inf
ROOT
ATOM      1  C   UNL A   1      32.790  30.401  26.136  1.00  0.00     0.202 C 
ENDROOT
BRANCH   1   2
ATOM      2  O   UNL A   1      31.578  30.827  26.737  1.00  0.00    -0.374 OA
BRANCH   2   3
ATOM      3  C   UNL A   1      31.366  32.230  26.752  1.00  0.00     0.202 C 
BRANCH   3   4
ATOM      4  C   UNL A   1      32.610  33.041  27.143  1.00  0.00     0.261 C 
BRANCH   4   5
ATOM      5  O   UNL A   1      32.297  34.251  27.861  1.00  0.00    -0.460 OA
BRANCH   5   6
ATOM      6  C   UNL A   1      33.013  34.841  28.851  1.00  0.00     0.338 C 
ATOM      7  O   UNL A   1      32.698  35.974  29.215  1.00  0.00    -0.246 OA
BRANCH   6   8
ATOM      8  C   UNL A   1      34.197  34.211  29.512  1.00  0.00     0.060 A 
ATOM      9  C   UNL A   1      35.518  34.396  29.107  1.00  0.00     0.016 A 
ATOM     10  C   UNL A   1      33.973  33.467  30.683  1.00  0.00     0.016 A 
ATOM     11  C   UNL A   1      36.585  33.858  29.801  1.00  0.00     0.010 A 
ATOM     12  C   UNL A   1      35.041  32.901  31.389  1.00  0.00     0.010 A 
ATOM     13  C   UNL A   1      36.350  33.092  30.932  1.00  0.00    -0.014 A 
BRANCH  13  14
ATOM     14  C   UNL A   1      37.498  32.347  31.462  1.00  0.00     0.031 A 
ATOM     15  C   UNL A   1      37.926  32.660  32.860  1.00  0.00     0.074 A 
ATOM     16  C   UNL A   1      37.986  31.296  30.783  1.00  0.00     0.049 A 
ATOM     17  N   UNL A   1      38.951  32.219  33.533  1.00  0.00    -0.248 NA
ATOM     18  C   UNL A   1      37.057  33.582  33.619  1.00  0.00     0.031 C 
ATOM     19  C   UNL A   1      37.469  30.803  29.505  1.00  0.00     0.029 A 
ATOM     20  N   UNL A   1      38.999  30.430  31.090  1.00  0.00    -0.354 N 
ATOM     21  C   UNL A   1      38.881  32.849  34.767  1.00  0.00     0.074 A 
ATOM     22  C   UNL A   1      37.696  33.672  34.774  1.00  0.00     0.031 C 
ATOM     23  C   UNL A   1      38.171  29.719  29.136  1.00  0.00     0.029 A 
ATOM     24  C   UNL A   1      39.236  29.499  30.108  1.00  0.00     0.049 A 
ATOM     25  H   UNL A   1      39.508  30.470  31.931  1.00  0.00     0.167 HD
ATOM     26  C   UNL A   1      39.766  32.762  35.784  1.00  0.00     0.037 A 
ATOM     27  C   UNL A   1      40.251  28.621  29.996  1.00  0.00     0.037 A 
ATOM     28  C   UNL A   1      40.927  31.919  35.728  1.00  0.00     0.049 A 
ATOM     29  C   UNL A   1      41.288  28.625  31.090  1.00  0.00     0.074 A 
ATOM     30  C   UNL A   1      41.955  31.791  36.639  1.00  0.00     0.029 A 
ATOM     31  N   UNL A   1      41.200  31.050  34.678  1.00  0.00    -0.354 N 
ATOM     32  N   UNL A   1      41.301  29.306  32.214  1.00  0.00    -0.248 NA
ATOM     33  C   UNL A   1      42.467  27.774  30.890  1.00  0.00     0.031 C 
ATOM     34  C   UNL A   1      42.876  30.876  36.117  1.00  0.00     0.029 A 
ATOM     35  C   UNL A   1      42.397  30.399  34.905  1.00  0.00     0.049 A 
ATOM     36  H   UNL A   1      40.625  30.916  33.891  1.00  0.00     0.167 HD
ATOM     37  C   UNL A   1      42.485  28.971  32.854  1.00  0.00     0.074 A 
ATOM     38  C   UNL A   1      43.147  27.998  32.006  1.00  0.00     0.031 C 
ATOM     39  C   UNL A   1      42.998  29.431  34.021  1.00  0.00     0.037 A 
BRANCH  26  40
ATOM     40  C   UNL A   1      39.560  33.676  36.951  1.00  0.00     0.064 A 
ATOM     41  C   UNL A   1      38.807  33.304  38.074  1.00  0.00     0.173 A 
ATOM     42  C   UNL A   1      40.095  34.972  36.917  1.00  0.00     0.173 A 
ATOM     43  F   UNL A   1      38.240  32.091  38.136  1.00  0.00    -0.203 F 
ATOM     44  C   UNL A   1      38.586  34.205  39.114  1.00  0.00     0.198 A 
ATOM     45  C   UNL A   1      39.889  35.862  37.967  1.00  0.00     0.198 A 
ATOM     46  F   UNL A   1      40.805  35.382  35.855  1.00  0.00    -0.203 F 
ATOM     47  F   UNL A   1      37.820  33.850  40.156  1.00  0.00    -0.200 F 
ATOM     48  C   UNL A   1      39.130  35.481  39.063  1.00  0.00     0.200 A 
ATOM     49  F   UNL A   1      40.411  37.096  37.911  1.00  0.00    -0.200 F 
ATOM     50  F   UNL A   1      38.907  36.348  40.059  1.00  0.00    -0.200 F 
ENDBRANCH  26  40
BRANCH  27  51
ATOM     51  C   UNL A   1      40.401  27.775  28.779  1.00  0.00     0.064 A 
ATOM     52  C   UNL A   1      41.120  28.217  27.660  1.00  0.00     0.173 A 
ATOM     53  C   UNL A   1      39.781  26.517  28.690  1.00  0.00     0.173 A 
ATOM     54  F   UNL A   1      41.709  29.422  27.676  1.00  0.00    -0.203 F 
ATOM     55  C   UNL A   1      41.192  27.450  26.497  1.00  0.00     0.198 A 
ATOM     56  C   UNL A   1      39.884  25.734  27.540  1.00  0.00     0.198 A 
ATOM     57  F   UNL A   1      39.067  26.043  29.721  1.00  0.00    -0.203 F 
ATOM     58  F   UNL A   1      41.833  27.927  25.421  1.00  0.00    -0.200 F 
ATOM     59  C   UNL A   1      40.579  26.207  26.439  1.00  0.00     0.200 A 
ATOM     60  F   UNL A   1      39.296  24.532  27.497  1.00  0.00    -0.200 F 
ATOM     61  F   UNL A   1      40.642  25.475  25.319  1.00  0.00    -0.200 F 
ENDBRANCH  27  51
BRANCH  39  62
ATOM     62  C   UNL A   1      44.322  28.875  34.438  1.00  0.00     0.064 A 
ATOM     63  C   UNL A   1      44.409  27.694  35.189  1.00  0.00     0.173 A 
ATOM     64  C   UNL A   1      45.510  29.495  34.027  1.00  0.00     0.173 A 
ATOM     65  F   UNL A   1      43.296  27.079  35.615  1.00  0.00    -0.203 F 
ATOM     66  C   UNL A   1      45.647  27.159  35.526  1.00  0.00     0.198 A 
ATOM     67  C   UNL A   1      46.745  28.940  34.341  1.00  0.00     0.198 A 
ATOM     68  F   UNL A   1      45.469  30.622  33.301  1.00  0.00    -0.203 F 
ATOM     69  F   UNL A   1      45.714  26.049  36.273  1.00  0.00    -0.200 F 
ATOM     70  C   UNL A   1      46.813  27.776  35.094  1.00  0.00     0.200 A 
ATOM     71  F   UNL A   1      47.870  29.528  33.912  1.00  0.00    -0.200 F 
ATOM     72  F   UNL A   1      48.005  27.249  35.407  1.00  0.00    -0.200 F 
ENDBRANCH  39  62
ENDBRANCH  13  14
ENDBRANCH   6   8
ENDBRANCH   5   6
ENDBRANCH   4   5
ENDBRANCH   3   4
ENDBRANCH   2   3
ENDBRANCH   1   2
BRANCH   1  73
ATOM     73  C   UNL A   1      33.338  29.237  26.921  1.00  0.00     0.261 C 
BRANCH  73  74
ATOM     74  O   UNL A   1      32.927  27.987  26.367  1.00  0.00    -0.460 OA
BRANCH  74  75
ATOM     75  C   UNL A   1      31.792  27.475  26.894  1.00  0.00     0.339 C 
ATOM     76  O   UNL A   1      31.331  27.619  28.009  1.00  0.00    -0.246 OA
BRANCH  75  77
ATOM     77  C   UNL A   1      31.079  26.787  25.827  1.00  0.00     0.072 A 
ATOM     78  C   UNL A   1      30.316  27.628  24.990  1.00  0.00     0.016 A 
ATOM     79  C   UNL A   1      31.161  25.410  25.602  1.00  0.00     0.054 A 
ATOM     80  C   UNL A   1      29.666  27.110  23.876  1.00  0.00     0.001 A 
ATOM     81  C   UNL A   1      30.492  24.915  24.462  1.00  0.00     0.015 A 
ATOM     82  C   UNL A   1      29.764  25.752  23.607  1.00  0.00     0.001 A 
BRANCH  79  83
ATOM     83  C   UNL A   1      31.925  24.388  26.404  1.00  0.00     0.255 C 
ATOM     84  O   UNL A   1      31.429  24.005  27.466  1.00  0.00    -0.269 OA
BRANCH  83  85
ATOM     85  N   UNL A   1      33.135  23.830  25.964  1.00  0.00    -0.322 N 
ATOM     86  C   UNL A   1      33.802  23.019  26.982  1.00  0.00     0.132 C 
ATOM     87  C   UNL A   1      34.103  24.705  25.299  1.00  0.00     0.174 C 
ATOM     88  C   UNL A   1      35.160  22.555  26.493  1.00  0.00     0.093 C 
ATOM     89  S   UNL A   1      35.750  23.914  25.468  1.00  0.00    -0.130 SA
BRANCH  87  90
ATOM     90  C   UNL A   1      33.747  25.107  23.879  1.00  0.00    -0.015 A 
ATOM     91  C   UNL A   1      33.363  24.198  22.875  1.00  0.00     0.007 A 
ATOM     92  C   UNL A   1      33.777  26.474  23.545  1.00  0.00     0.007 A 
ATOM     93  C   UNL A   1      33.009  24.643  21.596  1.00  0.00     0.000 A 
ATOM     94  C   UNL A   1      33.408  26.919  22.274  1.00  0.00     0.000 A 
ATOM     95  C   UNL A   1      33.023  26.004  21.300  1.00  0.00     0.000 A 
ENDBRANCH  87  90
ENDBRANCH  83  85
ENDBRANCH  79  83
ENDBRANCH  75  77
ENDBRANCH  74  75
ENDBRANCH  73  74
ENDBRANCH   1  73
TORSDOF 17
ENDMDL
MODEL 2
REMARK VINA RESULT:     -11.5      0.704      7.356
REMARK SMILES O=C(OCCOCCOC(=O)c1ccccc1C(=O)N1CCS[C@H]1c1ccccc1)c1ccc(-c2c3nc(c(-c4c(F)c(F)c(F)c(F)c4F)c4ccc([nH]4)c(-c4c(F)c(F)c(F)c(F)c4F)c4nc(c(-c5c(F)c(F)c(F)c(F)c5F)c5ccc2[nH]5)C=C4)C=C3)cc1
REMARK SMILES IDX 7 1 6 2 5 3 4 4 3 5 2 6 1 7 31 8 32 9 93 10 33 11 92 12
REMARK SMILES IDX 34 13 35 14 36 15 86 16 37 17 91 18 85 19 87 20 38 21 90 22
REMARK SMILES IDX 84 23 83 24 39 26 71 27 51 28 70 29 52 30 55 31 69 32 88 33
REMARK SMILES IDX 53 34 54 35 68 37 89 38 56 39 40 40 41 41 49 42 42 43 43 44
REMARK SMILES IDX 47 45 50 46 44 47 45 48 48 49 46 50 72 51 73 52 81 53 74 54
REMARK SMILES IDX 75 55 79 56 82 57 76 58 77 59 80 60 78 61 57 62 58 63 66 64
REMARK SMILES IDX 59 65 60 66 64 67 67 68 61 69 62 70 65 71 63 72 8 73 9 74
REMARK SMILES IDX 10 75 11 76 12 77 13 78 17 79 14 80 16 81 15 82 18 83 19 84
REMARK SMILES IDX 20 85 21 86 24 87 22 88 23 89 25 90 26 91 30 92 27 93 29 94
REMARK SMILES IDX 28 95
REMARK H PARENT 87 25 55 36
REMARK Flexibility Score: inf
ROOT
ATOM      1  C   UNL A   1      32.277  30.460  25.922  1.00  0.00     0.202 C 
ENDROOT
BRANCH   1   2
ATOM      2  O   UNL A   1      31.389  31.152  26.784  1.00  0.00    -0.374 OA
BRANCH   2   3
ATOM      3  C   UNL A   1      31.460  32.568  26.721  1.00  0.00     0.202 C 
BRANCH   3   4
ATOM      4  C   UNL A   1      32.718  33.157  27.377  1.00  0.00     0.261 C 
BRANCH   4   5
ATOM      5  O   UNL A   1      32.454  34.344  28.150  1.00  0.00    -0.460 OA
BRANCH   5   6
ATOM      6  C   UNL A   1      33.183  34.849  29.177  1.00  0.00     0.338 C 
ATOM      7  O   UNL A   1      32.885  35.955  29.627  1.00  0.00    -0.246 OA
BRANCH   6   8
ATOM      8  C   UNL A   1      34.364  34.157  29.780  1.00  0.00     0.060 A 
ATOM      9  C   UNL A   1      34.283  33.165  30.756  1.00  0.00     0.016 A 
ATOM     10  C   UNL A   1      35.633  34.452  29.255  1.00  0.00     0.016 A 
ATOM     11  C   UNL A   1      35.399  32.496  31.222  1.00  0.00     0.010 A 
ATOM     12  C   UNL A   1      36.776  33.796  29.727  1.00  0.00     0.010 A 
ATOM     13  C   UNL A   1      36.651  32.824  30.725  1.00  0.00    -0.014 A 
BRANCH  13  14
ATOM     14  C   UNL A   1      37.801  32.263  31.444  1.00  0.00     0.031 A 
ATOM     15  C   UNL A   1      38.628  31.249  30.720  1.00  0.00     0.074 A 
ATOM     16  C   UNL A   1      38.194  32.806  32.609  1.00  0.00     0.049 A 
ATOM     17  N   UNL A   1      39.634  30.540  31.149  1.00  0.00    -0.248 NA
ATOM     18  C   UNL A   1      38.290  31.023  29.301  1.00  0.00     0.031 C 
ATOM     19  C   UNL A   1      37.552  33.947  33.266  1.00  0.00     0.029 A 
ATOM     20  N   UNL A   1      39.246  32.498  33.425  1.00  0.00    -0.354 N 
ATOM     21  C   UNL A   1      40.010  29.747  30.074  1.00  0.00     0.074 A 
ATOM     22  C   UNL A   1      39.158  30.085  28.959  1.00  0.00     0.031 C 
ATOM     23  C   UNL A   1      38.227  34.242  34.389  1.00  0.00     0.029 A 
ATOM     24  C   UNL A   1      39.289  33.259  34.568  1.00  0.00     0.049 A 
ATOM     25  H   UNL A   1      39.907  31.799  33.216  1.00  0.00     0.167 HD
ATOM     26  C   UNL A   1      40.967  28.795  30.052  1.00  0.00     0.037 A 
ATOM     27  C   UNL A   1      40.068  33.114  35.657  1.00  0.00     0.037 A 
ATOM     28  C   UNL A   1      41.793  28.504  31.190  1.00  0.00     0.049 A 
ATOM     29  C   UNL A   1      41.050  31.969  35.654  1.00  0.00     0.074 A 
ATOM     30  C   UNL A   1      42.742  27.514  31.346  1.00  0.00     0.029 A 
ATOM     31  N   UNL A   1      41.757  29.227  32.376  1.00  0.00    -0.354 N 
ATOM     32  N   UNL A   1      41.336  31.129  34.684  1.00  0.00    -0.248 NA
ATOM     33  C   UNL A   1      41.789  31.724  36.897  1.00  0.00     0.031 C 
ATOM     34  C   UNL A   1      43.247  27.611  32.647  1.00  0.00     0.029 A 
ATOM     35  C   UNL A   1      42.648  28.690  33.283  1.00  0.00     0.049 A 
ATOM     36  H   UNL A   1      41.183  30.008  32.543  1.00  0.00     0.167 HD
ATOM     37  C   UNL A   1      42.283  30.256  35.198  1.00  0.00     0.074 A 
ATOM     38  C   UNL A   1      42.548  30.692  36.556  1.00  0.00     0.031 C 
ATOM     39  C   UNL A   1      42.871  29.180  34.620  1.00  0.00     0.037 A 
BRANCH  26  40
ATOM     40  C   UNL A   1      41.068  27.952  28.819  1.00  0.00     0.064 A 
ATOM     41  C   UNL A   1      41.972  28.235  27.786  1.00  0.00     0.173 A 
ATOM     42  C   UNL A   1      40.201  26.862  28.654  1.00  0.00     0.173 A 
ATOM     43  F   UNL A   1      42.793  29.292  27.878  1.00  0.00    -0.203 F 
ATOM     44  C   UNL A   1      41.994  27.464  26.625  1.00  0.00     0.198 A 
ATOM     45  C   UNL A   1      40.239  26.081  27.501  1.00  0.00     0.198 A 
ATOM     46  F   UNL A   1      39.303  26.563  29.604  1.00  0.00    -0.203 F 
ATOM     47  F   UNL A   1      42.830  27.781  25.626  1.00  0.00    -0.200 F 
ATOM     48  C   UNL A   1      41.131  26.386  26.485  1.00  0.00     0.200 A 
ATOM     49  F   UNL A   1      39.400  25.044  27.367  1.00  0.00    -0.200 F 
ATOM     50  F   UNL A   1      41.148  25.652  25.365  1.00  0.00    -0.200 F 
ENDBRANCH  26  40
BRANCH  27  51
ATOM     51  C   UNL A   1      39.873  33.973  36.859  1.00  0.00     0.064 A 
ATOM     52  C   UNL A   1      39.027  33.589  37.908  1.00  0.00     0.173 A 
ATOM     53  C   UNL A   1      40.495  35.229  36.960  1.00  0.00     0.173 A 
ATOM     54  F   UNL A   1      38.384  32.413  37.853  1.00  0.00    -0.203 F 
ATOM     55  C   UNL A   1      38.792  34.433  38.994  1.00  0.00     0.198 A 
ATOM     56  C   UNL A   1      40.288  36.057  38.063  1.00  0.00     0.198 A 
ATOM     57  F   UNL A   1      41.305  35.661  35.982  1.00  0.00    -0.203 F 
ATOM     58  F   UNL A   1      37.929  34.066  39.951  1.00  0.00    -0.200 F 
ATOM     59  C   UNL A   1      39.426  35.664  39.073  1.00  0.00     0.200 A 
ATOM     60  F   UNL A   1      40.911  37.240  38.135  1.00  0.00    -0.200 F 
ATOM     61  F   UNL A   1      39.193  36.477  40.112  1.00  0.00    -0.200 F 
ENDBRANCH  27  51
BRANCH  39  62
ATOM     62  C   UNL A   1      43.855  28.424  35.456  1.00  0.00     0.064 A 
ATOM     63  C   UNL A   1      43.443  27.383  36.299  1.00  0.00     0.173 A 
ATOM     64  C   UNL A   1      45.225  28.703  35.359  1.00  0.00     0.173 A 
ATOM     65  F   UNL A   1      42.139  27.095  36.431  1.00  0.00    -0.203 F 
ATOM     66  C   UNL A   1      44.373  26.654  37.030  1.00  0.00     0.198 A 
ATOM     67  C   UNL A   1      46.154  27.952  36.070  1.00  0.00     0.198 A 
ATOM     68  F   UNL A   1      45.661  29.685  34.557  1.00  0.00    -0.203 F 
ATOM     69  F   UNL A   1      43.960  25.685  37.859  1.00  0.00    -0.200 F 
ATOM     70  C   UNL A   1      45.727  26.931  36.908  1.00  0.00     0.200 A 
ATOM     71  F   UNL A   1      47.462  28.210  35.940  1.00  0.00    -0.200 F 
ATOM     72  F   UNL A   1      46.623  26.216  37.602  1.00  0.00    -0.200 F 
ENDBRANCH  39  62
ENDBRANCH  13  14
ENDBRANCH   6   8
ENDBRANCH   5   6
ENDBRANCH   4   5
ENDBRANCH   3   4
ENDBRANCH   2   3
ENDBRANCH   1   2
BRANCH   1  73
ATOM     73  C   UNL A   1      33.012  29.414  26.719  1.00  0.00     0.261 C 
BRANCH  73  74
ATOM     74  O   UNL A   1      32.776  28.101  26.211  1.00  0.00    -0.460 OA
BRANCH  74  75
ATOM     75  C   UNL A   1      31.749  27.440  26.791  1.00  0.00     0.339 C 
ATOM     76  O   UNL A   1      31.365  27.479  27.944  1.00  0.00    -0.246 OA
BRANCH  75  77
ATOM     77  C   UNL A   1      31.033  26.727  25.744  1.00  0.00     0.072 A 
ATOM     78  C   UNL A   1      30.263  27.547  24.892  1.00  0.00     0.016 A 
ATOM     79  C   UNL A   1      31.117  25.345  25.549  1.00  0.00     0.054 A 
ATOM     80  C   UNL A   1      29.609  27.003  23.793  1.00  0.00     0.001 A 
ATOM     81  C   UNL A   1      30.444  24.823  24.423  1.00  0.00     0.015 A 
ATOM     82  C   UNL A   1      29.710  25.639  23.553  1.00  0.00     0.001 A 
BRANCH  79  83
ATOM     83  C   UNL A   1      31.888  24.344  26.369  1.00  0.00     0.255 C 
ATOM     84  O   UNL A   1      31.391  23.970  27.434  1.00  0.00    -0.269 OA
BRANCH  83  85
ATOM     85  N   UNL A   1      33.106  23.792  25.943  1.00  0.00    -0.322 N 
ATOM     86  C   UNL A   1      33.775  23.000  26.975  1.00  0.00     0.132 C 
ATOM     87  C   UNL A   1      34.070  24.670  25.275  1.00  0.00     0.174 C 
ATOM     88  C   UNL A   1      35.140  22.544  26.501  1.00  0.00     0.093 C 
ATOM     89  S   UNL A   1      35.724  23.897  25.464  1.00  0.00    -0.130 SA
BRANCH  87  90
ATOM     90  C   UNL A   1      33.720  25.052  23.848  1.00  0.00    -0.015 A 
ATOM     91  C   UNL A   1      33.356  24.128  22.851  1.00  0.00     0.007 A 
ATOM     92  C   UNL A   1      33.734  26.416  23.501  1.00  0.00     0.007 A 
ATOM     93  C   UNL A   1      33.007  24.555  21.565  1.00  0.00     0.000 A 
ATOM     94  C   UNL A   1      33.370  26.842  22.222  1.00  0.00     0.000 A 
ATOM     95  C   UNL A   1      33.005  25.912  21.255  1.00  0.00     0.000 A 
ENDBRANCH  87  90
ENDBRANCH  83  85
ENDBRANCH  79  83
ENDBRANCH  75  77
ENDBRANCH  74  75
ENDBRANCH  73  74
ENDBRANCH   1  73
TORSDOF 17
ENDMDL
MODEL 3
REMARK VINA RESULT:     -11.4      4.986     10.338
REMARK SMILES O=C(OCCOCCOC(=O)c1ccccc1C(=O)N1CCS[C@H]1c1ccccc1)c1ccc(-c2c3nc(c(-c4c(F)c(F)c(F)c(F)c4F)c4ccc([nH]4)c(-c4c(F)c(F)c(F)c(F)c4F)c4nc(c(-c5c(F)c(F)c(F)c(F)c5F)c5ccc2[nH]5)C=C4)C=C3)cc1
REMARK SMILES IDX 7 1 6 2 5 3 4 4 3 5 2 6 1 7 31 8 32 9 93 10 33 11 92 12
REMARK SMILES IDX 34 13 35 14 36 15 86 16 37 17 91 18 85 19 87 20 38 21 90 22
REMARK SMILES IDX 84 23 83 24 39 26 71 27 51 28 70 29 52 30 55 31 69 32 88 33
REMARK SMILES IDX 53 34 54 35 68 37 89 38 56 39 40 40 41 41 49 42 42 43 43 44
REMARK SMILES IDX 47 45 50 46 44 47 45 48 48 49 46 50 72 51 73 52 81 53 74 54
REMARK SMILES IDX 75 55 79 56 82 57 76 58 77 59 80 60 78 61 57 62 58 63 66 64
REMARK SMILES IDX 59 65 60 66 64 67 67 68 61 69 62 70 65 71 63 72 8 73 9 74
REMARK SMILES IDX 10 75 11 76 12 77 13 78 17 79 14 80 16 81 15 82 18 83 19 84
REMARK SMILES IDX 20 85 21 86 24 87 22 88 23 89 25 90 26 91 30 92 27 93 29 94
REMARK SMILES IDX 28 95
REMARK H PARENT 87 25 55 36
REMARK Flexibility Score: inf
ROOT
ATOM      1  C   UNL A   1      37.149  22.159  25.855  1.00  0.00     0.202 C 
ENDROOT
BRANCH   1   2
ATOM      2  O   UNL A   1      38.098  21.463  25.065  1.00  0.00    -0.374 OA
BRANCH   2   3
ATOM      3  C   UNL A   1      37.905  20.060  24.976  1.00  0.00     0.202 C 
BRANCH   3   4
ATOM      4  C   UNL A   1      38.951  19.240  25.747  1.00  0.00     0.261 C 
BRANCH   4   5
ATOM      5  O   UNL A   1      40.261  19.841  25.740  1.00  0.00    -0.460 OA
BRANCH   5   6
ATOM      6  C   UNL A   1      40.973  20.300  26.800  1.00  0.00     0.338 C 
ATOM      7  O   UNL A   1      41.390  19.492  27.628  1.00  0.00    -0.246 OA
BRANCH   6   8
ATOM      8  C   UNL A   1      41.255  21.748  27.050  1.00  0.00     0.060 A 
ATOM      9  C   UNL A   1      40.896  22.782  26.187  1.00  0.00     0.016 A 
ATOM     10  C   UNL A   1      41.828  22.098  28.284  1.00  0.00     0.016 A 
ATOM     11  C   UNL A   1      41.105  24.111  26.501  1.00  0.00     0.010 A 
ATOM     12  C   UNL A   1      42.062  23.439  28.612  1.00  0.00     0.010 A 
ATOM     13  C   UNL A   1      41.707  24.443  27.705  1.00  0.00    -0.014 A 
BRANCH  13  14
ATOM     14  C   UNL A   1      42.129  25.842  27.855  1.00  0.00     0.031 A 
ATOM     15  C   UNL A   1      43.409  26.242  27.193  1.00  0.00     0.074 A 
ATOM     16  C   UNL A   1      41.284  26.744  28.381  1.00  0.00     0.049 A 
ATOM     17  N   UNL A   1      44.049  27.376  27.241  1.00  0.00    -0.248 NA
ATOM     18  C   UNL A   1      44.045  25.224  26.333  1.00  0.00     0.031 C 
ATOM     19  C   UNL A   1      39.927  26.455  28.851  1.00  0.00     0.029 A 
ATOM     20  N   UNL A   1      41.426  28.090  28.575  1.00  0.00    -0.354 N 
ATOM     21  C   UNL A   1      45.185  27.191  26.466  1.00  0.00     0.074 A 
ATOM     22  C   UNL A   1      45.134  25.854  25.923  1.00  0.00     0.031 C 
ATOM     23  C   UNL A   1      39.361  27.595  29.280  1.00  0.00     0.029 A 
ATOM     24  C   UNL A   1      40.345  28.668  29.194  1.00  0.00     0.049 A 
ATOM     25  H   UNL A   1      42.224  28.595  28.298  1.00  0.00     0.167 HD
ATOM     26  C   UNL A   1      46.193  28.067  26.266  1.00  0.00     0.037 A 
ATOM     27  C   UNL A   1      40.214  29.913  29.690  1.00  0.00     0.037 A 
ATOM     28  C   UNL A   1      46.189  29.390  26.824  1.00  0.00     0.049 A 
ATOM     29  C   UNL A   1      41.400  30.835  29.556  1.00  0.00     0.074 A 
ATOM     30  C   UNL A   1      47.174  30.356  26.782  1.00  0.00     0.029 A 
ATOM     31  N   UNL A   1      45.120  29.927  27.531  1.00  0.00    -0.354 N 
ATOM     32  N   UNL A   1      42.536  30.634  28.927  1.00  0.00    -0.248 NA
ATOM     33  C   UNL A   1      41.308  32.137  30.227  1.00  0.00     0.031 C 
ATOM     34  C   UNL A   1      46.716  31.462  27.505  1.00  0.00     0.029 A 
ATOM     35  C   UNL A   1      45.429  31.203  27.956  1.00  0.00     0.049 A 
ATOM     36  H   UNL A   1      44.268  29.465  27.702  1.00  0.00     0.167 HD
ATOM     37  C   UNL A   1      43.295  31.777  29.127  1.00  0.00     0.074 A 
ATOM     38  C   UNL A   1      42.473  32.682  29.908  1.00  0.00     0.031 C 
ATOM     39  C   UNL A   1      44.559  32.057  28.726  1.00  0.00     0.037 A 
BRANCH  26  40
ATOM     40  C   UNL A   1      47.397  27.569  25.528  1.00  0.00     0.064 A 
ATOM     41  C   UNL A   1      48.512  27.032  26.185  1.00  0.00     0.173 A 
ATOM     42  C   UNL A   1      47.446  27.679  24.131  1.00  0.00     0.173 A 
ATOM     43  F   UNL A   1      48.532  26.945  27.523  1.00  0.00    -0.203 F 
ATOM     44  C   UNL A   1      49.640  26.636  25.468  1.00  0.00     0.198 A 
ATOM     45  C   UNL A   1      48.565  27.264  23.416  1.00  0.00     0.198 A 
ATOM     46  F   UNL A   1      46.411  28.206  23.458  1.00  0.00    -0.203 F 
ATOM     47  F   UNL A   1      50.718  26.172  26.117  1.00  0.00    -0.200 F 
ATOM     48  C   UNL A   1      49.664  26.747  24.085  1.00  0.00     0.200 A 
ATOM     49  F   UNL A   1      48.587  27.379  22.080  1.00  0.00    -0.200 F 
ATOM     50  F   UNL A   1      50.753  26.375  23.398  1.00  0.00    -0.200 F 
ENDBRANCH  26  40
BRANCH  27  51
ATOM     51  C   UNL A   1      38.995  30.312  30.447  1.00  0.00     0.064 A 
ATOM     52  C   UNL A   1      37.894  30.902  29.812  1.00  0.00     0.173 A 
ATOM     53  C   UNL A   1      38.926  30.158  31.843  1.00  0.00     0.173 A 
ATOM     54  F   UNL A   1      37.914  31.101  28.486  1.00  0.00    -0.203 F 
ATOM     55  C   UNL A   1      36.787  31.341  30.540  1.00  0.00     0.198 A 
ATOM     56  C   UNL A   1      37.805  30.563  32.566  1.00  0.00     0.198 A 
ATOM     57  F   UNL A   1      39.953  29.613  32.512  1.00  0.00    -0.203 F 
ATOM     58  F   UNL A   1      35.777  31.958  29.913  1.00  0.00    -0.200 F 
ATOM     59  C   UNL A   1      36.742  31.167  31.916  1.00  0.00     0.200 A 
ATOM     60  F   UNL A   1      37.766  30.384  33.892  1.00  0.00    -0.200 F 
ATOM     61  F   UNL A   1      35.682  31.597  32.615  1.00  0.00    -0.200 F 
ENDBRANCH  27  51
BRANCH  39  62
ATOM     62  C   UNL A   1      45.107  33.392  29.119  1.00  0.00     0.064 A 
ATOM     63  C   UNL A   1      45.854  33.552  30.294  1.00  0.00     0.173 A 
ATOM     64  C   UNL A   1      44.939  34.501  28.278  1.00  0.00     0.173 A 
ATOM     65  F   UNL A   1      46.025  32.520  31.133  1.00  0.00    -0.203 F 
ATOM     66  C   UNL A   1      46.402  34.787  30.622  1.00  0.00     0.198 A 
ATOM     67  C   UNL A   1      45.513  35.726  28.595  1.00  0.00     0.198 A 
ATOM     68  F   UNL A   1      44.238  34.387  27.140  1.00  0.00    -0.203 F 
ATOM     69  F   UNL A   1      47.083  34.932  31.766  1.00  0.00    -0.200 F 
ATOM     70  C   UNL A   1      46.241  35.869  29.768  1.00  0.00     0.200 A 
ATOM     71  F   UNL A   1      45.370  36.766  27.763  1.00  0.00    -0.200 F 
ATOM     72  F   UNL A   1      46.784  37.054  30.079  1.00  0.00    -0.200 F 
ENDBRANCH  39  62
ENDBRANCH  13  14
ENDBRANCH   6   8
ENDBRANCH   5   6
ENDBRANCH   4   5
ENDBRANCH   3   4
ENDBRANCH   2   3
ENDBRANCH   1   2
BRANCH   1  73
ATOM     73  C   UNL A   1      37.102  23.596  25.405  1.00  0.00     0.261 C 
BRANCH  73  74
ATOM     74  O   UNL A   1      35.856  23.915  24.785  1.00  0.00    -0.460 OA
BRANCH  74  75
ATOM     75  C   UNL A   1      35.727  23.484  23.511  1.00  0.00     0.339 C 
ATOM     76  O   UNL A   1      36.589  23.270  22.681  1.00  0.00    -0.246 OA
BRANCH  75  77
ATOM     77  C   UNL A   1      34.324  23.162  23.292  1.00  0.00     0.072 A 
ATOM     78  C   UNL A   1      33.993  21.804  23.484  1.00  0.00     0.016 A 
ATOM     79  C   UNL A   1      33.353  24.111  22.960  1.00  0.00     0.054 A 
ATOM     80  C   UNL A   1      32.672  21.382  23.402  1.00  0.00     0.001 A 
ATOM     81  C   UNL A   1      32.019  23.653  22.887  1.00  0.00     0.015 A 
ATOM     82  C   UNL A   1      31.682  22.312  23.114  1.00  0.00     0.001 A 
BRANCH  79  83
ATOM     83  C   UNL A   1      33.548  25.586  22.720  1.00  0.00     0.255 C 
ATOM     84  O   UNL A   1      34.030  25.932  21.639  1.00  0.00    -0.269 OA
BRANCH  83  85
ATOM     85  N   UNL A   1      33.159  26.563  23.649  1.00  0.00    -0.322 N 
ATOM     86  C   UNL A   1      33.628  27.906  23.307  1.00  0.00     0.132 C 
ATOM     87  C   UNL A   1      33.380  26.296  25.072  1.00  0.00     0.174 C 
ATOM     88  C   UNL A   1      33.291  28.888  24.411  1.00  0.00     0.093 C 
ATOM     89  S   UNL A   1      33.428  27.921  25.924  1.00  0.00    -0.130 SA
BRANCH  87  90
ATOM     90  C   UNL A   1      32.431  25.291  25.700  1.00  0.00    -0.015 A 
ATOM     91  C   UNL A   1      32.846  24.178  26.453  1.00  0.00     0.007 A 
ATOM     92  C   UNL A   1      31.047  25.495  25.545  1.00  0.00     0.007 A 
ATOM     93  C   UNL A   1      31.912  23.313  27.037  1.00  0.00     0.000 A 
ATOM     94  C   UNL A   1      30.116  24.643  26.142  1.00  0.00     0.000 A 
ATOM     95  C   UNL A   1      30.549  23.553  26.889  1.00  0.00     0.000 A 
ENDBRANCH  87  90
ENDBRANCH  83  85
ENDBRANCH  79  83
ENDBRANCH  75  77
ENDBRANCH  74  75
ENDBRANCH  73  74
ENDBRANCH   1  73
TORSDOF 17
ENDMDL
