MODEL 1
REMARK VINA RESULT:     -11.0      0.000      0.000
REMARK SMILES O=C(OCCOCCOC(=O)c1cncc(C(=O)c2ccsc2)c1)c1ccc(-c2c3nc(c(-c4c(F)c(F)c(F)c(F)c4F)c4ccc([nH]4)c(-c4c(F)c(F)c(F)c(F)c4F)c4nc(c(-c5c(F)c(F)c(F)c(F)c5F)c5ccc2[nH]5)C=C4)C=C3)cc1
REMARK SMILES IDX 6 1 5 2 4 3 3 4 2 5 1 6 25 7 26 8 87 9 27 10 86 11 28 12
REMARK SMILES IDX 29 13 30 14 80 15 31 16 85 17 79 18 81 19 32 20 84 21 78 22
REMARK SMILES IDX 77 23 33 25 65 26 45 27 64 28 46 29 49 30 63 31 82 32 47 33
REMARK SMILES IDX 48 34 62 36 83 37 50 38 34 39 35 40 43 41 36 42 37 43 41 44
REMARK SMILES IDX 44 45 38 46 39 47 42 48 40 49 66 50 67 51 75 52 68 53 69 54
REMARK SMILES IDX 73 55 76 56 70 57 71 58 74 59 72 60 51 61 52 62 60 63 53 64
REMARK SMILES IDX 54 65 58 66 61 67 55 68 56 69 59 70 57 71 7 72 8 73 9 74
REMARK SMILES IDX 10 75 11 76 12 77 13 78 24 79 14 80 16 81 15 82 17 83 18 84
REMARK SMILES IDX 19 85 20 86 23 87 21 88 22 89
REMARK H PARENT 81 24 49 35
REMARK Flexibility Score: inf
ROOT
ATOM      1  O   UNL A   1      33.474  31.040  27.514  1.00  0.00    -0.374 OA
ENDROOT
BRANCH   1   2
ATOM      2  C   UNL A   1      32.197  31.615  27.235  1.00  0.00     0.202 C 
BRANCH   2   3
ATOM      3  C   UNL A   1      32.254  33.089  26.826  1.00  0.00     0.261 C 
BRANCH   3   4
ATOM      4  O   UNL A   1      32.193  33.935  27.989  1.00  0.00    -0.460 OA
BRANCH   4   5
ATOM      5  C   UNL A   1      33.195  34.624  28.583  1.00  0.00     0.338 C 
ATOM      6  O   UNL A   1      33.106  35.849  28.655  1.00  0.00    -0.246 OA
BRANCH   5   7
ATOM      7  C   UNL A   1      34.421  33.984  29.151  1.00  0.00     0.060 A 
ATOM      8  C   UNL A   1      35.724  34.341  28.812  1.00  0.00     0.016 A 
ATOM      9  C   UNL A   1      34.250  33.025  30.163  1.00  0.00     0.016 A 
ATOM     10  C   UNL A   1      36.821  33.744  29.400  1.00  0.00     0.010 A 
ATOM     11  C   UNL A   1      35.355  32.447  30.804  1.00  0.00     0.010 A 
ATOM     12  C   UNL A   1      36.645  32.808  30.411  1.00  0.00    -0.014 A 
BRANCH  12  13
ATOM     13  C   UNL A   1      37.874  32.197  30.942  1.00  0.00     0.031 A 
ATOM     14  C   UNL A   1      38.269  32.505  32.350  1.00  0.00     0.074 A 
ATOM     15  C   UNL A   1      38.459  31.211  30.236  1.00  0.00     0.049 A 
ATOM     16  N   UNL A   1      39.259  32.028  33.053  1.00  0.00    -0.248 NA
ATOM     17  C   UNL A   1      37.414  33.459  33.078  1.00  0.00     0.031 C 
ATOM     18  C   UNL A   1      38.026  30.758  28.910  1.00  0.00     0.029 A 
ATOM     19  N   UNL A   1      39.491  30.371  30.552  1.00  0.00    -0.354 N 
ATOM     20  C   UNL A   1      39.154  32.629  34.299  1.00  0.00     0.074 A 
ATOM     21  C   UNL A   1      38.013  33.516  34.256  1.00  0.00     0.031 C 
ATOM     22  C   UNL A   1      38.762  29.698  28.545  1.00  0.00     0.029 A 
ATOM     23  C   UNL A   1      39.766  29.448  29.572  1.00  0.00     0.049 A 
ATOM     24  H   UNL A   1      39.990  30.423  31.399  1.00  0.00     0.167 HD
ATOM     25  C   UNL A   1      39.949  32.447  35.378  1.00  0.00     0.037 A 
ATOM     26  C   UNL A   1      40.747  28.531  29.507  1.00  0.00     0.037 A 
ATOM     27  C   UNL A   1      41.081  31.563  35.377  1.00  0.00     0.049 A 
ATOM     28  C   UNL A   1      41.686  28.436  30.679  1.00  0.00     0.074 A 
ATOM     29  C   UNL A   1      42.033  31.369  36.360  1.00  0.00     0.029 A 
ATOM     30  N   UNL A   1      41.408  30.714  34.326  1.00  0.00    -0.354 N 
ATOM     31  N   UNL A   1      41.648  29.080  31.823  1.00  0.00    -0.248 NA
ATOM     32  C   UNL A   1      42.811  27.503  30.552  1.00  0.00     0.031 C 
ATOM     33  C   UNL A   1      42.958  30.431  35.885  1.00  0.00     0.029 A 
ATOM     34  C   UNL A   1      42.553  30.001  34.630  1.00  0.00     0.049 A 
ATOM     35  H   UNL A   1      40.897  30.631  33.487  1.00  0.00     0.167 HD
ATOM     36  C   UNL A   1      42.735  28.627  32.554  1.00  0.00     0.074 A 
ATOM     37  C   UNL A   1      43.391  27.624  31.736  1.00  0.00     0.031 C 
ATOM     38  C   UNL A   1      43.169  29.011  33.781  1.00  0.00     0.037 A 
BRANCH  25  39
ATOM     39  C   UNL A   1      39.652  33.275  36.591  1.00  0.00     0.064 A 
ATOM     40  C   UNL A   1      38.701  32.879  37.544  1.00  0.00     0.173 A 
ATOM     41  C   UNL A   1      40.302  34.502  36.785  1.00  0.00     0.173 A 
ATOM     42  F   UNL A   1      38.025  31.731  37.388  1.00  0.00    -0.203 F 
ATOM     43  C   UNL A   1      38.396  33.693  38.633  1.00  0.00     0.198 A 
ATOM     44  C   UNL A   1      40.014  35.301  37.888  1.00  0.00     0.198 A 
ATOM     45  F   UNL A   1      41.210  34.933  35.897  1.00  0.00    -0.203 F 
ATOM     46  F   UNL A   1      37.444  33.322  39.500  1.00  0.00    -0.200 F 
ATOM     47  C   UNL A   1      39.056  34.900  38.806  1.00  0.00     0.200 A 
ATOM     48  F   UNL A   1      40.653  36.467  38.053  1.00  0.00    -0.200 F 
ATOM     49  F   UNL A   1      38.757  35.686  39.851  1.00  0.00    -0.200 F 
ENDBRANCH  25  39
BRANCH  26  50
ATOM     50  C   UNL A   1      40.938  27.706  28.282  1.00  0.00     0.064 A 
ATOM     51  C   UNL A   1      40.338  26.447  28.136  1.00  0.00     0.173 A 
ATOM     52  C   UNL A   1      41.769  28.149  27.239  1.00  0.00     0.173 A 
ATOM     53  F   UNL A   1      39.552  25.963  29.109  1.00  0.00    -0.203 F 
ATOM     54  C   UNL A   1      40.586  25.655  27.014  1.00  0.00     0.198 A 
ATOM     55  C   UNL A   1      41.985  27.373  26.102  1.00  0.00     0.198 A 
ATOM     56  F   UNL A   1      42.375  29.343  27.322  1.00  0.00    -0.203 F 
ATOM     57  F   UNL A   1      40.051  24.429  26.932  1.00  0.00    -0.200 F 
ATOM     58  C   UNL A   1      41.404  26.120  25.996  1.00  0.00     0.200 A 
ATOM     59  F   UNL A   1      42.764  27.838  25.116  1.00  0.00    -0.200 F 
ATOM     60  F   UNL A   1      41.645  25.356  24.922  1.00  0.00    -0.200 F 
ENDBRANCH  26  50
BRANCH  38  61
ATOM     61  C   UNL A   1      44.392  28.320  34.303  1.00  0.00     0.064 A 
ATOM     62  C   UNL A   1      44.304  27.119  35.022  1.00  0.00     0.173 A 
ATOM     63  C   UNL A   1      45.665  28.855  34.060  1.00  0.00     0.173 A 
ATOM     64  F   UNL A   1      43.106  26.579  35.293  1.00  0.00    -0.203 F 
ATOM     65  C   UNL A   1      45.448  26.497  35.510  1.00  0.00     0.198 A 
ATOM     66  C   UNL A   1      46.808  28.211  34.520  1.00  0.00     0.198 A 
ATOM     67  F   UNL A   1      45.799  29.998  33.370  1.00  0.00    -0.203 F 
ATOM     68  F   UNL A   1      45.339  25.382  36.247  1.00  0.00    -0.200 F 
ATOM     69  C   UNL A   1      46.699  27.038  35.253  1.00  0.00     0.200 A 
ATOM     70  F   UNL A   1      48.016  28.727  34.258  1.00  0.00    -0.200 F 
ATOM     71  F   UNL A   1      47.800  26.436  35.721  1.00  0.00    -0.200 F 
ENDBRANCH  38  61
ENDBRANCH  12  13
ENDBRANCH   5   7
ENDBRANCH   4   5
ENDBRANCH   3   4
ENDBRANCH   2   3
ENDBRANCH   1   2
BRANCH   1  72
ATOM     72  C   UNL A   1      33.799  29.836  26.814  1.00  0.00     0.202 C 
BRANCH  72  73
ATOM     73  C   UNL A   1      32.618  29.461  25.915  1.00  0.00     0.261 C 
BRANCH  73  74
ATOM     74  O   UNL A   1      33.064  28.457  24.994  1.00  0.00    -0.460 OA
BRANCH  74  75
ATOM     75  C   UNL A   1      32.599  28.571  23.722  1.00  0.00     0.339 C 
ATOM     76  O   UNL A   1      33.202  28.955  22.736  1.00  0.00    -0.246 OA
BRANCH  75  77
ATOM     77  C   UNL A   1      31.249  27.984  23.697  1.00  0.00     0.079 A 
ATOM     78  C   UNL A   1      31.043  26.643  23.967  1.00  0.00     0.126 A 
ATOM     79  C   UNL A   1      30.135  28.780  23.458  1.00  0.00     0.031 A 
ATOM     80  N   UNL A   1      29.809  26.076  24.017  1.00  0.00    -0.263 NA
ATOM     81  C   UNL A   1      28.863  28.216  23.402  1.00  0.00     0.042 A 
ATOM     82  C   UNL A   1      28.743  26.873  23.725  1.00  0.00     0.123 A 
BRANCH  81  83
ATOM     83  C   UNL A   1      27.682  29.035  23.023  1.00  0.00     0.195 C 
ATOM     84  O   UNL A   1      26.552  28.610  23.228  1.00  0.00    -0.289 OA
BRANCH  83  85
ATOM     85  C   UNL A   1      27.945  30.368  22.467  1.00  0.00     0.033 A 
ATOM     86  C   UNL A   1      28.067  31.603  23.202  1.00  0.00     0.024 A 
ATOM     87  C   UNL A   1      28.043  30.601  21.109  1.00  0.00     0.077 A 
ATOM     88  C   UNL A   1      28.084  32.708  22.381  1.00  0.00     0.065 A 
ATOM     89  S   UNL A   1      28.102  32.270  20.730  1.00  0.00    -0.152 S 
ENDBRANCH  83  85
ENDBRANCH  81  83
ENDBRANCH  75  77
ENDBRANCH  74  75
ENDBRANCH  73  74
ENDBRANCH  72  73
ENDBRANCH   1  72
TORSDOF 16
ENDMDL
MODEL 2
REMARK VINA RESULT:     -10.9      0.880      1.942
REMARK SMILES O=C(OCCOCCOC(=O)c1cncc(C(=O)c2ccsc2)c1)c1ccc(-c2c3nc(c(-c4c(F)c(F)c(F)c(F)c4F)c4ccc([nH]4)c(-c4c(F)c(F)c(F)c(F)c4F)c4nc(c(-c5c(F)c(F)c(F)c(F)c5F)c5ccc2[nH]5)C=C4)C=C3)cc1
REMARK SMILES IDX 6 1 5 2 4 3 3 4 2 5 1 6 25 7 26 8 87 9 27 10 86 11 28 12
REMARK SMILES IDX 29 13 30 14 80 15 31 16 85 17 79 18 81 19 32 20 84 21 78 22
REMARK SMILES IDX 77 23 33 25 65 26 45 27 64 28 46 29 49 30 63 31 82 32 47 33
REMARK SMILES IDX 48 34 62 36 83 37 50 38 34 39 35 40 43 41 36 42 37 43 41 44
REMARK SMILES IDX 44 45 38 46 39 47 42 48 40 49 66 50 67 51 75 52 68 53 69 54
REMARK SMILES IDX 73 55 76 56 70 57 71 58 74 59 72 60 51 61 52 62 60 63 53 64
REMARK SMILES IDX 54 65 58 66 61 67 55 68 56 69 59 70 57 71 7 72 8 73 9 74
REMARK SMILES IDX 10 75 11 76 12 77 13 78 24 79 14 80 16 81 15 82 17 83 18 84
REMARK SMILES IDX 19 85 20 86 23 87 21 88 22 89
REMARK H PARENT 81 24 49 35
REMARK Flexibility Score: inf
ROOT
ATOM      1  O   UNL A   1      31.900  30.080  26.927  1.00  0.00    -0.374 OA
ENDROOT
BRANCH   1   2
ATOM      2  C   UNL A   1      32.659  31.288  26.879  1.00  0.00     0.202 C 
BRANCH   2   3
ATOM      3  C   UNL A   1      31.810  32.560  26.960  1.00  0.00     0.261 C 
BRANCH   3   4
ATOM      4  O   UNL A   1      32.263  33.397  28.039  1.00  0.00    -0.460 OA
BRANCH   4   5
ATOM      5  C   UNL A   1      33.453  34.028  28.174  1.00  0.00     0.338 C 
ATOM      6  O   UNL A   1      33.565  35.175  27.745  1.00  0.00    -0.246 OA
BRANCH   5   7
ATOM      7  C   UNL A   1      34.656  33.405  28.808  1.00  0.00     0.060 A 
ATOM      8  C   UNL A   1      34.653  32.175  29.461  1.00  0.00     0.016 A 
ATOM      9  C   UNL A   1      35.891  34.058  28.652  1.00  0.00     0.016 A 
ATOM     10  C   UNL A   1      35.804  31.627  29.992  1.00  0.00     0.010 A 
ATOM     11  C   UNL A   1      37.075  33.490  29.142  1.00  0.00     0.010 A 
ATOM     12  C   UNL A   1      37.023  32.270  29.820  1.00  0.00    -0.014 A 
BRANCH  12  13
ATOM     13  C   UNL A   1      38.183  31.630  30.461  1.00  0.00     0.031 A 
ATOM     14  C   UNL A   1      38.414  31.875  31.917  1.00  0.00     0.074 A 
ATOM     15  C   UNL A   1      38.846  30.674  29.784  1.00  0.00     0.049 A 
ATOM     16  N   UNL A   1      39.318  31.363  32.707  1.00  0.00    -0.248 NA
ATOM     17  C   UNL A   1      37.481  32.799  32.583  1.00  0.00     0.031 C 
ATOM     18  C   UNL A   1      38.568  30.281  28.398  1.00  0.00     0.029 A 
ATOM     19  N   UNL A   1      39.836  29.816  30.178  1.00  0.00    -0.354 N 
ATOM     20  C   UNL A   1      39.071  31.909  33.958  1.00  0.00     0.074 A 
ATOM     21  C   UNL A   1      37.941  32.802  33.824  1.00  0.00     0.031 C 
ATOM     22  C   UNL A   1      39.342  29.235  28.073  1.00  0.00     0.029 A 
ATOM     23  C   UNL A   1      40.222  28.936  29.196  1.00  0.00     0.049 A 
ATOM     24  H   UNL A   1      40.234  29.829  31.078  1.00  0.00     0.167 HD
ATOM     25  C   UNL A   1      39.737  31.677  35.111  1.00  0.00     0.037 A 
ATOM     26  C   UNL A   1      41.205  28.018  29.204  1.00  0.00     0.037 A 
ATOM     27  C   UNL A   1      40.863  30.789  35.202  1.00  0.00     0.049 A 
ATOM     28  C   UNL A   1      42.004  27.867  30.470  1.00  0.00     0.074 A 
ATOM     29  C   UNL A   1      41.696  30.547  36.277  1.00  0.00     0.029 A 
ATOM     30  N   UNL A   1      41.308  29.985  34.158  1.00  0.00    -0.354 N 
ATOM     31  N   UNL A   1      41.834  28.461  31.629  1.00  0.00    -0.248 NA
ATOM     32  C   UNL A   1      43.136  26.937  30.431  1.00  0.00     0.031 C 
ATOM     33  C   UNL A   1      42.670  29.627  35.870  1.00  0.00     0.029 A 
ATOM     34  C   UNL A   1      42.412  29.254  34.560  1.00  0.00     0.049 A 
ATOM     35  H   UNL A   1      40.897  29.941  33.264  1.00  0.00     0.167 HD
ATOM     36  C   UNL A   1      42.831  27.972  32.459  1.00  0.00     0.074 A 
ATOM     37  C   UNL A   1      43.577  27.003  31.678  1.00  0.00     0.031 C 
ATOM     38  C   UNL A   1      43.121  28.299  33.743  1.00  0.00     0.037 A 
BRANCH  25  39
ATOM     39  C   UNL A   1      39.303  32.451  36.318  1.00  0.00     0.064 A 
ATOM     40  C   UNL A   1      39.851  33.704  36.633  1.00  0.00     0.173 A 
ATOM     41  C   UNL A   1      38.349  31.914  37.195  1.00  0.00     0.173 A 
ATOM     42  F   UNL A   1      40.793  34.246  35.846  1.00  0.00    -0.203 F 
ATOM     43  C   UNL A   1      39.477  34.378  37.794  1.00  0.00     0.198 A 
ATOM     44  C   UNL A   1      37.958  32.603  38.341  1.00  0.00     0.198 A 
ATOM     45  F   UNL A   1      37.803  30.715  36.948  1.00  0.00    -0.203 F 
ATOM     46  F   UNL A   1      40.056  35.547  38.104  1.00  0.00    -0.200 F 
ATOM     47  C   UNL A   1      38.529  33.830  38.643  1.00  0.00     0.200 A 
ATOM     48  F   UNL A   1      37.041  32.070  39.160  1.00  0.00    -0.200 F 
ATOM     49  F   UNL A   1      38.175  34.477  39.763  1.00  0.00    -0.200 F 
ENDBRANCH  25  39
BRANCH  26  50
ATOM     50  C   UNL A   1      41.535  27.247  27.973  1.00  0.00     0.064 A 
ATOM     51  C   UNL A   1      41.010  25.969  27.737  1.00  0.00     0.173 A 
ATOM     52  C   UNL A   1      42.427  27.764  27.019  1.00  0.00     0.173 A 
ATOM     53  F   UNL A   1      40.170  25.415  28.624  1.00  0.00    -0.203 F 
ATOM     54  C   UNL A   1      41.387  25.229  26.616  1.00  0.00     0.198 A 
ATOM     55  C   UNL A   1      42.773  27.039  25.879  1.00  0.00     0.198 A 
ATOM     56  F   UNL A   1      42.966  28.980  27.190  1.00  0.00    -0.203 F 
ATOM     57  F   UNL A   1      40.919  23.984  26.450  1.00  0.00    -0.200 F 
ATOM     58  C   UNL A   1      42.263  25.767  25.685  1.00  0.00     0.200 A 
ATOM     59  F   UNL A   1      43.608  27.574  24.978  1.00  0.00    -0.200 F 
ATOM     60  F   UNL A   1      42.628  25.053  24.611  1.00  0.00    -0.200 F 
ENDBRANCH  26  50
BRANCH  38  61
ATOM     61  C   UNL A   1      44.277  27.581  34.371  1.00  0.00     0.064 A 
ATOM     62  C   UNL A   1      45.575  28.112  34.337  1.00  0.00     0.173 A 
ATOM     63  C   UNL A   1      44.077  26.361  35.033  1.00  0.00     0.173 A 
ATOM     64  F   UNL A   1      45.815  29.269  33.701  1.00  0.00    -0.203 F 
ATOM     65  C   UNL A   1      46.638  27.427  34.914  1.00  0.00     0.198 A 
ATOM     66  C   UNL A   1      45.138  25.697  35.638  1.00  0.00     0.198 A 
ATOM     67  F   UNL A   1      42.852  25.818  35.097  1.00  0.00    -0.203 F 
ATOM     68  F   UNL A   1      47.881  27.921  34.818  1.00  0.00    -0.200 F 
ATOM     69  C   UNL A   1      46.419  26.225  35.570  1.00  0.00     0.200 A 
ATOM     70  F   UNL A   1      44.922  24.543  36.284  1.00  0.00    -0.200 F 
ATOM     71  F   UNL A   1      47.445  25.568  36.128  1.00  0.00    -0.200 F 
ENDBRANCH  38  61
ENDBRANCH  12  13
ENDBRANCH   5   7
ENDBRANCH   4   5
ENDBRANCH   3   4
ENDBRANCH   2   3
ENDBRANCH   1   2
BRANCH   1  72
ATOM     72  C   UNL A   1      32.555  28.896  26.464  1.00  0.00     0.202 C 
BRANCH  72  73
ATOM     73  C   UNL A   1      33.168  29.184  25.090  1.00  0.00     0.261 C 
BRANCH  73  74
ATOM     74  O   UNL A   1      33.104  27.979  24.316  1.00  0.00    -0.460 OA
BRANCH  74  75
ATOM     75  C   UNL A   1      32.474  28.077  23.117  1.00  0.00     0.339 C 
ATOM     76  O   UNL A   1      32.957  28.376  22.039  1.00  0.00    -0.246 OA
BRANCH  75  77
ATOM     77  C   UNL A   1      31.096  27.594  23.307  1.00  0.00     0.079 A 
ATOM     78  C   UNL A   1      30.837  26.279  23.645  1.00  0.00     0.126 A 
ATOM     79  C   UNL A   1      30.020  28.467  23.208  1.00  0.00     0.031 A 
ATOM     80  N   UNL A   1      29.586  25.808  23.892  1.00  0.00    -0.263 NA
ATOM     81  C   UNL A   1      28.716  28.001  23.357  1.00  0.00     0.042 A 
ATOM     82  C   UNL A   1      28.548  26.678  23.735  1.00  0.00     0.123 A 
BRANCH  81  83
ATOM     83  C   UNL A   1      27.554  28.900  23.129  1.00  0.00     0.195 C 
ATOM     84  O   UNL A   1      26.424  28.522  23.413  1.00  0.00    -0.289 OA
BRANCH  83  85
ATOM     85  C   UNL A   1      27.841  30.246  22.620  1.00  0.00     0.033 A 
ATOM     86  C   UNL A   1      28.013  30.630  21.240  1.00  0.00     0.024 A 
ATOM     87  C   UNL A   1      28.052  31.327  23.454  1.00  0.00     0.077 A 
ATOM     88  C   UNL A   1      28.497  31.911  21.104  1.00  0.00     0.065 A 
ATOM     89  S   UNL A   1      28.610  32.709  22.610  1.00  0.00    -0.152 S 
ENDBRANCH  83  85
ENDBRANCH  81  83
ENDBRANCH  75  77
ENDBRANCH  74  75
ENDBRANCH  73  74
ENDBRANCH  72  73
ENDBRANCH   1  72
TORSDOF 16
ENDMDL
MODEL 3
REMARK VINA RESULT:     -10.9      2.300      3.895
REMARK SMILES O=C(OCCOCCOC(=O)c1cncc(C(=O)c2ccsc2)c1)c1ccc(-c2c3nc(c(-c4c(F)c(F)c(F)c(F)c4F)c4ccc([nH]4)c(-c4c(F)c(F)c(F)c(F)c4F)c4nc(c(-c5c(F)c(F)c(F)c(F)c5F)c5ccc2[nH]5)C=C4)C=C3)cc1
REMARK SMILES IDX 6 1 5 2 4 3 3 4 2 5 1 6 25 7 26 8 87 9 27 10 86 11 28 12
REMARK SMILES IDX 29 13 30 14 80 15 31 16 85 17 79 18 81 19 32 20 84 21 78 22
REMARK SMILES IDX 77 23 33 25 65 26 45 27 64 28 46 29 49 30 63 31 82 32 47 33
REMARK SMILES IDX 48 34 62 36 83 37 50 38 34 39 35 40 43 41 36 42 37 43 41 44
REMARK SMILES IDX 44 45 38 46 39 47 42 48 40 49 66 50 67 51 75 52 68 53 69 54
REMARK SMILES IDX 73 55 76 56 70 57 71 58 74 59 72 60 51 61 52 62 60 63 53 64
REMARK SMILES IDX 54 65 58 66 61 67 55 68 56 69 59 70 57 71 7 72 8 73 9 74
REMARK SMILES IDX 10 75 11 76 12 77 13 78 24 79 14 80 16 81 15 82 17 83 18 84
REMARK SMILES IDX 19 85 20 86 23 87 21 88 22 89
REMARK H PARENT 81 24 49 35
REMARK Flexibility Score: inf
ROOT
ATOM      1  O   UNL A   1      31.394  30.852  25.818  1.00  0.00    -0.374 OA
ENDROOT
BRANCH   1   2
ATOM      2  C   UNL A   1      31.283  32.057  26.576  1.00  0.00     0.202 C 
BRANCH   2   3
ATOM      3  C   UNL A   1      32.624  32.611  27.063  1.00  0.00     0.261 C 
BRANCH   3   4
ATOM      4  O   UNL A   1      32.436  33.886  27.704  1.00  0.00    -0.460 OA
BRANCH   4   5
ATOM      5  C   UNL A   1      33.147  34.432  28.719  1.00  0.00     0.338 C 
ATOM      6  O   UNL A   1      32.769  35.501  29.196  1.00  0.00    -0.246 OA
BRANCH   5   7
ATOM      7  C   UNL A   1      34.382  33.815  29.294  1.00  0.00     0.060 A 
ATOM      8  C   UNL A   1      34.389  32.704  30.134  1.00  0.00     0.016 A 
ATOM      9  C   UNL A   1      35.623  34.330  28.883  1.00  0.00     0.016 A 
ATOM     10  C   UNL A   1      35.563  32.150  30.602  1.00  0.00     0.010 A 
ATOM     11  C   UNL A   1      36.824  33.747  29.311  1.00  0.00     0.010 A 
ATOM     12  C   UNL A   1      36.787  32.654  30.180  1.00  0.00    -0.014 A 
BRANCH  12  13
ATOM     13  C   UNL A   1      37.979  32.025  30.770  1.00  0.00     0.031 A 
ATOM     14  C   UNL A   1      38.293  32.304  32.203  1.00  0.00     0.074 A 
ATOM     15  C   UNL A   1      38.600  31.050  30.080  1.00  0.00     0.049 A 
ATOM     16  N   UNL A   1      39.239  31.808  32.954  1.00  0.00    -0.248 NA
ATOM     17  C   UNL A   1      37.402  33.249  32.899  1.00  0.00     0.031 C 
ATOM     18  C   UNL A   1      38.243  30.625  28.722  1.00  0.00     0.029 A 
ATOM     19  N   UNL A   1      39.608  30.198  30.438  1.00  0.00    -0.354 N 
ATOM     20  C   UNL A   1      39.065  32.386  34.202  1.00  0.00     0.074 A 
ATOM     21  C   UNL A   1      37.932  33.280  34.111  1.00  0.00     0.031 C 
ATOM     22  C   UNL A   1      38.994  29.568  28.379  1.00  0.00     0.029 A 
ATOM     23  C   UNL A   1      39.936  29.293  29.458  1.00  0.00     0.049 A 
ATOM     24  H   UNL A   1      40.057  30.231  31.314  1.00  0.00     0.167 HD
ATOM     25  C   UNL A   1      39.795  32.179  35.322  1.00  0.00     0.037 A 
ATOM     26  C   UNL A   1      40.914  28.371  29.432  1.00  0.00     0.037 A 
ATOM     27  C   UNL A   1      40.921  31.288  35.370  1.00  0.00     0.049 A 
ATOM     28  C   UNL A   1      41.784  28.248  30.654  1.00  0.00     0.074 A 
ATOM     29  C   UNL A   1      41.814  31.069  36.402  1.00  0.00     0.029 A 
ATOM     30  N   UNL A   1      41.304  30.457  34.322  1.00  0.00    -0.354 N 
ATOM     31  N   UNL A   1      41.682  28.870  31.806  1.00  0.00    -0.248 NA
ATOM     32  C   UNL A   1      42.909  27.312  30.574  1.00  0.00     0.031 C 
ATOM     33  C   UNL A   1      42.760  30.136  35.963  1.00  0.00     0.029 A 
ATOM     34  C   UNL A   1      42.427  29.732  34.679  1.00  0.00     0.049 A 
ATOM     35  H   UNL A   1      40.843  30.393  33.455  1.00  0.00     0.167 HD
ATOM     36  C   UNL A   1      42.723  28.397  32.590  1.00  0.00     0.074 A 
ATOM     37  C   UNL A   1      43.420  27.407  31.792  1.00  0.00     0.031 C 
ATOM     38  C   UNL A   1      43.086  28.755  33.847  1.00  0.00     0.037 A 
BRANCH  25  39
ATOM     39  C   UNL A   1      39.432  32.984  36.532  1.00  0.00     0.064 A 
ATOM     40  C   UNL A   1      40.018  34.231  36.797  1.00  0.00     0.173 A 
ATOM     41  C   UNL A   1      38.509  32.483  37.461  1.00  0.00     0.173 A 
ATOM     42  F   UNL A   1      40.933  34.739  35.958  1.00  0.00    -0.203 F 
ATOM     43  C   UNL A   1      39.712  34.934  37.960  1.00  0.00     0.198 A 
ATOM     44  C   UNL A   1      38.185  33.201  38.610  1.00  0.00     0.198 A 
ATOM     45  F   UNL A   1      37.929  31.291  37.263  1.00  0.00    -0.203 F 
ATOM     46  F   UNL A   1      40.327  36.096  38.221  1.00  0.00    -0.200 F 
ATOM     47  C   UNL A   1      38.793  34.421  38.863  1.00  0.00     0.200 A 
ATOM     48  F   UNL A   1      37.296  32.702  39.481  1.00  0.00    -0.200 F 
ATOM     49  F   UNL A   1      38.504  35.095  39.985  1.00  0.00    -0.200 F 
ENDBRANCH  25  39
BRANCH  26  50
ATOM     50  C   UNL A   1      41.172  27.569  28.204  1.00  0.00     0.064 A 
ATOM     51  C   UNL A   1      40.621  26.293  28.024  1.00  0.00     0.173 A 
ATOM     52  C   UNL A   1      42.020  28.053  27.194  1.00  0.00     0.173 A 
ATOM     53  F   UNL A   1      39.821  25.770  28.965  1.00  0.00    -0.203 F 
ATOM     54  C   UNL A   1      40.931  25.524  26.901  1.00  0.00     0.198 A 
ATOM     55  C   UNL A   1      42.299  27.300  26.055  1.00  0.00     0.198 A 
ATOM     56  F   UNL A   1      42.582  29.266  27.310  1.00  0.00    -0.203 F 
ATOM     57  F   UNL A   1      40.441  24.282  26.788  1.00  0.00    -0.200 F 
ATOM     58  C   UNL A   1      41.765  26.030  25.916  1.00  0.00     0.200 A 
ATOM     59  F   UNL A   1      43.093  27.803  25.100  1.00  0.00    -0.200 F 
ATOM     60  F   UNL A   1      42.066  25.288  24.841  1.00  0.00    -0.200 F 
ENDBRANCH  26  50
BRANCH  38  61
ATOM     61  C   UNL A   1      44.274  28.047  34.426  1.00  0.00     0.064 A 
ATOM     62  C   UNL A   1      45.570  28.566  34.295  1.00  0.00     0.173 A 
ATOM     63  C   UNL A   1      44.107  26.851  35.138  1.00  0.00     0.173 A 
ATOM     64  F   UNL A   1      45.779  29.699  33.608  1.00  0.00    -0.203 F 
ATOM     65  C   UNL A   1      46.663  27.891  34.828  1.00  0.00     0.198 A 
ATOM     66  C   UNL A   1      45.199  26.197  35.698  1.00  0.00     0.198 A 
ATOM     67  F   UNL A   1      42.885  26.321  35.295  1.00  0.00    -0.203 F 
ATOM     68  F   UNL A   1      47.901  28.371  34.640  1.00  0.00    -0.200 F 
ATOM     69  C   UNL A   1      46.477  26.712  35.535  1.00  0.00     0.200 A 
ATOM     70  F   UNL A   1      45.016  25.067  36.394  1.00  0.00    -0.200 F 
ATOM     71  F   UNL A   1      47.531  26.065  36.050  1.00  0.00    -0.200 F 
ENDBRANCH  38  61
ENDBRANCH  12  13
ENDBRANCH   5   7
ENDBRANCH   4   5
ENDBRANCH   3   4
ENDBRANCH   2   3
ENDBRANCH   1   2
BRANCH   1  72
ATOM     72  C   UNL A   1      32.487  29.990  26.146  1.00  0.00     0.202 C 
BRANCH  72  73
ATOM     73  C   UNL A   1      31.980  28.899  27.093  1.00  0.00     0.261 C 
BRANCH  73  74
ATOM     74  O   UNL A   1      32.673  27.684  26.781  1.00  0.00    -0.460 OA
BRANCH  74  75
ATOM     75  C   UNL A   1      31.912  26.682  26.267  1.00  0.00     0.339 C 
ATOM     76  O   UNL A   1      30.876  26.224  26.715  1.00  0.00    -0.246 OA
BRANCH  75  77
ATOM     77  C   UNL A   1      32.477  26.335  24.952  1.00  0.00     0.079 A 
ATOM     78  C   UNL A   1      32.321  27.170  23.861  1.00  0.00     0.126 A 
ATOM     79  C   UNL A   1      33.234  25.182  24.790  1.00  0.00     0.031 A 
ATOM     80  N   UNL A   1      32.880  26.918  22.648  1.00  0.00    -0.263 NA
ATOM     81  C   UNL A   1      33.740  24.839  23.538  1.00  0.00     0.042 A 
ATOM     82  C   UNL A   1      33.572  25.752  22.508  1.00  0.00     0.123 A 
BRANCH  81  83
ATOM     83  C   UNL A   1      34.443  23.547  23.328  1.00  0.00     0.195 C 
ATOM     84  O   UNL A   1      35.478  23.514  22.674  1.00  0.00    -0.289 OA
BRANCH  83  85
ATOM     85  C   UNL A   1      33.876  22.364  23.984  1.00  0.00     0.033 A 
ATOM     86  C   UNL A   1      34.390  21.693  25.153  1.00  0.00     0.024 A 
ATOM     87  C   UNL A   1      32.772  21.696  23.489  1.00  0.00     0.077 A 
ATOM     88  C   UNL A   1      33.770  20.486  25.385  1.00  0.00     0.065 A 
ATOM     89  S   UNL A   1      32.478  20.218  24.301  1.00  0.00    -0.152 S 
ENDBRANCH  83  85
ENDBRANCH  81  83
ENDBRANCH  75  77
ENDBRANCH  74  75
ENDBRANCH  73  74
ENDBRANCH  72  73
ENDBRANCH   1  72
TORSDOF 16
ENDMDL
