MODEL 1
REMARK VINA RESULT:     -12.3      0.000      0.000
REMARK SMILES CCc1nn(-c2cc(F)c(F)c(F)c2)c(Cl)c1C(=O)OCCOCCOC(=O)c1ccc(-c2c3nc(c(-c4c(F)c(F)c(F)c(F)c4F)c4ccc([nH]4)c(-c4c(F)c(F)c(F)c(F)c4F)c4nc(c(-c5c(F)c(F)c(F)c(F)c5F)c5ccc2[nH]5)C=C4)C=C3)cc1
REMARK SMILES IDX 24 1 23 2 22 3 21 4 20 5 18 6 19 7 17 8 3 9 4 10 5 11 15 12
REMARK SMILES IDX 16 13 2 14 1 15 6 16 7 17 14 18 8 19 12 20 9 21 10 22 13 23
REMARK SMILES IDX 11 24 25 25 26 26 27 27 28 28 29 29 30 30 91 31 31 32 90 33
REMARK SMILES IDX 32 34 33 35 34 36 84 37 35 38 89 39 83 40 85 41 36 42 88 43
REMARK SMILES IDX 82 44 81 45 37 47 69 48 49 49 68 50 50 51 53 52 67 53 86 54
REMARK SMILES IDX 51 55 52 56 66 58 87 59 54 60 38 61 39 62 47 63 40 64 41 65
REMARK SMILES IDX 45 66 48 67 42 68 43 69 46 70 44 71 70 72 71 73 79 74 72 75
REMARK SMILES IDX 73 76 77 77 80 78 74 79 75 80 78 81 76 82 55 83 56 84 64 85
REMARK SMILES IDX 57 86 58 87 62 88 65 89 59 90 60 91 63 92 61 93
REMARK H PARENT 85 46 53 57
REMARK Flexibility Score: inf
ROOT
ATOM      1  C   UNL A   1      37.636  21.621  25.001  1.00  0.00     0.202 C 
ENDROOT
BRANCH   1   2
ATOM      2  O   UNL A   1      37.137  22.918  24.699  1.00  0.00    -0.374 OA
BRANCH   2   3
ATOM      3  C   UNL A   1      36.288  23.106  23.568  1.00  0.00     0.202 C 
BRANCH   3   4
ATOM      4  C   UNL A   1      35.094  24.053  23.724  1.00  0.00     0.261 C 
BRANCH   4   5
ATOM      5  O   UNL A   1      34.170  23.936  22.631  1.00  0.00    -0.460 OA
BRANCH   5   6
ATOM      6  C   UNL A   1      33.520  25.098  22.315  1.00  0.00     0.343 C 
ATOM      7  O   UNL A   1      33.356  25.517  21.191  1.00  0.00    -0.246 OA
BRANCH   6   8
ATOM      8  C   UNL A   1      32.919  25.713  23.483  1.00  0.00     0.120 A 
ATOM      9  C   UNL A   1      31.918  25.252  24.381  1.00  0.00     0.079 A 
ATOM     10  N   UNL A   1      31.729  26.114  25.399  1.00  0.00    -0.171 NA
ATOM     11  N   UNL A   1      32.494  27.189  25.080  1.00  0.00    -0.221 N 
ATOM     12  C   UNL A   1      33.199  26.982  23.924  1.00  0.00     0.147 A 
ATOM     13  Cl  UNL A   1      34.229  28.184  23.278  1.00  0.00    -0.061 Cl
BRANCH   9  14
ATOM     14  C   UNL A   1      31.165  23.958  24.268  1.00  0.00     0.056 C 
ATOM     15  C   UNL A   1      31.162  23.066  25.497  1.00  0.00     0.011 C 
ENDBRANCH   9  14
BRANCH  11  16
ATOM     16  C   UNL A   1      32.623  28.292  25.949  1.00  0.00     0.072 A 
ATOM     17  C   UNL A   1      31.797  29.411  25.779  1.00  0.00     0.071 A 
ATOM     18  C   UNL A   1      33.723  28.333  26.811  1.00  0.00     0.071 A 
ATOM     19  C   UNL A   1      32.100  30.583  26.467  1.00  0.00     0.164 A 
ATOM     20  C   UNL A   1      34.020  29.529  27.461  1.00  0.00     0.164 A 
ATOM     21  F   UNL A   1      31.322  31.659  26.295  1.00  0.00    -0.204 F 
ATOM     22  C   UNL A   1      33.217  30.653  27.291  1.00  0.00     0.194 A 
ATOM     23  F   UNL A   1      35.123  29.604  28.218  1.00  0.00    -0.204 F 
ATOM     24  F   UNL A   1      33.535  31.806  27.896  1.00  0.00    -0.200 F 
ENDBRANCH  11  16
ENDBRANCH   6   8
ENDBRANCH   5   6
ENDBRANCH   4   5
ENDBRANCH   3   4
ENDBRANCH   2   3
ENDBRANCH   1   2
BRANCH   1  25
ATOM     25  C   UNL A   1      38.947  21.502  25.761  1.00  0.00     0.261 C 
BRANCH  25  26
ATOM     26  O   UNL A   1      39.195  22.615  26.607  1.00  0.00    -0.460 OA
BRANCH  26  27
ATOM     27  C   UNL A   1      40.502  22.769  26.920  1.00  0.00     0.338 C 
ATOM     28  O   UNL A   1      41.310  21.892  27.176  1.00  0.00    -0.246 OA
BRANCH  27  29
ATOM     29  C   UNL A   1      40.777  24.198  27.083  1.00  0.00     0.060 A 
ATOM     30  C   UNL A   1      41.750  24.550  28.020  1.00  0.00     0.016 A 
ATOM     31  C   UNL A   1      39.909  25.146  26.520  1.00  0.00     0.016 A 
ATOM     32  C   UNL A   1      41.737  25.831  28.524  1.00  0.00     0.010 A 
ATOM     33  C   UNL A   1      39.890  26.421  27.032  1.00  0.00     0.010 A 
ATOM     34  C   UNL A   1      40.755  26.726  28.078  1.00  0.00    -0.014 A 
BRANCH  34  35
ATOM     35  C   UNL A   1      40.755  28.067  28.621  1.00  0.00     0.031 A 
ATOM     36  C   UNL A   1      41.899  28.859  28.117  1.00  0.00     0.074 A 
ATOM     37  C   UNL A   1      39.777  28.542  29.415  1.00  0.00     0.049 A 
ATOM     38  N   UNL A   1      42.909  29.273  28.802  1.00  0.00    -0.248 NA
ATOM     39  C   UNL A   1      42.040  29.048  26.664  1.00  0.00     0.031 C 
ATOM     40  C   UNL A   1      38.502  27.900  29.753  1.00  0.00     0.029 A 
ATOM     41  N   UNL A   1      39.682  29.752  30.037  1.00  0.00    -0.354 N 
ATOM     42  C   UNL A   1      43.710  29.963  27.903  1.00  0.00     0.074 A 
ATOM     43  C   UNL A   1      43.233  29.639  26.585  1.00  0.00     0.031 C 
ATOM     44  C   UNL A   1      37.678  28.809  30.325  1.00  0.00     0.029 A 
ATOM     45  C   UNL A   1      38.414  30.044  30.530  1.00  0.00     0.049 A 
ATOM     46  H   UNL A   1      40.446  30.365  30.131  1.00  0.00     0.167 HD
ATOM     47  C   UNL A   1      44.512  30.969  28.339  1.00  0.00     0.037 A 
ATOM     48  C   UNL A   1      38.008  31.232  31.044  1.00  0.00     0.037 A 
ATOM     49  C   UNL A   1      44.660  30.926  29.769  1.00  0.00     0.049 A 
ATOM     50  C   UNL A   1      39.221  31.948  31.496  1.00  0.00     0.074 A 
ATOM     51  C   UNL A   1      45.393  30.175  30.661  1.00  0.00     0.029 A 
ATOM     52  N   UNL A   1      43.610  31.477  30.456  1.00  0.00    -0.354 N 
ATOM     53  N   UNL A   1      39.953  31.548  32.498  1.00  0.00    -0.248 NA
ATOM     54  C   UNL A   1      39.847  32.925  30.612  1.00  0.00     0.031 C 
ATOM     55  C   UNL A   1      44.647  30.164  31.877  1.00  0.00     0.029 A 
ATOM     56  C   UNL A   1      43.508  30.949  31.716  1.00  0.00     0.049 A 
ATOM     57  H   UNL A   1      43.007  32.164  30.091  1.00  0.00     0.167 HD
ATOM     58  C   UNL A   1      41.241  31.874  32.125  1.00  0.00     0.074 A 
ATOM     59  C   UNL A   1      41.102  32.865  31.066  1.00  0.00     0.031 C 
ATOM     60  C   UNL A   1      42.285  31.071  32.474  1.00  0.00     0.037 A 
BRANCH  47  61
ATOM     61  C   UNL A   1      44.768  32.230  27.557  1.00  0.00     0.064 A 
ATOM     62  C   UNL A   1      43.977  33.393  27.687  1.00  0.00     0.173 A 
ATOM     63  C   UNL A   1      45.989  32.396  26.878  1.00  0.00     0.173 A 
ATOM     64  F   UNL A   1      42.874  33.418  28.445  1.00  0.00    -0.203 F 
ATOM     65  C   UNL A   1      44.352  34.618  27.139  1.00  0.00     0.198 A 
ATOM     66  C   UNL A   1      46.389  33.640  26.378  1.00  0.00     0.198 A 
ATOM     67  F   UNL A   1      46.844  31.370  26.753  1.00  0.00    -0.203 F 
ATOM     68  F   UNL A   1      43.557  35.684  27.303  1.00  0.00    -0.200 F 
ATOM     69  C   UNL A   1      45.568  34.746  26.502  1.00  0.00     0.200 A 
ATOM     70  F   UNL A   1      47.601  33.775  25.821  1.00  0.00    -0.200 F 
ATOM     71  F   UNL A   1      45.963  35.944  26.053  1.00  0.00    -0.200 F 
ENDBRANCH  47  61
BRANCH  48  72
ATOM     72  C   UNL A   1      36.695  31.913  30.943  1.00  0.00     0.064 A 
ATOM     73  C   UNL A   1      36.380  32.707  29.826  1.00  0.00     0.173 A 
ATOM     74  C   UNL A   1      35.870  32.066  32.072  1.00  0.00     0.173 A 
ATOM     75  F   UNL A   1      37.143  32.672  28.724  1.00  0.00    -0.203 F 
ATOM     76  C   UNL A   1      35.338  33.638  29.854  1.00  0.00     0.198 A 
ATOM     77  C   UNL A   1      34.827  32.999  32.100  1.00  0.00     0.198 A 
ATOM     78  F   UNL A   1      36.120  31.369  33.191  1.00  0.00    -0.203 F 
ATOM     79  F   UNL A   1      35.126  34.431  28.795  1.00  0.00    -0.200 F 
ATOM     80  C   UNL A   1      34.575  33.796  30.997  1.00  0.00     0.200 A 
ATOM     81  F   UNL A   1      34.113  33.172  33.222  1.00  0.00    -0.200 F 
ATOM     82  F   UNL A   1      33.631  34.748  31.051  1.00  0.00    -0.200 F 
ENDBRANCH  48  72
BRANCH  60  83
ATOM     83  C   UNL A   1      42.082  30.145  33.634  1.00  0.00     0.064 A 
ATOM     84  C   UNL A   1      42.440  30.612  34.905  1.00  0.00     0.173 A 
ATOM     85  C   UNL A   1      41.652  28.813  33.527  1.00  0.00     0.173 A 
ATOM     86  F   UNL A   1      42.890  31.867  35.057  1.00  0.00    -0.203 F 
ATOM     87  C   UNL A   1      42.390  29.781  36.019  1.00  0.00     0.198 A 
ATOM     88  C   UNL A   1      41.566  27.993  34.651  1.00  0.00     0.198 A 
ATOM     89  F   UNL A   1      41.355  28.278  32.336  1.00  0.00    -0.203 F 
ATOM     90  F   UNL A   1      42.797  30.242  37.210  1.00  0.00    -0.200 F 
ATOM     91  C   UNL A   1      41.945  28.475  35.894  1.00  0.00     0.200 A 
ATOM     92  F   UNL A   1      41.146  26.725  34.529  1.00  0.00    -0.200 F 
ATOM     93  F   UNL A   1      41.908  27.675  36.968  1.00  0.00    -0.200 F 
ENDBRANCH  60  83
ENDBRANCH  34  35
ENDBRANCH  27  29
ENDBRANCH  26  27
ENDBRANCH  25  26
ENDBRANCH   1  25
TORSDOF 16
ENDMDL
MODEL 2
REMARK VINA RESULT:     -12.0      3.827      9.079
REMARK SMILES CCc1nn(-c2cc(F)c(F)c(F)c2)c(Cl)c1C(=O)OCCOCCOC(=O)c1ccc(-c2c3nc(c(-c4c(F)c(F)c(F)c(F)c4F)c4ccc([nH]4)c(-c4c(F)c(F)c(F)c(F)c4F)c4nc(c(-c5c(F)c(F)c(F)c(F)c5F)c5ccc2[nH]5)C=C4)C=C3)cc1
REMARK SMILES IDX 24 1 23 2 22 3 21 4 20 5 18 6 19 7 17 8 3 9 4 10 5 11 15 12
REMARK SMILES IDX 16 13 2 14 1 15 6 16 7 17 14 18 8 19 12 20 9 21 10 22 13 23
REMARK SMILES IDX 11 24 25 25 26 26 27 27 28 28 29 29 30 30 91 31 31 32 90 33
REMARK SMILES IDX 32 34 33 35 34 36 84 37 35 38 89 39 83 40 85 41 36 42 88 43
REMARK SMILES IDX 82 44 81 45 37 47 69 48 49 49 68 50 50 51 53 52 67 53 86 54
REMARK SMILES IDX 51 55 52 56 66 58 87 59 54 60 38 61 39 62 47 63 40 64 41 65
REMARK SMILES IDX 45 66 48 67 42 68 43 69 46 70 44 71 70 72 71 73 79 74 72 75
REMARK SMILES IDX 73 76 77 77 80 78 74 79 75 80 78 81 76 82 55 83 56 84 64 85
REMARK SMILES IDX 57 86 58 87 62 88 65 89 59 90 60 91 63 92 61 93
REMARK H PARENT 85 46 53 57
REMARK Flexibility Score: inf
ROOT
ATOM      1  C   UNL A   1      33.713  29.765  26.789  1.00  0.00     0.202 C 
ENDROOT
BRANCH   1   2
ATOM      2  O   UNL A   1      33.104  28.635  27.400  1.00  0.00    -0.374 OA
BRANCH   2   3
ATOM      3  C   UNL A   1      31.711  28.389  27.209  1.00  0.00     0.202 C 
BRANCH   3   4
ATOM      4  C   UNL A   1      31.312  27.162  26.385  1.00  0.00     0.261 C 
BRANCH   4   5
ATOM      5  O   UNL A   1      31.762  25.940  26.990  1.00  0.00    -0.460 OA
BRANCH   5   6
ATOM      6  C   UNL A   1      31.634  24.835  26.193  1.00  0.00     0.343 C 
ATOM      7  O   UNL A   1      30.607  24.214  26.028  1.00  0.00    -0.246 OA
BRANCH   6   8
ATOM      8  C   UNL A   1      32.849  24.564  25.450  1.00  0.00     0.120 A 
ATOM      9  C   UNL A   1      33.278  24.982  24.160  1.00  0.00     0.079 A 
ATOM     10  N   UNL A   1      34.535  24.575  23.899  1.00  0.00    -0.171 NA
ATOM     11  N   UNL A   1      34.859  23.776  24.948  1.00  0.00    -0.221 N 
ATOM     12  C   UNL A   1      33.855  23.735  25.879  1.00  0.00     0.147 A 
ATOM     13  Cl  UNL A   1      33.989  22.787  27.296  1.00  0.00    -0.061 Cl
BRANCH   9  14
ATOM     14  C   UNL A   1      32.478  25.804  23.192  1.00  0.00     0.056 C 
ATOM     15  C   UNL A   1      33.104  26.047  21.830  1.00  0.00     0.011 C 
ENDBRANCH   9  14
BRANCH  11  16
ATOM     16  C   UNL A   1      36.143  23.208  25.080  1.00  0.00     0.072 A 
ATOM     17  C   UNL A   1      36.371  21.897  24.640  1.00  0.00     0.071 A 
ATOM     18  C   UNL A   1      37.092  23.884  25.853  1.00  0.00     0.071 A 
ATOM     19  C   UNL A   1      37.556  21.262  25.004  1.00  0.00     0.164 A 
ATOM     20  C   UNL A   1      38.253  23.212  26.227  1.00  0.00     0.164 A 
ATOM     21  F   UNL A   1      37.770  20.003  24.598  1.00  0.00    -0.204 F 
ATOM     22  C   UNL A   1      38.488  21.905  25.810  1.00  0.00     0.194 A 
ATOM     23  F   UNL A   1      39.126  23.820  27.041  1.00  0.00    -0.204 F 
ATOM     24  F   UNL A   1      39.593  21.259  26.206  1.00  0.00    -0.200 F 
ENDBRANCH  11  16
ENDBRANCH   6   8
ENDBRANCH   5   6
ENDBRANCH   4   5
ENDBRANCH   3   4
ENDBRANCH   2   3
ENDBRANCH   1   2
BRANCH   1  25
ATOM     25  C   UNL A   1      33.883  31.035  27.608  1.00  0.00     0.261 C 
BRANCH  25  26
ATOM     26  O   UNL A   1      35.244  31.406  27.769  1.00  0.00    -0.460 OA
BRANCH  26  27
ATOM     27  C   UNL A   1      35.535  31.848  29.014  1.00  0.00     0.338 C 
ATOM     28  O   UNL A   1      35.095  32.841  29.568  1.00  0.00    -0.246 OA
BRANCH  27  29
ATOM     29  C   UNL A   1      36.621  31.031  29.557  1.00  0.00     0.060 A 
ATOM     30  C   UNL A   1      37.824  31.683  29.834  1.00  0.00     0.016 A 
ATOM     31  C   UNL A   1      36.523  29.631  29.532  1.00  0.00     0.016 A 
ATOM     32  C   UNL A   1      38.973  30.928  29.915  1.00  0.00     0.010 A 
ATOM     33  C   UNL A   1      37.672  28.879  29.602  1.00  0.00     0.010 A 
ATOM     34  C   UNL A   1      38.889  29.543  29.720  1.00  0.00    -0.014 A 
BRANCH  34  35
ATOM     35  C   UNL A   1      40.107  28.766  29.806  1.00  0.00     0.031 A 
ATOM     36  C   UNL A   1      40.588  28.661  31.201  1.00  0.00     0.074 A 
ATOM     37  C   UNL A   1      40.666  28.151  28.747  1.00  0.00     0.049 A 
ATOM     38  N   UNL A   1      41.655  29.193  31.689  1.00  0.00    -0.248 NA
ATOM     39  C   UNL A   1      39.697  28.065  32.211  1.00  0.00     0.031 C 
ATOM     40  C   UNL A   1      40.116  28.011  27.395  1.00  0.00     0.029 A 
ATOM     41  N   UNL A   1      41.831  27.445  28.676  1.00  0.00    -0.354 N 
ATOM     42  C   UNL A   1      41.680  28.818  33.026  1.00  0.00     0.074 A 
ATOM     43  C   UNL A   1      40.378  28.291  33.336  1.00  0.00     0.031 C 
ATOM     44  C   UNL A   1      40.830  27.086  26.712  1.00  0.00     0.029 A 
ATOM     45  C   UNL A   1      41.969  26.685  27.519  1.00  0.00     0.049 A 
ATOM     46  H   UNL A   1      42.516  27.472  29.382  1.00  0.00     0.167 HD
ATOM     47  C   UNL A   1      42.866  28.707  33.679  1.00  0.00     0.037 A 
ATOM     48  C   UNL A   1      42.944  25.776  27.269  1.00  0.00     0.037 A 
ATOM     49  C   UNL A   1      43.920  29.353  32.945  1.00  0.00     0.049 A 
ATOM     50  C   UNL A   1      44.092  26.119  28.137  1.00  0.00     0.074 A 
ATOM     51  C   UNL A   1      44.334  30.653  32.753  1.00  0.00     0.029 A 
ATOM     52  N   UNL A   1      44.427  28.602  31.917  1.00  0.00    -0.354 N 
ATOM     53  N   UNL A   1      44.800  27.203  27.986  1.00  0.00    -0.248 NA
ATOM     54  C   UNL A   1      44.250  25.439  29.418  1.00  0.00     0.031 C 
ATOM     55  C   UNL A   1      44.973  30.682  31.479  1.00  0.00     0.029 A 
ATOM     56  C   UNL A   1      44.982  29.394  30.947  1.00  0.00     0.049 A 
ATOM     57  H   UNL A   1      44.396  27.619  31.880  1.00  0.00     0.167 HD
ATOM     58  C   UNL A   1      45.136  27.568  29.274  1.00  0.00     0.074 A 
ATOM     59  C   UNL A   1      44.936  26.372  30.083  1.00  0.00     0.031 C 
ATOM     60  C   UNL A   1      45.222  28.883  29.618  1.00  0.00     0.037 A 
BRANCH  47  61
ATOM     61  C   UNL A   1      43.156  27.645  34.706  1.00  0.00     0.064 A 
ATOM     62  C   UNL A   1      43.415  26.297  34.372  1.00  0.00     0.173 A 
ATOM     63  C   UNL A   1      43.470  28.016  36.027  1.00  0.00     0.173 A 
ATOM     64  F   UNL A   1      43.318  25.849  33.114  1.00  0.00    -0.203 F 
ATOM     65  C   UNL A   1      43.905  25.378  35.297  1.00  0.00     0.198 A 
ATOM     66  C   UNL A   1      44.014  27.104  36.937  1.00  0.00     0.198 A 
ATOM     67  F   UNL A   1      43.321  29.287  36.431  1.00  0.00    -0.203 F 
ATOM     68  F   UNL A   1      44.133  24.115  34.911  1.00  0.00    -0.200 F 
ATOM     69  C   UNL A   1      44.223  25.786  36.574  1.00  0.00     0.200 A 
ATOM     70  F   UNL A   1      44.386  27.521  38.156  1.00  0.00    -0.200 F 
ATOM     71  F   UNL A   1      44.774  24.919  37.434  1.00  0.00    -0.200 F 
ENDBRANCH  47  61
BRANCH  48  72
ATOM     72  C   UNL A   1      42.878  24.486  26.541  1.00  0.00     0.064 A 
ATOM     73  C   UNL A   1      42.442  23.316  27.186  1.00  0.00     0.173 A 
ATOM     74  C   UNL A   1      43.546  24.312  25.314  1.00  0.00     0.173 A 
ATOM     75  F   UNL A   1      41.847  23.377  28.386  1.00  0.00    -0.203 F 
ATOM     76  C   UNL A   1      42.705  22.046  26.666  1.00  0.00     0.198 A 
ATOM     77  C   UNL A   1      43.810  23.040  24.795  1.00  0.00     0.198 A 
ATOM     78  F   UNL A   1      44.023  25.375  24.648  1.00  0.00    -0.203 F 
ATOM     79  F   UNL A   1      42.342  20.956  27.358  1.00  0.00    -0.200 F 
ATOM     80  C   UNL A   1      43.406  21.908  25.482  1.00  0.00     0.200 A 
ATOM     81  F   UNL A   1      44.519  22.912  23.664  1.00  0.00    -0.200 F 
ATOM     82  F   UNL A   1      43.730  20.689  25.028  1.00  0.00    -0.200 F 
ENDBRANCH  48  72
BRANCH  60  83
ATOM     83  C   UNL A   1      45.428  29.871  28.512  1.00  0.00     0.064 A 
ATOM     84  C   UNL A   1      46.746  30.227  28.198  1.00  0.00     0.173 A 
ATOM     85  C   UNL A   1      44.395  30.538  27.834  1.00  0.00     0.173 A 
ATOM     86  F   UNL A   1      47.769  29.644  28.842  1.00  0.00    -0.203 F 
ATOM     87  C   UNL A   1      47.023  31.218  27.263  1.00  0.00     0.198 A 
ATOM     88  C   UNL A   1      44.675  31.505  26.869  1.00  0.00     0.198 A 
ATOM     89  F   UNL A   1      43.111  30.297  28.126  1.00  0.00    -0.203 F 
ATOM     90  F   UNL A   1      48.294  31.576  27.031  1.00  0.00    -0.200 F 
ATOM     91  C   UNL A   1      45.989  31.851  26.593  1.00  0.00     0.200 A 
ATOM     92  F   UNL A   1      43.675  32.126  26.227  1.00  0.00    -0.200 F 
ATOM     93  F   UNL A   1      46.259  32.812  25.700  1.00  0.00    -0.200 F 
ENDBRANCH  60  83
ENDBRANCH  34  35
ENDBRANCH  27  29
ENDBRANCH  26  27
ENDBRANCH  25  26
ENDBRANCH   1  25
TORSDOF 16
ENDMDL
MODEL 3
REMARK VINA RESULT:     -12.0      3.778      9.058
REMARK SMILES CCc1nn(-c2cc(F)c(F)c(F)c2)c(Cl)c1C(=O)OCCOCCOC(=O)c1ccc(-c2c3nc(c(-c4c(F)c(F)c(F)c(F)c4F)c4ccc([nH]4)c(-c4c(F)c(F)c(F)c(F)c4F)c4nc(c(-c5c(F)c(F)c(F)c(F)c5F)c5ccc2[nH]5)C=C4)C=C3)cc1
REMARK SMILES IDX 24 1 23 2 22 3 21 4 20 5 18 6 19 7 17 8 3 9 4 10 5 11 15 12
REMARK SMILES IDX 16 13 2 14 1 15 6 16 7 17 14 18 8 19 12 20 9 21 10 22 13 23
REMARK SMILES IDX 11 24 25 25 26 26 27 27 28 28 29 29 30 30 91 31 31 32 90 33
REMARK SMILES IDX 32 34 33 35 34 36 84 37 35 38 89 39 83 40 85 41 36 42 88 43
REMARK SMILES IDX 82 44 81 45 37 47 69 48 49 49 68 50 50 51 53 52 67 53 86 54
REMARK SMILES IDX 51 55 52 56 66 58 87 59 54 60 38 61 39 62 47 63 40 64 41 65
REMARK SMILES IDX 45 66 48 67 42 68 43 69 46 70 44 71 70 72 71 73 79 74 72 75
REMARK SMILES IDX 73 76 77 77 80 78 74 79 75 80 78 81 76 82 55 83 56 84 64 85
REMARK SMILES IDX 57 86 58 87 62 88 65 89 59 90 60 91 63 92 61 93
REMARK H PARENT 85 46 53 57
REMARK Flexibility Score: inf
ROOT
ATOM      1  C   UNL A   1      34.003  29.495  26.448  1.00  0.00     0.202 C 
ENDROOT
BRANCH   1   2
ATOM      2  O   UNL A   1      33.190  28.366  26.741  1.00  0.00    -0.374 OA
BRANCH   2   3
ATOM      3  C   UNL A   1      31.775  28.451  26.582  1.00  0.00     0.202 C 
BRANCH   3   4
ATOM      4  C   UNL A   1      30.994  27.140  26.447  1.00  0.00     0.261 C 
BRANCH   4   5
ATOM      5  O   UNL A   1      31.715  26.027  26.998  1.00  0.00    -0.460 OA
BRANCH   5   6
ATOM      6  C   UNL A   1      31.625  24.877  26.262  1.00  0.00     0.343 C 
ATOM      7  O   UNL A   1      30.628  24.198  26.155  1.00  0.00    -0.246 OA
BRANCH   6   8
ATOM      8  C   UNL A   1      32.836  24.627  25.504  1.00  0.00     0.120 A 
ATOM      9  C   UNL A   1      33.266  25.097  24.233  1.00  0.00     0.079 A 
ATOM     10  N   UNL A   1      34.519  24.689  23.951  1.00  0.00    -0.171 NA
ATOM     11  N   UNL A   1      34.837  23.843  24.963  1.00  0.00    -0.221 N 
ATOM     12  C   UNL A   1      33.835  23.770  25.894  1.00  0.00     0.147 A 
ATOM     13  Cl  UNL A   1      33.963  22.760  27.268  1.00  0.00    -0.061 Cl
BRANCH   9  14
ATOM     14  C   UNL A   1      32.472  25.968  23.304  1.00  0.00     0.056 C 
ATOM     15  C   UNL A   1      32.233  25.426  21.905  1.00  0.00     0.011 C 
ENDBRANCH   9  14
BRANCH  11  16
ATOM     16  C   UNL A   1      36.116  23.257  25.066  1.00  0.00     0.072 A 
ATOM     17  C   UNL A   1      36.307  21.929  24.663  1.00  0.00     0.071 A 
ATOM     18  C   UNL A   1      37.104  23.942  25.781  1.00  0.00     0.071 A 
ATOM     19  C   UNL A   1      37.494  21.286  25.003  1.00  0.00     0.164 A 
ATOM     20  C   UNL A   1      38.267  23.262  26.134  1.00  0.00     0.164 A 
ATOM     21  F   UNL A   1      37.673  20.011  24.632  1.00  0.00    -0.204 F 
ATOM     22  C   UNL A   1      38.465  21.939  25.753  1.00  0.00     0.194 A 
ATOM     23  F   UNL A   1      39.179  23.882  26.895  1.00  0.00    -0.204 F 
ATOM     24  F   UNL A   1      39.574  21.287  26.129  1.00  0.00    -0.200 F 
ENDBRANCH  11  16
ENDBRANCH   6   8
ENDBRANCH   5   6
ENDBRANCH   4   5
ENDBRANCH   3   4
ENDBRANCH   2   3
ENDBRANCH   1   2
BRANCH   1  25
ATOM     25  C   UNL A   1      33.644  30.834  27.071  1.00  0.00     0.261 C 
BRANCH  25  26
ATOM     26  O   UNL A   1      34.311  31.064  28.303  1.00  0.00    -0.460 OA
BRANCH  26  27
ATOM     27  C   UNL A   1      35.462  31.762  28.167  1.00  0.00     0.338 C 
ATOM     28  O   UNL A   1      35.641  32.773  27.510  1.00  0.00    -0.246 OA
BRANCH  27  29
ATOM     29  C   UNL A   1      36.543  31.007  28.805  1.00  0.00     0.060 A 
ATOM     30  C   UNL A   1      37.738  31.690  29.036  1.00  0.00     0.016 A 
ATOM     31  C   UNL A   1      36.450  29.611  28.915  1.00  0.00     0.016 A 
ATOM     32  C   UNL A   1      38.888  30.952  29.208  1.00  0.00     0.010 A 
ATOM     33  C   UNL A   1      37.600  28.876  29.076  1.00  0.00     0.010 A 
ATOM     34  C   UNL A   1      38.813  29.554  29.148  1.00  0.00    -0.014 A 
BRANCH  34  35
ATOM     35  C   UNL A   1      40.032  28.796  29.329  1.00  0.00     0.031 A 
ATOM     36  C   UNL A   1      40.366  28.635  30.761  1.00  0.00     0.074 A 
ATOM     37  C   UNL A   1      40.713  28.239  28.309  1.00  0.00     0.049 A 
ATOM     38  N   UNL A   1      41.364  29.163  31.382  1.00  0.00    -0.248 NA
ATOM     39  C   UNL A   1      39.387  27.979  31.644  1.00  0.00     0.031 C 
ATOM     40  C   UNL A   1      40.311  28.152  26.902  1.00  0.00     0.029 A 
ATOM     41  N   UNL A   1      41.894  27.558  28.332  1.00  0.00    -0.354 N 
ATOM     42  C   UNL A   1      41.256  28.728  32.696  1.00  0.00     0.074 A 
ATOM     43  C   UNL A   1      39.941  28.165  32.843  1.00  0.00     0.031 C 
ATOM     44  C   UNL A   1      41.114  27.271  26.259  1.00  0.00     0.029 A 
ATOM     45  C   UNL A   1      42.170  26.854  27.163  1.00  0.00     0.049 A 
ATOM     46  H   UNL A   1      42.500  27.565  29.107  1.00  0.00     0.167 HD
ATOM     47  C   UNL A   1      42.369  28.609  33.467  1.00  0.00     0.037 A 
ATOM     48  C   UNL A   1      43.186  25.974  26.979  1.00  0.00     0.037 A 
ATOM     49  C   UNL A   1      43.480  29.306  32.877  1.00  0.00     0.049 A 
ATOM     50  C   UNL A   1      44.229  26.298  27.979  1.00  0.00     0.074 A 
ATOM     51  C   UNL A   1      43.882  30.621  32.787  1.00  0.00     0.029 A 
ATOM     52  N   UNL A   1      44.109  28.612  31.876  1.00  0.00    -0.354 N 
ATOM     53  N   UNL A   1      44.925  27.400  27.951  1.00  0.00    -0.248 NA
ATOM     54  C   UNL A   1      44.267  25.563  29.238  1.00  0.00     0.031 C 
ATOM     55  C   UNL A   1      44.651  30.720  31.590  1.00  0.00     0.029 A 
ATOM     56  C   UNL A   1      44.744  29.457  31.007  1.00  0.00     0.049 A 
ATOM     57  H   UNL A   1      44.104  27.631  31.794  1.00  0.00     0.167 HD
ATOM     58  C   UNL A   1      45.114  27.712  29.282  1.00  0.00     0.074 A 
ATOM     59  C   UNL A   1      44.857  26.478  30.012  1.00  0.00     0.031 C 
ATOM     60  C   UNL A   1      45.134  29.012  29.690  1.00  0.00     0.037 A 
BRANCH  47  61
ATOM     61  C   UNL A   1      42.573  27.506  34.471  1.00  0.00     0.064 A 
ATOM     62  C   UNL A   1      41.985  27.514  35.756  1.00  0.00     0.173 A 
ATOM     63  C   UNL A   1      43.122  26.278  34.060  1.00  0.00     0.173 A 
ATOM     64  F   UNL A   1      41.285  28.562  36.208  1.00  0.00    -0.203 F 
ATOM     65  C   UNL A   1      41.989  26.396  36.587  1.00  0.00     0.198 A 
ATOM     66  C   UNL A   1      43.074  25.142  34.875  1.00  0.00     0.198 A 
ATOM     67  F   UNL A   1      43.649  26.144  32.834  1.00  0.00    -0.203 F 
ATOM     68  F   UNL A   1      41.410  26.471  37.793  1.00  0.00    -0.200 F 
ATOM     69  C   UNL A   1      42.516  25.204  36.139  1.00  0.00     0.200 A 
ATOM     70  F   UNL A   1      43.525  23.969  34.408  1.00  0.00    -0.200 F 
ATOM     71  F   UNL A   1      42.440  24.110  36.907  1.00  0.00    -0.200 F 
ENDBRANCH  47  61
BRANCH  48  72
ATOM     72  C   UNL A   1      43.227  24.719  26.193  1.00  0.00     0.064 A 
ATOM     73  C   UNL A   1      42.614  23.548  26.674  1.00  0.00     0.173 A 
ATOM     74  C   UNL A   1      44.135  24.558  25.130  1.00  0.00     0.173 A 
ATOM     75  F   UNL A   1      41.777  23.594  27.720  1.00  0.00    -0.203 F 
ATOM     76  C   UNL A   1      42.931  22.287  26.162  1.00  0.00     0.198 A 
ATOM     77  C   UNL A   1      44.453  23.295  24.619  1.00  0.00     0.198 A 
ATOM     78  F   UNL A   1      44.787  25.620  24.633  1.00  0.00    -0.203 F 
ATOM     79  F   UNL A   1      42.383  21.191  26.707  1.00  0.00    -0.200 F 
ATOM     80  C   UNL A   1      43.864  22.160  25.149  1.00  0.00     0.200 A 
ATOM     81  F   UNL A   1      45.383  23.175  23.660  1.00  0.00    -0.200 F 
ATOM     82  F   UNL A   1      44.228  20.943  24.717  1.00  0.00    -0.200 F 
ENDBRANCH  48  72
BRANCH  60  83
ATOM     83  C   UNL A   1      45.433  30.052  28.655  1.00  0.00     0.064 A 
ATOM     84  C   UNL A   1      46.770  30.435  28.489  1.00  0.00     0.173 A 
ATOM     85  C   UNL A   1      44.462  30.740  27.910  1.00  0.00     0.173 A 
ATOM     86  F   UNL A   1      47.734  29.832  29.203  1.00  0.00    -0.203 F 
ATOM     87  C   UNL A   1      47.123  31.472  27.632  1.00  0.00     0.198 A 
ATOM     88  C   UNL A   1      44.822  31.754  27.023  1.00  0.00     0.198 A 
ATOM     89  F   UNL A   1      43.159  30.474  28.064  1.00  0.00    -0.203 F 
ATOM     90  F   UNL A   1      48.405  31.853  27.543  1.00  0.00    -0.200 F 
ATOM     91  C   UNL A   1      46.151  32.125  26.894  1.00  0.00     0.200 A 
ATOM     92  F   UNL A   1      43.880  32.395  26.315  1.00  0.00    -0.200 F 
ATOM     93  F   UNL A   1      46.493  33.130  26.076  1.00  0.00    -0.200 F 
ENDBRANCH  60  83
ENDBRANCH  34  35
ENDBRANCH  27  29
ENDBRANCH  26  27
ENDBRANCH  25  26
ENDBRANCH   1  25
TORSDOF 16
ENDMDL
