MODEL 1
REMARK VINA RESULT:     -11.8      0.000      0.000
REMARK SMILES Cc1ccc(/C=C/C(=O)N2CCC[C@@H](C(=O)OCCOCCOC(=O)c3ccc(-c4c5nc(c(-c6c(F)c(F)c(F)c(F)c6F)c6ccc([nH]6)c(-c6c(F)c(F)c(F)c(F)c6F)c6nc(c(-c7c(F)c(F)c(F)c(F)c7F)c7ccc4[nH]7)C=C6)C=C5)cc3)C2)s1
REMARK SMILES IDX 19 1 18 2 17 3 15 4 16 5 14 6 10 7 11 8 89 9 12 10 13 11
REMARK SMILES IDX 8 12 9 13 7 14 6 15 5 16 1 17 2 18 3 19 90 20 4 21 20 22
REMARK SMILES IDX 21 23 22 24 23 25 24 26 25 27 26 28 27 29 88 30 28 31 87 32
REMARK SMILES IDX 29 33 30 34 31 35 81 36 32 37 86 38 80 39 82 40 33 41 85 42
REMARK SMILES IDX 79 43 78 44 34 46 66 47 46 48 65 49 47 50 50 51 64 52 83 53
REMARK SMILES IDX 48 54 49 55 63 57 84 58 51 59 35 60 36 61 44 62 37 63 38 64
REMARK SMILES IDX 42 65 45 66 39 67 40 68 43 69 41 70 67 71 68 72 76 73 69 74
REMARK SMILES IDX 70 75 74 76 77 77 71 78 72 79 75 80 73 81 52 82 53 83 61 84
REMARK SMILES IDX 54 85 55 86 59 87 62 88 56 89 57 90 60 91 58 92
REMARK H PARENT 82 45 50 56
REMARK Flexibility Score: inf
ROOT
ATOM      1  C   UNL A   1      39.288  21.838  26.345  1.00  0.00     0.202 C 
ENDROOT
BRANCH   1   2
ATOM      2  C   UNL A   1      38.174  22.336  25.422  1.00  0.00     0.261 C 
BRANCH   2   3
ATOM      3  O   UNL A   1      36.866  22.141  25.992  1.00  0.00    -0.463 OA
BRANCH   3   4
ATOM      4  C   UNL A   1      36.168  21.086  25.492  1.00  0.00     0.310 C 
ATOM      5  O   UNL A   1      36.660  20.145  24.882  1.00  0.00    -0.252 OA
BRANCH   4   6
ATOM      6  C   UNL A   1      34.677  21.220  25.697  1.00  0.00     0.119 C 
ATOM      7  N   UNL A   1      32.625  22.575  25.538  1.00  0.00    -0.338 N 
ATOM      8  C   UNL A   1      31.908  21.504  24.852  1.00  0.00     0.120 C 
ATOM      9  C   UNL A   1      34.084  22.597  25.352  1.00  0.00     0.135 C 
ATOM     10  C   UNL A   1      32.474  20.135  25.202  1.00  0.00     0.022 C 
ATOM     11  C   UNL A   1      33.973  20.097  24.929  1.00  0.00     0.019 C 
BRANCH   7  12
ATOM     12  C   UNL A   1      31.932  23.326  26.467  1.00  0.00     0.246 C 
ATOM     13  O   UNL A   1      31.752  22.953  27.625  1.00  0.00    -0.270 OA
BRANCH  12  14
ATOM     14  C   UNL A   1      31.279  24.593  26.047  1.00  0.00     0.073 C 
ATOM     15  C   UNL A   1      31.874  25.784  26.217  1.00  0.00     0.024 C 
BRANCH  15  16
ATOM     16  C   UNL A   1      31.474  26.976  25.534  1.00  0.00     0.027 A 
ATOM     17  C   UNL A   1      29.937  29.256  22.700  1.00  0.00     0.056 C 
ATOM     18  C   UNL A   1      30.613  28.626  23.870  1.00  0.00     0.002 A 
ATOM     19  C   UNL A   1      31.468  29.204  24.782  1.00  0.00     0.016 A 
ATOM     20  S   UNL A   1      30.374  26.970  24.204  1.00  0.00    -0.141 S 
ATOM     21  C   UNL A   1      31.961  28.259  25.731  1.00  0.00     0.020 A 
ENDBRANCH  15  16
ENDBRANCH  12  14
ENDBRANCH   7  12
ENDBRANCH   4   6
ENDBRANCH   3   4
ENDBRANCH   2   3
ENDBRANCH   1   2
BRANCH   1  22
ATOM     22  O   UNL A   1      40.278  21.001  25.754  1.00  0.00    -0.374 OA
BRANCH  22  23
ATOM     23  C   UNL A   1      41.523  20.860  26.436  1.00  0.00     0.202 C 
BRANCH  23  24
ATOM     24  C   UNL A   1      42.737  21.545  25.797  1.00  0.00     0.261 C 
BRANCH  24  25
ATOM     25  O   UNL A   1      42.363  22.702  25.023  1.00  0.00    -0.460 OA
BRANCH  25  26
ATOM     26  C   UNL A   1      43.189  23.765  25.159  1.00  0.00     0.338 C 
ATOM     27  O   UNL A   1      44.262  23.951  24.597  1.00  0.00    -0.246 OA
BRANCH  26  28
ATOM     28  C   UNL A   1      42.550  24.808  25.982  1.00  0.00     0.060 A 
ATOM     29  C   UNL A   1      43.132  26.084  25.989  1.00  0.00     0.016 A 
ATOM     30  C   UNL A   1      41.460  24.521  26.805  1.00  0.00     0.016 A 
ATOM     31  C   UNL A   1      42.661  27.064  26.860  1.00  0.00     0.010 A 
ATOM     32  C   UNL A   1      40.996  25.501  27.687  1.00  0.00     0.010 A 
ATOM     33  C   UNL A   1      41.620  26.763  27.745  1.00  0.00    -0.014 A 
BRANCH  33  34
ATOM     34  C   UNL A   1      41.287  27.689  28.853  1.00  0.00     0.031 A 
ATOM     35  C   UNL A   1      42.095  27.611  30.118  1.00  0.00     0.074 A 
ATOM     36  C   UNL A   1      40.280  28.570  28.745  1.00  0.00     0.049 A 
ATOM     37  N   UNL A   1      41.901  28.203  31.269  1.00  0.00    -0.248 NA
ATOM     38  C   UNL A   1      43.281  26.740  30.082  1.00  0.00     0.031 C 
ATOM     39  C   UNL A   1      39.468  28.783  27.550  1.00  0.00     0.029 A 
ATOM     40  N   UNL A   1      39.756  29.439  29.670  1.00  0.00    -0.354 N 
ATOM     41  C   UNL A   1      42.925  27.763  32.096  1.00  0.00     0.074 A 
ATOM     42  C   UNL A   1      43.731  26.842  31.323  1.00  0.00     0.031 C 
ATOM     43  C   UNL A   1      38.528  29.705  27.822  1.00  0.00     0.029 A 
ATOM     44  C   UNL A   1      38.647  30.111  29.221  1.00  0.00     0.049 A 
ATOM     45  H   UNL A   1      40.138  29.566  30.569  1.00  0.00     0.167 HD
ATOM     46  C   UNL A   1      43.169  28.097  33.385  1.00  0.00     0.037 A 
ATOM     47  C   UNL A   1      37.804  30.930  29.881  1.00  0.00     0.037 A 
ATOM     48  C   UNL A   1      42.367  29.017  34.146  1.00  0.00     0.049 A 
ATOM     49  C   UNL A   1      38.049  31.227  31.339  1.00  0.00     0.074 A 
ATOM     50  C   UNL A   1      42.533  29.428  35.458  1.00  0.00     0.029 A 
ATOM     51  N   UNL A   1      41.243  29.669  33.660  1.00  0.00    -0.354 N 
ATOM     52  N   UNL A   1      39.016  30.805  32.118  1.00  0.00    -0.248 NA
ATOM     53  C   UNL A   1      37.084  32.111  32.009  1.00  0.00     0.031 C 
ATOM     54  C   UNL A   1      41.483  30.294  35.779  1.00  0.00     0.029 A 
ATOM     55  C   UNL A   1      40.694  30.463  34.652  1.00  0.00     0.049 A 
ATOM     56  H   UNL A   1      40.888  29.579  32.747  1.00  0.00     0.167 HD
ATOM     57  C   UNL A   1      38.796  31.398  33.354  1.00  0.00     0.074 A 
ATOM     58  C   UNL A   1      37.604  32.209  33.223  1.00  0.00     0.031 C 
ATOM     59  C   UNL A   1      39.521  31.284  34.495  1.00  0.00     0.037 A 
BRANCH  46  60
ATOM     60  C   UNL A   1      44.333  27.438  34.064  1.00  0.00     0.064 A 
ATOM     61  C   UNL A   1      44.191  26.235  34.770  1.00  0.00     0.173 A 
ATOM     62  C   UNL A   1      45.613  28.004  33.980  1.00  0.00     0.173 A 
ATOM     63  F   UNL A   1      42.984  25.662  34.893  1.00  0.00    -0.203 F 
ATOM     64  C   UNL A   1      45.286  25.634  35.387  1.00  0.00     0.198 A 
ATOM     65  C   UNL A   1      46.711  27.387  34.575  1.00  0.00     0.198 A 
ATOM     66  F   UNL A   1      45.802  29.154  33.315  1.00  0.00    -0.203 F 
ATOM     67  F   UNL A   1      45.120  24.507  36.094  1.00  0.00    -0.200 F 
ATOM     68  C   UNL A   1      46.545  26.207  35.282  1.00  0.00     0.200 A 
ATOM     69  F   UNL A   1      47.928  27.937  34.464  1.00  0.00    -0.200 F 
ATOM     70  F   UNL A   1      47.598  25.624  35.872  1.00  0.00    -0.200 F 
ENDBRANCH  46  60
BRANCH  47  71
ATOM     71  C   UNL A   1      36.631  31.509  29.176  1.00  0.00     0.064 A 
ATOM     72  C   UNL A   1      36.583  32.872  28.854  1.00  0.00     0.173 A 
ATOM     73  C   UNL A   1      35.530  30.715  28.823  1.00  0.00     0.173 A 
ATOM     74  F   UNL A   1      37.600  33.676  29.195  1.00  0.00    -0.203 F 
ATOM     75  C   UNL A   1      35.472  33.422  28.217  1.00  0.00     0.198 A 
ATOM     76  C   UNL A   1      34.431  31.262  28.162  1.00  0.00     0.198 A 
ATOM     77  F   UNL A   1      35.526  29.405  29.110  1.00  0.00    -0.203 F 
ATOM     78  F   UNL A   1      35.433  34.736  27.959  1.00  0.00    -0.200 F 
ATOM     79  C   UNL A   1      34.399  32.615  27.866  1.00  0.00     0.200 A 
ATOM     80  F   UNL A   1      33.403  30.476  27.814  1.00  0.00    -0.200 F 
ATOM     81  F   UNL A   1      33.333  33.144  27.251  1.00  0.00    -0.200 F 
ENDBRANCH  47  71
BRANCH  59  82
ATOM     82  C   UNL A   1      39.088  32.099  35.678  1.00  0.00     0.064 A 
ATOM     83  C   UNL A   1      38.267  31.564  36.683  1.00  0.00     0.173 A 
ATOM     84  C   UNL A   1      39.562  33.410  35.843  1.00  0.00     0.173 A 
ATOM     85  F   UNL A   1      37.778  30.321  36.563  1.00  0.00    -0.203 F 
ATOM     86  C   UNL A   1      37.927  32.319  37.802  1.00  0.00     0.198 A 
ATOM     87  C   UNL A   1      39.241  34.150  36.976  1.00  0.00     0.198 A 
ATOM     88  F   UNL A   1      40.356  33.962  34.913  1.00  0.00    -0.203 F 
ATOM     89  F   UNL A   1      37.117  31.801  38.735  1.00  0.00    -0.200 F 
ATOM     90  C   UNL A   1      38.421  33.606  37.953  1.00  0.00     0.200 A 
ATOM     91  F   UNL A   1      39.731  35.389  37.126  1.00  0.00    -0.200 F 
ATOM     92  F   UNL A   1      38.105  34.324  39.039  1.00  0.00    -0.200 F 
ENDBRANCH  59  82
ENDBRANCH  33  34
ENDBRANCH  26  28
ENDBRANCH  25  26
ENDBRANCH  24  25
ENDBRANCH  23  24
ENDBRANCH  22  23
ENDBRANCH   1  22
TORSDOF 17
ENDMDL
MODEL 2
REMARK VINA RESULT:     -11.5      3.174      8.117
REMARK SMILES Cc1ccc(/C=C/C(=O)N2CCC[C@@H](C(=O)OCCOCCOC(=O)c3ccc(-c4c5nc(c(-c6c(F)c(F)c(F)c(F)c6F)c6ccc([nH]6)c(-c6c(F)c(F)c(F)c(F)c6F)c6nc(c(-c7c(F)c(F)c(F)c(F)c7F)c7ccc4[nH]7)C=C6)C=C5)cc3)C2)s1
REMARK SMILES IDX 19 1 18 2 17 3 15 4 16 5 14 6 10 7 11 8 89 9 12 10 13 11
REMARK SMILES IDX 8 12 9 13 7 14 6 15 5 16 1 17 2 18 3 19 90 20 4 21 20 22
REMARK SMILES IDX 21 23 22 24 23 25 24 26 25 27 26 28 27 29 88 30 28 31 87 32
REMARK SMILES IDX 29 33 30 34 31 35 81 36 32 37 86 38 80 39 82 40 33 41 85 42
REMARK SMILES IDX 79 43 78 44 34 46 66 47 46 48 65 49 47 50 50 51 64 52 83 53
REMARK SMILES IDX 48 54 49 55 63 57 84 58 51 59 35 60 36 61 44 62 37 63 38 64
REMARK SMILES IDX 42 65 45 66 39 67 40 68 43 69 41 70 67 71 68 72 76 73 69 74
REMARK SMILES IDX 70 75 74 76 77 77 71 78 72 79 75 80 73 81 52 82 53 83 61 84
REMARK SMILES IDX 54 85 55 86 59 87 62 88 56 89 57 90 60 91 58 92
REMARK H PARENT 82 45 50 56
REMARK Flexibility Score: inf
ROOT
ATOM      1  C   UNL A   1      30.550  27.150  24.433  1.00  0.00     0.202 C 
ENDROOT
BRANCH   1   2
ATOM      2  C   UNL A   1      30.297  26.283  25.668  1.00  0.00     0.261 C 
BRANCH   2   3
ATOM      3  O   UNL A   1      30.304  24.876  25.356  1.00  0.00    -0.463 OA
BRANCH   3   4
ATOM      4  C   UNL A   1      31.193  24.130  26.064  1.00  0.00     0.310 C 
ATOM      5  O   UNL A   1      31.431  24.268  27.258  1.00  0.00    -0.252 OA
BRANCH   4   6
ATOM      6  C   UNL A   1      31.938  23.135  25.206  1.00  0.00     0.119 C 
ATOM      7  N   UNL A   1      32.248  20.819  24.423  1.00  0.00    -0.338 N 
ATOM      8  C   UNL A   1      32.245  21.234  23.024  1.00  0.00     0.120 C 
ATOM      9  C   UNL A   1      31.489  21.671  25.352  1.00  0.00     0.135 C 
ATOM     10  C   UNL A   1      32.707  22.676  22.866  1.00  0.00     0.022 C 
ATOM     11  C   UNL A   1      31.873  23.599  23.747  1.00  0.00     0.019 C 
BRANCH   7  12
ATOM     12  C   UNL A   1      33.123  19.819  24.800  1.00  0.00     0.246 C 
ATOM     13  O   UNL A   1      32.816  18.628  24.798  1.00  0.00    -0.270 OA
BRANCH  12  14
ATOM     14  C   UNL A   1      34.464  20.179  25.330  1.00  0.00     0.073 C 
ATOM     15  C   UNL A   1      35.298  20.983  24.654  1.00  0.00     0.024 C 
BRANCH  15  16
ATOM     16  C   UNL A   1      36.424  21.640  25.246  1.00  0.00     0.027 A 
ATOM     17  C   UNL A   1      38.655  24.588  26.633  1.00  0.00     0.056 C 
ATOM     18  C   UNL A   1      38.036  23.326  26.135  1.00  0.00     0.002 A 
ATOM     19  C   UNL A   1      38.646  22.127  25.841  1.00  0.00     0.016 A 
ATOM     20  S   UNL A   1      36.355  23.257  25.846  1.00  0.00    -0.141 S 
ATOM     21  C   UNL A   1      37.723  21.165  25.331  1.00  0.00     0.020 A 
ENDBRANCH  15  16
ENDBRANCH  12  14
ENDBRANCH   7  12
ENDBRANCH   4   6
ENDBRANCH   3   4
ENDBRANCH   2   3
ENDBRANCH   1   2
BRANCH   1  22
ATOM     22  O   UNL A   1      30.905  28.509  24.671  1.00  0.00    -0.374 OA
BRANCH  22  23
ATOM     23  C   UNL A   1      31.495  28.832  25.930  1.00  0.00     0.202 C 
BRANCH  23  24
ATOM     24  C   UNL A   1      31.786  30.314  26.190  1.00  0.00     0.261 C 
BRANCH  24  25
ATOM     25  O   UNL A   1      33.200  30.590  26.235  1.00  0.00    -0.460 OA
BRANCH  25  26
ATOM     26  C   UNL A   1      33.581  31.438  27.218  1.00  0.00     0.338 C 
ATOM     27  O   UNL A   1      32.893  32.283  27.780  1.00  0.00    -0.246 OA
BRANCH  26  28
ATOM     28  C   UNL A   1      34.944  31.115  27.675  1.00  0.00     0.060 A 
ATOM     29  C   UNL A   1      35.232  29.776  27.976  1.00  0.00     0.016 A 
ATOM     30  C   UNL A   1      35.895  32.112  27.895  1.00  0.00     0.016 A 
ATOM     31  C   UNL A   1      36.455  29.435  28.552  1.00  0.00     0.010 A 
ATOM     32  C   UNL A   1      37.116  31.771  28.483  1.00  0.00     0.010 A 
ATOM     33  C   UNL A   1      37.384  30.438  28.849  1.00  0.00    -0.014 A 
BRANCH  33  34
ATOM     34  C   UNL A   1      38.562  30.139  29.698  1.00  0.00     0.031 A 
ATOM     35  C   UNL A   1      39.590  29.171  29.182  1.00  0.00     0.074 A 
ATOM     36  C   UNL A   1      38.709  30.702  30.908  1.00  0.00     0.049 A 
ATOM     37  N   UNL A   1      40.617  28.640  29.796  1.00  0.00    -0.248 NA
ATOM     38  C   UNL A   1      39.435  28.740  27.783  1.00  0.00     0.031 C 
ATOM     39  C   UNL A   1      37.815  31.700  31.489  1.00  0.00     0.029 A 
ATOM     40  N   UNL A   1      39.660  30.495  31.876  1.00  0.00    -0.354 N 
ATOM     41  C   UNL A   1      41.215  27.799  28.868  1.00  0.00     0.074 A 
ATOM     42  C   UNL A   1      40.432  27.877  27.653  1.00  0.00     0.031 C 
ATOM     43  C   UNL A   1      38.245  32.000  32.727  1.00  0.00     0.029 A 
ATOM     44  C   UNL A   1      39.416  31.182  33.038  1.00  0.00     0.049 A 
ATOM     45  H   UNL A   1      40.441  29.908  31.748  1.00  0.00     0.167 HD
ATOM     46  C   UNL A   1      42.320  27.031  29.016  1.00  0.00     0.037 A 
ATOM     47  C   UNL A   1      40.047  31.126  34.228  1.00  0.00     0.037 A 
ATOM     48  C   UNL A   1      43.098  26.962  30.224  1.00  0.00     0.049 A 
ATOM     49  C   UNL A   1      41.228  30.203  34.396  1.00  0.00     0.074 A 
ATOM     50  C   UNL A   1      44.238  26.218  30.476  1.00  0.00     0.029 A 
ATOM     51  N   UNL A   1      42.812  27.664  31.386  1.00  0.00    -0.354 N 
ATOM     52  N   UNL A   1      41.787  29.407  33.518  1.00  0.00    -0.248 NA
ATOM     53  C   UNL A   1      41.862  30.170  35.723  1.00  0.00     0.031 C 
ATOM     54  C   UNL A   1      44.616  26.437  31.805  1.00  0.00     0.029 A 
ATOM     55  C   UNL A   1      43.742  27.356  32.364  1.00  0.00     0.049 A 
ATOM     56  H   UNL A   1      42.059  28.288  31.498  1.00  0.00     0.167 HD
ATOM     57  C   UNL A   1      42.856  28.808  34.171  1.00  0.00     0.074 A 
ATOM     58  C   UNL A   1      42.867  29.331  35.521  1.00  0.00     0.031 C 
ATOM     59  C   UNL A   1      43.752  27.907  33.694  1.00  0.00     0.037 A 
BRANCH  46  60
ATOM     60  C   UNL A   1      42.734  26.178  27.855  1.00  0.00     0.064 A 
ATOM     61  C   UNL A   1      43.646  26.633  26.892  1.00  0.00     0.173 A 
ATOM     62  C   UNL A   1      42.233  24.874  27.721  1.00  0.00     0.173 A 
ATOM     63  F   UNL A   1      44.141  27.877  26.966  1.00  0.00    -0.203 F 
ATOM     64  C   UNL A   1      44.024  25.822  25.824  1.00  0.00     0.198 A 
ATOM     65  C   UNL A   1      42.633  24.056  26.668  1.00  0.00     0.198 A 
ATOM     66  F   UNL A   1      41.359  24.391  28.616  1.00  0.00    -0.203 F 
ATOM     67  F   UNL A   1      44.863  26.293  24.891  1.00  0.00    -0.200 F 
ATOM     68  C   UNL A   1      43.522  24.532  25.717  1.00  0.00     0.200 A 
ATOM     69  F   UNL A   1      42.155  22.808  26.572  1.00  0.00    -0.200 F 
ATOM     70  F   UNL A   1      43.892  23.752  24.693  1.00  0.00    -0.200 F 
ENDBRANCH  46  60
BRANCH  47  71
ATOM     71  C   UNL A   1      39.559  31.948  35.365  1.00  0.00     0.064 A 
ATOM     72  C   UNL A   1      40.028  33.253  35.565  1.00  0.00     0.173 A 
ATOM     73  C   UNL A   1      38.625  31.442  36.281  1.00  0.00     0.173 A 
ATOM     74  F   UNL A   1      40.941  33.771  34.732  1.00  0.00    -0.203 F 
ATOM     75  C   UNL A   1      39.592  34.016  36.647  1.00  0.00     0.198 A 
ATOM     76  C   UNL A   1      38.170  32.215  37.347  1.00  0.00     0.198 A 
ATOM     77  F   UNL A   1      38.147  30.197  36.134  1.00  0.00    -0.203 F 
ATOM     78  F   UNL A   1      40.088  35.246  36.841  1.00  0.00    -0.200 F 
ATOM     79  C   UNL A   1      38.658  33.499  37.534  1.00  0.00     0.200 A 
ATOM     80  F   UNL A   1      37.259  31.715  38.193  1.00  0.00    -0.200 F 
ATOM     81  F   UNL A   1      38.237  34.234  38.571  1.00  0.00    -0.200 F 
ENDBRANCH  47  71
BRANCH  59  82
ATOM     82  C   UNL A   1      44.857  27.473  34.611  1.00  0.00     0.064 A 
ATOM     83  C   UNL A   1      44.746  26.325  35.409  1.00  0.00     0.173 A 
ATOM     84  C   UNL A   1      46.071  28.177  34.634  1.00  0.00     0.173 A 
ATOM     85  F   UNL A   1      43.602  25.627  35.431  1.00  0.00    -0.203 F 
ATOM     86  C   UNL A   1      45.808  25.906  36.207  1.00  0.00     0.198 A 
ATOM     87  C   UNL A   1      47.138  27.741  35.412  1.00  0.00     0.198 A 
ATOM     88  F   UNL A   1      46.227  29.278  33.882  1.00  0.00    -0.203 F 
ATOM     89  F   UNL A   1      45.671  24.824  36.986  1.00  0.00    -0.200 F 
ATOM     90  C   UNL A   1      47.005  26.608  36.201  1.00  0.00     0.200 A 
ATOM     91  F   UNL A   1      48.298  28.412  35.395  1.00  0.00    -0.200 F 
ATOM     92  F   UNL A   1      48.030  26.193  36.958  1.00  0.00    -0.200 F 
ENDBRANCH  59  82
ENDBRANCH  33  34
ENDBRANCH  26  28
ENDBRANCH  25  26
ENDBRANCH  24  25
ENDBRANCH  23  24
ENDBRANCH  22  23
ENDBRANCH   1  22
TORSDOF 17
ENDMDL
MODEL 3
REMARK VINA RESULT:     -11.5      4.739      8.728
REMARK SMILES Cc1ccc(/C=C/C(=O)N2CCC[C@@H](C(=O)OCCOCCOC(=O)c3ccc(-c4c5nc(c(-c6c(F)c(F)c(F)c(F)c6F)c6ccc([nH]6)c(-c6c(F)c(F)c(F)c(F)c6F)c6nc(c(-c7c(F)c(F)c(F)c(F)c7F)c7ccc4[nH]7)C=C6)C=C5)cc3)C2)s1
REMARK SMILES IDX 19 1 18 2 17 3 15 4 16 5 14 6 10 7 11 8 89 9 12 10 13 11
REMARK SMILES IDX 8 12 9 13 7 14 6 15 5 16 1 17 2 18 3 19 90 20 4 21 20 22
REMARK SMILES IDX 21 23 22 24 23 25 24 26 25 27 26 28 27 29 88 30 28 31 87 32
REMARK SMILES IDX 29 33 30 34 31 35 81 36 32 37 86 38 80 39 82 40 33 41 85 42
REMARK SMILES IDX 79 43 78 44 34 46 66 47 46 48 65 49 47 50 50 51 64 52 83 53
REMARK SMILES IDX 48 54 49 55 63 57 84 58 51 59 35 60 36 61 44 62 37 63 38 64
REMARK SMILES IDX 42 65 45 66 39 67 40 68 43 69 41 70 67 71 68 72 76 73 69 74
REMARK SMILES IDX 70 75 74 76 77 77 71 78 72 79 75 80 73 81 52 82 53 83 61 84
REMARK SMILES IDX 54 85 55 86 59 87 62 88 56 89 57 90 60 91 58 92
REMARK H PARENT 82 45 50 56
REMARK Flexibility Score: inf
ROOT
ATOM      1  C   UNL A   1      36.565  23.557  24.359  1.00  0.00     0.202 C 
ENDROOT
BRANCH   1   2
ATOM      2  C   UNL A   1      35.352  24.142  25.085  1.00  0.00     0.261 C 
BRANCH   2   3
ATOM      3  O   UNL A   1      34.468  24.846  24.191  1.00  0.00    -0.463 OA
BRANCH   3   4
ATOM      4  C   UNL A   1      33.240  24.284  24.029  1.00  0.00     0.310 C 
ATOM      5  O   UNL A   1      33.038  23.110  23.742  1.00  0.00    -0.252 OA
BRANCH   4   6
ATOM      6  C   UNL A   1      32.116  25.284  24.166  1.00  0.00     0.119 C 
ATOM      7  N   UNL A   1      30.480  26.796  23.113  1.00  0.00    -0.338 N 
ATOM      8  C   UNL A   1      29.381  26.238  23.895  1.00  0.00     0.120 C 
ATOM      9  C   UNL A   1      31.608  25.890  22.846  1.00  0.00     0.135 C 
ATOM     10  C   UNL A   1      29.870  25.653  25.212  1.00  0.00     0.022 C 
ATOM     11  C   UNL A   1      30.978  24.636  24.960  1.00  0.00     0.019 C 
BRANCH   7  12
ATOM     12  C   UNL A   1      30.485  28.158  22.884  1.00  0.00     0.246 C 
ATOM     13  O   UNL A   1      29.816  28.688  21.998  1.00  0.00    -0.270 OA
BRANCH  12  14
ATOM     14  C   UNL A   1      31.406  29.029  23.659  1.00  0.00     0.073 C 
ATOM     15  C   UNL A   1      31.333  29.120  24.996  1.00  0.00     0.024 C 
BRANCH  15  16
ATOM     16  C   UNL A   1      32.383  29.645  25.815  1.00  0.00     0.027 A 
ATOM     17  C   UNL A   1      35.696  29.704  27.964  1.00  0.00     0.056 C 
ATOM     18  C   UNL A   1      34.404  29.928  27.254  1.00  0.00     0.002 A 
ATOM     19  C   UNL A   1      33.503  30.957  27.414  1.00  0.00     0.016 A 
ATOM     20  S   UNL A   1      33.872  28.811  26.078  1.00  0.00    -0.141 S 
ATOM     21  C   UNL A   1      32.347  30.793  26.592  1.00  0.00     0.020 A 
ENDBRANCH  15  16
ENDBRANCH  12  14
ENDBRANCH   7  12
ENDBRANCH   4   6
ENDBRANCH   3   4
ENDBRANCH   2   3
ENDBRANCH   1   2
BRANCH   1  22
ATOM     22  O   UNL A   1      36.484  22.184  23.989  1.00  0.00    -0.374 OA
BRANCH  22  23
ATOM     23  C   UNL A   1      36.475  21.213  25.033  1.00  0.00     0.202 C 
BRANCH  23  24
ATOM     24  C   UNL A   1      37.792  20.473  25.293  1.00  0.00     0.261 C 
BRANCH  24  25
ATOM     25  O   UNL A   1      38.912  21.374  25.393  1.00  0.00    -0.460 OA
BRANCH  25  26
ATOM     26  C   UNL A   1      39.710  21.170  26.466  1.00  0.00     0.338 C 
ATOM     27  O   UNL A   1      40.140  20.100  26.881  1.00  0.00    -0.246 OA
BRANCH  26  28
ATOM     28  C   UNL A   1      40.160  22.458  27.023  1.00  0.00     0.060 A 
ATOM     29  C   UNL A   1      39.623  23.632  26.475  1.00  0.00     0.016 A 
ATOM     30  C   UNL A   1      41.157  22.522  27.998  1.00  0.00     0.016 A 
ATOM     31  C   UNL A   1      40.120  24.876  26.859  1.00  0.00     0.010 A 
ATOM     32  C   UNL A   1      41.663  23.769  28.374  1.00  0.00     0.010 A 
ATOM     33  C   UNL A   1      41.173  24.948  27.777  1.00  0.00    -0.014 A 
BRANCH  33  34
ATOM     34  C   UNL A   1      41.892  26.226  27.994  1.00  0.00     0.031 A 
ATOM     35  C   UNL A   1      41.189  27.326  28.738  1.00  0.00     0.074 A 
ATOM     36  C   UNL A   1      43.137  26.412  27.526  1.00  0.00     0.049 A 
ATOM     37  N   UNL A   1      41.547  28.572  28.918  1.00  0.00    -0.248 NA
ATOM     38  C   UNL A   1      39.902  26.973  29.360  1.00  0.00     0.031 C 
ATOM     39  C   UNL A   1      43.944  25.402  26.846  1.00  0.00     0.029 A 
ATOM     40  N   UNL A   1      43.932  27.532  27.536  1.00  0.00    -0.354 N 
ATOM     41  C   UNL A   1      40.524  29.155  29.654  1.00  0.00     0.074 A 
ATOM     42  C   UNL A   1      39.523  28.133  29.876  1.00  0.00     0.031 C 
ATOM     43  C   UNL A   1      45.113  25.956  26.478  1.00  0.00     0.029 A 
ATOM     44  C   UNL A   1      45.114  27.367  26.859  1.00  0.00     0.049 A 
ATOM     45  H   UNL A   1      43.677  28.370  27.984  1.00  0.00     0.167 HD
ATOM     46  C   UNL A   1      40.429  30.428  30.103  1.00  0.00     0.037 A 
ATOM     47  C   UNL A   1      46.068  28.268  26.550  1.00  0.00     0.037 A 
ATOM     48  C   UNL A   1      41.431  31.437  29.884  1.00  0.00     0.049 A 
ATOM     49  C   UNL A   1      45.906  29.700  26.992  1.00  0.00     0.074 A 
ATOM     50  C   UNL A   1      41.433  32.757  30.302  1.00  0.00     0.029 A 
ATOM     51  N   UNL A   1      42.610  31.236  29.182  1.00  0.00    -0.354 N 
ATOM     52  N   UNL A   1      44.935  30.247  27.683  1.00  0.00    -0.248 NA
ATOM     53  C   UNL A   1      46.970  30.640  26.608  1.00  0.00     0.031 C 
ATOM     54  C   UNL A   1      42.594  33.366  29.815  1.00  0.00     0.029 A 
ATOM     55  C   UNL A   1      43.338  32.413  29.138  1.00  0.00     0.049 A 
ATOM     56  H   UNL A   1      42.887  30.384  28.775  1.00  0.00     0.167 HD
ATOM     57  C   UNL A   1      45.287  31.581  27.846  1.00  0.00     0.074 A 
ATOM     58  C   UNL A   1      46.560  31.762  27.182  1.00  0.00     0.031 C 
ATOM     59  C   UNL A   1      44.617  32.567  28.494  1.00  0.00     0.037 A 
BRANCH  46  60
ATOM     60  C   UNL A   1      39.185  30.810  30.848  1.00  0.00     0.064 A 
ATOM     61  C   UNL A   1      39.063  30.615  32.231  1.00  0.00     0.173 A 
ATOM     62  C   UNL A   1      38.112  31.409  30.171  1.00  0.00     0.173 A 
ATOM     63  F   UNL A   1      40.054  30.031  32.921  1.00  0.00    -0.203 F 
ATOM     64  C   UNL A   1      37.902  30.984  32.906  1.00  0.00     0.198 A 
ATOM     65  C   UNL A   1      36.964  31.803  30.853  1.00  0.00     0.198 A 
ATOM     66  F   UNL A   1      38.180  31.620  28.848  1.00  0.00    -0.203 F 
ATOM     67  F   UNL A   1      37.788  30.748  34.221  1.00  0.00    -0.200 F 
ATOM     68  C   UNL A   1      36.857  31.584  32.218  1.00  0.00     0.200 A 
ATOM     69  F   UNL A   1      35.960  32.391  30.188  1.00  0.00    -0.200 F 
ATOM     70  F   UNL A   1      35.744  31.944  32.870  1.00  0.00    -0.200 F 
ENDBRANCH  46  60
BRANCH  47  71
ATOM     71  C   UNL A   1      47.254  27.849  25.757  1.00  0.00     0.064 A 
ATOM     72  C   UNL A   1      48.453  27.491  26.387  1.00  0.00     0.173 A 
ATOM     73  C   UNL A   1      47.215  27.811  24.355  1.00  0.00     0.173 A 
ATOM     74  F   UNL A   1      48.547  27.538  27.723  1.00  0.00    -0.203 F 
ATOM     75  C   UNL A   1      49.574  27.125  25.644  1.00  0.00     0.198 A 
ATOM     76  C   UNL A   1      48.328  27.418  23.615  1.00  0.00     0.198 A 
ATOM     77  F   UNL A   1      46.091  28.145  23.705  1.00  0.00    -0.203 F 
ATOM     78  F   UNL A   1      50.722  26.828  26.269  1.00  0.00    -0.200 F 
ATOM     79  C   UNL A   1      49.509  27.082  24.259  1.00  0.00     0.200 A 
ATOM     80  F   UNL A   1      48.257  27.367  22.278  1.00  0.00    -0.200 F 
ATOM     81  F   UNL A   1      50.586  26.726  23.546  1.00  0.00    -0.200 F 
ENDBRANCH  47  71
BRANCH  59  82
ATOM     82  C   UNL A   1      45.269  33.915  28.572  1.00  0.00     0.064 A 
ATOM     83  C   UNL A   1      46.178  34.238  29.591  1.00  0.00     0.173 A 
ATOM     84  C   UNL A   1      45.035  34.871  27.571  1.00  0.00     0.173 A 
ATOM     85  F   UNL A   1      46.424  33.363  30.577  1.00  0.00    -0.203 F 
ATOM     86  C   UNL A   1      46.818  35.475  29.610  1.00  0.00     0.198 A 
ATOM     87  C   UNL A   1      45.696  36.094  27.579  1.00  0.00     0.198 A 
ATOM     88  F   UNL A   1      44.179  34.605  26.572  1.00  0.00    -0.203 F 
ATOM     89  F   UNL A   1      47.659  35.775  30.609  1.00  0.00    -0.200 F 
ATOM     90  C   UNL A   1      46.585  36.397  28.600  1.00  0.00     0.200 A 
ATOM     91  F   UNL A   1      45.479  36.979  26.596  1.00  0.00    -0.200 F 
ATOM     92  F   UNL A   1      47.214  37.580  28.613  1.00  0.00    -0.200 F 
ENDBRANCH  59  82
ENDBRANCH  33  34
ENDBRANCH  26  28
ENDBRANCH  25  26
ENDBRANCH  24  25
ENDBRANCH  23  24
ENDBRANCH  22  23
ENDBRANCH   1  22
TORSDOF 17
ENDMDL
