MODEL 1
REMARK VINA RESULT:     -11.9      0.000      0.000
REMARK SMILES CN1C(=O)C[C@@H](C(=O)OCCOCCOC(=O)c2ccc(-c3c4nc(c(-c5c(F)c(F)c(F)c(F)c5F)c5ccc([nH]5)c(-c5c(F)c(F)c(F)c(F)c5F)c5nc(c(-c6c(F)c(F)c(F)c(F)c6F)c6ccc3[nH]6)C=C5)C=C4)cc2)C12CC[NH+](CCSc1ccccc1)CC2
REMARK SMILES IDX 11 1 10 2 9 3 7 4 8 5 6 6 1 7 2 8 3 9 81 10 4 11 5 12 82 13
REMARK SMILES IDX 95 14 83 15 94 16 84 17 85 19 86 20 87 21 88 22 89 23 93 24
REMARK SMILES IDX 90 25 92 26 91 27 12 28 13 29 14 30 15 31 16 32 17 33 18 34
REMARK SMILES IDX 19 35 80 36 20 37 79 38 21 39 22 40 23 41 73 42 24 43 78 44
REMARK SMILES IDX 72 45 74 46 25 47 77 48 71 49 70 50 26 52 58 53 38 54 57 55
REMARK SMILES IDX 39 56 42 57 56 58 75 59 40 60 41 61 55 63 76 64 43 65 27 66
REMARK SMILES IDX 28 67 36 68 29 69 30 70 34 71 37 72 31 73 32 74 35 75 33 76
REMARK SMILES IDX 59 77 60 78 68 79 61 80 62 81 66 82 69 83 63 84 64 85 67 86
REMARK SMILES IDX 65 87 44 88 45 89 53 90 46 91 47 92 51 93 54 94 48 95 49 96
REMARK SMILES IDX 52 97 50 98
REMARK H PARENT 84 18 74 51 42 62
REMARK Flexibility Score: inf
ROOT
ATOM      1  C   UNL A   1      32.125  28.798  26.119  1.00  0.00     0.202 C 
ENDROOT
BRANCH   1   2
ATOM      2  C   UNL A   1      31.356  27.909  25.127  1.00  0.00     0.261 C 
BRANCH   2   3
ATOM      3  O   UNL A   1      31.808  27.968  23.751  1.00  0.00    -0.463 OA
BRANCH   3   4
ATOM      4  C   UNL A   1      33.022  27.416  23.566  1.00  0.00     0.311 C 
ATOM      5  O   UNL A   1      34.072  28.060  23.621  1.00  0.00    -0.252 OA
BRANCH   4   6
ATOM      6  C   UNL A   1      33.112  25.924  23.367  1.00  0.00     0.134 C 
ATOM      7  C   UNL A   1      31.143  23.368  25.324  1.00  0.00     0.147 C 
ATOM      8  N   UNL A   1      31.722  24.312  24.384  1.00  0.00    -0.339 N 
ATOM      9  C   UNL A   1      31.014  24.761  23.283  1.00  0.00     0.223 C 
ATOM     10  C   UNL A   1      33.136  24.717  24.366  1.00  0.00     0.067 C 
ATOM     11  O   UNL A   1      29.852  24.510  23.010  1.00  0.00    -0.275 OA
ATOM     12  C   UNL A   1      31.939  25.567  22.421  1.00  0.00     0.118 C 
ATOM     13  C   UNL A   1      33.772  24.785  25.792  1.00  0.00     0.091 C 
ATOM     14  C   UNL A   1      33.953  23.665  23.606  1.00  0.00     0.091 C 
ATOM     15  C   UNL A   1      35.092  23.955  26.111  1.00  0.00     0.264 C 
ATOM     16  C   UNL A   1      35.426  24.021  23.786  1.00  0.00     0.264 C 
ATOM     17  N   UNL A   1      35.878  23.415  24.994  1.00  0.00    -0.334 N 
ATOM     18  H   UNL A   1      36.836  23.664  25.238  1.00  0.00     0.348 HD
BRANCH  17  19
ATOM     19  C   UNL A   1      36.038  21.939  24.840  1.00  0.00     0.273 C 
BRANCH  19  20
ATOM     20  C   UNL A   1      35.030  20.881  25.509  1.00  0.00     0.136 C 
BRANCH  20  21
ATOM     21  S   UNL A   1      33.560  20.200  24.545  1.00  0.00    -0.120 SA
BRANCH  21  22
ATOM     22  C   UNL A   1      33.537  18.394  24.776  1.00  0.00     0.007 A 
ATOM     23  C   UNL A   1      32.618  17.784  25.651  1.00  0.00     0.015 A 
ATOM     24  C   UNL A   1      34.236  17.542  23.910  1.00  0.00     0.015 A 
ATOM     25  C   UNL A   1      32.497  16.395  25.772  1.00  0.00     0.001 A 
ATOM     26  C   UNL A   1      34.051  16.146  23.964  1.00  0.00     0.001 A 
ATOM     27  C   UNL A   1      33.202  15.572  24.911  1.00  0.00     0.000 A 
ENDBRANCH  21  22
ENDBRANCH  20  21
ENDBRANCH  19  20
ENDBRANCH  17  19
ENDBRANCH   4   6
ENDBRANCH   3   4
ENDBRANCH   2   3
ENDBRANCH   1   2
BRANCH   1  28
ATOM     28  O   UNL A   1      32.400  30.146  25.751  1.00  0.00    -0.374 OA
BRANCH  28  29
ATOM     29  C   UNL A   1      31.363  31.116  25.887  1.00  0.00     0.202 C 
BRANCH  29  30
ATOM     30  C   UNL A   1      31.584  32.243  26.905  1.00  0.00     0.261 C 
BRANCH  30  31
ATOM     31  O   UNL A   1      32.741  31.979  27.719  1.00  0.00    -0.460 OA
BRANCH  31  32
ATOM     32  C   UNL A   1      33.600  33.004  27.900  1.00  0.00     0.338 C 
ATOM     33  O   UNL A   1      33.330  34.182  28.021  1.00  0.00    -0.246 OA
BRANCH  32  34
ATOM     34  C   UNL A   1      34.961  32.458  28.094  1.00  0.00     0.060 A 
ATOM     35  C   UNL A   1      35.087  31.087  28.335  1.00  0.00     0.016 A 
ATOM     36  C   UNL A   1      36.080  33.291  28.160  1.00  0.00     0.016 A 
ATOM     37  C   UNL A   1      36.322  30.555  28.702  1.00  0.00     0.010 A 
ATOM     38  C   UNL A   1      37.325  32.752  28.520  1.00  0.00     0.010 A 
ATOM     39  C   UNL A   1      37.440  31.390  28.848  1.00  0.00    -0.014 A 
BRANCH  39  40
ATOM     40  C   UNL A   1      38.637  30.839  29.541  1.00  0.00     0.031 A 
ATOM     41  C   UNL A   1      38.875  31.204  30.984  1.00  0.00     0.074 A 
ATOM     42  C   UNL A   1      39.416  29.915  28.948  1.00  0.00     0.049 A 
ATOM     43  N   UNL A   1      39.735  30.706  31.838  1.00  0.00    -0.248 NA
ATOM     44  C   UNL A   1      38.024  32.266  31.545  1.00  0.00     0.031 C 
ATOM     45  C   UNL A   1      39.286  29.462  27.564  1.00  0.00     0.029 A 
ATOM     46  N   UNL A   1      40.458  29.170  29.448  1.00  0.00    -0.354 N 
ATOM     47  C   UNL A   1      39.505  31.370  33.037  1.00  0.00     0.074 A 
ATOM     48  C   UNL A   1      38.471  32.351  32.789  1.00  0.00     0.031 C 
ATOM     49  C   UNL A   1      40.198  28.501  27.332  1.00  0.00     0.029 A 
ATOM     50  C   UNL A   1      40.981  28.276  28.546  1.00  0.00     0.049 A 
ATOM     51  H   UNL A   1      40.796  29.269  30.367  1.00  0.00     0.167 HD
ATOM     52  C   UNL A   1      40.077  31.162  34.246  1.00  0.00     0.037 A 
ATOM     53  C   UNL A   1      41.973  27.373  28.689  1.00  0.00     0.037 A 
ATOM     54  C   UNL A   1      41.111  30.195  34.502  1.00  0.00     0.049 A 
ATOM     55  C   UNL A   1      42.638  27.209  30.033  1.00  0.00     0.074 A 
ATOM     56  C   UNL A   1      41.762  29.920  35.692  1.00  0.00     0.029 A 
ATOM     57  N   UNL A   1      41.646  29.344  33.548  1.00  0.00    -0.354 N 
ATOM     58  N   UNL A   1      42.375  27.806  31.170  1.00  0.00    -0.248 NA
ATOM     59  C   UNL A   1      43.732  26.227  30.117  1.00  0.00     0.031 C 
ATOM     60  C   UNL A   1      42.719  28.930  35.451  1.00  0.00     0.029 A 
ATOM     61  C   UNL A   1      42.631  28.556  34.120  1.00  0.00     0.049 A 
ATOM     62  H   UNL A   1      41.367  29.306  32.605  1.00  0.00     0.167 HD
ATOM     63  C   UNL A   1      43.246  27.256  32.103  1.00  0.00     0.074 A 
ATOM     64  C   UNL A   1      44.029  26.258  31.408  1.00  0.00     0.031 C 
ATOM     65  C   UNL A   1      43.392  27.555  33.417  1.00  0.00     0.037 A 
BRANCH  52  66
ATOM     66  C   UNL A   1      39.591  31.991  35.397  1.00  0.00     0.064 A 
ATOM     67  C   UNL A   1      38.658  31.486  36.315  1.00  0.00     0.173 A 
ATOM     68  C   UNL A   1      40.100  33.279  35.619  1.00  0.00     0.173 A 
ATOM     69  F   UNL A   1      38.129  30.265  36.137  1.00  0.00    -0.203 F 
ATOM     70  C   UNL A   1      38.242  32.244  37.406  1.00  0.00     0.198 A 
ATOM     71  C   UNL A   1      39.702  34.025  36.726  1.00  0.00     0.198 A 
ATOM     72  F   UNL A   1      40.997  33.807  34.773  1.00  0.00    -0.203 F 
ATOM     73  F   UNL A   1      37.325  31.753  38.251  1.00  0.00    -0.200 F 
ATOM     74  C   UNL A   1      38.771  33.509  37.615  1.00  0.00     0.200 A 
ATOM     75  F   UNL A   1      40.221  35.242  36.934  1.00  0.00    -0.200 F 
ATOM     76  F   UNL A   1      38.380  34.233  38.673  1.00  0.00    -0.200 F 
ENDBRANCH  52  66
BRANCH  53  77
ATOM     77  C   UNL A   1      42.407  26.540  27.534  1.00  0.00     0.064 A 
ATOM     78  C   UNL A   1      41.860  25.270  27.301  1.00  0.00     0.173 A 
ATOM     79  C   UNL A   1      43.430  26.973  26.678  1.00  0.00     0.173 A 
ATOM     80  F   UNL A   1      40.897  24.798  28.107  1.00  0.00    -0.203 F 
ATOM     81  C   UNL A   1      42.344  24.452  26.282  1.00  0.00     0.198 A 
ATOM     82  C   UNL A   1      43.891  26.167  25.639  1.00  0.00     0.198 A 
ATOM     83  F   UNL A   1      43.992  28.177  26.858  1.00  0.00    -0.203 F 
ATOM     84  F   UNL A   1      41.851  23.215  26.127  1.00  0.00    -0.200 F 
ATOM     85  C   UNL A   1      43.357  24.901  25.450  1.00  0.00     0.200 A 
ATOM     86  F   UNL A   1      44.866  26.610  24.832  1.00  0.00    -0.200 F 
ATOM     87  F   UNL A   1      43.830  24.111  24.478  1.00  0.00    -0.200 F 
ENDBRANCH  53  77
BRANCH  65  88
ATOM     88  C   UNL A   1      44.413  26.776  34.196  1.00  0.00     0.064 A 
ATOM     89  C   UNL A   1      45.741  27.214  34.309  1.00  0.00     0.173 A 
ATOM     90  C   UNL A   1      44.050  25.596  34.864  1.00  0.00     0.173 A 
ATOM     91  F   UNL A   1      46.140  28.329  33.678  1.00  0.00    -0.203 F 
ATOM     92  C   UNL A   1      46.675  26.484  35.038  1.00  0.00     0.198 A 
ATOM     93  C   UNL A   1      44.980  24.885  35.617  1.00  0.00     0.198 A 
ATOM     94  F   UNL A   1      42.791  25.139  34.796  1.00  0.00    -0.203 F 
ATOM     95  F   UNL A   1      47.950  26.894  35.089  1.00  0.00    -0.200 F 
ATOM     96  C   UNL A   1      46.294  25.324  35.696  1.00  0.00     0.200 A 
ATOM     97  F   UNL A   1      44.607  23.773  36.265  1.00  0.00    -0.200 F 
ATOM     98  F   UNL A   1      47.194  24.625  36.401  1.00  0.00    -0.200 F 
ENDBRANCH  65  88
ENDBRANCH  39  40
ENDBRANCH  32  34
ENDBRANCH  31  32
ENDBRANCH  30  31
ENDBRANCH  29  30
ENDBRANCH  28  29
ENDBRANCH   1  28
TORSDOF 18
ENDMDL
MODEL 2
REMARK VINA RESULT:     -11.8      1.769      2.850
REMARK SMILES CN1C(=O)C[C@@H](C(=O)OCCOCCOC(=O)c2ccc(-c3c4nc(c(-c5c(F)c(F)c(F)c(F)c5F)c5ccc([nH]5)c(-c5c(F)c(F)c(F)c(F)c5F)c5nc(c(-c6c(F)c(F)c(F)c(F)c6F)c6ccc3[nH]6)C=C5)C=C4)cc2)C12CC[NH+](CCSc1ccccc1)CC2
REMARK SMILES IDX 11 1 10 2 9 3 7 4 8 5 6 6 1 7 2 8 3 9 81 10 4 11 5 12 82 13
REMARK SMILES IDX 95 14 83 15 94 16 84 17 85 19 86 20 87 21 88 22 89 23 93 24
REMARK SMILES IDX 90 25 92 26 91 27 12 28 13 29 14 30 15 31 16 32 17 33 18 34
REMARK SMILES IDX 19 35 80 36 20 37 79 38 21 39 22 40 23 41 73 42 24 43 78 44
REMARK SMILES IDX 72 45 74 46 25 47 77 48 71 49 70 50 26 52 58 53 38 54 57 55
REMARK SMILES IDX 39 56 42 57 56 58 75 59 40 60 41 61 55 63 76 64 43 65 27 66
REMARK SMILES IDX 28 67 36 68 29 69 30 70 34 71 37 72 31 73 32 74 35 75 33 76
REMARK SMILES IDX 59 77 60 78 68 79 61 80 62 81 66 82 69 83 63 84 64 85 67 86
REMARK SMILES IDX 65 87 44 88 45 89 53 90 46 91 47 92 51 93 54 94 48 95 49 96
REMARK SMILES IDX 52 97 50 98
REMARK H PARENT 84 18 74 51 42 62
REMARK Flexibility Score: inf
ROOT
ATOM      1  C   UNL A   1      30.563  29.664  24.059  1.00  0.00     0.202 C 
ENDROOT
BRANCH   1   2
ATOM      2  C   UNL A   1      31.173  28.808  22.937  1.00  0.00     0.261 C 
BRANCH   2   3
ATOM      3  O   UNL A   1      30.303  27.791  22.379  1.00  0.00    -0.463 OA
BRANCH   3   4
ATOM      4  C   UNL A   1      29.547  27.173  23.307  1.00  0.00     0.311 C 
ATOM      5  O   UNL A   1      28.360  27.444  23.501  1.00  0.00    -0.252 OA
BRANCH   4   6
ATOM      6  C   UNL A   1      30.155  26.036  24.090  1.00  0.00     0.134 C 
ATOM      7  C   UNL A   1      33.533  26.139  25.768  1.00  0.00     0.147 C 
ATOM      8  N   UNL A   1      32.138  26.143  25.362  1.00  0.00    -0.339 N 
ATOM      9  C   UNL A   1      31.145  26.637  26.191  1.00  0.00     0.223 C 
ATOM     10  C   UNL A   1      31.608  25.458  24.172  1.00  0.00     0.067 C 
ATOM     11  O   UNL A   1      31.301  27.179  27.273  1.00  0.00    -0.275 OA
ATOM     12  C   UNL A   1      29.815  26.333  25.571  1.00  0.00     0.118 C 
ATOM     13  C   UNL A   1      32.609  25.455  22.972  1.00  0.00     0.091 C 
ATOM     14  C   UNL A   1      31.368  23.981  24.505  1.00  0.00     0.091 C 
ATOM     15  C   UNL A   1      33.031  24.077  22.296  1.00  0.00     0.264 C 
ATOM     16  C   UNL A   1      31.014  23.276  23.199  1.00  0.00     0.264 C 
ATOM     17  N   UNL A   1      32.232  22.876  22.575  1.00  0.00    -0.334 N 
ATOM     18  H   UNL A   1      32.098  22.464  21.652  1.00  0.00     0.348 HD
BRANCH  17  19
ATOM     19  C   UNL A   1      32.853  21.715  23.277  1.00  0.00     0.273 C 
BRANCH  19  20
ATOM     20  C   UNL A   1      34.335  21.765  23.896  1.00  0.00     0.136 C 
BRANCH  20  21
ATOM     21  S   UNL A   1      34.664  22.594  25.558  1.00  0.00    -0.120 SA
BRANCH  21  22
ATOM     22  C   UNL A   1      36.466  22.798  25.725  1.00  0.00     0.007 A 
ATOM     23  C   UNL A   1      37.016  23.959  26.302  1.00  0.00     0.015 A 
ATOM     24  C   UNL A   1      37.340  21.719  25.538  1.00  0.00     0.015 A 
ATOM     25  C   UNL A   1      38.386  24.106  26.548  1.00  0.00     0.001 A 
ATOM     26  C   UNL A   1      38.706  21.829  25.869  1.00  0.00     0.001 A 
ATOM     27  C   UNL A   1      39.233  23.028  26.349  1.00  0.00     0.000 A 
ENDBRANCH  21  22
ENDBRANCH  20  21
ENDBRANCH  19  20
ENDBRANCH  17  19
ENDBRANCH   4   6
ENDBRANCH   3   4
ENDBRANCH   2   3
ENDBRANCH   1   2
BRANCH   1  28
ATOM     28  O   UNL A   1      31.383  30.014  25.170  1.00  0.00    -0.374 OA
BRANCH  28  29
ATOM     29  C   UNL A   1      32.777  29.718  25.109  1.00  0.00     0.202 C 
BRANCH  29  30
ATOM     30  C   UNL A   1      33.570  29.796  26.420  1.00  0.00     0.261 C 
BRANCH  30  31
ATOM     31  O   UNL A   1      32.937  30.693  27.349  1.00  0.00    -0.460 OA
BRANCH  31  32
ATOM     32  C   UNL A   1      33.651  31.775  27.727  1.00  0.00     0.338 C 
ATOM     33  O   UNL A   1      33.232  32.890  27.965  1.00  0.00    -0.246 OA
BRANCH  32  34
ATOM     34  C   UNL A   1      35.050  31.363  27.971  1.00  0.00     0.060 A 
ATOM     35  C   UNL A   1      35.288  30.031  28.321  1.00  0.00     0.016 A 
ATOM     36  C   UNL A   1      36.095  32.291  27.978  1.00  0.00     0.016 A 
ATOM     37  C   UNL A   1      36.559  29.636  28.735  1.00  0.00     0.010 A 
ATOM     38  C   UNL A   1      37.376  31.889  28.387  1.00  0.00     0.010 A 
ATOM     39  C   UNL A   1      37.601  30.571  28.822  1.00  0.00    -0.014 A 
BRANCH  39  40
ATOM     40  C   UNL A   1      38.831  30.179  29.562  1.00  0.00     0.031 A 
ATOM     41  C   UNL A   1      39.021  30.679  30.973  1.00  0.00     0.074 A 
ATOM     42  C   UNL A   1      39.690  29.278  29.050  1.00  0.00     0.049 A 
ATOM     43  N   UNL A   1      39.909  30.325  31.868  1.00  0.00    -0.248 NA
ATOM     44  C   UNL A   1      38.080  31.709  31.441  1.00  0.00     0.031 C 
ATOM     45  C   UNL A   1      39.614  28.706  27.708  1.00  0.00     0.029 A 
ATOM     46  N   UNL A   1      40.785  28.666  29.615  1.00  0.00    -0.354 N 
ATOM     47  C   UNL A   1      39.612  31.061  33.008  1.00  0.00     0.074 A 
ATOM     48  C   UNL A   1      38.504  31.930  32.676  1.00  0.00     0.031 C 
ATOM     49  C   UNL A   1      40.605  27.808  27.559  1.00  0.00     0.029 A 
ATOM     50  C   UNL A   1      41.390  27.748  28.791  1.00  0.00     0.049 A 
ATOM     51  H   UNL A   1      41.103  28.866  30.525  1.00  0.00     0.167 HD
ATOM     52  C   UNL A   1      40.186  31.000  34.232  1.00  0.00     0.037 A 
ATOM     53  C   UNL A   1      42.451  26.945  29.012  1.00  0.00     0.037 A 
ATOM     54  C   UNL A   1      41.293  30.147  34.571  1.00  0.00     0.049 A 
ATOM     55  C   UNL A   1      43.112  26.946  30.368  1.00  0.00     0.074 A 
ATOM     56  C   UNL A   1      41.950  30.024  35.783  1.00  0.00     0.029 A 
ATOM     57  N   UNL A   1      41.907  29.268  33.693  1.00  0.00    -0.354 N 
ATOM     58  N   UNL A   1      42.787  27.609  31.451  1.00  0.00    -0.248 NA
ATOM     59  C   UNL A   1      44.282  26.068  30.537  1.00  0.00     0.031 C 
ATOM     60  C   UNL A   1      42.988  29.101  35.628  1.00  0.00     0.029 A 
ATOM     61  C   UNL A   1      42.947  28.614  34.332  1.00  0.00     0.049 A 
ATOM     62  H   UNL A   1      41.643  29.131  32.754  1.00  0.00     0.167 HD
ATOM     63  C   UNL A   1      43.690  27.211  32.430  1.00  0.00     0.074 A 
ATOM     64  C   UNL A   1      44.560  26.228  31.822  1.00  0.00     0.031 C 
ATOM     65  C   UNL A   1      43.795  27.626  33.716  1.00  0.00     0.037 A 
BRANCH  52  66
ATOM     66  C   UNL A   1      39.619  31.877  35.309  1.00  0.00     0.064 A 
ATOM     67  C   UNL A   1      38.665  31.391  36.216  1.00  0.00     0.173 A 
ATOM     68  C   UNL A   1      40.073  33.194  35.476  1.00  0.00     0.173 A 
ATOM     69  F   UNL A   1      38.188  30.143  36.089  1.00  0.00    -0.203 F 
ATOM     70  C   UNL A   1      38.174  32.195  37.240  1.00  0.00     0.198 A 
ATOM     71  C   UNL A   1      39.599  33.988  36.517  1.00  0.00     0.198 A 
ATOM     72  F   UNL A   1      40.987  33.704  34.638  1.00  0.00    -0.203 F 
ATOM     73  F   UNL A   1      37.238  31.721  38.074  1.00  0.00    -0.200 F 
ATOM     74  C   UNL A   1      38.648  33.490  37.395  1.00  0.00     0.200 A 
ATOM     75  F   UNL A   1      40.066  35.234  36.673  1.00  0.00    -0.200 F 
ATOM     76  F   UNL A   1      38.185  34.260  38.390  1.00  0.00    -0.200 F 
ENDBRANCH  52  66
BRANCH  53  77
ATOM     77  C   UNL A   1      42.965  26.060  27.931  1.00  0.00     0.064 A 
ATOM     78  C   UNL A   1      43.870  26.532  26.968  1.00  0.00     0.173 A 
ATOM     79  C   UNL A   1      42.507  24.742  27.800  1.00  0.00     0.173 A 
ATOM     80  F   UNL A   1      44.318  27.795  27.033  1.00  0.00    -0.203 F 
ATOM     81  C   UNL A   1      44.266  25.732  25.898  1.00  0.00     0.198 A 
ATOM     82  C   UNL A   1      42.930  23.932  26.748  1.00  0.00     0.198 A 
ATOM     83  F   UNL A   1      41.638  24.240  28.689  1.00  0.00    -0.203 F 
ATOM     84  F   UNL A   1      45.077  26.232  24.955  1.00  0.00    -0.200 F 
ATOM     85  C   UNL A   1      43.799  24.432  25.789  1.00  0.00     0.200 A 
ATOM     86  F   UNL A   1      42.481  22.672  26.651  1.00  0.00    -0.200 F 
ATOM     87  F   UNL A   1      44.171  23.667  24.755  1.00  0.00    -0.200 F 
ENDBRANCH  53  77
BRANCH  65  88
ATOM     88  C   UNL A   1      44.868  27.000  34.560  1.00  0.00     0.064 A 
ATOM     89  C   UNL A   1      46.151  27.560  34.652  1.00  0.00     0.173 A 
ATOM     90  C   UNL A   1      44.600  25.846  35.313  1.00  0.00     0.173 A 
ATOM     91  F   UNL A   1      46.461  28.656  33.943  1.00  0.00    -0.203 F 
ATOM     92  C   UNL A   1      47.134  26.972  35.442  1.00  0.00     0.198 A 
ATOM     93  C   UNL A   1      45.576  25.278  36.126  1.00  0.00     0.198 A 
ATOM     94  F   UNL A   1      43.387  25.276  35.269  1.00  0.00    -0.203 F 
ATOM     95  F   UNL A   1      48.368  27.495  35.474  1.00  0.00    -0.200 F 
ATOM     96  C   UNL A   1      46.845  25.835  36.183  1.00  0.00     0.200 A 
ATOM     97  F   UNL A   1      45.291  24.188  36.853  1.00  0.00    -0.200 F 
ATOM     98  F   UNL A   1      47.792  25.272  36.947  1.00  0.00    -0.200 F 
ENDBRANCH  65  88
ENDBRANCH  39  40
ENDBRANCH  32  34
ENDBRANCH  31  32
ENDBRANCH  30  31
ENDBRANCH  29  30
ENDBRANCH  28  29
ENDBRANCH   1  28
TORSDOF 18
ENDMDL
MODEL 3
REMARK VINA RESULT:     -11.7      2.104      3.359
REMARK SMILES CN1C(=O)C[C@@H](C(=O)OCCOCCOC(=O)c2ccc(-c3c4nc(c(-c5c(F)c(F)c(F)c(F)c5F)c5ccc([nH]5)c(-c5c(F)c(F)c(F)c(F)c5F)c5nc(c(-c6c(F)c(F)c(F)c(F)c6F)c6ccc3[nH]6)C=C5)C=C4)cc2)C12CC[NH+](CCSc1ccccc1)CC2
REMARK SMILES IDX 11 1 10 2 9 3 7 4 8 5 6 6 1 7 2 8 3 9 81 10 4 11 5 12 82 13
REMARK SMILES IDX 95 14 83 15 94 16 84 17 85 19 86 20 87 21 88 22 89 23 93 24
REMARK SMILES IDX 90 25 92 26 91 27 12 28 13 29 14 30 15 31 16 32 17 33 18 34
REMARK SMILES IDX 19 35 80 36 20 37 79 38 21 39 22 40 23 41 73 42 24 43 78 44
REMARK SMILES IDX 72 45 74 46 25 47 77 48 71 49 70 50 26 52 58 53 38 54 57 55
REMARK SMILES IDX 39 56 42 57 56 58 75 59 40 60 41 61 55 63 76 64 43 65 27 66
REMARK SMILES IDX 28 67 36 68 29 69 30 70 34 71 37 72 31 73 32 74 35 75 33 76
REMARK SMILES IDX 59 77 60 78 68 79 61 80 62 81 66 82 69 83 63 84 64 85 67 86
REMARK SMILES IDX 65 87 44 88 45 89 53 90 46 91 47 92 51 93 54 94 48 95 49 96
REMARK SMILES IDX 52 97 50 98
REMARK H PARENT 84 18 74 51 42 62
REMARK Flexibility Score: inf
ROOT
ATOM      1  C   UNL A   1      30.391  29.379  24.164  1.00  0.00     0.202 C 
ENDROOT
BRANCH   1   2
ATOM      2  C   UNL A   1      30.340  29.176  22.641  1.00  0.00     0.261 C 
BRANCH   2   3
ATOM      3  O   UNL A   1      30.242  27.800  22.194  1.00  0.00    -0.463 OA
BRANCH   3   4
ATOM      4  C   UNL A   1      30.286  26.910  23.204  1.00  0.00     0.311 C 
ATOM      5  O   UNL A   1      29.293  26.574  23.853  1.00  0.00    -0.252 OA
BRANCH   4   6
ATOM      6  C   UNL A   1      31.596  26.226  23.504  1.00  0.00     0.134 C 
ATOM      7  C   UNL A   1      32.719  22.960  21.982  1.00  0.00     0.147 C 
ATOM      8  N   UNL A   1      32.446  24.327  22.392  1.00  0.00    -0.339 N 
ATOM      9  C   UNL A   1      32.798  25.404  21.596  1.00  0.00     0.223 C 
ATOM     10  C   UNL A   1      31.985  24.726  23.732  1.00  0.00     0.067 C 
ATOM     11  O   UNL A   1      33.278  25.357  20.476  1.00  0.00    -0.275 OA
ATOM     12  C   UNL A   1      32.556  26.665  22.370  1.00  0.00     0.118 C 
ATOM     13  C   UNL A   1      31.035  23.674  24.390  1.00  0.00     0.091 C 
ATOM     14  C   UNL A   1      33.192  24.827  24.671  1.00  0.00     0.091 C 
ATOM     15  C   UNL A   1      31.383  23.080  25.825  1.00  0.00     0.264 C 
ATOM     16  C   UNL A   1      32.650  25.043  26.081  1.00  0.00     0.264 C 
ATOM     17  N   UNL A   1      32.389  23.762  26.650  1.00  0.00    -0.334 N 
ATOM     18  H   UNL A   1      31.947  23.809  27.568  1.00  0.00     0.348 HD
BRANCH  17  19
ATOM     19  C   UNL A   1      33.652  23.058  27.018  1.00  0.00     0.273 C 
BRANCH  19  20
ATOM     20  C   UNL A   1      34.115  21.684  26.326  1.00  0.00     0.136 C 
BRANCH  20  21
ATOM     21  S   UNL A   1      35.242  21.691  24.814  1.00  0.00    -0.120 SA
BRANCH  21  22
ATOM     22  C   UNL A   1      36.873  22.304  25.345  1.00  0.00     0.007 A 
ATOM     23  C   UNL A   1      37.031  23.609  25.849  1.00  0.00     0.015 A 
ATOM     24  C   UNL A   1      37.955  21.431  25.520  1.00  0.00     0.015 A 
ATOM     25  C   UNL A   1      38.243  24.078  26.368  1.00  0.00     0.001 A 
ATOM     26  C   UNL A   1      39.149  21.872  26.126  1.00  0.00     0.001 A 
ATOM     27  C   UNL A   1      39.302  23.199  26.525  1.00  0.00     0.000 A 
ENDBRANCH  21  22
ENDBRANCH  20  21
ENDBRANCH  19  20
ENDBRANCH  17  19
ENDBRANCH   4   6
ENDBRANCH   3   4
ENDBRANCH   2   3
ENDBRANCH   1   2
BRANCH   1  28
ATOM     28  O   UNL A   1      31.633  29.742  24.760  1.00  0.00    -0.374 OA
BRANCH  28  29
ATOM     29  C   UNL A   1      31.614  30.493  25.973  1.00  0.00     0.202 C 
BRANCH  29  30
ATOM     30  C   UNL A   1      32.597  30.074  27.074  1.00  0.00     0.261 C 
BRANCH  30  31
ATOM     31  O   UNL A   1      33.882  30.691  26.877  1.00  0.00    -0.460 OA
BRANCH  31  32
ATOM     32  C   UNL A   1      34.482  31.204  27.971  1.00  0.00     0.338 C 
ATOM     33  O   UNL A   1      34.045  32.049  28.726  1.00  0.00    -0.246 OA
BRANCH  32  34
ATOM     34  C   UNL A   1      35.732  30.455  28.226  1.00  0.00     0.060 A 
ATOM     35  C   UNL A   1      35.837  29.747  29.426  1.00  0.00     0.016 A 
ATOM     36  C   UNL A   1      36.827  30.546  27.362  1.00  0.00     0.016 A 
ATOM     37  C   UNL A   1      37.055  29.178  29.794  1.00  0.00     0.010 A 
ATOM     38  C   UNL A   1      38.050  29.963  27.730  1.00  0.00     0.010 A 
ATOM     39  C   UNL A   1      38.185  29.325  28.976  1.00  0.00    -0.014 A 
BRANCH  39  40
ATOM     40  C   UNL A   1      39.514  28.984  29.552  1.00  0.00     0.031 A 
ATOM     41  C   UNL A   1      39.959  29.677  30.815  1.00  0.00     0.074 A 
ATOM     42  C   UNL A   1      40.248  27.973  29.050  1.00  0.00     0.049 A 
ATOM     43  N   UNL A   1      40.979  29.414  31.594  1.00  0.00    -0.248 NA
ATOM     44  C   UNL A   1      39.140  30.813  31.269  1.00  0.00     0.031 C 
ATOM     45  C   UNL A   1      39.925  27.211  27.845  1.00  0.00     0.029 A 
ATOM     46  N   UNL A   1      41.407  27.395  29.512  1.00  0.00    -0.354 N 
ATOM     47  C   UNL A   1      40.903  30.326  32.638  1.00  0.00     0.074 A 
ATOM     48  C   UNL A   1      39.777  31.193  32.365  1.00  0.00     0.031 C 
ATOM     49  C   UNL A   1      40.852  26.251  27.674  1.00  0.00     0.029 A 
ATOM     50  C   UNL A   1      41.836  26.334  28.751  1.00  0.00     0.049 A 
ATOM     51  H   UNL A   1      41.883  27.711  30.313  1.00  0.00     0.167 HD
ATOM     52  C   UNL A   1      41.679  30.418  33.744  1.00  0.00     0.037 A 
ATOM     53  C   UNL A   1      42.898  25.518  28.914  1.00  0.00     0.037 A 
ATOM     54  C   UNL A   1      42.805  29.568  34.022  1.00  0.00     0.049 A 
ATOM     55  C   UNL A   1      43.784  25.686  30.124  1.00  0.00     0.074 A 
ATOM     56  C   UNL A   1      43.659  29.593  35.111  1.00  0.00     0.029 A 
ATOM     57  N   UNL A   1      43.234  28.538  33.201  1.00  0.00    -0.354 N 
ATOM     58  N   UNL A   1      43.669  26.519  31.129  1.00  0.00    -0.248 NA
ATOM     59  C   UNL A   1      44.942  24.784  30.229  1.00  0.00     0.031 C 
ATOM     60  C   UNL A   1      44.630  28.603  34.930  1.00  0.00     0.029 A 
ATOM     61  C   UNL A   1      44.352  27.932  33.750  1.00  0.00     0.049 A 
ATOM     62  H   UNL A   1      42.809  28.276  32.352  1.00  0.00     0.167 HD
ATOM     63  C   UNL A   1      44.717  26.225  31.993  1.00  0.00     0.074 A 
ATOM     64  C   UNL A   1      45.443  25.118  31.409  1.00  0.00     0.031 C 
ATOM     65  C   UNL A   1      45.055  26.821  33.163  1.00  0.00     0.037 A 
BRANCH  52  66
ATOM     66  C   UNL A   1      41.330  31.474  34.751  1.00  0.00     0.064 A 
ATOM     67  C   UNL A   1      41.963  32.727  34.741  1.00  0.00     0.173 A 
ATOM     68  C   UNL A   1      40.318  31.257  35.697  1.00  0.00     0.173 A 
ATOM     69  F   UNL A   1      42.948  32.978  33.865  1.00  0.00    -0.203 F 
ATOM     70  C   UNL A   1      41.606  33.718  35.650  1.00  0.00     0.198 A 
ATOM     71  C   UNL A   1      39.945  32.259  36.589  1.00  0.00     0.198 A 
ATOM     72  F   UNL A   1      39.680  30.078  35.746  1.00  0.00    -0.203 F 
ATOM     73  F   UNL A   1      42.246  34.895  35.644  1.00  0.00    -0.200 F 
ATOM     74  C   UNL A   1      40.591  33.486  36.568  1.00  0.00     0.200 A 
ATOM     75  F   UNL A   1      38.958  32.039  37.467  1.00  0.00    -0.200 F 
ATOM     76  F   UNL A   1      40.238  34.446  37.434  1.00  0.00    -0.200 F 
ENDBRANCH  52  66
BRANCH  53  77
ATOM     77  C   UNL A   1      43.194  24.457  27.913  1.00  0.00     0.064 A 
ATOM     78  C   UNL A   1      43.955  24.725  26.766  1.00  0.00     0.173 A 
ATOM     79  C   UNL A   1      42.662  23.167  28.051  1.00  0.00     0.173 A 
ATOM     80  F   UNL A   1      44.465  25.951  26.572  1.00  0.00    -0.203 F 
ATOM     81  C   UNL A   1      44.141  23.757  25.781  1.00  0.00     0.198 A 
ATOM     82  C   UNL A   1      42.875  22.190  27.081  1.00  0.00     0.198 A 
ATOM     83  F   UNL A   1      41.922  22.857  29.126  1.00  0.00    -0.203 F 
ATOM     84  F   UNL A   1      44.814  24.063  24.662  1.00  0.00    -0.200 F 
ATOM     85  C   UNL A   1      43.604  22.490  25.939  1.00  0.00     0.200 A 
ATOM     86  F   UNL A   1      42.360  20.963  27.243  1.00  0.00    -0.200 F 
ATOM     87  F   UNL A   1      43.772  21.563  24.987  1.00  0.00    -0.200 F 
ENDBRANCH  53  77
BRANCH  65  88
ATOM     88  C   UNL A   1      46.241  26.272  33.903  1.00  0.00     0.064 A 
ATOM     89  C   UNL A   1      47.535  26.770  33.689  1.00  0.00     0.173 A 
ATOM     90  C   UNL A   1      46.077  25.260  34.862  1.00  0.00     0.173 A 
ATOM     91  F   UNL A   1      47.746  27.729  32.774  1.00  0.00    -0.203 F 
ATOM     92  C   UNL A   1      48.624  26.255  34.385  1.00  0.00     0.198 A 
ATOM     93  C   UNL A   1      47.164  24.769  35.578  1.00  0.00     0.198 A 
ATOM     94  F   UNL A   1      44.859  24.756  35.112  1.00  0.00    -0.203 F 
ATOM     95  F   UNL A   1      49.858  26.710  34.127  1.00  0.00    -0.200 F 
ATOM     96  C   UNL A   1      48.438  25.260  35.334  1.00  0.00     0.200 A 
ATOM     97  F   UNL A   1      46.980  23.818  36.505  1.00  0.00    -0.200 F 
ATOM     98  F   UNL A   1      49.488  24.768  36.006  1.00  0.00    -0.200 F 
ENDBRANCH  65  88
ENDBRANCH  39  40
ENDBRANCH  32  34
ENDBRANCH  31  32
ENDBRANCH  30  31
ENDBRANCH  29  30
ENDBRANCH  28  29
ENDBRANCH   1  28
TORSDOF 18
ENDMDL
