MODEL 1
REMARK VINA RESULT:     -10.6      0.000      0.000
REMARK SMILES CC(=O)NNC(=O)C[NH2+][C@@](C)(C(=O)OCCOCCOC(=O)c1ccc(-c2c3nc(c(-c4c(F)c(F)c(F)c(F)c4F)c4ccc([nH]4)c(-c4c(F)c(F)c(F)c(F)c4F)c4nc(c(-c5c(F)c(F)c(F)c(F)c5F)c5ccc2[nH]5)C=C4)C=C3)cc1)C(F)(F)F
REMARK SMILES IDX 16 1 15 2 14 3 12 4 13 5 10 6 11 7 9 8 8 11 6 12 5 13 7 15
REMARK SMILES IDX 4 16 1 17 2 18 3 19 86 21 87 22 88 23 89 24 17 25 18 26
REMARK SMILES IDX 19 27 20 28 21 29 22 30 23 31 24 32 85 33 25 34 84 35 26 36
REMARK SMILES IDX 27 37 28 38 78 39 29 40 83 41 77 42 79 43 30 44 82 45 76 46
REMARK SMILES IDX 75 47 31 49 63 50 43 51 62 52 44 53 47 54 61 55 80 56 45 57
REMARK SMILES IDX 46 58 60 60 81 61 48 62 32 63 33 64 41 65 34 66 35 67 39 68
REMARK SMILES IDX 42 69 36 70 37 71 40 72 38 73 64 74 65 75 73 76 66 77 67 78
REMARK SMILES IDX 71 79 74 80 68 81 69 82 72 83 70 84 49 85 50 86 58 87 51 88
REMARK SMILES IDX 52 89 56 90 59 91 53 92 54 93 57 94 55 95
REMARK H PARENT 9 9 9 10 5 14 4 20 79 48 47 59
REMARK Flexibility Score: inf
ROOT
ATOM      1  C   UNL A   1      37.031  21.886  24.117  1.00  0.00     0.202 C 
ENDROOT
BRANCH   1   2
ATOM      2  C   UNL A   1      36.652  23.336  24.425  1.00  0.00     0.261 C 
BRANCH   2   3
ATOM      3  O   UNL A   1      35.237  23.512  24.614  1.00  0.00    -0.458 OA
BRANCH   3   4
ATOM      4  C   UNL A   1      34.754  23.076  25.819  1.00  0.00     0.377 C 
ATOM      5  O   UNL A   1      35.314  23.301  26.885  1.00  0.00    -0.244 OA
BRANCH   4   6
ATOM      6  C   UNL A   1      33.504  22.187  25.679  1.00  0.00     0.287 C 
ATOM      7  C   UNL A   1      33.584  21.173  26.832  1.00  0.00     0.103 C 
BRANCH   6   8
ATOM      8  N   UNL A   1      33.497  21.461  24.337  1.00  0.00    -0.317 N 
ATOM      9  H   UNL A   1      32.805  21.907  23.734  1.00  0.00     0.347 HD
ATOM     10  H   UNL A   1      34.440  21.525  23.957  1.00  0.00     0.347 HD
BRANCH   8  11
ATOM     11  C   UNL A   1      33.168  20.025  24.443  1.00  0.00     0.364 C 
BRANCH  11  12
ATOM     12  C   UNL A   1      32.352  19.573  23.229  1.00  0.00     0.293 C 
ATOM     13  N   UNL A   1      32.058  18.239  23.080  1.00  0.00    -0.263 N 
ATOM     14  H   UNL A   1      31.669  17.942  22.226  1.00  0.00     0.191 HD
ATOM     15  O   UNL A   1      31.947  20.383  22.392  1.00  0.00    -0.267 OA
BRANCH  13  16
ATOM     16  N   UNL A   1      32.278  17.282  24.066  1.00  0.00    -0.268 N 
ATOM     17  C   UNL A   1      34.413  16.595  23.035  1.00  0.00     0.116 C 
ATOM     18  C   UNL A   1      33.345  16.420  24.081  1.00  0.00     0.235 C 
ATOM     19  O   UNL A   1      33.402  15.526  24.924  1.00  0.00    -0.274 OA
ATOM     20  H   UNL A   1      31.626  17.221  24.802  1.00  0.00     0.191 HD
ENDBRANCH  13  16
ENDBRANCH  11  12
ENDBRANCH   8  11
ENDBRANCH   6   8
BRANCH   6  21
ATOM     21  C   UNL A   1      32.324  23.168  25.900  1.00  0.00     0.455 C 
ATOM     22  F   UNL A   1      31.584  23.307  24.773  1.00  0.00    -0.164 F 
ATOM     23  F   UNL A   1      31.484  22.688  26.856  1.00  0.00    -0.164 F 
ATOM     24  F   UNL A   1      32.695  24.393  26.319  1.00  0.00    -0.164 F 
ENDBRANCH   6  21
ENDBRANCH   4   6
ENDBRANCH   3   4
ENDBRANCH   2   3
ENDBRANCH   1   2
BRANCH   1  25
ATOM     25  O   UNL A   1      37.234  21.024  25.232  1.00  0.00    -0.374 OA
BRANCH  25  26
ATOM     26  C   UNL A   1      37.734  19.709  24.978  1.00  0.00     0.202 C 
BRANCH  26  27
ATOM     27  C   UNL A   1      39.087  19.347  25.601  1.00  0.00     0.261 C 
BRANCH  27  28
ATOM     28  O   UNL A   1      39.946  20.493  25.755  1.00  0.00    -0.460 OA
BRANCH  28  29
ATOM     29  C   UNL A   1      40.701  20.484  26.878  1.00  0.00     0.338 C 
ATOM     30  O   UNL A   1      41.283  19.530  27.376  1.00  0.00    -0.246 OA
BRANCH  29  31
ATOM     31  C   UNL A   1      40.901  21.856  27.375  1.00  0.00     0.060 A 
ATOM     32  C   UNL A   1      40.213  22.886  26.717  1.00  0.00     0.016 A 
ATOM     33  C   UNL A   1      41.815  22.148  28.389  1.00  0.00     0.016 A 
ATOM     34  C   UNL A   1      40.480  24.216  27.032  1.00  0.00     0.010 A 
ATOM     35  C   UNL A   1      42.090  23.485  28.697  1.00  0.00     0.010 A 
ATOM     36  C   UNL A   1      41.453  24.523  27.993  1.00  0.00    -0.014 A 
BRANCH  36  37
ATOM     37  C   UNL A   1      41.908  25.927  28.139  1.00  0.00     0.031 A 
ATOM     38  C   UNL A   1      43.246  26.321  27.576  1.00  0.00     0.074 A 
ATOM     39  C   UNL A   1      41.125  26.847  28.728  1.00  0.00     0.049 A 
ATOM     40  N   UNL A   1      43.850  27.483  27.600  1.00  0.00    -0.248 NA
ATOM     41  C   UNL A   1      44.005  25.263  26.890  1.00  0.00     0.031 C 
ATOM     42  C   UNL A   1      39.795  26.595  29.275  1.00  0.00     0.029 A 
ATOM     43  N   UNL A   1      41.343  28.181  28.965  1.00  0.00    -0.354 N 
ATOM     44  C   UNL A   1      45.055  27.294  26.937  1.00  0.00     0.074 A 
ATOM     45  C   UNL A   1      45.113  25.902  26.548  1.00  0.00     0.031 C 
ATOM     46  C   UNL A   1      39.318  27.737  29.798  1.00  0.00     0.029 A 
ATOM     47  C   UNL A   1      40.319  28.792  29.645  1.00  0.00     0.049 A 
ATOM     48  H   UNL A   1      42.156  28.655  28.676  1.00  0.00     0.167 HD
ATOM     49  C   UNL A   1      46.021  28.205  26.666  1.00  0.00     0.037 A 
ATOM     50  C   UNL A   1      40.214  30.053  30.106  1.00  0.00     0.037 A 
ATOM     51  C   UNL A   1      45.964  29.588  27.055  1.00  0.00     0.049 A 
ATOM     52  C   UNL A   1      41.332  31.030  29.851  1.00  0.00     0.074 A 
ATOM     53  C   UNL A   1      46.887  30.592  26.818  1.00  0.00     0.029 A 
ATOM     54  N   UNL A   1      44.923  30.164  27.768  1.00  0.00    -0.354 N 
ATOM     55  N   UNL A   1      42.458  30.850  29.204  1.00  0.00    -0.248 NA
ATOM     56  C   UNL A   1      41.161  32.388  30.388  1.00  0.00     0.031 C 
ATOM     57  C   UNL A   1      46.425  31.764  27.426  1.00  0.00     0.029 A 
ATOM     58  C   UNL A   1      45.192  31.503  28.000  1.00  0.00     0.049 A 
ATOM     59  H   UNL A   1      44.112  29.690  28.064  1.00  0.00     0.167 HD
ATOM     60  C   UNL A   1      43.117  32.073  29.234  1.00  0.00     0.074 A 
ATOM     61  C   UNL A   1      42.258  32.991  29.952  1.00  0.00     0.031 C 
ATOM     62  C   UNL A   1      44.323  32.405  28.712  1.00  0.00     0.037 A 
BRANCH  49  63
ATOM     63  C   UNL A   1      47.236  27.723  25.930  1.00  0.00     0.064 A 
ATOM     64  C   UNL A   1      48.364  27.240  26.611  1.00  0.00     0.173 A 
ATOM     65  C   UNL A   1      47.262  27.717  24.527  1.00  0.00     0.173 A 
ATOM     66  F   UNL A   1      48.393  27.238  27.952  1.00  0.00    -0.203 F 
ATOM     67  C   UNL A   1      49.481  26.788  25.913  1.00  0.00     0.198 A 
ATOM     68  C   UNL A   1      48.372  27.242  23.834  1.00  0.00     0.198 A 
ATOM     69  F   UNL A   1      46.209  28.168  23.830  1.00  0.00    -0.203 F 
ATOM     70  F   UNL A   1      50.564  26.368  26.583  1.00  0.00    -0.200 F 
ATOM     71  C   UNL A   1      49.482  26.783  24.527  1.00  0.00     0.200 A 
ATOM     72  F   UNL A   1      48.366  27.228  22.494  1.00  0.00    -0.200 F 
ATOM     73  F   UNL A   1      50.556  26.343  23.857  1.00  0.00    -0.200 F 
ENDBRANCH  49  63
BRANCH  50  74
ATOM     74  C   UNL A   1      39.007  30.463  30.868  1.00  0.00     0.064 A 
ATOM     75  C   UNL A   1      37.870  30.956  30.216  1.00  0.00     0.173 A 
ATOM     76  C   UNL A   1      38.974  30.383  32.268  1.00  0.00     0.173 A 
ATOM     77  F   UNL A   1      37.864  31.075  28.880  1.00  0.00    -0.203 F 
ATOM     78  C   UNL A   1      36.749  31.367  30.935  1.00  0.00     0.198 A 
ATOM     79  C   UNL A   1      37.845  30.770  32.986  1.00  0.00     0.198 A 
ATOM     80  F   UNL A   1      40.039  29.920  32.940  1.00  0.00    -0.203 F 
ATOM     81  F   UNL A   1      35.690  31.874  30.290  1.00  0.00    -0.200 F 
ATOM     82  C   UNL A   1      36.735  31.269  32.319  1.00  0.00     0.200 A 
ATOM     83  F   UNL A   1      37.831  30.662  34.322  1.00  0.00    -0.200 F 
ATOM     84  F   UNL A   1      35.657  31.660  33.010  1.00  0.00    -0.200 F 
ENDBRANCH  50  74
BRANCH  62  85
ATOM     85  C   UNL A   1      44.774  33.827  28.871  1.00  0.00     0.064 A 
ATOM     86  C   UNL A   1      44.428  34.816  27.940  1.00  0.00     0.173 A 
ATOM     87  C   UNL A   1      45.525  34.212  29.994  1.00  0.00     0.173 A 
ATOM     88  F   UNL A   1      43.725  34.495  26.845  1.00  0.00    -0.203 F 
ATOM     89  C   UNL A   1      44.837  36.137  28.114  1.00  0.00     0.198 A 
ATOM     90  C   UNL A   1      45.909  35.537  30.178  1.00  0.00     0.198 A 
ATOM     91  F   UNL A   1      45.875  33.304  30.917  1.00  0.00    -0.203 F 
ATOM     92  F   UNL A   1      44.532  37.058  27.191  1.00  0.00    -0.200 F 
ATOM     93  C   UNL A   1      45.571  36.497  29.236  1.00  0.00     0.200 A 
ATOM     94  F   UNL A   1      46.607  35.886  31.268  1.00  0.00    -0.200 F 
ATOM     95  F   UNL A   1      45.956  37.769  29.405  1.00  0.00    -0.200 F 
ENDBRANCH  62  85
ENDBRANCH  36  37
ENDBRANCH  29  31
ENDBRANCH  28  29
ENDBRANCH  27  28
ENDBRANCH  26  27
ENDBRANCH  25  26
ENDBRANCH   1  25
TORSDOF 19
ENDMDL
MODEL 2
REMARK VINA RESULT:     -10.5      2.262      8.054
REMARK SMILES CC(=O)NNC(=O)C[NH2+][C@@](C)(C(=O)OCCOCCOC(=O)c1ccc(-c2c3nc(c(-c4c(F)c(F)c(F)c(F)c4F)c4ccc([nH]4)c(-c4c(F)c(F)c(F)c(F)c4F)c4nc(c(-c5c(F)c(F)c(F)c(F)c5F)c5ccc2[nH]5)C=C4)C=C3)cc1)C(F)(F)F
REMARK SMILES IDX 16 1 15 2 14 3 12 4 13 5 10 6 11 7 9 8 8 11 6 12 5 13 7 15
REMARK SMILES IDX 4 16 1 17 2 18 3 19 86 21 87 22 88 23 89 24 17 25 18 26
REMARK SMILES IDX 19 27 20 28 21 29 22 30 23 31 24 32 85 33 25 34 84 35 26 36
REMARK SMILES IDX 27 37 28 38 78 39 29 40 83 41 77 42 79 43 30 44 82 45 76 46
REMARK SMILES IDX 75 47 31 49 63 50 43 51 62 52 44 53 47 54 61 55 80 56 45 57
REMARK SMILES IDX 46 58 60 60 81 61 48 62 32 63 33 64 41 65 34 66 35 67 39 68
REMARK SMILES IDX 42 69 36 70 37 71 40 72 38 73 64 74 65 75 73 76 66 77 67 78
REMARK SMILES IDX 71 79 74 80 68 81 69 82 72 83 70 84 49 85 50 86 58 87 51 88
REMARK SMILES IDX 52 89 56 90 59 91 53 92 54 93 57 94 55 95
REMARK H PARENT 9 9 9 10 5 14 4 20 79 48 47 59
REMARK Flexibility Score: inf
ROOT
ATOM      1  C   UNL A   1      37.448  22.424  25.606  1.00  0.00     0.202 C 
ENDROOT
BRANCH   1   2
ATOM      2  C   UNL A   1      36.059  23.058  25.506  1.00  0.00     0.261 C 
BRANCH   2   3
ATOM      3  O   UNL A   1      35.090  22.181  24.906  1.00  0.00    -0.458 OA
BRANCH   3   4
ATOM      4  C   UNL A   1      34.188  21.630  25.777  1.00  0.00     0.377 C 
ATOM      5  O   UNL A   1      34.428  21.452  26.965  1.00  0.00    -0.244 OA
BRANCH   4   6
ATOM      6  C   UNL A   1      32.893  21.163  25.086  1.00  0.00     0.287 C 
ATOM      7  C   UNL A   1      32.901  21.824  23.697  1.00  0.00     0.103 C 
BRANCH   6   8
ATOM      8  N   UNL A   1      31.663  21.603  25.874  1.00  0.00    -0.317 N 
ATOM      9  H   UNL A   1      30.910  20.940  25.692  1.00  0.00     0.347 HD
ATOM     10  H   UNL A   1      31.930  21.626  26.857  1.00  0.00     0.347 HD
BRANCH   8  11
ATOM     11  C   UNL A   1      31.190  22.957  25.522  1.00  0.00     0.364 C 
BRANCH  11  12
ATOM     12  C   UNL A   1      30.277  23.506  26.623  1.00  0.00     0.293 C 
ATOM     13  N   UNL A   1      29.732  24.759  26.476  1.00  0.00    -0.263 N 
ATOM     14  H   UNL A   1      29.276  25.160  27.251  1.00  0.00     0.191 HD
ATOM     15  O   UNL A   1      30.016  22.842  27.628  1.00  0.00    -0.267 OA
BRANCH  13  16
ATOM     16  N   UNL A   1      29.786  25.494  25.296  1.00  0.00    -0.268 N 
ATOM     17  C   UNL A   1      31.414  27.077  26.265  1.00  0.00     0.116 C 
ATOM     18  C   UNL A   1      30.517  26.645  25.137  1.00  0.00     0.235 C 
ATOM     19  O   UNL A   1      30.416  27.298  24.100  1.00  0.00    -0.274 OA
ATOM     20  H   UNL A   1      29.267  25.167  24.525  1.00  0.00     0.191 HD
ENDBRANCH  13  16
ENDBRANCH  11  12
ENDBRANCH   8  11
ENDBRANCH   6   8
BRANCH   6  21
ATOM     21  C   UNL A   1      33.074  19.629  24.958  1.00  0.00     0.455 C 
ATOM     22  F   UNL A   1      32.717  18.995  26.101  1.00  0.00    -0.164 F 
ATOM     23  F   UNL A   1      32.268  19.138  23.977  1.00  0.00    -0.164 F 
ATOM     24  F   UNL A   1      34.323  19.244  24.631  1.00  0.00    -0.164 F 
ENDBRANCH   6  21
ENDBRANCH   4   6
ENDBRANCH   3   4
ENDBRANCH   2   3
ENDBRANCH   1   2
BRANCH   1  25
ATOM     25  O   UNL A   1      37.766  21.418  24.650  1.00  0.00    -0.374 OA
BRANCH  25  26
ATOM     26  C   UNL A   1      37.676  20.053  25.062  1.00  0.00     0.202 C 
BRANCH  26  27
ATOM     27  C   UNL A   1      38.995  19.311  25.306  1.00  0.00     0.261 C 
BRANCH  27  28
ATOM     28  O   UNL A   1      39.855  20.008  26.228  1.00  0.00    -0.460 OA
BRANCH  28  29
ATOM     29  C   UNL A   1      41.166  19.685  26.130  1.00  0.00     0.338 C 
ATOM     30  O   UNL A   1      41.645  18.617  25.773  1.00  0.00    -0.246 OA
BRANCH  29  31
ATOM     31  C   UNL A   1      42.007  20.875  26.350  1.00  0.00     0.060 A 
ATOM     32  C   UNL A   1      42.209  21.285  27.675  1.00  0.00     0.016 A 
ATOM     33  C   UNL A   1      42.502  21.634  25.288  1.00  0.00     0.016 A 
ATOM     34  C   UNL A   1      42.858  22.488  27.942  1.00  0.00     0.010 A 
ATOM     35  C   UNL A   1      43.144  22.848  25.557  1.00  0.00     0.010 A 
ATOM     36  C   UNL A   1      43.289  23.298  26.883  1.00  0.00    -0.014 A 
BRANCH  36  37
ATOM     37  C   UNL A   1      43.745  24.680  27.166  1.00  0.00     0.031 A 
ATOM     38  C   UNL A   1      42.743  25.693  27.647  1.00  0.00     0.074 A 
ATOM     39  C   UNL A   1      45.040  25.017  27.038  1.00  0.00     0.049 A 
ATOM     40  N   UNL A   1      42.914  26.958  27.941  1.00  0.00    -0.248 NA
ATOM     41  C   UNL A   1      41.362  25.217  27.820  1.00  0.00     0.031 C 
ATOM     42  C   UNL A   1      46.109  24.114  26.621  1.00  0.00     0.029 A 
ATOM     43  N   UNL A   1      45.671  26.218  27.246  1.00  0.00    -0.354 N 
ATOM     44  C   UNL A   1      41.666  27.425  28.332  1.00  0.00     0.074 A 
ATOM     45  C   UNL A   1      40.741  26.320  28.209  1.00  0.00     0.031 C 
ATOM     46  C   UNL A   1      47.266  24.796  26.590  1.00  0.00     0.029 A 
ATOM     47  C   UNL A   1      47.013  26.188  26.960  1.00  0.00     0.049 A 
ATOM     48  H   UNL A   1      45.207  27.024  27.568  1.00  0.00     0.167 HD
ATOM     49  C   UNL A   1      41.327  28.662  28.767  1.00  0.00     0.037 A 
ATOM     50  C   UNL A   1      47.927  27.179  26.978  1.00  0.00     0.037 A 
ATOM     51  C   UNL A   1      42.247  29.761  28.887  1.00  0.00     0.049 A 
ATOM     52  C   UNL A   1      47.510  28.562  27.400  1.00  0.00     0.074 A 
ATOM     53  C   UNL A   1      42.001  31.051  29.328  1.00  0.00     0.029 A 
ATOM     54  N   UNL A   1      43.593  29.701  28.560  1.00  0.00    -0.354 N 
ATOM     55  N   UNL A   1      46.333  28.991  27.789  1.00  0.00    -0.248 NA
ATOM     56  C   UNL A   1      48.551  29.602  27.389  1.00  0.00     0.031 C 
ATOM     57  C   UNL A   1      43.189  31.782  29.226  1.00  0.00     0.029 A 
ATOM     58  C   UNL A   1      44.186  30.936  28.767  1.00  0.00     0.049 A 
ATOM     59  H   UNL A   1      44.058  28.898  28.230  1.00  0.00     0.167 HD
ATOM     60  C   UNL A   1      46.497  30.337  28.092  1.00  0.00     0.074 A 
ATOM     61  C   UNL A   1      47.889  30.652  27.854  1.00  0.00     0.031 C 
ATOM     62  C   UNL A   1      45.576  31.230  28.530  1.00  0.00     0.037 A 
BRANCH  49  63
ATOM     63  C   UNL A   1      39.889  28.898  29.124  1.00  0.00     0.064 A 
ATOM     64  C   UNL A   1      38.936  29.236  28.151  1.00  0.00     0.173 A 
ATOM     65  C   UNL A   1      39.452  28.752  30.449  1.00  0.00     0.173 A 
ATOM     66  F   UNL A   1      39.306  29.401  26.872  1.00  0.00    -0.203 F 
ATOM     67  C   UNL A   1      37.603  29.443  28.497  1.00  0.00     0.198 A 
ATOM     68  C   UNL A   1      38.114  28.935  30.786  1.00  0.00     0.198 A 
ATOM     69  F   UNL A   1      40.323  28.427  31.416  1.00  0.00    -0.203 F 
ATOM     70  F   UNL A   1      36.717  29.807  27.559  1.00  0.00    -0.200 F 
ATOM     71  C   UNL A   1      37.192  29.286  29.812  1.00  0.00     0.200 A 
ATOM     72  F   UNL A   1      37.717  28.773  32.056  1.00  0.00    -0.200 F 
ATOM     73  F   UNL A   1      35.908  29.480  30.142  1.00  0.00    -0.200 F 
ENDBRANCH  49  63
BRANCH  50  74
ATOM     74  C   UNL A   1      49.328  26.899  26.570  1.00  0.00     0.064 A 
ATOM     75  C   UNL A   1      49.720  26.969  25.227  1.00  0.00     0.173 A 
ATOM     76  C   UNL A   1      50.299  26.538  27.516  1.00  0.00     0.173 A 
ATOM     77  F   UNL A   1      48.821  27.284  24.284  1.00  0.00    -0.203 F 
ATOM     78  C   UNL A   1      51.028  26.678  24.844  1.00  0.00     0.198 A 
ATOM     79  C   UNL A   1      51.612  26.272  27.136  1.00  0.00     0.198 A 
ATOM     80  F   UNL A   1      49.972  26.453  28.815  1.00  0.00    -0.203 F 
ATOM     81  F   UNL A   1      51.367  26.712  23.548  1.00  0.00    -0.200 F 
ATOM     82  C   UNL A   1      51.974  26.334  25.799  1.00  0.00     0.200 A 
ATOM     83  F   UNL A   1      52.525  25.952  28.064  1.00  0.00    -0.200 F 
ATOM     84  F   UNL A   1      53.231  26.058  25.430  1.00  0.00    -0.200 F 
ENDBRANCH  50  74
BRANCH  62  85
ATOM     85  C   UNL A   1      46.049  32.627  28.809  1.00  0.00     0.064 A 
ATOM     86  C   UNL A   1      46.521  33.004  30.074  1.00  0.00     0.173 A 
ATOM     87  C   UNL A   1      46.074  33.586  27.784  1.00  0.00     0.173 A 
ATOM     88  F   UNL A   1      46.504  32.128  31.089  1.00  0.00    -0.203 F 
ATOM     89  C   UNL A   1      46.977  34.299  30.311  1.00  0.00     0.198 A 
ATOM     90  C   UNL A   1      46.556  34.871  28.017  1.00  0.00     0.198 A 
ATOM     91  F   UNL A   1      45.640  33.273  26.553  1.00  0.00    -0.203 F 
ATOM     92  F   UNL A   1      47.383  34.650  31.538  1.00  0.00    -0.200 F 
ATOM     93  C   UNL A   1      47.001  35.228  29.281  1.00  0.00     0.200 A 
ATOM     94  F   UNL A   1      46.590  35.764  27.018  1.00  0.00    -0.200 F 
ATOM     95  F   UNL A   1      47.448  36.471  29.509  1.00  0.00    -0.200 F 
ENDBRANCH  62  85
ENDBRANCH  36  37
ENDBRANCH  29  31
ENDBRANCH  28  29
ENDBRANCH  27  28
ENDBRANCH  26  27
ENDBRANCH  25  26
ENDBRANCH   1  25
TORSDOF 19
ENDMDL
MODEL 3
REMARK VINA RESULT:     -10.5      1.007      2.296
REMARK SMILES CC(=O)NNC(=O)C[NH2+][C@@](C)(C(=O)OCCOCCOC(=O)c1ccc(-c2c3nc(c(-c4c(F)c(F)c(F)c(F)c4F)c4ccc([nH]4)c(-c4c(F)c(F)c(F)c(F)c4F)c4nc(c(-c5c(F)c(F)c(F)c(F)c5F)c5ccc2[nH]5)C=C4)C=C3)cc1)C(F)(F)F
REMARK SMILES IDX 16 1 15 2 14 3 12 4 13 5 10 6 11 7 9 8 8 11 6 12 5 13 7 15
REMARK SMILES IDX 4 16 1 17 2 18 3 19 86 21 87 22 88 23 89 24 17 25 18 26
REMARK SMILES IDX 19 27 20 28 21 29 22 30 23 31 24 32 85 33 25 34 84 35 26 36
REMARK SMILES IDX 27 37 28 38 78 39 29 40 83 41 77 42 79 43 30 44 82 45 76 46
REMARK SMILES IDX 75 47 31 49 63 50 43 51 62 52 44 53 47 54 61 55 80 56 45 57
REMARK SMILES IDX 46 58 60 60 81 61 48 62 32 63 33 64 41 65 34 66 35 67 39 68
REMARK SMILES IDX 42 69 36 70 37 71 40 72 38 73 64 74 65 75 73 76 66 77 67 78
REMARK SMILES IDX 71 79 74 80 68 81 69 82 72 83 70 84 49 85 50 86 58 87 51 88
REMARK SMILES IDX 52 89 56 90 59 91 53 92 54 93 57 94 55 95
REMARK H PARENT 9 9 9 10 5 14 4 20 79 48 47 59
REMARK Flexibility Score: inf
ROOT
ATOM      1  C   UNL A   1      36.743  22.129  24.243  1.00  0.00     0.202 C 
ENDROOT
BRANCH   1   2
ATOM      2  C   UNL A   1      35.681  22.871  25.057  1.00  0.00     0.261 C 
BRANCH   2   3
ATOM      3  O   UNL A   1      34.579  23.325  24.250  1.00  0.00    -0.458 OA
BRANCH   3   4
ATOM      4  C   UNL A   1      33.430  23.601  24.941  1.00  0.00     0.377 C 
ATOM      5  O   UNL A   1      33.407  24.280  25.960  1.00  0.00    -0.244 OA
BRANCH   4   6
ATOM      6  C   UNL A   1      32.196  22.879  24.366  1.00  0.00     0.287 C 
ATOM      7  C   UNL A   1      31.191  22.785  25.526  1.00  0.00     0.103 C 
BRANCH   6   8
ATOM      8  N   UNL A   1      32.562  21.483  23.869  1.00  0.00    -0.317 N 
ATOM      9  H   UNL A   1      32.096  21.327  22.975  1.00  0.00     0.347 HD
ATOM     10  H   UNL A   1      33.577  21.451  23.787  1.00  0.00     0.347 HD
BRANCH   8  11
ATOM     11  C   UNL A   1      32.167  20.404  24.796  1.00  0.00     0.364 C 
BRANCH  11  12
ATOM     12  C   UNL A   1      33.350  20.003  25.683  1.00  0.00     0.293 C 
ATOM     13  N   UNL A   1      34.150  18.955  25.297  1.00  0.00    -0.263 N 
ATOM     14  H   UNL A   1      34.807  18.611  25.944  1.00  0.00     0.191 HD
ATOM     15  O   UNL A   1      33.602  20.609  26.727  1.00  0.00    -0.267 OA
BRANCH  13  16
ATOM     16  N   UNL A   1      34.085  18.350  24.045  1.00  0.00    -0.268 N 
ATOM     17  C   UNL A   1      33.760  16.120  25.052  1.00  0.00     0.116 C 
ATOM     18  C   UNL A   1      33.962  16.998  23.847  1.00  0.00     0.235 C 
ATOM     19  O   UNL A   1      34.031  16.535  22.709  1.00  0.00    -0.274 OA
ATOM     20  H   UNL A   1      34.129  18.931  23.251  1.00  0.00     0.191 HD
ENDBRANCH  13  16
ENDBRANCH  11  12
ENDBRANCH   8  11
ENDBRANCH   6   8
BRANCH   6  21
ATOM     21  C   UNL A   1      31.676  23.847  23.273  1.00  0.00     0.455 C 
ATOM     22  F   UNL A   1      30.395  23.561  22.933  1.00  0.00    -0.164 F 
ATOM     23  F   UNL A   1      31.674  25.126  23.738  1.00  0.00    -0.164 F 
ATOM     24  F   UNL A   1      32.420  23.867  22.151  1.00  0.00    -0.164 F 
ENDBRANCH   6  21
ENDBRANCH   4   6
ENDBRANCH   3   4
ENDBRANCH   2   3
ENDBRANCH   1   2
BRANCH   1  25
ATOM     25  O   UNL A   1      37.825  21.555  24.969  1.00  0.00    -0.374 OA
BRANCH  25  26
ATOM     26  C   UNL A   1      37.955  20.133  24.961  1.00  0.00     0.202 C 
BRANCH  26  27
ATOM     27  C   UNL A   1      39.178  19.541  25.671  1.00  0.00     0.261 C 
BRANCH  27  28
ATOM     28  O   UNL A   1      40.259  20.487  25.782  1.00  0.00    -0.460 OA
BRANCH  28  29
ATOM     29  C   UNL A   1      40.863  20.510  26.993  1.00  0.00     0.338 C 
ATOM     30  O   UNL A   1      41.348  19.567  27.603  1.00  0.00    -0.246 OA
BRANCH  29  31
ATOM     31  C   UNL A   1      41.037  21.899  27.454  1.00  0.00     0.060 A 
ATOM     32  C   UNL A   1      40.407  22.908  26.712  1.00  0.00     0.016 A 
ATOM     33  C   UNL A   1      41.877  22.222  28.522  1.00  0.00     0.016 A 
ATOM     34  C   UNL A   1      40.661  24.247  26.998  1.00  0.00     0.010 A 
ATOM     35  C   UNL A   1      42.139  23.568  28.801  1.00  0.00     0.010 A 
ATOM     36  C   UNL A   1      41.564  24.584  28.015  1.00  0.00    -0.014 A 
BRANCH  36  37
ATOM     37  C   UNL A   1      42.018  25.989  28.145  1.00  0.00     0.031 A 
ATOM     38  C   UNL A   1      43.343  26.383  27.552  1.00  0.00     0.074 A 
ATOM     39  C   UNL A   1      41.245  26.910  28.744  1.00  0.00     0.049 A 
ATOM     40  N   UNL A   1      43.945  27.546  27.557  1.00  0.00    -0.248 NA
ATOM     41  C   UNL A   1      44.091  25.323  26.857  1.00  0.00     0.031 C 
ATOM     42  C   UNL A   1      39.927  26.659  29.320  1.00  0.00     0.029 A 
ATOM     43  N   UNL A   1      41.465  28.246  28.969  1.00  0.00    -0.354 N 
ATOM     44  C   UNL A   1      45.136  27.357  26.871  1.00  0.00     0.074 A 
ATOM     45  C   UNL A   1      45.190  25.964  26.489  1.00  0.00     0.031 C 
ATOM     46  C   UNL A   1      39.458  27.803  29.846  1.00  0.00     0.029 A 
ATOM     47  C   UNL A   1      40.453  28.858  29.666  1.00  0.00     0.049 A 
ATOM     48  H   UNL A   1      42.270  28.721  28.661  1.00  0.00     0.167 HD
ATOM     49  C   UNL A   1      46.094  28.269  26.575  1.00  0.00     0.037 A 
ATOM     50  C   UNL A   1      40.354  30.122  30.122  1.00  0.00     0.037 A 
ATOM     51  C   UNL A   1      46.041  29.654  26.957  1.00  0.00     0.049 A 
ATOM     52  C   UNL A   1      41.464  31.100  29.839  1.00  0.00     0.074 A 
ATOM     53  C   UNL A   1      46.957  30.659  26.696  1.00  0.00     0.029 A 
ATOM     54  N   UNL A   1      45.014  30.231  27.688  1.00  0.00    -0.354 N 
ATOM     55  N   UNL A   1      42.577  30.920  29.171  1.00  0.00    -0.248 NA
ATOM     56  C   UNL A   1      41.300  32.461  30.372  1.00  0.00     0.031 C 
ATOM     57  C   UNL A   1      46.505  31.834  27.307  1.00  0.00     0.029 A 
ATOM     58  C   UNL A   1      45.284  31.572  27.907  1.00  0.00     0.049 A 
ATOM     59  H   UNL A   1      44.211  29.757  28.004  1.00  0.00     0.167 HD
ATOM     60  C   UNL A   1      43.233  32.144  29.180  1.00  0.00     0.074 A 
ATOM     61  C   UNL A   1      42.387  33.065  29.910  1.00  0.00     0.031 C 
ATOM     62  C   UNL A   1      44.427  32.476  28.632  1.00  0.00     0.037 A 
BRANCH  49  63
ATOM     63  C   UNL A   1      47.296  27.786  25.818  1.00  0.00     0.064 A 
ATOM     64  C   UNL A   1      47.314  27.748  24.415  1.00  0.00     0.173 A 
ATOM     65  C   UNL A   1      48.454  27.387  26.501  1.00  0.00     0.173 A 
ATOM     66  F   UNL A   1      46.226  28.106  23.716  1.00  0.00    -0.203 F 
ATOM     67  C   UNL A   1      48.440  27.306  23.726  1.00  0.00     0.198 A 
ATOM     68  C   UNL A   1      49.587  26.969  25.808  1.00  0.00     0.198 A 
ATOM     69  F   UNL A   1      48.489  27.407  27.842  1.00  0.00    -0.203 F 
ATOM     70  F   UNL A   1      48.421  27.238  22.387  1.00  0.00    -0.200 F 
ATOM     71  C   UNL A   1      49.577  26.924  24.422  1.00  0.00     0.200 A 
ATOM     72  F   UNL A   1      50.688  26.610  26.481  1.00  0.00    -0.200 F 
ATOM     73  F   UNL A   1      50.662  26.503  23.757  1.00  0.00    -0.200 F 
ENDBRANCH  49  63
BRANCH  50  74
ATOM     74  C   UNL A   1      39.162  30.533  30.907  1.00  0.00     0.064 A 
ATOM     75  C   UNL A   1      39.106  30.345  32.294  1.00  0.00     0.173 A 
ATOM     76  C   UNL A   1      38.046  31.108  30.281  1.00  0.00     0.173 A 
ATOM     77  F   UNL A   1      40.138  29.775  32.933  1.00  0.00    -0.203 F 
ATOM     78  C   UNL A   1      37.975  30.704  33.024  1.00  0.00     0.198 A 
ATOM     79  C   UNL A   1      36.925  31.491  31.014  1.00  0.00     0.198 A 
ATOM     80  F   UNL A   1      38.049  31.307  28.954  1.00  0.00    -0.203 F 
ATOM     81  F   UNL A   1      37.931  30.475  34.343  1.00  0.00    -0.200 F 
ATOM     82  C   UNL A   1      36.887  31.282  32.385  1.00  0.00     0.200 A 
ATOM     83  F   UNL A   1      35.882  32.059  30.394  1.00  0.00    -0.200 F 
ATOM     84  F   UNL A   1      35.802  31.630  33.087  1.00  0.00    -0.200 F 
ENDBRANCH  50  74
BRANCH  62  85
ATOM     85  C   UNL A   1      44.878  33.900  28.774  1.00  0.00     0.064 A 
ATOM     86  C   UNL A   1      45.729  34.302  29.814  1.00  0.00     0.173 A 
ATOM     87  C   UNL A   1      44.491  34.865  27.831  1.00  0.00     0.173 A 
ATOM     88  F   UNL A   1      46.115  33.420  30.748  1.00  0.00    -0.203 F 
ATOM     89  C   UNL A   1      46.157  35.623  29.918  1.00  0.00     0.198 A 
ATOM     90  C   UNL A   1      44.941  36.179  27.923  1.00  0.00     0.198 A 
ATOM     91  F   UNL A   1      43.683  34.530  26.813  1.00  0.00    -0.203 F 
ATOM     92  F   UNL A   1      46.935  35.995  30.944  1.00  0.00    -0.200 F 
ATOM     93  C   UNL A   1      45.768  36.558  28.969  1.00  0.00     0.200 A 
ATOM     94  F   UNL A   1      44.576  37.078  26.999  1.00  0.00    -0.200 F 
ATOM     95  F   UNL A   1      46.188  37.828  29.068  1.00  0.00    -0.200 F 
ENDBRANCH  62  85
ENDBRANCH  36  37
ENDBRANCH  29  31
ENDBRANCH  28  29
ENDBRANCH  27  28
ENDBRANCH  26  27
ENDBRANCH  25  26
ENDBRANCH   1  25
TORSDOF 19
ENDMDL
