MODEL 1
REMARK VINA RESULT:     -11.7      0.000      0.000
REMARK SMILES NC(=O)[C@@H]1CCCCN1C(=O)N[C@H]1C=C[C@@H](C(=O)OCCOCCOC(=O)c2ccc(-c3c4nc(c(-c5c(F)c(F)c(F)c(F)c5F)c5ccc([nH]5)c(-c5c(F)c(F)c(F)c(F)c5F)c5nc(c(-c6c(F)c(F)c(F)c(F)c6F)c6ccc3[nH]6)C=C5)C=C4)cc2)C1
REMARK SMILES IDX 21 1 20 2 19 3 17 4 18 5 16 6 13 7 14 8 91 9 15 10 12 11
REMARK SMILES IDX 10 12 11 13 9 15 4 16 5 17 6 18 8 19 7 20 2 21 1 22 3 25
REMARK SMILES IDX 22 26 23 27 24 28 25 29 26 30 27 31 28 32 29 33 90 34 30 35
REMARK SMILES IDX 89 36 31 37 32 38 33 39 83 40 34 41 88 42 82 43 84 44 35 45
REMARK SMILES IDX 87 46 81 47 80 48 36 50 68 51 48 52 67 53 49 54 52 55 66 56
REMARK SMILES IDX 85 57 50 58 51 59 65 61 86 62 53 63 37 64 38 65 46 66 39 67
REMARK SMILES IDX 40 68 44 69 47 70 41 71 42 72 45 73 43 74 69 75 70 76 78 77
REMARK SMILES IDX 71 78 72 79 76 80 79 81 73 82 74 83 77 84 75 85 54 86 55 87
REMARK SMILES IDX 63 88 56 89 57 90 61 91 64 92 58 93 59 94 62 95 60 96
REMARK H PARENT 12 14 1 23 1 24 84 49 52 60
REMARK Flexibility Score: inf
ROOT
ATOM      1  C   UNL A   1      40.933  21.059  27.420  1.00  0.00     0.202 C 
ENDROOT
BRANCH   1   2
ATOM      2  C   UNL A   1      40.034  21.068  26.183  1.00  0.00     0.261 C 
BRANCH   2   3
ATOM      3  O   UNL A   1      39.083  22.146  26.219  1.00  0.00    -0.463 OA
BRANCH   3   4
ATOM      4  C   UNL A   1      37.934  21.932  25.527  1.00  0.00     0.312 C 
ATOM      5  O   UNL A   1      37.759  21.019  24.725  1.00  0.00    -0.252 OA
BRANCH   4   6
ATOM      6  C   UNL A   1      36.864  22.979  25.787  1.00  0.00     0.124 C 
ATOM      7  C   UNL A   1      34.904  24.202  25.075  1.00  0.00     0.107 C 
ATOM      8  C   UNL A   1      34.534  23.038  25.949  1.00  0.00    -0.006 C 
ATOM      9  C   UNL A   1      36.304  23.775  24.602  1.00  0.00     0.048 C 
ATOM     10  C   UNL A   1      35.619  22.366  26.356  1.00  0.00    -0.014 C 
BRANCH   7  11
ATOM     11  N   UNL A   1      33.930  24.326  24.020  1.00  0.00    -0.332 N 
ATOM     12  C   UNL A   1      32.771  24.991  23.848  1.00  0.00     0.318 C 
ATOM     13  O   UNL A   1      32.039  24.493  22.990  1.00  0.00    -0.249 OA
ATOM     14  H   UNL A   1      34.173  23.793  23.228  1.00  0.00     0.165 HD
BRANCH  12  15
ATOM     15  N   UNL A   1      32.426  26.126  24.547  1.00  0.00    -0.313 N 
ATOM     16  C   UNL A   1      32.008  25.948  25.968  1.00  0.00     0.176 C 
ATOM     17  C   UNL A   1      31.094  27.098  26.453  1.00  0.00     0.035 C 
ATOM     18  C   UNL A   1      31.671  28.470  26.175  1.00  0.00     0.004 C 
ATOM     19  C   UNL A   1      32.841  27.479  24.187  1.00  0.00     0.122 C 
ATOM     20  C   UNL A   1      31.940  28.596  24.691  1.00  0.00     0.022 C 
BRANCH  16  21
ATOM     21  C   UNL A   1      31.191  24.683  26.349  1.00  0.00     0.240 C 
ATOM     22  N   UNL A   1      30.206  24.345  25.456  1.00  0.00    -0.368 N 
ATOM     23  H   UNL A   1      29.640  23.556  25.621  1.00  0.00     0.159 HD
ATOM     24  H   UNL A   1      30.063  24.892  24.650  1.00  0.00     0.159 HD
ATOM     25  O   UNL A   1      31.417  23.974  27.327  1.00  0.00    -0.273 OA
ENDBRANCH  16  21
ENDBRANCH  12  15
ENDBRANCH   7  11
ENDBRANCH   4   6
ENDBRANCH   3   4
ENDBRANCH   2   3
ENDBRANCH   1   2
BRANCH   1  26
ATOM     26  O   UNL A   1      42.279  21.485  27.220  1.00  0.00    -0.374 OA
BRANCH  26  27
ATOM     27  C   UNL A   1      43.041  20.809  26.220  1.00  0.00     0.202 C 
BRANCH  27  28
ATOM     28  C   UNL A   1      43.562  21.670  25.062  1.00  0.00     0.261 C 
BRANCH  28  29
ATOM     29  O   UNL A   1      42.825  22.900  24.931  1.00  0.00    -0.460 OA
BRANCH  29  30
ATOM     30  C   UNL A   1      43.573  24.025  25.016  1.00  0.00     0.338 C 
ATOM     31  O   UNL A   1      44.569  24.306  24.362  1.00  0.00    -0.246 OA
BRANCH  30  32
ATOM     32  C   UNL A   1      42.921  25.002  25.904  1.00  0.00     0.060 A 
ATOM     33  C   UNL A   1      43.559  26.237  26.091  1.00  0.00     0.016 A 
ATOM     34  C   UNL A   1      41.757  24.691  26.609  1.00  0.00     0.016 A 
ATOM     35  C   UNL A   1      43.064  27.146  27.022  1.00  0.00     0.010 A 
ATOM     36  C   UNL A   1      41.267  25.601  27.552  1.00  0.00     0.010 A 
ATOM     37  C   UNL A   1      41.938  26.816  27.788  1.00  0.00    -0.014 A 
BRANCH  37  38
ATOM     38  C   UNL A   1      41.553  27.672  28.934  1.00  0.00     0.031 A 
ATOM     39  C   UNL A   1      42.320  27.556  30.221  1.00  0.00     0.074 A 
ATOM     40  C   UNL A   1      40.535  28.543  28.832  1.00  0.00     0.049 A 
ATOM     41  N   UNL A   1      42.124  28.162  31.364  1.00  0.00    -0.248 NA
ATOM     42  C   UNL A   1      43.461  26.627  30.218  1.00  0.00     0.031 C 
ATOM     43  C   UNL A   1      39.736  28.765  27.631  1.00  0.00     0.029 A 
ATOM     44  N   UNL A   1      39.991  29.390  29.765  1.00  0.00    -0.354 N 
ATOM     45  C   UNL A   1      43.103  27.676  32.220  1.00  0.00     0.074 A 
ATOM     46  C   UNL A   1      43.880  26.711  31.472  1.00  0.00     0.031 C 
ATOM     47  C   UNL A   1      38.781  29.670  27.907  1.00  0.00     0.029 A 
ATOM     48  C   UNL A   1      38.887  30.066  29.310  1.00  0.00     0.049 A 
ATOM     49  H   UNL A   1      40.357  29.501  30.672  1.00  0.00     0.167 HD
ATOM     50  C   UNL A   1      43.334  28.007  33.513  1.00  0.00     0.037 A 
ATOM     51  C   UNL A   1      38.041  30.886  29.963  1.00  0.00     0.037 A 
ATOM     52  C   UNL A   1      42.563  28.970  34.253  1.00  0.00     0.049 A 
ATOM     53  C   UNL A   1      38.286  31.205  31.414  1.00  0.00     0.074 A 
ATOM     54  C   UNL A   1      42.751  29.415  35.550  1.00  0.00     0.029 A 
ATOM     55  N   UNL A   1      41.443  29.627  33.763  1.00  0.00    -0.354 N 
ATOM     56  N   UNL A   1      39.242  30.780  32.203  1.00  0.00    -0.248 NA
ATOM     57  C   UNL A   1      37.335  32.119  32.063  1.00  0.00     0.031 C 
ATOM     58  C   UNL A   1      41.713  30.300  35.863  1.00  0.00     0.029 A 
ATOM     59  C   UNL A   1      40.908  30.447  34.743  1.00  0.00     0.049 A 
ATOM     60  H   UNL A   1      41.082  29.525  32.852  1.00  0.00     0.167 HD
ATOM     61  C   UNL A   1      39.024  31.389  33.433  1.00  0.00     0.074 A 
ATOM     62  C   UNL A   1      37.848  32.220  33.283  1.00  0.00     0.031 C 
ATOM     63  C   UNL A   1      39.736  31.270  34.580  1.00  0.00     0.037 A 
BRANCH  50  64
ATOM     64  C   UNL A   1      44.445  27.287  34.221  1.00  0.00     0.064 A 
ATOM     65  C   UNL A   1      44.237  26.063  34.875  1.00  0.00     0.173 A 
ATOM     66  C   UNL A   1      45.740  27.827  34.234  1.00  0.00     0.173 A 
ATOM     67  F   UNL A   1      43.015  25.511  34.902  1.00  0.00    -0.203 F 
ATOM     68  C   UNL A   1      45.277  25.424  35.543  1.00  0.00     0.198 A 
ATOM     69  C   UNL A   1      46.784  27.170  34.880  1.00  0.00     0.198 A 
ATOM     70  F   UNL A   1      45.993  28.991  33.620  1.00  0.00    -0.203 F 
ATOM     71  F   UNL A   1      45.045  24.282  36.205  1.00  0.00    -0.200 F 
ATOM     72  C   UNL A   1      46.551  25.974  35.542  1.00  0.00     0.200 A 
ATOM     73  F   UNL A   1      48.016  27.698  34.866  1.00  0.00    -0.200 F 
ATOM     74  F   UNL A   1      47.551  25.358  36.184  1.00  0.00    -0.200 F 
ENDBRANCH  50  64
BRANCH  51  75
ATOM     75  C   UNL A   1      36.869  31.445  29.241  1.00  0.00     0.064 A 
ATOM     76  C   UNL A   1      35.770  30.642  28.912  1.00  0.00     0.173 A 
ATOM     77  C   UNL A   1      36.818  32.802  28.889  1.00  0.00     0.173 A 
ATOM     78  F   UNL A   1      35.783  29.334  29.207  1.00  0.00    -0.203 F 
ATOM     79  C   UNL A   1      34.664  31.175  28.253  1.00  0.00     0.198 A 
ATOM     80  C   UNL A   1      35.701  33.339  28.253  1.00  0.00     0.198 A 
ATOM     81  F   UNL A   1      37.846  33.610  29.182  1.00  0.00    -0.203 F 
ATOM     82  F   UNL A   1      33.636  30.381  27.924  1.00  0.00    -0.200 F 
ATOM     83  C   UNL A   1      34.626  32.524  27.933  1.00  0.00     0.200 A 
ATOM     84  F   UNL A   1      35.664  34.645  27.957  1.00  0.00    -0.200 F 
ATOM     85  F   UNL A   1      33.556  33.038  27.313  1.00  0.00    -0.200 F 
ENDBRANCH  51  75
BRANCH  63  86
ATOM     86  C   UNL A   1      39.284  32.075  35.764  1.00  0.00     0.064 A 
ATOM     87  C   UNL A   1      39.694  33.403  35.949  1.00  0.00     0.173 A 
ATOM     88  C   UNL A   1      38.381  31.530  36.690  1.00  0.00     0.173 A 
ATOM     89  F   UNL A   1      40.568  33.965  35.101  1.00  0.00    -0.203 F 
ATOM     90  C   UNL A   1      39.227  34.152  37.027  1.00  0.00     0.198 A 
ATOM     91  C   UNL A   1      37.896  32.289  37.750  1.00  0.00     0.198 A 
ATOM     92  F   UNL A   1      37.954  30.266  36.554  1.00  0.00    -0.203 F 
ATOM     93  F   UNL A   1      39.659  35.408  37.205  1.00  0.00    -0.200 F 
ATOM     94  C   UNL A   1      38.322  33.598  37.921  1.00  0.00     0.200 A 
ATOM     95  F   UNL A   1      37.012  31.757  38.605  1.00  0.00    -0.200 F 
ATOM     96  F   UNL A   1      37.864  34.323  38.950  1.00  0.00    -0.200 F 
ENDBRANCH  63  86
ENDBRANCH  37  38
ENDBRANCH  30  32
ENDBRANCH  29  30
ENDBRANCH  28  29
ENDBRANCH  27  28
ENDBRANCH  26  27
ENDBRANCH   1  26
TORSDOF 17
ENDMDL
MODEL 2
REMARK VINA RESULT:     -11.6      0.867      2.281
REMARK SMILES NC(=O)[C@@H]1CCCCN1C(=O)N[C@H]1C=C[C@@H](C(=O)OCCOCCOC(=O)c2ccc(-c3c4nc(c(-c5c(F)c(F)c(F)c(F)c5F)c5ccc([nH]5)c(-c5c(F)c(F)c(F)c(F)c5F)c5nc(c(-c6c(F)c(F)c(F)c(F)c6F)c6ccc3[nH]6)C=C5)C=C4)cc2)C1
REMARK SMILES IDX 21 1 20 2 19 3 17 4 18 5 16 6 13 7 14 8 91 9 15 10 12 11
REMARK SMILES IDX 10 12 11 13 9 15 4 16 5 17 6 18 8 19 7 20 2 21 1 22 3 25
REMARK SMILES IDX 22 26 23 27 24 28 25 29 26 30 27 31 28 32 29 33 90 34 30 35
REMARK SMILES IDX 89 36 31 37 32 38 33 39 83 40 34 41 88 42 82 43 84 44 35 45
REMARK SMILES IDX 87 46 81 47 80 48 36 50 68 51 48 52 67 53 49 54 52 55 66 56
REMARK SMILES IDX 85 57 50 58 51 59 65 61 86 62 53 63 37 64 38 65 46 66 39 67
REMARK SMILES IDX 40 68 44 69 47 70 41 71 42 72 45 73 43 74 69 75 70 76 78 77
REMARK SMILES IDX 71 78 72 79 76 80 79 81 73 82 74 83 77 84 75 85 54 86 55 87
REMARK SMILES IDX 63 88 56 89 57 90 61 91 64 92 58 93 59 94 62 95 60 96
REMARK H PARENT 12 14 1 23 1 24 84 49 52 60
REMARK Flexibility Score: inf
ROOT
ATOM      1  C   UNL A   1      39.855  21.193  26.388  1.00  0.00     0.202 C 
ENDROOT
BRANCH   1   2
ATOM      2  C   UNL A   1      38.677  20.981  25.436  1.00  0.00     0.261 C 
BRANCH   2   3
ATOM      3  O   UNL A   1      37.538  21.778  25.806  1.00  0.00    -0.463 OA
BRANCH   3   4
ATOM      4  C   UNL A   1      36.375  21.459  25.180  1.00  0.00     0.312 C 
ATOM      5  O   UNL A   1      35.964  20.315  25.008  1.00  0.00    -0.252 OA
BRANCH   4   6
ATOM      6  C   UNL A   1      35.624  22.664  24.641  1.00  0.00     0.124 C 
ATOM      7  C   UNL A   1      33.797  24.240  24.789  1.00  0.00     0.107 C 
ATOM      8  C   UNL A   1      35.050  24.799  25.399  1.00  0.00    -0.006 C 
ATOM      9  C   UNL A   1      34.104  22.733  24.827  1.00  0.00     0.048 C 
ATOM     10  C   UNL A   1      36.068  23.934  25.307  1.00  0.00    -0.014 C 
BRANCH   7  11
ATOM     11  N   UNL A   1      32.666  24.638  25.590  1.00  0.00    -0.332 N 
ATOM     12  C   UNL A   1      31.968  25.775  25.779  1.00  0.00     0.318 C 
ATOM     13  O   UNL A   1      31.365  25.810  26.854  1.00  0.00    -0.249 OA
ATOM     14  H   UNL A   1      32.317  23.894  26.133  1.00  0.00     0.165 HD
BRANCH  12  15
ATOM     15  N   UNL A   1      31.913  26.803  24.865  1.00  0.00    -0.313 N 
ATOM     16  C   UNL A   1      30.602  27.046  24.195  1.00  0.00     0.176 C 
ATOM     17  C   UNL A   1      30.770  27.742  22.825  1.00  0.00     0.035 C 
ATOM     18  C   UNL A   1      31.636  28.982  22.894  1.00  0.00     0.004 C 
ATOM     19  C   UNL A   1      32.850  27.922  24.818  1.00  0.00     0.122 C 
ATOM     20  C   UNL A   1      32.985  28.605  23.466  1.00  0.00     0.022 C 
BRANCH  16  21
ATOM     21  C   UNL A   1      29.708  25.823  23.847  1.00  0.00     0.240 C 
ATOM     22  N   UNL A   1      28.358  26.067  23.894  1.00  0.00    -0.368 N 
ATOM     23  H   UNL A   1      27.720  25.347  23.688  1.00  0.00     0.159 HD
ATOM     24  H   UNL A   1      28.028  26.963  24.136  1.00  0.00     0.159 HD
ATOM     25  O   UNL A   1      30.132  24.728  23.490  1.00  0.00    -0.273 OA
ENDBRANCH  16  21
ENDBRANCH  12  15
ENDBRANCH   7  11
ENDBRANCH   4   6
ENDBRANCH   3   4
ENDBRANCH   2   3
ENDBRANCH   1   2
BRANCH   1  26
ATOM     26  O   UNL A   1      41.068  20.530  26.041  1.00  0.00    -0.374 OA
BRANCH  26  27
ATOM     27  C   UNL A   1      42.275  21.017  26.630  1.00  0.00     0.202 C 
BRANCH  27  28
ATOM     28  C   UNL A   1      43.267  21.704  25.681  1.00  0.00     0.261 C 
BRANCH  28  29
ATOM     29  O   UNL A   1      42.677  22.832  25.009  1.00  0.00    -0.460 OA
BRANCH  29  30
ATOM     30  C   UNL A   1      43.409  23.969  25.053  1.00  0.00     0.338 C 
ATOM     31  O   UNL A   1      44.386  24.251  24.370  1.00  0.00    -0.246 OA
BRANCH  30  32
ATOM     32  C   UNL A   1      42.764  24.956  25.936  1.00  0.00     0.060 A 
ATOM     33  C   UNL A   1      43.383  26.206  26.075  1.00  0.00     0.016 A 
ATOM     34  C   UNL A   1      41.626  24.641  26.680  1.00  0.00     0.016 A 
ATOM     35  C   UNL A   1      42.897  27.129  26.997  1.00  0.00     0.010 A 
ATOM     36  C   UNL A   1      41.145  25.565  27.614  1.00  0.00     0.010 A 
ATOM     37  C   UNL A   1      41.799  26.797  27.802  1.00  0.00    -0.014 A 
BRANCH  37  38
ATOM     38  C   UNL A   1      41.429  27.674  28.938  1.00  0.00     0.031 A 
ATOM     39  C   UNL A   1      42.212  27.579  30.217  1.00  0.00     0.074 A 
ATOM     40  C   UNL A   1      40.412  28.546  28.832  1.00  0.00     0.049 A 
ATOM     41  N   UNL A   1      42.031  28.205  31.352  1.00  0.00    -0.248 NA
ATOM     42  C   UNL A   1      43.351  26.648  30.216  1.00  0.00     0.031 C 
ATOM     43  C   UNL A   1      39.599  28.748  27.637  1.00  0.00     0.029 A 
ATOM     44  N   UNL A   1      39.881  29.410  29.757  1.00  0.00    -0.354 N 
ATOM     45  C   UNL A   1      43.019  27.732  32.204  1.00  0.00     0.074 A 
ATOM     46  C   UNL A   1      43.785  26.753  31.463  1.00  0.00     0.031 C 
ATOM     47  C   UNL A   1      38.650  29.660  27.909  1.00  0.00     0.029 A 
ATOM     48  C   UNL A   1      38.773  30.080  29.303  1.00  0.00     0.049 A 
ATOM     49  H   UNL A   1      40.258  29.536  30.657  1.00  0.00     0.167 HD
ATOM     50  C   UNL A   1      43.266  28.085  33.488  1.00  0.00     0.037 A 
ATOM     51  C   UNL A   1      37.937  30.914  29.952  1.00  0.00     0.037 A 
ATOM     52  C   UNL A   1      42.506  29.063  34.220  1.00  0.00     0.049 A 
ATOM     53  C   UNL A   1      38.199  31.257  31.394  1.00  0.00     0.074 A 
ATOM     54  C   UNL A   1      42.711  29.530  35.506  1.00  0.00     0.029 A 
ATOM     55  N   UNL A   1      41.382  29.714  33.732  1.00  0.00    -0.354 N 
ATOM     56  N   UNL A   1      39.164  30.844  32.179  1.00  0.00    -0.248 NA
ATOM     57  C   UNL A   1      37.259  32.184  32.039  1.00  0.00     0.031 C 
ATOM     58  C   UNL A   1      41.678  30.422  35.817  1.00  0.00     0.029 A 
ATOM     59  C   UNL A   1      40.860  30.552  34.704  1.00  0.00     0.049 A 
ATOM     60  H   UNL A   1      41.010  29.597  32.828  1.00  0.00     0.167 HD
ATOM     61  C   UNL A   1      38.962  31.475  33.400  1.00  0.00     0.074 A 
ATOM     62  C   UNL A   1      37.786  32.306  33.250  1.00  0.00     0.031 C 
ATOM     63  C   UNL A   1      39.688  31.374  34.541  1.00  0.00     0.037 A 
BRANCH  50  64
ATOM     64  C   UNL A   1      44.384  27.376  34.195  1.00  0.00     0.064 A 
ATOM     65  C   UNL A   1      45.684  27.903  34.242  1.00  0.00     0.173 A 
ATOM     66  C   UNL A   1      44.147  26.156  34.847  1.00  0.00     0.173 A 
ATOM     67  F   UNL A   1      45.966  29.061  33.625  1.00  0.00    -0.203 F 
ATOM     68  C   UNL A   1      46.711  27.218  34.885  1.00  0.00     0.198 A 
ATOM     69  C   UNL A   1      45.170  25.488  35.514  1.00  0.00     0.198 A 
ATOM     70  F   UNL A   1      42.921  25.613  34.837  1.00  0.00    -0.203 F 
ATOM     71  F   UNL A   1      47.956  27.714  34.873  1.00  0.00    -0.200 F 
ATOM     72  C   UNL A   1      46.453  26.014  35.525  1.00  0.00     0.200 A 
ATOM     73  F   UNL A   1      44.916  24.331  36.141  1.00  0.00    -0.200 F 
ATOM     74  F   UNL A   1      47.442  25.356  36.144  1.00  0.00    -0.200 F 
ENDBRANCH  50  64
BRANCH  51  75
ATOM     75  C   UNL A   1      36.757  31.462  29.235  1.00  0.00     0.064 A 
ATOM     76  C   UNL A   1      36.707  32.806  28.843  1.00  0.00     0.173 A 
ATOM     77  C   UNL A   1      35.666  30.644  28.907  1.00  0.00     0.173 A 
ATOM     78  F   UNL A   1      37.716  33.633  29.155  1.00  0.00    -0.203 F 
ATOM     79  C   UNL A   1      35.607  33.312  28.153  1.00  0.00     0.198 A 
ATOM     80  C   UNL A   1      34.578  31.145  28.196  1.00  0.00     0.198 A 
ATOM     81  F   UNL A   1      35.667  29.351  29.262  1.00  0.00    -0.203 F 
ATOM     82  F   UNL A   1      35.570  34.608  27.814  1.00  0.00    -0.200 F 
ATOM     83  C   UNL A   1      34.549  32.479  27.822  1.00  0.00     0.200 A 
ATOM     84  F   UNL A   1      33.564  30.334  27.867  1.00  0.00    -0.200 F 
ATOM     85  F   UNL A   1      33.498  32.963  27.146  1.00  0.00    -0.200 F 
ENDBRANCH  51  75
BRANCH  63  86
ATOM     86  C   UNL A   1      39.252  32.201  35.716  1.00  0.00     0.064 A 
ATOM     87  C   UNL A   1      38.379  31.694  36.688  1.00  0.00     0.173 A 
ATOM     88  C   UNL A   1      39.763  33.495  35.902  1.00  0.00     0.173 A 
ATOM     89  F   UNL A   1      37.851  30.469  36.549  1.00  0.00    -0.203 F 
ATOM     90  C   UNL A   1      38.022  32.457  37.797  1.00  0.00     0.198 A 
ATOM     91  C   UNL A   1      39.426  34.244  37.024  1.00  0.00     0.198 A 
ATOM     92  F   UNL A   1      40.607  34.024  35.003  1.00  0.00    -0.203 F 
ATOM     93  F   UNL A   1      37.158  31.966  38.697  1.00  0.00    -0.200 F 
ATOM     94  C   UNL A   1      38.552  33.728  37.969  1.00  0.00     0.200 A 
ATOM     95  F   UNL A   1      39.949  35.466  37.196  1.00  0.00    -0.200 F 
ATOM     96  F   UNL A   1      38.218  34.456  39.043  1.00  0.00    -0.200 F 
ENDBRANCH  63  86
ENDBRANCH  37  38
ENDBRANCH  30  32
ENDBRANCH  29  30
ENDBRANCH  28  29
ENDBRANCH  27  28
ENDBRANCH  26  27
ENDBRANCH   1  26
TORSDOF 17
ENDMDL
MODEL 3
REMARK VINA RESULT:     -11.6      5.093     10.388
REMARK SMILES NC(=O)[C@@H]1CCCCN1C(=O)N[C@H]1C=C[C@@H](C(=O)OCCOCCOC(=O)c2ccc(-c3c4nc(c(-c5c(F)c(F)c(F)c(F)c5F)c5ccc([nH]5)c(-c5c(F)c(F)c(F)c(F)c5F)c5nc(c(-c6c(F)c(F)c(F)c(F)c6F)c6ccc3[nH]6)C=C5)C=C4)cc2)C1
REMARK SMILES IDX 21 1 20 2 19 3 17 4 18 5 16 6 13 7 14 8 91 9 15 10 12 11
REMARK SMILES IDX 10 12 11 13 9 15 4 16 5 17 6 18 8 19 7 20 2 21 1 22 3 25
REMARK SMILES IDX 22 26 23 27 24 28 25 29 26 30 27 31 28 32 29 33 90 34 30 35
REMARK SMILES IDX 89 36 31 37 32 38 33 39 83 40 34 41 88 42 82 43 84 44 35 45
REMARK SMILES IDX 87 46 81 47 80 48 36 50 68 51 48 52 67 53 49 54 52 55 66 56
REMARK SMILES IDX 85 57 50 58 51 59 65 61 86 62 53 63 37 64 38 65 46 66 39 67
REMARK SMILES IDX 40 68 44 69 47 70 41 71 42 72 45 73 43 74 69 75 70 76 78 77
REMARK SMILES IDX 71 78 72 79 76 80 79 81 73 82 74 83 77 84 75 85 54 86 55 87
REMARK SMILES IDX 63 88 56 89 57 90 61 91 64 92 58 93 59 94 62 95 60 96
REMARK H PARENT 12 14 1 23 1 24 84 49 52 60
REMARK Flexibility Score: inf
ROOT
ATOM      1  C   UNL A   1      34.972  33.234  28.029  1.00  0.00     0.202 C 
ENDROOT
BRANCH   1   2
ATOM      2  C   UNL A   1      34.106  31.985  28.198  1.00  0.00     0.261 C 
BRANCH   2   3
ATOM      3  O   UNL A   1      34.143  31.146  27.031  1.00  0.00    -0.463 OA
BRANCH   3   4
ATOM      4  C   UNL A   1      34.286  29.817  27.274  1.00  0.00     0.312 C 
ATOM      5  O   UNL A   1      35.192  29.320  27.937  1.00  0.00    -0.252 OA
BRANCH   4   6
ATOM      6  C   UNL A   1      33.236  28.957  26.591  1.00  0.00     0.124 C 
ATOM      7  C   UNL A   1      32.031  26.870  26.396  1.00  0.00     0.107 C 
ATOM      8  C   UNL A   1      31.255  27.875  27.199  1.00  0.00    -0.006 C 
ATOM      9  C   UNL A   1      33.454  27.442  26.514  1.00  0.00     0.048 C 
ATOM     10  C   UNL A   1      31.914  29.037  27.297  1.00  0.00    -0.014 C 
BRANCH   7  11
ATOM     11  N   UNL A   1      31.862  25.566  26.984  1.00  0.00    -0.332 N 
ATOM     12  C   UNL A   1      31.702  24.310  26.522  1.00  0.00     0.318 C 
ATOM     13  O   UNL A   1      31.160  23.552  27.330  1.00  0.00    -0.249 OA
ATOM     14  H   UNL A   1      31.862  25.601  27.968  1.00  0.00     0.165 HD
BRANCH  12  15
ATOM     15  N   UNL A   1      32.110  23.893  25.275  1.00  0.00    -0.313 N 
ATOM     16  C   UNL A   1      33.127  22.803  25.223  1.00  0.00     0.176 C 
ATOM     17  C   UNL A   1      33.942  22.832  23.909  1.00  0.00     0.035 C 
ATOM     18  C   UNL A   1      33.069  22.884  22.672  1.00  0.00     0.004 C 
ATOM     19  C   UNL A   1      31.347  24.089  24.045  1.00  0.00     0.122 C 
ATOM     20  C   UNL A   1      32.165  24.095  22.762  1.00  0.00     0.022 C 
BRANCH  16  21
ATOM     21  C   UNL A   1      34.237  22.771  26.309  1.00  0.00     0.240 C 
ATOM     22  N   UNL A   1      35.246  23.684  26.126  1.00  0.00    -0.368 N 
ATOM     23  H   UNL A   1      35.990  23.730  26.769  1.00  0.00     0.159 HD
ATOM     24  H   UNL A   1      35.226  24.291  25.351  1.00  0.00     0.159 HD
ATOM     25  O   UNL A   1      34.221  22.049  27.303  1.00  0.00    -0.273 OA
ENDBRANCH  16  21
ENDBRANCH  12  15
ENDBRANCH   7  11
ENDBRANCH   4   6
ENDBRANCH   3   4
ENDBRANCH   2   3
ENDBRANCH   1   2
BRANCH   1  26
ATOM     26  O   UNL A   1      35.277  33.952  29.222  1.00  0.00    -0.374 OA
BRANCH  26  27
ATOM     27  C   UNL A   1      34.204  34.201  30.132  1.00  0.00     0.202 C 
BRANCH  27  28
ATOM     28  C   UNL A   1      34.450  33.818  31.597  1.00  0.00     0.261 C 
BRANCH  28  29
ATOM     29  O   UNL A   1      34.758  32.420  31.744  1.00  0.00    -0.460 OA
BRANCH  29  30
ATOM     30  C   UNL A   1      35.787  32.146  32.579  1.00  0.00     0.338 C 
ATOM     31  O   UNL A   1      35.846  32.365  33.782  1.00  0.00    -0.246 OA
BRANCH  30  32
ATOM     32  C   UNL A   1      36.814  31.356  31.878  1.00  0.00     0.060 A 
ATOM     33  C   UNL A   1      37.846  30.802  32.649  1.00  0.00     0.016 A 
ATOM     34  C   UNL A   1      36.821  31.229  30.488  1.00  0.00     0.016 A 
ATOM     35  C   UNL A   1      38.916  30.162  32.029  1.00  0.00     0.010 A 
ATOM     36  C   UNL A   1      37.901  30.594  29.866  1.00  0.00     0.010 A 
ATOM     37  C   UNL A   1      38.970  30.091  30.631  1.00  0.00    -0.014 A 
BRANCH  37  38
ATOM     38  C   UNL A   1      40.210  29.625  29.967  1.00  0.00     0.031 A 
ATOM     39  C   UNL A   1      41.347  30.591  29.785  1.00  0.00     0.074 A 
ATOM     40  C   UNL A   1      40.325  28.359  29.533  1.00  0.00     0.049 A 
ATOM     41  N   UNL A   1      42.497  30.419  29.185  1.00  0.00    -0.248 NA
ATOM     42  C   UNL A   1      41.157  31.935  30.353  1.00  0.00     0.031 C 
ATOM     43  C   UNL A   1      39.305  27.324  29.676  1.00  0.00     0.029 A 
ATOM     44  N   UNL A   1      41.351  27.736  28.866  1.00  0.00    -0.354 N 
ATOM     45  C   UNL A   1      43.160  31.634  29.288  1.00  0.00     0.074 A 
ATOM     46  C   UNL A   1      42.277  32.542  29.990  1.00  0.00     0.031 C 
ATOM     47  C   UNL A   1      39.743  26.199  29.088  1.00  0.00     0.029 A 
ATOM     48  C   UNL A   1      41.060  26.445  28.503  1.00  0.00     0.049 A 
ATOM     49  H   UNL A   1      42.209  28.173  28.667  1.00  0.00     0.167 HD
ATOM     50  C   UNL A   1      44.395  31.962  28.839  1.00  0.00     0.037 A 
ATOM     51  C   UNL A   1      41.765  25.573  27.757  1.00  0.00     0.037 A 
ATOM     52  C   UNL A   1      45.273  31.057  28.147  1.00  0.00     0.049 A 
ATOM     53  C   UNL A   1      43.116  25.973  27.225  1.00  0.00     0.074 A 
ATOM     54  C   UNL A   1      46.564  31.277  27.701  1.00  0.00     0.029 A 
ATOM     55  N   UNL A   1      44.940  29.759  27.786  1.00  0.00    -0.354 N 
ATOM     56  N   UNL A   1      43.758  27.107  27.368  1.00  0.00    -0.248 NA
ATOM     57  C   UNL A   1      43.841  24.970  26.431  1.00  0.00     0.031 C 
ATOM     58  C   UNL A   1      46.992  30.131  27.021  1.00  0.00     0.029 A 
ATOM     59  C   UNL A   1      45.988  29.178  27.090  1.00  0.00     0.049 A 
ATOM     60  H   UNL A   1      44.085  29.317  27.993  1.00  0.00     0.167 HD
ATOM     61  C   UNL A   1      44.968  26.949  26.704  1.00  0.00     0.074 A 
ATOM     62  C   UNL A   1      44.975  25.606  26.164  1.00  0.00     0.031 C 
ATOM     63  C   UNL A   1      45.982  27.839  26.558  1.00  0.00     0.037 A 
BRANCH  50  64
ATOM     64  C   UNL A   1      44.853  33.376  29.051  1.00  0.00     0.064 A 
ATOM     65  C   UNL A   1      44.581  34.390  28.120  1.00  0.00     0.173 A 
ATOM     66  C   UNL A   1      45.563  33.723  30.210  1.00  0.00     0.173 A 
ATOM     67  F   UNL A   1      43.915  34.109  26.989  1.00  0.00    -0.203 F 
ATOM     68  C   UNL A   1      45.032  35.691  28.326  1.00  0.00     0.198 A 
ATOM     69  C   UNL A   1      45.988  35.031  30.426  1.00  0.00     0.198 A 
ATOM     70  F   UNL A   1      45.843  32.793  31.134  1.00  0.00    -0.203 F 
ATOM     71  F   UNL A   1      44.807  36.632  27.399  1.00  0.00    -0.200 F 
ATOM     72  C   UNL A   1      45.731  36.012  29.480  1.00  0.00     0.200 A 
ATOM     73  F   UNL A   1      46.653  35.341  31.548  1.00  0.00    -0.200 F 
ATOM     74  F   UNL A   1      46.165  37.264  29.678  1.00  0.00    -0.200 F 
ENDBRANCH  50  64
BRANCH  51  75
ATOM     75  C   UNL A   1      41.186  24.239  27.455  1.00  0.00     0.064 A 
ATOM     76  C   UNL A   1      41.684  23.078  28.060  1.00  0.00     0.173 A 
ATOM     77  C   UNL A   1      40.104  24.105  26.571  1.00  0.00     0.173 A 
ATOM     78  F   UNL A   1      42.733  23.153  28.892  1.00  0.00    -0.203 F 
ATOM     79  C   UNL A   1      41.125  21.831  27.789  1.00  0.00     0.198 A 
ATOM     80  C   UNL A   1      39.530  22.861  26.321  1.00  0.00     0.198 A 
ATOM     81  F   UNL A   1      39.594  25.187  25.967  1.00  0.00    -0.203 F 
ATOM     82  F   UNL A   1      41.637  20.731  28.358  1.00  0.00    -0.200 F 
ATOM     83  C   UNL A   1      40.043  21.725  26.928  1.00  0.00     0.200 A 
ATOM     84  F   UNL A   1      38.477  22.765  25.498  1.00  0.00    -0.200 F 
ATOM     85  F   UNL A   1      39.496  20.528  26.679  1.00  0.00    -0.200 F 
ENDBRANCH  51  75
BRANCH  63  86
ATOM     86  C   UNL A   1      47.199  27.385  25.805  1.00  0.00     0.064 A 
ATOM     87  C   UNL A   1      47.335  27.604  24.427  1.00  0.00     0.173 A 
ATOM     88  C   UNL A   1      48.268  26.780  26.485  1.00  0.00     0.173 A 
ATOM     89  F   UNL A   1      46.336  28.164  23.730  1.00  0.00    -0.203 F 
ATOM     90  C   UNL A   1      48.492  27.219  23.753  1.00  0.00     0.198 A 
ATOM     91  C   UNL A   1      49.433  26.422  25.813  1.00  0.00     0.198 A 
ATOM     92  F   UNL A   1      48.190  26.554  27.805  1.00  0.00    -0.203 F 
ATOM     93  F   UNL A   1      48.587  27.405  22.429  1.00  0.00    -0.200 F 
ATOM     94  C   UNL A   1      49.543  26.638  24.448  1.00  0.00     0.200 A 
ATOM     95  F   UNL A   1      50.452  25.873  26.487  1.00  0.00    -0.200 F 
ATOM     96  F   UNL A   1      50.660  26.280  23.800  1.00  0.00    -0.200 F 
ENDBRANCH  63  86
ENDBRANCH  37  38
ENDBRANCH  30  32
ENDBRANCH  29  30
ENDBRANCH  28  29
ENDBRANCH  27  28
ENDBRANCH  26  27
ENDBRANCH   1  26
TORSDOF 17
ENDMDL
