MODEL 1
REMARK VINA RESULT:     -10.1      0.000      0.000
REMARK SMILES O=C(OCCOCCOC(=O)c1ccc2c(=O)[nH][nH]c(=O)c2c1)c1ccc(-c2c3nc(c(-c4c(F)c(F)c(F)c(F)c4F)c4ccc([nH]4)c(-c4c(F)c(F)c(F)c(F)c4F)c4nc(c(-c5c(F)c(F)c(F)c(F)c5F)c5ccc2[nH]5)C=C4)C=C3)cc1
REMARK SMILES IDX 5 1 4 2 3 3 2 4 1 5 24 6 25 7 86 8 26 9 85 10 27 11 28 12
REMARK SMILES IDX 29 13 79 14 30 15 84 16 78 17 80 18 31 19 83 20 77 21 76 22
REMARK SMILES IDX 32 24 64 25 44 26 63 27 45 28 48 29 62 30 81 31 46 32 47 33
REMARK SMILES IDX 61 35 82 36 49 37 33 38 34 39 42 40 35 41 36 42 40 43 43 44
REMARK SMILES IDX 37 45 38 46 41 47 39 48 65 49 66 50 74 51 67 52 68 53 72 54
REMARK SMILES IDX 75 55 69 56 70 57 73 58 71 59 50 60 51 61 59 62 52 63 53 64
REMARK SMILES IDX 57 65 60 66 54 67 55 68 58 69 56 70 6 71 7 72 8 73 9 74
REMARK SMILES IDX 10 75 11 76 12 77 13 78 23 79 14 80 22 81 15 82 20 83 16 84
REMARK SMILES IDX 19 85 21 86 17 87 18 88
REMARK H PARENT 80 23 48 34 19 89 18 90
REMARK Flexibility Score: inf
ROOT
ATOM      1  C   UNL A   1      43.610  18.641  25.065  1.00  0.00     0.202 C 
ENDROOT
BRANCH   1   2
ATOM      2  C   UNL A   1      43.370  18.336  26.545  1.00  0.00     0.261 C 
BRANCH   2   3
ATOM      3  O   UNL A   1      42.042  18.691  26.948  1.00  0.00    -0.460 OA
BRANCH   3   4
ATOM      4  C   UNL A   1      41.357  19.834  26.724  1.00  0.00     0.338 C 
ATOM      5  O   UNL A   1      40.254  19.735  26.185  1.00  0.00    -0.246 OA
BRANCH   4   6
ATOM      6  C   UNL A   1      41.841  21.222  27.044  1.00  0.00     0.060 A 
ATOM      7  C   UNL A   1      42.197  21.454  28.389  1.00  0.00     0.016 A 
ATOM      8  C   UNL A   1      41.887  22.313  26.175  1.00  0.00     0.016 A 
ATOM      9  C   UNL A   1      42.520  22.733  28.850  1.00  0.00     0.010 A 
ATOM     10  C   UNL A   1      42.196  23.592  26.624  1.00  0.00     0.010 A 
ATOM     11  C   UNL A   1      42.495  23.808  27.965  1.00  0.00    -0.014 A 
BRANCH  11  12
ATOM     12  C   UNL A   1      42.868  25.171  28.366  1.00  0.00     0.031 A 
ATOM     13  C   UNL A   1      44.269  25.488  28.778  1.00  0.00     0.074 A 
ATOM     14  C   UNL A   1      41.872  26.059  28.503  1.00  0.00     0.049 A 
ATOM     15  N   UNL A   1      44.767  26.619  29.202  1.00  0.00    -0.248 NA
ATOM     16  C   UNL A   1      45.235  24.379  28.734  1.00  0.00     0.031 C 
ATOM     17  C   UNL A   1      40.464  25.782  28.211  1.00  0.00     0.029 A 
ATOM     18  N   UNL A   1      41.880  27.347  28.955  1.00  0.00    -0.354 N 
ATOM     19  C   UNL A   1      46.110  26.371  29.446  1.00  0.00     0.074 A 
ATOM     20  C   UNL A   1      46.335  24.964  29.189  1.00  0.00     0.031 C 
ATOM     21  C   UNL A   1      39.740  26.871  28.496  1.00  0.00     0.029 A 
ATOM     22  C   UNL A   1      40.632  27.912  28.991  1.00  0.00     0.049 A 
ATOM     23  H   UNL A   1      42.698  27.821  29.228  1.00  0.00     0.167 HD
ATOM     24  C   UNL A   1      47.064  27.255  29.827  1.00  0.00     0.037 A 
ATOM     25  C   UNL A   1      40.261  29.146  29.371  1.00  0.00     0.037 A 
ATOM     26  C   UNL A   1      46.784  28.638  30.130  1.00  0.00     0.049 A 
ATOM     27  C   UNL A   1      41.327  30.107  29.801  1.00  0.00     0.074 A 
ATOM     28  C   UNL A   1      47.662  29.645  30.485  1.00  0.00     0.029 A 
ATOM     29  N   UNL A   1      45.511  29.198  30.136  1.00  0.00    -0.354 N 
ATOM     30  N   UNL A   1      42.618  29.905  29.924  1.00  0.00    -0.248 NA
ATOM     31  C   UNL A   1      40.893  31.469  30.122  1.00  0.00     0.031 C 
ATOM     32  C   UNL A   1      46.915  30.800  30.754  1.00  0.00     0.029 A 
ATOM     33  C   UNL A   1      45.577  30.532  30.514  1.00  0.00     0.049 A 
ATOM     34  H   UNL A   1      44.683  28.719  29.905  1.00  0.00     0.167 HD
ATOM     35  C   UNL A   1      43.157  31.116  30.327  1.00  0.00     0.074 A 
ATOM     36  C   UNL A   1      42.051  32.053  30.397  1.00  0.00     0.031 C 
ATOM     37  C   UNL A   1      44.448  31.427  30.615  1.00  0.00     0.037 A 
BRANCH  24  38
ATOM     38  C   UNL A   1      48.480  26.754  29.922  1.00  0.00     0.064 A 
ATOM     39  C   UNL A   1      49.419  27.027  28.913  1.00  0.00     0.173 A 
ATOM     40  C   UNL A   1      48.919  26.022  31.034  1.00  0.00     0.173 A 
ATOM     41  F   UNL A   1      49.057  27.719  27.821  1.00  0.00    -0.203 F 
ATOM     42  C   UNL A   1      50.729  26.560  28.998  1.00  0.00     0.198 A 
ATOM     43  C   UNL A   1      50.239  25.583  31.132  1.00  0.00     0.198 A 
ATOM     44  F   UNL A   1      48.072  25.734  32.034  1.00  0.00    -0.203 F 
ATOM     45  F   UNL A   1      51.589  26.792  27.996  1.00  0.00    -0.200 F 
ATOM     46  C   UNL A   1      51.140  25.843  30.111  1.00  0.00     0.200 A 
ATOM     47  F   UNL A   1      50.640  24.904  32.216  1.00  0.00    -0.200 F 
ATOM     48  F   UNL A   1      52.402  25.400  30.196  1.00  0.00    -0.200 F 
ENDBRANCH  24  38
BRANCH  25  49
ATOM     49  C   UNL A   1      38.838  29.531  29.229  1.00  0.00     0.064 A 
ATOM     50  C   UNL A   1      38.281  29.696  27.954  1.00  0.00     0.173 A 
ATOM     51  C   UNL A   1      37.980  29.602  30.335  1.00  0.00     0.173 A 
ATOM     52  F   UNL A   1      39.067  29.637  26.869  1.00  0.00    -0.203 F 
ATOM     53  C   UNL A   1      36.914  29.906  27.789  1.00  0.00     0.198 A 
ATOM     54  C   UNL A   1      36.610  29.792  30.169  1.00  0.00     0.198 A 
ATOM     55  F   UNL A   1      38.464  29.427  31.574  1.00  0.00    -0.203 F 
ATOM     56  F   UNL A   1      36.407  30.057  26.559  1.00  0.00    -0.200 F 
ATOM     57  C   UNL A   1      36.078  29.941  28.895  1.00  0.00     0.200 A 
ATOM     58  F   UNL A   1      35.800  29.798  31.237  1.00  0.00    -0.200 F 
ATOM     59  F   UNL A   1      34.759  30.106  28.733  1.00  0.00    -0.200 F 
ENDBRANCH  25  49
BRANCH  37  60
ATOM     60  C   UNL A   1      44.709  32.838  31.055  1.00  0.00     0.064 A 
ATOM     61  C   UNL A   1      44.968  33.856  30.123  1.00  0.00     0.173 A 
ATOM     62  C   UNL A   1      44.696  33.178  32.415  1.00  0.00     0.173 A 
ATOM     63  F   UNL A   1      45.007  33.577  28.812  1.00  0.00    -0.203 F 
ATOM     64  C   UNL A   1      45.247  35.154  30.542  1.00  0.00     0.198 A 
ATOM     65  C   UNL A   1      44.940  34.484  32.827  1.00  0.00     0.198 A 
ATOM     66  F   UNL A   1      44.446  32.244  33.345  1.00  0.00    -0.203 F 
ATOM     67  F   UNL A   1      45.559  36.094  29.639  1.00  0.00    -0.200 F 
ATOM     68  C   UNL A   1      45.227  35.468  31.892  1.00  0.00     0.200 A 
ATOM     69  F   UNL A   1      44.906  34.791  34.132  1.00  0.00    -0.200 F 
ATOM     70  F   UNL A   1      45.498  36.718  32.294  1.00  0.00    -0.200 F 
ENDBRANCH  37  60
ENDBRANCH  11  12
ENDBRANCH   4   6
ENDBRANCH   3   4
ENDBRANCH   2   3
ENDBRANCH   1   2
BRANCH   1  71
ATOM     71  O   UNL A   1      44.959  18.450  24.637  1.00  0.00    -0.374 OA
BRANCH  71  72
ATOM     72  C   UNL A   1      45.951  19.119  25.422  1.00  0.00     0.202 C 
BRANCH  72  73
ATOM     73  C   UNL A   1      46.569  20.283  24.646  1.00  0.00     0.261 C 
BRANCH  73  74
ATOM     74  O   UNL A   1      46.175  21.532  25.240  1.00  0.00    -0.460 OA
BRANCH  74  75
ATOM     75  C   UNL A   1      45.317  22.273  24.499  1.00  0.00     0.338 C 
ATOM     76  O   UNL A   1      44.401  21.885  23.795  1.00  0.00    -0.246 OA
BRANCH  75  77
ATOM     77  C   UNL A   1      45.529  23.690  24.846  1.00  0.00     0.060 A 
ATOM     78  C   UNL A   1      46.752  24.149  25.342  1.00  0.00     0.016 A 
ATOM     79  C   UNL A   1      44.444  24.562  24.716  1.00  0.00     0.030 A 
ATOM     80  C   UNL A   1      46.897  25.499  25.669  1.00  0.00     0.015 A 
ATOM     81  C   UNL A   1      44.571  25.892  25.122  1.00  0.00     0.055 A 
ATOM     82  C   UNL A   1      45.805  26.373  25.552  1.00  0.00     0.054 A 
ATOM     83  C   UNL A   1      43.378  26.759  25.153  1.00  0.00     0.270 A 
ATOM     84  C   UNL A   1      45.968  27.811  25.845  1.00  0.00     0.270 A 
ATOM     85  N   UNL A   1      43.585  28.077  25.471  1.00  0.00    -0.263 N 
ATOM     86  O   UNL A   1      42.258  26.305  24.952  1.00  0.00    -0.267 OA
ATOM     87  O   UNL A   1      47.061  28.280  26.135  1.00  0.00    -0.267 OA
ATOM     88  N   UNL A   1      44.843  28.594  25.741  1.00  0.00    -0.263 N 
ATOM     89  H   UNL A   1      42.809  28.682  25.509  1.00  0.00     0.191 HD
ATOM     90  H   UNL A   1      44.935  29.567  25.865  1.00  0.00     0.191 HD
ENDBRANCH  75  77
ENDBRANCH  74  75
ENDBRANCH  73  74
ENDBRANCH  72  73
ENDBRANCH  71  72
ENDBRANCH   1  71
TORSDOF 14
ENDMDL
MODEL 2
REMARK VINA RESULT:     -10.0      0.465      2.037
REMARK SMILES O=C(OCCOCCOC(=O)c1ccc2c(=O)[nH][nH]c(=O)c2c1)c1ccc(-c2c3nc(c(-c4c(F)c(F)c(F)c(F)c4F)c4ccc([nH]4)c(-c4c(F)c(F)c(F)c(F)c4F)c4nc(c(-c5c(F)c(F)c(F)c(F)c5F)c5ccc2[nH]5)C=C4)C=C3)cc1
REMARK SMILES IDX 5 1 4 2 3 3 2 4 1 5 24 6 25 7 86 8 26 9 85 10 27 11 28 12
REMARK SMILES IDX 29 13 79 14 30 15 84 16 78 17 80 18 31 19 83 20 77 21 76 22
REMARK SMILES IDX 32 24 64 25 44 26 63 27 45 28 48 29 62 30 81 31 46 32 47 33
REMARK SMILES IDX 61 35 82 36 49 37 33 38 34 39 42 40 35 41 36 42 40 43 43 44
REMARK SMILES IDX 37 45 38 46 41 47 39 48 65 49 66 50 74 51 67 52 68 53 72 54
REMARK SMILES IDX 75 55 69 56 70 57 73 58 71 59 50 60 51 61 59 62 52 63 53 64
REMARK SMILES IDX 57 65 60 66 54 67 55 68 58 69 56 70 6 71 7 72 8 73 9 74
REMARK SMILES IDX 10 75 11 76 12 77 13 78 23 79 14 80 22 81 15 82 20 83 16 84
REMARK SMILES IDX 19 85 21 86 17 87 18 88
REMARK H PARENT 80 23 48 34 19 89 18 90
REMARK Flexibility Score: inf
ROOT
ATOM      1  C   UNL A   1      43.817  18.835  25.004  1.00  0.00     0.202 C 
ENDROOT
BRANCH   1   2
ATOM      2  C   UNL A   1      43.363  18.273  26.353  1.00  0.00     0.261 C 
BRANCH   2   3
ATOM      3  O   UNL A   1      42.026  18.677  26.668  1.00  0.00    -0.460 OA
BRANCH   3   4
ATOM      4  C   UNL A   1      41.391  19.834  26.378  1.00  0.00     0.338 C 
ATOM      5  O   UNL A   1      40.367  19.761  25.699  1.00  0.00    -0.246 OA
BRANCH   4   6
ATOM      6  C   UNL A   1      41.847  21.209  26.784  1.00  0.00     0.060 A 
ATOM      7  C   UNL A   1      42.167  21.373  28.147  1.00  0.00     0.016 A 
ATOM      8  C   UNL A   1      41.898  22.346  25.975  1.00  0.00     0.016 A 
ATOM      9  C   UNL A   1      42.461  22.629  28.684  1.00  0.00     0.010 A 
ATOM     10  C   UNL A   1      42.178  23.603  26.499  1.00  0.00     0.010 A 
ATOM     11  C   UNL A   1      42.441  23.751  27.857  1.00  0.00    -0.014 A 
BRANCH  11  12
ATOM     12  C   UNL A   1      42.785  25.095  28.339  1.00  0.00     0.031 A 
ATOM     13  C   UNL A   1      44.173  25.410  28.791  1.00  0.00     0.074 A 
ATOM     14  C   UNL A   1      41.772  25.958  28.509  1.00  0.00     0.049 A 
ATOM     15  N   UNL A   1      44.646  26.524  29.285  1.00  0.00    -0.248 NA
ATOM     16  C   UNL A   1      45.159  24.322  28.701  1.00  0.00     0.031 C 
ATOM     17  C   UNL A   1      40.374  25.674  28.179  1.00  0.00     0.029 A 
ATOM     18  N   UNL A   1      41.751  27.218  29.031  1.00  0.00    -0.354 N 
ATOM     19  C   UNL A   1      45.989  26.285  29.537  1.00  0.00     0.074 A 
ATOM     20  C   UNL A   1      46.241  24.898  29.206  1.00  0.00     0.031 C 
ATOM     21  C   UNL A   1      39.626  26.735  28.511  1.00  0.00     0.029 A 
ATOM     22  C   UNL A   1      40.494  27.760  29.078  1.00  0.00     0.049 A 
ATOM     23  H   UNL A   1      42.556  27.689  29.344  1.00  0.00     0.167 HD
ATOM     24  C   UNL A   1      46.921  27.161  29.982  1.00  0.00     0.037 A 
ATOM     25  C   UNL A   1      40.096  28.965  29.519  1.00  0.00     0.037 A 
ATOM     26  C   UNL A   1      46.614  28.520  30.357  1.00  0.00     0.049 A 
ATOM     27  C   UNL A   1      41.138  29.918  30.020  1.00  0.00     0.074 A 
ATOM     28  C   UNL A   1      47.468  29.520  30.782  1.00  0.00     0.029 A 
ATOM     29  N   UNL A   1      45.331  29.059  30.373  1.00  0.00    -0.354 N 
ATOM     30  N   UNL A   1      42.430  29.730  30.153  1.00  0.00    -0.248 NA
ATOM     31  C   UNL A   1      40.676  31.252  30.408  1.00  0.00     0.031 C 
ATOM     32  C   UNL A   1      46.698  30.646  31.102  1.00  0.00     0.029 A 
ATOM     33  C   UNL A   1      45.368  30.370  30.825  1.00  0.00     0.049 A 
ATOM     34  H   UNL A   1      44.515  28.580  30.102  1.00  0.00     0.167 HD
ATOM     35  C   UNL A   1      42.943  30.925  30.631  1.00  0.00     0.074 A 
ATOM     36  C   UNL A   1      41.819  31.839  30.734  1.00  0.00     0.031 C 
ATOM     37  C   UNL A   1      44.223  31.240  30.957  1.00  0.00     0.037 A 
BRANCH  24  38
ATOM     38  C   UNL A   1      48.344  26.678  30.073  1.00  0.00     0.064 A 
ATOM     39  C   UNL A   1      48.805  25.978  31.201  1.00  0.00     0.173 A 
ATOM     40  C   UNL A   1      49.250  26.882  29.022  1.00  0.00     0.173 A 
ATOM     41  F   UNL A   1      47.986  25.756  32.241  1.00  0.00    -0.203 F 
ATOM     42  C   UNL A   1      50.124  25.534  31.287  1.00  0.00     0.198 A 
ATOM     43  C   UNL A   1      50.559  26.408  29.098  1.00  0.00     0.198 A 
ATOM     44  F   UNL A   1      48.868  27.538  27.916  1.00  0.00    -0.203 F 
ATOM     45  F   UNL A   1      50.549  24.915  32.397  1.00  0.00    -0.200 F 
ATOM     46  C   UNL A   1      50.998  25.744  30.233  1.00  0.00     0.200 A 
ATOM     47  F   UNL A   1      51.400  26.597  28.070  1.00  0.00    -0.200 F 
ATOM     48  F   UNL A   1      52.263  25.310  30.313  1.00  0.00    -0.200 F 
ENDBRANCH  24  38
BRANCH  25  49
ATOM     49  C   UNL A   1      38.668  29.335  29.376  1.00  0.00     0.064 A 
ATOM     50  C   UNL A   1      37.859  29.457  30.513  1.00  0.00     0.173 A 
ATOM     51  C   UNL A   1      38.124  29.708  28.139  1.00  0.00     0.173 A 
ATOM     52  F   UNL A   1      38.340  29.110  31.716  1.00  0.00    -0.203 F 
ATOM     53  C   UNL A   1      36.560  29.950  30.420  1.00  0.00     0.198 A 
ATOM     54  C   UNL A   1      36.832  30.221  28.049  1.00  0.00     0.198 A 
ATOM     55  F   UNL A   1      38.870  29.630  27.026  1.00  0.00    -0.203 F 
ATOM     56  F   UNL A   1      35.809  30.061  31.523  1.00  0.00    -0.200 F 
ATOM     57  C   UNL A   1      36.052  30.344  29.191  1.00  0.00     0.200 A 
ATOM     58  F   UNL A   1      36.353  30.625  26.865  1.00  0.00    -0.200 F 
ATOM     59  F   UNL A   1      34.816  30.853  29.108  1.00  0.00    -0.200 F 
ENDBRANCH  25  49
BRANCH  37  60
ATOM     60  C   UNL A   1      44.453  32.629  31.479  1.00  0.00     0.064 A 
ATOM     61  C   UNL A   1      44.404  32.908  32.853  1.00  0.00     0.173 A 
ATOM     62  C   UNL A   1      44.727  33.687  30.600  1.00  0.00     0.173 A 
ATOM     63  F   UNL A   1      44.129  31.934  33.732  1.00  0.00    -0.203 F 
ATOM     64  C   UNL A   1      44.581  34.206  33.325  1.00  0.00     0.198 A 
ATOM     65  C   UNL A   1      44.939  34.976  31.079  1.00  0.00     0.198 A 
ATOM     66  F   UNL A   1      44.792  33.472  29.278  1.00  0.00    -0.203 F 
ATOM     67  F   UNL A   1      44.463  34.462  34.636  1.00  0.00    -0.200 F 
ATOM     68  C   UNL A   1      44.853  35.237  32.439  1.00  0.00     0.200 A 
ATOM     69  F   UNL A   1      45.216  35.970  30.223  1.00  0.00    -0.200 F 
ATOM     70  F   UNL A   1      45.021  36.486  32.895  1.00  0.00    -0.200 F 
ENDBRANCH  37  60
ENDBRANCH  11  12
ENDBRANCH   4   6
ENDBRANCH   3   4
ENDBRANCH   2   3
ENDBRANCH   1   2
BRANCH   1  71
ATOM     71  O   UNL A   1      45.234  18.853  24.822  1.00  0.00    -0.374 OA
BRANCH  71  72
ATOM     72  C   UNL A   1      45.920  19.933  25.462  1.00  0.00     0.202 C 
BRANCH  72  73
ATOM     73  C   UNL A   1      46.539  20.877  24.429  1.00  0.00     0.261 C 
BRANCH  73  74
ATOM     74  O   UNL A   1      46.432  22.237  24.883  1.00  0.00    -0.460 OA
BRANCH  74  75
ATOM     75  C   UNL A   1      45.426  22.951  24.319  1.00  0.00     0.338 C 
ATOM     76  O   UNL A   1      44.489  22.539  23.660  1.00  0.00    -0.246 OA
BRANCH  75  77
ATOM     77  C   UNL A   1      45.521  24.334  24.818  1.00  0.00     0.060 A 
ATOM     78  C   UNL A   1      46.693  24.825  25.401  1.00  0.00     0.016 A 
ATOM     79  C   UNL A   1      44.378  25.135  24.741  1.00  0.00     0.030 A 
ATOM     80  C   UNL A   1      46.727  26.141  25.871  1.00  0.00     0.015 A 
ATOM     81  C   UNL A   1      44.393  26.420  25.286  1.00  0.00     0.055 A 
ATOM     82  C   UNL A   1      45.575  26.941  25.806  1.00  0.00     0.054 A 
ATOM     83  C   UNL A   1      43.138  27.190  25.366  1.00  0.00     0.270 A 
ATOM     84  C   UNL A   1      45.621  28.348  26.251  1.00  0.00     0.270 A 
ATOM     85  N   UNL A   1      43.236  28.480  25.825  1.00  0.00    -0.263 N 
ATOM     86  O   UNL A   1      42.061  26.680  25.080  1.00  0.00    -0.267 OA
ATOM     87  O   UNL A   1      46.668  28.862  26.626  1.00  0.00    -0.267 OA
ATOM     88  N   UNL A   1      44.444  29.054  26.190  1.00  0.00    -0.263 N 
ATOM     89  H   UNL A   1      42.416  29.019  25.898  1.00  0.00     0.191 HD
ATOM     90  H   UNL A   1      44.459  30.013  26.417  1.00  0.00     0.191 HD
ENDBRANCH  75  77
ENDBRANCH  74  75
ENDBRANCH  73  74
ENDBRANCH  72  73
ENDBRANCH  71  72
ENDBRANCH   1  71
TORSDOF 14
ENDMDL
MODEL 3
REMARK VINA RESULT:      -9.9      4.143      9.283
REMARK SMILES O=C(OCCOCCOC(=O)c1ccc2c(=O)[nH][nH]c(=O)c2c1)c1ccc(-c2c3nc(c(-c4c(F)c(F)c(F)c(F)c4F)c4ccc([nH]4)c(-c4c(F)c(F)c(F)c(F)c4F)c4nc(c(-c5c(F)c(F)c(F)c(F)c5F)c5ccc2[nH]5)C=C4)C=C3)cc1
REMARK SMILES IDX 5 1 4 2 3 3 2 4 1 5 24 6 25 7 86 8 26 9 85 10 27 11 28 12
REMARK SMILES IDX 29 13 79 14 30 15 84 16 78 17 80 18 31 19 83 20 77 21 76 22
REMARK SMILES IDX 32 24 64 25 44 26 63 27 45 28 48 29 62 30 81 31 46 32 47 33
REMARK SMILES IDX 61 35 82 36 49 37 33 38 34 39 42 40 35 41 36 42 40 43 43 44
REMARK SMILES IDX 37 45 38 46 41 47 39 48 65 49 66 50 74 51 67 52 68 53 72 54
REMARK SMILES IDX 75 55 69 56 70 57 73 58 71 59 50 60 51 61 59 62 52 63 53 64
REMARK SMILES IDX 57 65 60 66 54 67 55 68 58 69 56 70 6 71 7 72 8 73 9 74
REMARK SMILES IDX 10 75 11 76 12 77 13 78 23 79 14 80 22 81 15 82 20 83 16 84
REMARK SMILES IDX 19 85 21 86 17 87 18 88
REMARK H PARENT 80 23 48 34 19 89 18 90
REMARK Flexibility Score: inf
ROOT
ATOM      1  C   UNL A   1      45.342  22.069  25.756  1.00  0.00     0.202 C 
ENDROOT
BRANCH   1   2
ATOM      2  C   UNL A   1      45.611  23.155  24.712  1.00  0.00     0.261 C 
BRANCH   2   3
ATOM      3  O   UNL A   1      44.632  24.199  24.773  1.00  0.00    -0.460 OA
BRANCH   3   4
ATOM      4  C   UNL A   1      44.766  25.474  25.200  1.00  0.00     0.338 C 
ATOM      5  O   UNL A   1      45.612  26.170  24.639  1.00  0.00    -0.246 OA
BRANCH   4   6
ATOM      6  C   UNL A   1      43.995  26.106  26.326  1.00  0.00     0.060 A 
ATOM      7  C   UNL A   1      44.218  27.484  26.526  1.00  0.00     0.016 A 
ATOM      8  C   UNL A   1      43.160  25.456  27.237  1.00  0.00     0.016 A 
ATOM      9  C   UNL A   1      43.680  28.161  27.624  1.00  0.00     0.010 A 
ATOM     10  C   UNL A   1      42.628  26.115  28.339  1.00  0.00     0.010 A 
ATOM     11  C   UNL A   1      42.902  27.464  28.546  1.00  0.00    -0.014 A 
BRANCH  11  12
ATOM     12  C   UNL A   1      42.265  28.117  29.697  1.00  0.00     0.031 A 
ATOM     13  C   UNL A   1      40.972  28.848  29.540  1.00  0.00     0.074 A 
ATOM     14  C   UNL A   1      42.973  28.168  30.836  1.00  0.00     0.049 A 
ATOM     15  N   UNL A   1      40.289  29.517  30.431  1.00  0.00    -0.248 NA
ATOM     16  C   UNL A   1      40.376  28.850  28.194  1.00  0.00     0.031 C 
ATOM     17  C   UNL A   1      44.291  27.558  31.024  1.00  0.00     0.029 A 
ATOM     18  N   UNL A   1      42.709  28.785  32.024  1.00  0.00    -0.354 N 
ATOM     19  C   UNL A   1      39.169  29.994  29.767  1.00  0.00     0.074 A 
ATOM     20  C   UNL A   1      39.296  29.597  28.381  1.00  0.00     0.031 C 
ATOM     21  C   UNL A   1      44.724  27.835  32.260  1.00  0.00     0.029 A 
ATOM     22  C   UNL A   1      43.718  28.642  32.940  1.00  0.00     0.049 A 
ATOM     23  H   UNL A   1      41.880  29.283  32.204  1.00  0.00     0.167 HD
ATOM     24  C   UNL A   1      38.123  30.681  30.288  1.00  0.00     0.037 A 
ATOM     25  C   UNL A   1      43.804  29.103  34.199  1.00  0.00     0.037 A 
ATOM     26  C   UNL A   1      38.065  31.109  31.665  1.00  0.00     0.049 A 
ATOM     27  C   UNL A   1      42.644  29.872  34.754  1.00  0.00     0.074 A 
ATOM     28  C   UNL A   1      37.049  31.771  32.328  1.00  0.00     0.029 A 
ATOM     29  N   UNL A   1      39.091  30.930  32.587  1.00  0.00    -0.354 N 
ATOM     30  N   UNL A   1      41.531  30.228  34.158  1.00  0.00    -0.248 NA
ATOM     31  C   UNL A   1      42.740  30.281  36.157  1.00  0.00     0.031 C 
ATOM     32  C   UNL A   1      37.480  32.038  33.634  1.00  0.00     0.029 A 
ATOM     33  C   UNL A   1      38.743  31.493  33.806  1.00  0.00     0.049 A 
ATOM     34  H   UNL A   1      39.942  30.470  32.401  1.00  0.00     0.167 HD
ATOM     35  C   UNL A   1      40.783  30.896  35.115  1.00  0.00     0.074 A 
ATOM     36  C   UNL A   1      41.564  30.866  36.338  1.00  0.00     0.031 C 
ATOM     37  C   UNL A   1      39.564  31.483  34.994  1.00  0.00     0.037 A 
BRANCH  24  38
ATOM     38  C   UNL A   1      36.971  30.994  29.372  1.00  0.00     0.064 A 
ATOM     39  C   UNL A   1      36.049  30.003  28.995  1.00  0.00     0.173 A 
ATOM     40  C   UNL A   1      36.760  32.293  28.886  1.00  0.00     0.173 A 
ATOM     41  F   UNL A   1      36.200  28.740  29.423  1.00  0.00    -0.203 F 
ATOM     42  C   UNL A   1      34.984  30.292  28.143  1.00  0.00     0.198 A 
ATOM     43  C   UNL A   1      35.676  32.586  28.060  1.00  0.00     0.198 A 
ATOM     44  F   UNL A   1      37.601  33.285  29.215  1.00  0.00    -0.203 F 
ATOM     45  F   UNL A   1      34.151  29.315  27.759  1.00  0.00    -0.200 F 
ATOM     46  C   UNL A   1      34.795  31.584  27.681  1.00  0.00     0.200 A 
ATOM     47  F   UNL A   1      35.483  33.840  27.627  1.00  0.00    -0.200 F 
ATOM     48  F   UNL A   1      33.766  31.863  26.868  1.00  0.00    -0.200 F 
ENDBRANCH  24  38
BRANCH  25  49
ATOM     49  C   UNL A   1      44.985  28.727  35.010  1.00  0.00     0.064 A 
ATOM     50  C   UNL A   1      46.092  29.585  35.076  1.00  0.00     0.173 A 
ATOM     51  C   UNL A   1      44.981  27.595  35.837  1.00  0.00     0.173 A 
ATOM     52  F   UNL A   1      46.136  30.678  34.301  1.00  0.00    -0.203 F 
ATOM     53  C   UNL A   1      47.146  29.330  35.949  1.00  0.00     0.198 A 
ATOM     54  C   UNL A   1      46.027  27.352  36.724  1.00  0.00     0.198 A 
ATOM     55  F   UNL A   1      43.933  26.758  35.825  1.00  0.00    -0.203 F 
ATOM     56  F   UNL A   1      48.190  30.168  35.996  1.00  0.00    -0.200 F 
ATOM     57  C   UNL A   1      47.107  28.221  36.781  1.00  0.00     0.200 A 
ATOM     58  F   UNL A   1      45.975  26.295  37.546  1.00  0.00    -0.200 F 
ATOM     59  F   UNL A   1      48.104  27.997  37.647  1.00  0.00    -0.200 F 
ENDBRANCH  25  49
BRANCH  37  60
ATOM     60  C   UNL A   1      39.027  32.157  36.224  1.00  0.00     0.064 A 
ATOM     61  C   UNL A   1      39.378  33.478  36.542  1.00  0.00     0.173 A 
ATOM     62  C   UNL A   1      38.154  31.481  37.088  1.00  0.00     0.173 A 
ATOM     63  F   UNL A   1      40.223  34.161  35.757  1.00  0.00    -0.203 F 
ATOM     64  C   UNL A   1      38.906  34.083  37.704  1.00  0.00     0.198 A 
ATOM     65  C   UNL A   1      37.656  32.101  38.229  1.00  0.00     0.198 A 
ATOM     66  F   UNL A   1      37.782  30.219  36.824  1.00  0.00    -0.203 F 
ATOM     67  F   UNL A   1      39.308  35.321  38.023  1.00  0.00    -0.200 F 
ATOM     68  C   UNL A   1      38.042  33.396  38.543  1.00  0.00     0.200 A 
ATOM     69  F   UNL A   1      36.809  31.442  39.032  1.00  0.00    -0.200 F 
ATOM     70  F   UNL A   1      37.590  33.978  39.662  1.00  0.00    -0.200 F 
ENDBRANCH  37  60
ENDBRANCH  11  12
ENDBRANCH   4   6
ENDBRANCH   3   4
ENDBRANCH   2   3
ENDBRANCH   1   2
BRANCH   1  71
ATOM     71  O   UNL A   1      45.755  20.760  25.361  1.00  0.00    -0.374 OA
BRANCH  71  72
ATOM     72  C   UNL A   1      44.980  20.163  24.317  1.00  0.00     0.202 C 
BRANCH  72  73
ATOM     73  C   UNL A   1      44.323  18.867  24.796  1.00  0.00     0.261 C 
BRANCH  73  74
ATOM     74  O   UNL A   1      42.916  19.081  25.005  1.00  0.00    -0.460 OA
BRANCH  74  75
ATOM     75  C   UNL A   1      42.518  19.040  26.300  1.00  0.00     0.338 C 
ATOM     76  O   UNL A   1      42.873  18.269  27.173  1.00  0.00    -0.246 OA
BRANCH  75  77
ATOM     77  C   UNL A   1      41.715  20.248  26.562  1.00  0.00     0.060 A 
ATOM     78  C   UNL A   1      42.124  21.216  27.484  1.00  0.00     0.016 A 
ATOM     79  C   UNL A   1      40.492  20.375  25.897  1.00  0.00     0.030 A 
ATOM     80  C   UNL A   1      41.319  22.336  27.706  1.00  0.00     0.015 A 
ATOM     81  C   UNL A   1      39.655  21.455  26.184  1.00  0.00     0.055 A 
ATOM     82  C   UNL A   1      40.085  22.458  27.049  1.00  0.00     0.054 A 
ATOM     83  C   UNL A   1      38.293  21.489  25.619  1.00  0.00     0.270 A 
ATOM     84  C   UNL A   1      39.257  23.665  27.239  1.00  0.00     0.270 A 
ATOM     85  N   UNL A   1      37.555  22.620  25.862  1.00  0.00    -0.263 N 
ATOM     86  O   UNL A   1      37.836  20.531  25.006  1.00  0.00    -0.267 OA
ATOM     87  O   UNL A   1      39.650  24.605  27.919  1.00  0.00    -0.267 OA
ATOM     88  N   UNL A   1      38.046  23.693  26.589  1.00  0.00    -0.263 N 
ATOM     89  H   UNL A   1      36.639  22.671  25.505  1.00  0.00     0.191 HD
ATOM     90  H   UNL A   1      37.503  24.512  26.644  1.00  0.00     0.191 HD
ENDBRANCH  75  77
ENDBRANCH  74  75
ENDBRANCH  73  74
ENDBRANCH  72  73
ENDBRANCH  71  72
ENDBRANCH   1  71
TORSDOF 14
ENDMDL
