MODEL 1
REMARK VINA RESULT:     -11.4      0.000      0.000
REMARK SMILES CC1(C)CCSC[C@@]1(Nc1ccccc1Br)C(=O)OCCOCCOC(=O)c1ccc(-c2c3nc(c(-c4c(F)c(F)c(F)c(F)c4F)c4ccc([nH]4)c(-c4c(F)c(F)c(F)c(F)c4F)c4nc(c(-c5c(F)c(F)c(F)c(F)c5F)c5ccc2[nH]5)C=C4)C=C3)cc1
REMARK SMILES IDX 22 1 21 2 20 3 19 4 17 5 18 6 8 7 1 8 2 9 3 10 4 11 5 12
REMARK SMILES IDX 7 13 6 14 9 15 10 17 11 18 15 19 12 20 14 21 16 22 13 23
REMARK SMILES IDX 23 24 24 25 25 26 26 27 27 28 28 29 29 30 90 31 30 32 89 33
REMARK SMILES IDX 31 34 32 35 33 36 83 37 34 38 88 39 82 40 84 41 35 42 87 43
REMARK SMILES IDX 81 44 80 45 36 47 68 48 48 49 67 50 49 51 52 52 66 53 85 54
REMARK SMILES IDX 50 55 51 56 65 58 86 59 53 60 37 61 38 62 46 63 39 64 40 65
REMARK SMILES IDX 44 66 47 67 41 68 42 69 45 70 43 71 69 72 70 73 78 74 71 75
REMARK SMILES IDX 72 76 76 77 79 78 73 79 74 80 77 81 75 82 54 83 55 84 63 85
REMARK SMILES IDX 56 86 57 87 61 88 64 89 58 90 59 91 62 92 60 93
REMARK H PARENT 9 16 84 46 52 57
REMARK Flexibility Score: inf
ROOT
ATOM      1  O   UNL A   1      32.220  30.649  27.227  1.00  0.00    -0.374 OA
ENDROOT
BRANCH   1   2
ATOM      2  C   UNL A   1      33.046  29.787  26.447  1.00  0.00     0.202 C 
BRANCH   2   3
ATOM      3  C   UNL A   1      33.667  28.612  27.203  1.00  0.00     0.261 C 
BRANCH   3   4
ATOM      4  O   UNL A   1      33.595  27.350  26.499  1.00  0.00    -0.461 OA
BRANCH   4   5
ATOM      5  C   UNL A   1      32.339  26.866  26.290  1.00  0.00     0.333 C 
ATOM      6  O   UNL A   1      31.478  26.885  27.168  1.00  0.00    -0.249 OA
BRANCH   5   7
ATOM      7  C   UNL A   1      32.134  26.177  24.887  1.00  0.00     0.150 C 
ATOM      8  C   UNL A   1      30.718  28.262  24.152  1.00  0.00     0.014 C 
ATOM      9  C   UNL A   1      30.820  26.709  24.136  1.00  0.00     0.000 C 
ATOM     10  C   UNL A   1      29.491  26.176  24.758  1.00  0.00     0.014 C 
ATOM     11  C   UNL A   1      30.807  26.204  22.655  1.00  0.00     0.020 C 
ATOM     12  C   UNL A   1      31.968  26.644  21.771  1.00  0.00     0.070 C 
ATOM     13  C   UNL A   1      33.417  26.617  24.099  1.00  0.00     0.110 C 
ATOM     14  S   UNL A   1      33.557  26.056  22.374  1.00  0.00    -0.159 SA
BRANCH   7  15
ATOM     15  N   UNL A   1      32.054  24.679  24.951  1.00  0.00    -0.368 N 
ATOM     16  H   UNL A   1      31.446  24.233  24.317  1.00  0.00     0.161 HD
BRANCH  15  17
ATOM     17  C   UNL A   1      32.761  23.872  25.825  1.00  0.00     0.049 A 
ATOM     18  C   UNL A   1      34.084  23.517  25.556  1.00  0.00     0.027 A 
ATOM     19  C   UNL A   1      32.142  23.207  26.890  1.00  0.00     0.041 A 
ATOM     20  C   UNL A   1      34.816  22.713  26.438  1.00  0.00     0.002 A 
ATOM     21  C   UNL A   1      32.886  22.512  27.848  1.00  0.00     0.018 A 
ATOM     22  Br  UNL A   1      30.250  22.990  26.865  1.00  0.00    -0.049 Br
ATOM     23  C   UNL A   1      34.241  22.285  27.629  1.00  0.00     0.001 A 
ENDBRANCH  15  17
ENDBRANCH   7  15
ENDBRANCH   5   7
ENDBRANCH   4   5
ENDBRANCH   3   4
ENDBRANCH   2   3
ENDBRANCH   1   2
BRANCH   1  24
ATOM     24  C   UNL A   1      31.585  31.706  26.506  1.00  0.00     0.202 C 
BRANCH  24  25
ATOM     25  C   UNL A   1      31.779  33.089  27.141  1.00  0.00     0.261 C 
BRANCH  25  26
ATOM     26  O   UNL A   1      33.173  33.444  27.156  1.00  0.00    -0.460 OA
BRANCH  26  27
ATOM     27  C   UNL A   1      33.681  33.751  28.366  1.00  0.00     0.338 C 
ATOM     28  O   UNL A   1      33.136  34.360  29.265  1.00  0.00    -0.246 OA
BRANCH  27  29
ATOM     29  C   UNL A   1      34.969  33.053  28.547  1.00  0.00     0.060 A 
ATOM     30  C   UNL A   1      34.885  31.720  28.960  1.00  0.00     0.016 A 
ATOM     31  C   UNL A   1      36.212  33.675  28.389  1.00  0.00     0.016 A 
ATOM     32  C   UNL A   1      36.033  31.038  29.332  1.00  0.00     0.010 A 
ATOM     33  C   UNL A   1      37.372  32.982  28.756  1.00  0.00     0.010 A 
ATOM     34  C   UNL A   1      37.274  31.687  29.291  1.00  0.00    -0.014 A 
BRANCH  34  35
ATOM     35  C   UNL A   1      38.407  31.049  30.001  1.00  0.00     0.031 A 
ATOM     36  C   UNL A   1      38.618  31.366  31.456  1.00  0.00     0.074 A 
ATOM     37  C   UNL A   1      39.142  30.107  29.385  1.00  0.00     0.049 A 
ATOM     38  N   UNL A   1      39.490  30.874  32.298  1.00  0.00    -0.248 NA
ATOM     39  C   UNL A   1      37.716  32.370  32.047  1.00  0.00     0.031 C 
ATOM     40  C   UNL A   1      38.973  29.688  27.994  1.00  0.00     0.029 A 
ATOM     41  N   UNL A   1      40.160  29.320  29.854  1.00  0.00    -0.354 N 
ATOM     42  C   UNL A   1      39.245  31.508  33.510  1.00  0.00     0.074 A 
ATOM     43  C   UNL A   1      38.168  32.447  33.290  1.00  0.00     0.031 C 
ATOM     44  C   UNL A   1      39.851  28.709  27.724  1.00  0.00     0.029 A 
ATOM     45  C   UNL A   1      40.670  28.464  28.910  1.00  0.00     0.049 A 
ATOM     46  H   UNL A   1      40.494  29.363  30.779  1.00  0.00     0.167 HD
ATOM     47  C   UNL A   1      39.857  31.311  34.701  1.00  0.00     0.037 A 
ATOM     48  C   UNL A   1      41.696  27.598  28.993  1.00  0.00     0.037 A 
ATOM     49  C   UNL A   1      40.924  30.364  34.901  1.00  0.00     0.049 A 
ATOM     50  C   UNL A   1      42.415  27.457  30.309  1.00  0.00     0.074 A 
ATOM     51  C   UNL A   1      41.611  30.069  36.064  1.00  0.00     0.029 A 
ATOM     52  N   UNL A   1      41.461  29.563  33.902  1.00  0.00    -0.354 N 
ATOM     53  N   UNL A   1      42.167  28.046  31.455  1.00  0.00    -0.248 NA
ATOM     54  C   UNL A   1      43.554  26.531  30.344  1.00  0.00     0.031 C 
ATOM     55  C   UNL A   1      42.608  29.140  35.754  1.00  0.00     0.029 A 
ATOM     56  C   UNL A   1      42.499  28.803  34.414  1.00  0.00     0.049 A 
ATOM     57  H   UNL A   1      41.151  29.539  32.968  1.00  0.00     0.167 HD
ATOM     58  C   UNL A   1      43.103  27.550  32.351  1.00  0.00     0.074 A 
ATOM     59  C   UNL A   1      43.909  26.592  31.620  1.00  0.00     0.031 C 
ATOM     60  C   UNL A   1      43.286  27.858  33.660  1.00  0.00     0.037 A 
BRANCH  47  61
ATOM     61  C   UNL A   1      39.421  32.157  35.863  1.00  0.00     0.064 A 
ATOM     62  C   UNL A   1      39.958  33.432  36.103  1.00  0.00     0.173 A 
ATOM     63  C   UNL A   1      38.422  31.697  36.737  1.00  0.00     0.173 A 
ATOM     64  F   UNL A   1      40.926  33.916  35.310  1.00  0.00    -0.203 F 
ATOM     65  C   UNL A   1      39.534  34.199  37.186  1.00  0.00     0.198 A 
ATOM     66  C   UNL A   1      37.977  32.480  37.798  1.00  0.00     0.198 A 
ATOM     67  F   UNL A   1      37.871  30.487  36.555  1.00  0.00    -0.203 F 
ATOM     68  F   UNL A   1      40.097  35.391  37.423  1.00  0.00    -0.200 F 
ATOM     69  C   UNL A   1      38.537  33.727  38.027  1.00  0.00     0.200 A 
ATOM     70  F   UNL A   1      37.004  32.026  38.601  1.00  0.00    -0.200 F 
ATOM     71  F   UNL A   1      38.123  34.470  39.062  1.00  0.00    -0.200 F 
ENDBRANCH  47  61
BRANCH  48  72
ATOM     72  C   UNL A   1      42.114  26.824  27.794  1.00  0.00     0.064 A 
ATOM     73  C   UNL A   1      41.568  25.566  27.507  1.00  0.00     0.173 A 
ATOM     74  C   UNL A   1      43.079  27.331  26.908  1.00  0.00     0.173 A 
ATOM     75  F   UNL A   1      40.657  25.027  28.331  1.00  0.00    -0.203 F 
ATOM     76  C   UNL A   1      41.981  24.839  26.391  1.00  0.00     0.198 A 
ATOM     77  C   UNL A   1      43.465  26.619  25.776  1.00  0.00     0.198 A 
ATOM     78  F   UNL A   1      43.634  28.531  27.134  1.00  0.00    -0.203 F 
ATOM     79  F   UNL A   1      41.475  23.619  26.165  1.00  0.00    -0.200 F 
ATOM     80  C   UNL A   1      42.923  25.369  25.523  1.00  0.00     0.200 A 
ATOM     81  F   UNL A   1      44.362  27.145  24.930  1.00  0.00    -0.200 F 
ATOM     82  F   UNL A   1      43.314  24.674  24.446  1.00  0.00    -0.200 F 
ENDBRANCH  48  72
BRANCH  60  83
ATOM     83  C   UNL A   1      44.385  27.137  34.385  1.00  0.00     0.064 A 
ATOM     84  C   UNL A   1      44.187  25.866  34.943  1.00  0.00     0.173 A 
ATOM     85  C   UNL A   1      45.663  27.708  34.487  1.00  0.00     0.173 A 
ATOM     86  F   UNL A   1      42.981  25.282  34.885  1.00  0.00    -0.203 F 
ATOM     87  C   UNL A   1      45.220  25.206  35.603  1.00  0.00     0.198 A 
ATOM     88  C   UNL A   1      46.703  27.029  35.114  1.00  0.00     0.198 A 
ATOM     89  F   UNL A   1      45.908  28.918  33.962  1.00  0.00    -0.203 F 
ATOM     90  F   UNL A   1      44.994  24.017  36.177  1.00  0.00    -0.200 F 
ATOM     91  C   UNL A   1      46.478  25.784  35.680  1.00  0.00     0.200 A 
ATOM     92  F   UNL A   1      47.923  27.582  35.171  1.00  0.00    -0.200 F 
ATOM     93  F   UNL A   1      47.475  25.142  36.306  1.00  0.00    -0.200 F 
ENDBRANCH  60  83
ENDBRANCH  34  35
ENDBRANCH  27  29
ENDBRANCH  26  27
ENDBRANCH  25  26
ENDBRANCH  24  25
ENDBRANCH   1  24
TORSDOF 16
ENDMDL
MODEL 2
REMARK VINA RESULT:     -11.2      1.192      2.971
REMARK SMILES CC1(C)CCSC[C@@]1(Nc1ccccc1Br)C(=O)OCCOCCOC(=O)c1ccc(-c2c3nc(c(-c4c(F)c(F)c(F)c(F)c4F)c4ccc([nH]4)c(-c4c(F)c(F)c(F)c(F)c4F)c4nc(c(-c5c(F)c(F)c(F)c(F)c5F)c5ccc2[nH]5)C=C4)C=C3)cc1
REMARK SMILES IDX 22 1 21 2 20 3 19 4 17 5 18 6 8 7 1 8 2 9 3 10 4 11 5 12
REMARK SMILES IDX 7 13 6 14 9 15 10 17 11 18 15 19 12 20 14 21 16 22 13 23
REMARK SMILES IDX 23 24 24 25 25 26 26 27 27 28 28 29 29 30 90 31 30 32 89 33
REMARK SMILES IDX 31 34 32 35 33 36 83 37 34 38 88 39 82 40 84 41 35 42 87 43
REMARK SMILES IDX 81 44 80 45 36 47 68 48 48 49 67 50 49 51 52 52 66 53 85 54
REMARK SMILES IDX 50 55 51 56 65 58 86 59 53 60 37 61 38 62 46 63 39 64 40 65
REMARK SMILES IDX 44 66 47 67 41 68 42 69 45 70 43 71 69 72 70 73 78 74 71 75
REMARK SMILES IDX 72 76 76 77 79 78 73 79 74 80 77 81 75 82 54 83 55 84 63 85
REMARK SMILES IDX 56 86 57 87 61 88 64 89 58 90 59 91 62 92 60 93
REMARK H PARENT 9 16 84 46 52 57
REMARK Flexibility Score: inf
ROOT
ATOM      1  O   UNL A   1      32.283  30.321  26.081  1.00  0.00    -0.374 OA
ENDROOT
BRANCH   1   2
ATOM      2  C   UNL A   1      31.811  28.975  26.115  1.00  0.00     0.202 C 
BRANCH   2   3
ATOM      3  C   UNL A   1      32.557  28.042  27.070  1.00  0.00     0.261 C 
BRANCH   3   4
ATOM      4  O   UNL A   1      32.333  26.635  26.818  1.00  0.00    -0.461 OA
BRANCH   4   5
ATOM      5  C   UNL A   1      33.056  26.100  25.795  1.00  0.00     0.333 C 
ATOM      6  O   UNL A   1      34.023  26.681  25.306  1.00  0.00    -0.249 OA
BRANCH   5   7
ATOM      7  C   UNL A   1      32.471  24.753  25.222  1.00  0.00     0.150 C 
ATOM      8  C   UNL A   1      34.579  23.516  26.181  1.00  0.00     0.014 C 
ATOM      9  C   UNL A   1      33.613  23.656  24.968  1.00  0.00     0.000 C 
ATOM     10  C   UNL A   1      34.509  23.967  23.728  1.00  0.00     0.014 C 
ATOM     11  C   UNL A   1      32.963  22.265  24.661  1.00  0.00     0.020 C 
ATOM     12  C   UNL A   1      32.080  21.667  25.749  1.00  0.00     0.070 C 
ATOM     13  C   UNL A   1      31.517  24.278  26.373  1.00  0.00     0.110 C 
ATOM     14  S   UNL A   1      30.653  22.696  26.126  1.00  0.00    -0.159 SA
BRANCH   7  15
ATOM     15  N   UNL A   1      31.699  24.920  23.945  1.00  0.00    -0.368 N 
ATOM     16  H   UNL A   1      31.696  24.160  23.319  1.00  0.00     0.161 HD
BRANCH  15  17
ATOM     17  C   UNL A   1      30.992  26.050  23.574  1.00  0.00     0.049 A 
ATOM     18  C   UNL A   1      29.635  26.175  23.877  1.00  0.00     0.027 A 
ATOM     19  C   UNL A   1      31.527  27.011  22.708  1.00  0.00     0.041 A 
ATOM     20  C   UNL A   1      28.912  27.318  23.521  1.00  0.00     0.002 A 
ATOM     21  C   UNL A   1      30.863  28.215  22.454  1.00  0.00     0.018 A 
ATOM     22  Br  UNL A   1      33.026  26.546  21.628  1.00  0.00    -0.049 Br
ATOM     23  C   UNL A   1      29.551  28.377  22.886  1.00  0.00     0.001 A 
ENDBRANCH  15  17
ENDBRANCH   7  15
ENDBRANCH   5   7
ENDBRANCH   4   5
ENDBRANCH   3   4
ENDBRANCH   2   3
ENDBRANCH   1   2
BRANCH   1  24
ATOM     24  C   UNL A   1      31.315  31.317  26.414  1.00  0.00     0.202 C 
BRANCH  24  25
ATOM     25  C   UNL A   1      31.931  32.656  26.840  1.00  0.00     0.261 C 
BRANCH  25  26
ATOM     26  O   UNL A   1      32.860  32.460  27.921  1.00  0.00    -0.460 OA
BRANCH  26  27
ATOM     27  C   UNL A   1      33.794  33.421  28.065  1.00  0.00     0.338 C 
ATOM     28  O   UNL A   1      33.615  34.619  28.162  1.00  0.00    -0.246 OA
BRANCH  27  29
ATOM     29  C   UNL A   1      35.108  32.794  28.302  1.00  0.00     0.060 A 
ATOM     30  C   UNL A   1      35.088  31.419  28.560  1.00  0.00     0.016 A 
ATOM     31  C   UNL A   1      36.310  33.510  28.338  1.00  0.00     0.016 A 
ATOM     32  C   UNL A   1      36.245  30.776  28.973  1.00  0.00     0.010 A 
ATOM     33  C   UNL A   1      37.479  32.858  28.746  1.00  0.00     0.010 A 
ATOM     34  C   UNL A   1      37.432  31.506  29.128  1.00  0.00    -0.014 A 
BRANCH  34  35
ATOM     35  C   UNL A   1      38.538  30.868  29.878  1.00  0.00     0.031 A 
ATOM     36  C   UNL A   1      38.702  31.194  31.338  1.00  0.00     0.074 A 
ATOM     37  C   UNL A   1      39.288  29.920  29.292  1.00  0.00     0.049 A 
ATOM     38  N   UNL A   1      39.544  30.703  32.210  1.00  0.00    -0.248 NA
ATOM     39  C   UNL A   1      37.786  32.204  31.893  1.00  0.00     0.031 C 
ATOM     40  C   UNL A   1      39.163  29.493  27.899  1.00  0.00     0.029 A 
ATOM     41  N   UNL A   1      40.287  29.131  29.798  1.00  0.00    -0.354 N 
ATOM     42  C   UNL A   1      39.262  31.346  33.410  1.00  0.00     0.074 A 
ATOM     43  C   UNL A   1      38.198  32.287  33.149  1.00  0.00     0.031 C 
ATOM     44  C   UNL A   1      40.045  28.509  27.664  1.00  0.00     0.029 A 
ATOM     45  C   UNL A   1      40.824  28.268  28.877  1.00  0.00     0.049 A 
ATOM     46  H   UNL A   1      40.591  29.179  30.734  1.00  0.00     0.167 HD
ATOM     47  C   UNL A   1      39.835  31.153  34.621  1.00  0.00     0.037 A 
ATOM     48  C   UNL A   1      41.843  27.397  28.998  1.00  0.00     0.037 A 
ATOM     49  C   UNL A   1      40.890  30.203  34.861  1.00  0.00     0.049 A 
ATOM     50  C   UNL A   1      42.518  27.262  30.339  1.00  0.00     0.074 A 
ATOM     51  C   UNL A   1      41.538  29.913  36.048  1.00  0.00     0.029 A 
ATOM     52  N   UNL A   1      41.456  29.394  33.886  1.00  0.00    -0.354 N 
ATOM     53  N   UNL A   1      42.235  27.859  31.472  1.00  0.00    -0.248 NA
ATOM     54  C   UNL A   1      43.651  26.332  30.416  1.00  0.00     0.031 C 
ATOM     55  C   UNL A   1      42.541  28.977  35.777  1.00  0.00     0.029 A 
ATOM     56  C   UNL A   1      42.474  28.632  34.436  1.00  0.00     0.049 A 
ATOM     57  H   UNL A   1      41.176  29.366  32.942  1.00  0.00     0.167 HD
ATOM     58  C   UNL A   1      43.139  27.364  32.401  1.00  0.00     0.074 A 
ATOM     59  C   UNL A   1      43.965  26.399  31.703  1.00  0.00     0.031 C 
ATOM     60  C   UNL A   1      43.281  27.680  33.713  1.00  0.00     0.037 A 
BRANCH  47  61
ATOM     61  C   UNL A   1      39.364  32.008  35.764  1.00  0.00     0.064 A 
ATOM     62  C   UNL A   1      38.373  31.578  36.659  1.00  0.00     0.173 A 
ATOM     63  C   UNL A   1      39.939  33.270  35.985  1.00  0.00     0.173 A 
ATOM     64  F   UNL A   1      37.778  30.388  36.488  1.00  0.00    -0.203 F 
ATOM     65  C   UNL A   1      37.956  32.388  37.715  1.00  0.00     0.198 A 
ATOM     66  C   UNL A   1      39.544  34.063  37.060  1.00  0.00     0.198 A 
ATOM     67  F   UNL A   1      40.893  33.732  35.163  1.00  0.00    -0.203 F 
ATOM     68  F   UNL A   1      36.974  31.976  38.527  1.00  0.00    -0.200 F 
ATOM     69  C   UNL A   1      38.549  33.625  37.919  1.00  0.00     0.200 A 
ATOM     70  F   UNL A   1      40.128  35.252  37.263  1.00  0.00    -0.200 F 
ATOM     71  F   UNL A   1      38.154  34.398  38.939  1.00  0.00    -0.200 F 
ENDBRANCH  47  61
BRANCH  48  72
ATOM     72  C   UNL A   1      42.297  26.615  27.818  1.00  0.00     0.064 A 
ATOM     73  C   UNL A   1      41.772  25.346  27.536  1.00  0.00     0.173 A 
ATOM     74  C   UNL A   1      43.274  27.124  26.947  1.00  0.00     0.173 A 
ATOM     75  F   UNL A   1      40.851  24.806  28.346  1.00  0.00    -0.203 F 
ATOM     76  C   UNL A   1      42.219  24.611  26.438  1.00  0.00     0.198 A 
ATOM     77  C   UNL A   1      43.694  26.403  25.832  1.00  0.00     0.198 A 
ATOM     78  F   UNL A   1      43.809  28.333  27.170  1.00  0.00    -0.203 F 
ATOM     79  F   UNL A   1      41.733  23.382  26.216  1.00  0.00    -0.200 F 
ATOM     80  C   UNL A   1      43.173  25.143  25.584  1.00  0.00     0.200 A 
ATOM     81  F   UNL A   1      44.602  26.930  25.000  1.00  0.00    -0.200 F 
ATOM     82  F   UNL A   1      43.595  24.440  24.524  1.00  0.00    -0.200 F 
ENDBRANCH  48  72
BRANCH  60  83
ATOM     83  C   UNL A   1      44.353  26.959  34.479  1.00  0.00     0.064 A 
ATOM     84  C   UNL A   1      45.639  27.497  34.627  1.00  0.00     0.173 A 
ATOM     85  C   UNL A   1      44.076  25.735  35.106  1.00  0.00     0.173 A 
ATOM     86  F   UNL A   1      45.959  28.658  34.035  1.00  0.00    -0.203 F 
ATOM     87  C   UNL A   1      46.618  26.821  35.349  1.00  0.00     0.198 A 
ATOM     88  C   UNL A   1      45.046  25.080  35.858  1.00  0.00     0.198 A 
ATOM     89  F   UNL A   1      42.859  25.181  35.003  1.00  0.00    -0.203 F 
ATOM     90  F   UNL A   1      47.857  27.326  35.430  1.00  0.00    -0.200 F 
ATOM     91  C   UNL A   1      46.319  25.618  35.971  1.00  0.00     0.200 A 
ATOM     92  F   UNL A   1      44.748  23.927  36.474  1.00  0.00    -0.200 F 
ATOM     93  F   UNL A   1      47.260  24.974  36.675  1.00  0.00    -0.200 F 
ENDBRANCH  60  83
ENDBRANCH  34  35
ENDBRANCH  27  29
ENDBRANCH  26  27
ENDBRANCH  25  26
ENDBRANCH  24  25
ENDBRANCH   1  24
TORSDOF 16
ENDMDL
MODEL 3
REMARK VINA RESULT:     -11.2      1.297      7.741
REMARK SMILES CC1(C)CCSC[C@@]1(Nc1ccccc1Br)C(=O)OCCOCCOC(=O)c1ccc(-c2c3nc(c(-c4c(F)c(F)c(F)c(F)c4F)c4ccc([nH]4)c(-c4c(F)c(F)c(F)c(F)c4F)c4nc(c(-c5c(F)c(F)c(F)c(F)c5F)c5ccc2[nH]5)C=C4)C=C3)cc1
REMARK SMILES IDX 22 1 21 2 20 3 19 4 17 5 18 6 8 7 1 8 2 9 3 10 4 11 5 12
REMARK SMILES IDX 7 13 6 14 9 15 10 17 11 18 15 19 12 20 14 21 16 22 13 23
REMARK SMILES IDX 23 24 24 25 25 26 26 27 27 28 28 29 29 30 90 31 30 32 89 33
REMARK SMILES IDX 31 34 32 35 33 36 83 37 34 38 88 39 82 40 84 41 35 42 87 43
REMARK SMILES IDX 81 44 80 45 36 47 68 48 48 49 67 50 49 51 52 52 66 53 85 54
REMARK SMILES IDX 50 55 51 56 65 58 86 59 53 60 37 61 38 62 46 63 39 64 40 65
REMARK SMILES IDX 44 66 47 67 41 68 42 69 45 70 43 71 69 72 70 73 78 74 71 75
REMARK SMILES IDX 72 76 76 77 79 78 73 79 74 80 77 81 75 82 54 83 55 84 63 85
REMARK SMILES IDX 56 86 57 87 61 88 64 89 58 90 59 91 62 92 60 93
REMARK H PARENT 9 16 84 46 52 57
REMARK Flexibility Score: inf
ROOT
ATOM      1  O   UNL A   1      32.057  29.967  25.357  1.00  0.00    -0.374 OA
ENDROOT
BRANCH   1   2
ATOM      2  C   UNL A   1      31.879  28.622  25.799  1.00  0.00     0.202 C 
BRANCH   2   3
ATOM      3  C   UNL A   1      33.089  27.991  26.488  1.00  0.00     0.261 C 
BRANCH   3   4
ATOM      4  O   UNL A   1      33.098  26.544  26.464  1.00  0.00    -0.461 OA
BRANCH   4   5
ATOM      5  C   UNL A   1      33.387  25.980  25.259  1.00  0.00     0.333 C 
ATOM      6  O   UNL A   1      34.130  26.525  24.445  1.00  0.00    -0.249 OA
BRANCH   5   7
ATOM      7  C   UNL A   1      32.595  24.650  24.958  1.00  0.00     0.150 C 
ATOM      8  C   UNL A   1      34.722  23.303  25.706  1.00  0.00     0.014 C 
ATOM      9  C   UNL A   1      33.575  23.416  24.659  1.00  0.00     0.000 C 
ATOM     10  C   UNL A   1      34.266  23.495  23.261  1.00  0.00     0.014 C 
ATOM     11  C   UNL A   1      32.762  22.078  24.635  1.00  0.00     0.020 C 
ATOM     12  C   UNL A   1      32.032  21.698  25.918  1.00  0.00     0.070 C 
ATOM     13  C   UNL A   1      31.818  24.405  26.298  1.00  0.00     0.110 C 
ATOM     14  S   UNL A   1      30.789  22.908  26.391  1.00  0.00    -0.159 SA
BRANCH   7  15
ATOM     15  N   UNL A   1      31.631  24.762  23.813  1.00  0.00    -0.368 N 
ATOM     16  H   UNL A   1      31.526  23.972  23.235  1.00  0.00     0.161 HD
BRANCH  15  17
ATOM     17  C   UNL A   1      30.879  25.880  23.501  1.00  0.00     0.049 A 
ATOM     18  C   UNL A   1      29.597  26.048  24.030  1.00  0.00     0.027 A 
ATOM     19  C   UNL A   1      31.259  26.778  22.497  1.00  0.00     0.041 A 
ATOM     20  C   UNL A   1      28.830  27.181  23.735  1.00  0.00     0.002 A 
ATOM     21  C   UNL A   1      30.570  27.976  22.288  1.00  0.00     0.018 A 
ATOM     22  Br  UNL A   1      32.542  26.221  21.202  1.00  0.00    -0.049 Br
ATOM     23  C   UNL A   1      29.356  28.188  22.933  1.00  0.00     0.001 A 
ENDBRANCH  15  17
ENDBRANCH   7  15
ENDBRANCH   5   7
ENDBRANCH   4   5
ENDBRANCH   3   4
ENDBRANCH   2   3
ENDBRANCH   1   2
BRANCH   1  24
ATOM     24  C   UNL A   1      31.028  30.879  25.743  1.00  0.00     0.202 C 
BRANCH  24  25
ATOM     25  C   UNL A   1      31.532  32.055  26.589  1.00  0.00     0.261 C 
BRANCH  25  26
ATOM     26  O   UNL A   1      32.749  31.698  27.269  1.00  0.00    -0.460 OA
BRANCH  26  27
ATOM     27  C   UNL A   1      33.562  32.728  27.583  1.00  0.00     0.338 C 
ATOM     28  O   UNL A   1      33.262  33.900  27.695  1.00  0.00    -0.246 OA
BRANCH  27  29
ATOM     29  C   UNL A   1      34.881  32.204  27.987  1.00  0.00     0.060 A 
ATOM     30  C   UNL A   1      34.949  30.822  28.192  1.00  0.00     0.016 A 
ATOM     31  C   UNL A   1      35.994  33.017  28.223  1.00  0.00     0.016 A 
ATOM     32  C   UNL A   1      36.089  30.261  28.746  1.00  0.00     0.010 A 
ATOM     33  C   UNL A   1      37.149  32.448  28.774  1.00  0.00     0.010 A 
ATOM     34  C   UNL A   1      37.170  31.081  29.098  1.00  0.00    -0.014 A 
BRANCH  34  35
ATOM     35  C   UNL A   1      38.211  30.504  29.979  1.00  0.00     0.031 A 
ATOM     36  C   UNL A   1      39.192  29.525  29.393  1.00  0.00     0.074 A 
ATOM     37  C   UNL A   1      38.352  30.954  31.238  1.00  0.00     0.049 A 
ATOM     38  N   UNL A   1      40.229  28.952  29.949  1.00  0.00    -0.248 NA
ATOM     39  C   UNL A   1      38.981  29.146  27.986  1.00  0.00     0.031 C 
ATOM     40  C   UNL A   1      37.487  31.946  31.874  1.00  0.00     0.029 A 
ATOM     41  N   UNL A   1      39.283  30.652  32.196  1.00  0.00    -0.354 N 
ATOM     42  C   UNL A   1      40.787  28.146  28.963  1.00  0.00     0.074 A 
ATOM     43  C   UNL A   1      39.957  28.273  27.787  1.00  0.00     0.031 C 
ATOM     44  C   UNL A   1      37.936  32.182  33.117  1.00  0.00     0.029 A 
ATOM     45  C   UNL A   1      39.092  31.326  33.376  1.00  0.00     0.049 A 
ATOM     46  H   UNL A   1      40.018  30.013  32.052  1.00  0.00     0.167 HD
ATOM     47  C   UNL A   1      41.901  27.381  29.035  1.00  0.00     0.037 A 
ATOM     48  C   UNL A   1      39.765  31.241  34.538  1.00  0.00     0.037 A 
ATOM     49  C   UNL A   1      42.719  27.274  30.215  1.00  0.00     0.049 A 
ATOM     50  C   UNL A   1      40.954  30.319  34.616  1.00  0.00     0.074 A 
ATOM     51  C   UNL A   1      43.877  26.540  30.401  1.00  0.00     0.029 A 
ATOM     52  N   UNL A   1      42.455  27.919  31.415  1.00  0.00    -0.354 N 
ATOM     53  N   UNL A   1      41.487  29.574  33.677  1.00  0.00    -0.248 NA
ATOM     54  C   UNL A   1      41.634  30.226  35.914  1.00  0.00     0.031 C 
ATOM     55  C   UNL A   1      44.274  26.688  31.733  1.00  0.00     0.029 A 
ATOM     56  C   UNL A   1      43.405  27.568  32.360  1.00  0.00     0.049 A 
ATOM     57  H   UNL A   1      41.703  28.534  31.573  1.00  0.00     0.167 HD
ATOM     58  C   UNL A   1      42.575  28.941  34.261  1.00  0.00     0.074 A 
ATOM     59  C   UNL A   1      42.639  29.409  35.631  1.00  0.00     0.031 C 
ATOM     60  C   UNL A   1      43.442  28.049  33.719  1.00  0.00     0.037 A 
BRANCH  47  61
ATOM     61  C   UNL A   1      42.277  26.573  27.825  1.00  0.00     0.064 A 
ATOM     62  C   UNL A   1      43.227  27.021  26.893  1.00  0.00     0.173 A 
ATOM     63  C   UNL A   1      41.699  25.311  27.610  1.00  0.00     0.173 A 
ATOM     64  F   UNL A   1      43.800  28.225  27.039  1.00  0.00    -0.203 F 
ATOM     65  C   UNL A   1      43.561  26.251  25.780  1.00  0.00     0.198 A 
ATOM     66  C   UNL A   1      42.060  24.530  26.516  1.00  0.00     0.198 A 
ATOM     67  F   UNL A   1      40.788  24.831  28.470  1.00  0.00    -0.203 F 
ATOM     68  F   UNL A   1      44.433  26.721  24.879  1.00  0.00    -0.200 F 
ATOM     69  C   UNL A   1      42.985  25.002  25.599  1.00  0.00     0.200 A 
ATOM     70  F   UNL A   1      41.512  23.318  26.350  1.00  0.00    -0.200 F 
ATOM     71  F   UNL A   1      43.315  24.259  24.534  1.00  0.00    -0.200 F 
ENDBRANCH  47  61
BRANCH  48  72
ATOM     72  C   UNL A   1      39.316  32.029  35.717  1.00  0.00     0.064 A 
ATOM     73  C   UNL A   1      38.401  31.506  36.641  1.00  0.00     0.173 A 
ATOM     74  C   UNL A   1      39.794  33.330  35.940  1.00  0.00     0.173 A 
ATOM     75  F   UNL A   1      37.899  30.275  36.464  1.00  0.00    -0.203 F 
ATOM     76  C   UNL A   1      37.970  32.259  37.732  1.00  0.00     0.198 A 
ATOM     77  C   UNL A   1      39.388  34.068  37.049  1.00  0.00     0.198 A 
ATOM     78  F   UNL A   1      40.671  33.880  35.087  1.00  0.00    -0.203 F 
ATOM     79  F   UNL A   1      37.060  31.751  38.575  1.00  0.00    -0.200 F 
ATOM     80  C   UNL A   1      38.469  33.536  37.939  1.00  0.00     0.200 A 
ATOM     81  F   UNL A   1      39.889  35.294  37.254  1.00  0.00    -0.200 F 
ATOM     82  F   UNL A   1      38.061  34.256  38.993  1.00  0.00    -0.200 F 
ENDBRANCH  48  72
BRANCH  60  83
ATOM     83  C   UNL A   1      44.543  27.541  34.604  1.00  0.00     0.064 A 
ATOM     84  C   UNL A   1      45.746  28.246  34.760  1.00  0.00     0.173 A 
ATOM     85  C   UNL A   1      44.376  26.356  35.337  1.00  0.00     0.173 A 
ATOM     86  F   UNL A   1      45.961  29.376  34.070  1.00  0.00    -0.203 F 
ATOM     87  C   UNL A   1      46.753  27.766  35.593  1.00  0.00     0.198 A 
ATOM     88  C   UNL A   1      45.370  25.900  36.198  1.00  0.00     0.198 A 
ATOM     89  F   UNL A   1      43.241  25.649  35.232  1.00  0.00    -0.203 F 
ATOM     90  F   UNL A   1      47.915  28.427  35.683  1.00  0.00    -0.200 F 
ATOM     91  C   UNL A   1      46.560  26.600  36.318  1.00  0.00     0.200 A 
ATOM     92  F   UNL A   1      45.173  24.782  36.912  1.00  0.00    -0.200 F 
ATOM     93  F   UNL A   1      47.527  26.146  37.128  1.00  0.00    -0.200 F 
ENDBRANCH  60  83
ENDBRANCH  34  35
ENDBRANCH  27  29
ENDBRANCH  26  27
ENDBRANCH  25  26
ENDBRANCH  24  25
ENDBRANCH   1  24
TORSDOF 16
ENDMDL
