MODEL 1
REMARK VINA RESULT:     -11.8      0.000      0.000
REMARK SMILES O=C(OCCOCCOC(=O)[C@@]1(Cc2cn3ccccc3n2)CCC[NH2+]C1)c1ccc(-c2c3nc(c(-c4c(F)c(F)c(F)c(F)c4F)c4ccc([nH]4)c(-c4c(F)c(F)c(F)c(F)c4F)c4nc(c(-c5c(F)c(F)c(F)c(F)c5F)c5ccc2[nH]5)C=C4)C=C3)cc1
REMARK SMILES IDX 6 1 5 2 4 3 3 4 2 5 1 6 28 7 29 8 90 9 30 10 89 11 31 12
REMARK SMILES IDX 32 13 33 14 83 15 34 16 88 17 82 18 84 19 35 20 87 21 81 22
REMARK SMILES IDX 80 23 36 25 68 26 48 27 67 28 49 29 52 30 66 31 85 32 50 33
REMARK SMILES IDX 51 34 65 36 86 37 53 38 37 39 38 40 46 41 39 42 40 43 44 44
REMARK SMILES IDX 47 45 41 46 42 47 45 48 43 49 69 50 70 51 78 52 71 53 72 54
REMARK SMILES IDX 76 55 79 56 73 57 74 58 77 59 75 60 54 61 55 62 63 63 56 64
REMARK SMILES IDX 57 65 61 66 64 67 58 68 59 69 62 70 60 71 7 72 8 73 9 74
REMARK SMILES IDX 10 75 11 76 12 77 23 78 27 79 24 80 26 81 25 82 13 85 14 86
REMARK SMILES IDX 15 87 22 88 16 89 21 90 17 91 20 92 18 93 19 94
REMARK H PARENT 84 24 52 35 26 83 26 84
REMARK Flexibility Score: inf
ROOT
ATOM      1  O   UNL A   1      31.749  30.589  27.058  1.00  0.00    -0.374 OA
ENDROOT
BRANCH   1   2
ATOM      2  C   UNL A   1      31.410  31.942  26.757  1.00  0.00     0.202 C 
BRANCH   2   3
ATOM      3  C   UNL A   1      32.544  32.964  26.867  1.00  0.00     0.261 C 
BRANCH   3   4
ATOM      4  O   UNL A   1      32.191  33.995  27.802  1.00  0.00    -0.460 OA
BRANCH   4   5
ATOM      5  C   UNL A   1      32.995  34.576  28.726  1.00  0.00     0.338 C 
ATOM      6  O   UNL A   1      32.679  35.655  29.215  1.00  0.00    -0.246 OA
BRANCH   5   7
ATOM      7  C   UNL A   1      34.226  33.905  29.224  1.00  0.00     0.060 A 
ATOM      8  C   UNL A   1      34.209  32.742  29.985  1.00  0.00     0.016 A 
ATOM      9  C   UNL A   1      35.471  34.443  28.869  1.00  0.00     0.016 A 
ATOM     10  C   UNL A   1      35.356  32.191  30.499  1.00  0.00     0.010 A 
ATOM     11  C   UNL A   1      36.655  33.834  29.303  1.00  0.00     0.010 A 
ATOM     12  C   UNL A   1      36.588  32.709  30.134  1.00  0.00    -0.014 A 
BRANCH  12  13
ATOM     13  C   UNL A   1      37.748  32.051  30.747  1.00  0.00     0.031 A 
ATOM     14  C   UNL A   1      38.002  32.276  32.200  1.00  0.00     0.074 A 
ATOM     15  C   UNL A   1      38.369  31.079  30.049  1.00  0.00     0.049 A 
ATOM     16  N   UNL A   1      38.950  31.793  32.953  1.00  0.00    -0.248 NA
ATOM     17  C   UNL A   1      37.046  33.144  32.911  1.00  0.00     0.031 C 
ATOM     18  C   UNL A   1      38.033  30.684  28.674  1.00  0.00     0.029 A 
ATOM     19  N   UNL A   1      39.342  30.192  30.416  1.00  0.00    -0.354 N 
ATOM     20  C   UNL A   1      38.729  32.328  34.213  1.00  0.00     0.074 A 
ATOM     21  C   UNL A   1      37.554  33.163  34.133  1.00  0.00     0.031 C 
ATOM     22  C   UNL A   1      38.744  29.598  28.341  1.00  0.00     0.029 A 
ATOM     23  C   UNL A   1      39.662  29.294  29.428  1.00  0.00     0.049 A 
ATOM     24  H   UNL A   1      39.771  30.197  31.302  1.00  0.00     0.167 HD
ATOM     25  C   UNL A   1      39.471  32.138  35.327  1.00  0.00     0.037 A 
ATOM     26  C   UNL A   1      40.633  28.363  29.398  1.00  0.00     0.037 A 
ATOM     27  C   UNL A   1      40.630  31.288  35.353  1.00  0.00     0.049 A 
ATOM     28  C   UNL A   1      41.506  28.252  30.616  1.00  0.00     0.074 A 
ATOM     29  C   UNL A   1      41.550  31.100  36.365  1.00  0.00     0.029 A 
ATOM     30  N   UNL A   1      41.015  30.468  34.299  1.00  0.00    -0.354 N 
ATOM     31  N   UNL A   1      41.396  28.872  31.768  1.00  0.00    -0.248 NA
ATOM     32  C   UNL A   1      42.652  27.344  30.527  1.00  0.00     0.031 C 
ATOM     33  C   UNL A   1      42.510  30.189  35.910  1.00  0.00     0.029 A 
ATOM     34  C   UNL A   1      42.162  29.774  34.631  1.00  0.00     0.049 A 
ATOM     35  H   UNL A   1      40.538  30.392  33.440  1.00  0.00     0.167 HD
ATOM     36  C   UNL A   1      42.460  28.436  32.540  1.00  0.00     0.074 A 
ATOM     37  C   UNL A   1      43.177  27.463  31.737  1.00  0.00     0.031 C 
ATOM     38  C   UNL A   1      42.831  28.814  33.789  1.00  0.00     0.037 A 
BRANCH  25  39
ATOM     39  C   UNL A   1      39.092  32.928  36.541  1.00  0.00     0.064 A 
ATOM     40  C   UNL A   1      39.580  34.222  36.771  1.00  0.00     0.173 A 
ATOM     41  C   UNL A   1      38.258  32.358  37.515  1.00  0.00     0.173 A 
ATOM     42  F   UNL A   1      40.413  34.796  35.889  1.00  0.00    -0.203 F 
ATOM     43  C   UNL A   1      39.264  34.909  37.942  1.00  0.00     0.198 A 
ATOM     44  C   UNL A   1      37.926  33.055  38.673  1.00  0.00     0.198 A 
ATOM     45  F   UNL A   1      37.779  31.116  37.351  1.00  0.00    -0.203 F 
ATOM     46  F   UNL A   1      39.786  36.123  38.167  1.00  0.00    -0.200 F 
ATOM     47  C   UNL A   1      38.434  34.327  38.889  1.00  0.00     0.200 A 
ATOM     48  F   UNL A   1      37.126  32.489  39.588  1.00  0.00    -0.200 F 
ATOM     49  F   UNL A   1      38.138  34.985  40.018  1.00  0.00    -0.200 F 
ENDBRANCH  25  39
BRANCH  26  50
ATOM     50  C   UNL A   1      40.889  27.567  28.166  1.00  0.00     0.064 A 
ATOM     51  C   UNL A   1      40.357  26.283  27.995  1.00  0.00     0.173 A 
ATOM     52  C   UNL A   1      41.708  28.068  27.139  1.00  0.00     0.173 A 
ATOM     53  F   UNL A   1      39.585  25.744  28.950  1.00  0.00    -0.203 F 
ATOM     54  C   UNL A   1      40.651  25.524  26.861  1.00  0.00     0.198 A 
ATOM     55  C   UNL A   1      41.971  27.325  25.990  1.00  0.00     0.198 A 
ATOM     56  F   UNL A   1      42.254  29.289  27.247  1.00  0.00    -0.203 F 
ATOM     57  F   UNL A   1      40.177  24.275  26.752  1.00  0.00    -0.200 F 
ATOM     58  C   UNL A   1      41.453  26.048  25.858  1.00  0.00     0.200 A 
ATOM     59  F   UNL A   1      42.733  27.846  25.018  1.00  0.00    -0.200 F 
ATOM     60  F   UNL A   1      41.738  25.318  24.771  1.00  0.00    -0.200 F 
ENDBRANCH  26  50
BRANCH  38  61
ATOM     61  C   UNL A   1      44.052  28.149  34.344  1.00  0.00     0.064 A 
ATOM     62  C   UNL A   1      45.318  28.740  34.232  1.00  0.00     0.173 A 
ATOM     63  C   UNL A   1      43.946  26.922  35.012  1.00  0.00     0.173 A 
ATOM     64  F   UNL A   1      45.466  29.905  33.583  1.00  0.00    -0.203 F 
ATOM     65  C   UNL A   1      46.444  28.106  34.745  1.00  0.00     0.198 A 
ATOM     66  C   UNL A   1      45.070  26.308  35.550  1.00  0.00     0.198 A 
ATOM     67  F   UNL A   1      42.752  26.325  35.146  1.00  0.00    -0.203 F 
ATOM     68  F   UNL A   1      47.654  28.659  34.579  1.00  0.00    -0.200 F 
ATOM     69  C   UNL A   1      46.318  26.895  35.409  1.00  0.00     0.200 A 
ATOM     70  F   UNL A   1      44.946  25.143  36.202  1.00  0.00    -0.200 F 
ATOM     71  F   UNL A   1      47.404  26.286  35.905  1.00  0.00    -0.200 F 
ENDBRANCH  38  61
ENDBRANCH  12  13
ENDBRANCH   5   7
ENDBRANCH   4   5
ENDBRANCH   3   4
ENDBRANCH   2   3
ENDBRANCH   1   2
BRANCH   1  72
ATOM     72  C   UNL A   1      33.146  30.311  27.131  1.00  0.00     0.202 C 
BRANCH  72  73
ATOM     73  C   UNL A   1      33.398  28.833  27.431  1.00  0.00     0.261 C 
BRANCH  73  74
ATOM     74  O   UNL A   1      33.000  28.018  26.313  1.00  0.00    -0.463 OA
BRANCH  74  75
ATOM     75  C   UNL A   1      31.909  27.228  26.534  1.00  0.00     0.318 C 
ATOM     76  O   UNL A   1      31.105  27.414  27.444  1.00  0.00    -0.251 OA
BRANCH  75  77
ATOM     77  C   UNL A   1      31.816  26.070  25.529  1.00  0.00     0.122 C 
ATOM     78  C   UNL A   1      32.963  25.093  25.857  1.00  0.00     0.031 C 
ATOM     79  C   UNL A   1      30.439  25.401  25.790  1.00  0.00     0.279 C 
ATOM     80  C   UNL A   1      32.719  23.666  25.369  1.00  0.00     0.063 C 
ATOM     81  N   UNL A   1      30.283  24.078  25.183  1.00  0.00    -0.345 N 
ATOM     82  C   UNL A   1      31.312  23.167  25.681  1.00  0.00     0.260 C 
ATOM     83  H   UNL A   1      29.363  23.707  25.418  1.00  0.00     0.346 HD
ATOM     84  H   UNL A   1      30.377  24.164  24.171  1.00  0.00     0.346 HD
BRANCH  77  85
ATOM     85  C   UNL A   1      31.905  26.656  24.096  1.00  0.00     0.082 C 
BRANCH  85  86
ATOM     86  C   UNL A   1      30.953  27.721  23.707  1.00  0.00     0.061 A 
ATOM     87  C   UNL A   1      31.121  29.087  23.791  1.00  0.00     0.116 A 
ATOM     88  N   UNL A   1      29.726  27.410  23.172  1.00  0.00    -0.234 NA
ATOM     89  N   UNL A   1      29.884  29.609  23.543  1.00  0.00    -0.307 N 
ATOM     90  C   UNL A   1      29.084  28.558  23.109  1.00  0.00     0.136 A 
ATOM     91  C   UNL A   1      29.423  30.907  23.734  1.00  0.00     0.093 A 
ATOM     92  C   UNL A   1      27.738  28.867  22.777  1.00  0.00     0.048 A 
ATOM     93  C   UNL A   1      28.132  31.180  23.481  1.00  0.00     0.018 A 
ATOM     94  C   UNL A   1      27.276  30.119  22.970  1.00  0.00     0.005 A 
ENDBRANCH  85  86
ENDBRANCH  77  85
ENDBRANCH  75  77
ENDBRANCH  74  75
ENDBRANCH  73  74
ENDBRANCH  72  73
ENDBRANCH   1  72
TORSDOF 16
ENDMDL
MODEL 2
REMARK VINA RESULT:     -11.6      0.716      7.525
REMARK SMILES O=C(OCCOCCOC(=O)[C@@]1(Cc2cn3ccccc3n2)CCC[NH2+]C1)c1ccc(-c2c3nc(c(-c4c(F)c(F)c(F)c(F)c4F)c4ccc([nH]4)c(-c4c(F)c(F)c(F)c(F)c4F)c4nc(c(-c5c(F)c(F)c(F)c(F)c5F)c5ccc2[nH]5)C=C4)C=C3)cc1
REMARK SMILES IDX 6 1 5 2 4 3 3 4 2 5 1 6 28 7 29 8 90 9 30 10 89 11 31 12
REMARK SMILES IDX 32 13 33 14 83 15 34 16 88 17 82 18 84 19 35 20 87 21 81 22
REMARK SMILES IDX 80 23 36 25 68 26 48 27 67 28 49 29 52 30 66 31 85 32 50 33
REMARK SMILES IDX 51 34 65 36 86 37 53 38 37 39 38 40 46 41 39 42 40 43 44 44
REMARK SMILES IDX 47 45 41 46 42 47 45 48 43 49 69 50 70 51 78 52 71 53 72 54
REMARK SMILES IDX 76 55 79 56 73 57 74 58 77 59 75 60 54 61 55 62 63 63 56 64
REMARK SMILES IDX 57 65 61 66 64 67 58 68 59 69 62 70 60 71 7 72 8 73 9 74
REMARK SMILES IDX 10 75 11 76 12 77 23 78 27 79 24 80 26 81 25 82 13 85 14 86
REMARK SMILES IDX 15 87 22 88 16 89 21 90 17 91 20 92 18 93 19 94
REMARK H PARENT 84 24 52 35 26 83 26 84
REMARK Flexibility Score: inf
ROOT
ATOM      1  O   UNL A   1      31.649  30.733  26.759  1.00  0.00    -0.374 OA
ENDROOT
BRANCH   1   2
ATOM      2  C   UNL A   1      31.400  32.134  26.881  1.00  0.00     0.202 C 
BRANCH   2   3
ATOM      3  C   UNL A   1      32.631  33.028  27.040  1.00  0.00     0.261 C 
BRANCH   3   4
ATOM      4  O   UNL A   1      32.296  34.198  27.804  1.00  0.00    -0.460 OA
BRANCH   4   5
ATOM      5  C   UNL A   1      33.008  34.747  28.818  1.00  0.00     0.338 C 
ATOM      6  O   UNL A   1      32.655  35.818  29.299  1.00  0.00    -0.246 OA
BRANCH   5   7
ATOM      7  C   UNL A   1      34.176  34.050  29.422  1.00  0.00     0.060 A 
ATOM      8  C   UNL A   1      34.057  32.981  30.302  1.00  0.00     0.016 A 
ATOM      9  C   UNL A   1      35.464  34.458  29.049  1.00  0.00     0.016 A 
ATOM     10  C   UNL A   1      35.149  32.410  30.906  1.00  0.00     0.010 A 
ATOM     11  C   UNL A   1      36.590  33.818  29.580  1.00  0.00     0.010 A 
ATOM     12  C   UNL A   1      36.423  32.798  30.525  1.00  0.00    -0.014 A 
BRANCH  12  13
ATOM     13  C   UNL A   1      37.518  32.130  31.239  1.00  0.00     0.031 A 
ATOM     14  C   UNL A   1      38.352  31.144  30.492  1.00  0.00     0.074 A 
ATOM     15  C   UNL A   1      37.886  32.621  32.439  1.00  0.00     0.049 A 
ATOM     16  N   UNL A   1      39.372  30.448  30.907  1.00  0.00    -0.248 NA
ATOM     17  C   UNL A   1      38.009  30.929  29.074  1.00  0.00     0.031 C 
ATOM     18  C   UNL A   1      37.212  33.723  33.140  1.00  0.00     0.029 A 
ATOM     19  N   UNL A   1      38.953  32.327  33.241  1.00  0.00    -0.354 N 
ATOM     20  C   UNL A   1      39.766  29.683  29.819  1.00  0.00     0.074 A 
ATOM     21  C   UNL A   1      38.889  30.006  28.719  1.00  0.00     0.031 C 
ATOM     22  C   UNL A   1      37.919  34.050  34.231  1.00  0.00     0.029 A 
ATOM     23  C   UNL A   1      39.022  33.109  34.368  1.00  0.00     0.049 A 
ATOM     24  H   UNL A   1      39.608  31.622  33.031  1.00  0.00     0.167 HD
ATOM     25  C   UNL A   1      40.771  28.780  29.772  1.00  0.00     0.037 A 
ATOM     26  C   UNL A   1      39.860  33.030  35.416  1.00  0.00     0.037 A 
ATOM     27  C   UNL A   1      41.621  28.503  30.896  1.00  0.00     0.049 A 
ATOM     28  C   UNL A   1      40.899  31.945  35.375  1.00  0.00     0.074 A 
ATOM     29  C   UNL A   1      42.589  27.529  31.038  1.00  0.00     0.029 A 
ATOM     30  N   UNL A   1      41.601  29.229  32.082  1.00  0.00    -0.354 N 
ATOM     31  N   UNL A   1      41.180  31.109  34.402  1.00  0.00    -0.248 NA
ATOM     32  C   UNL A   1      41.714  31.764  36.579  1.00  0.00     0.031 C 
ATOM     33  C   UNL A   1      43.133  27.646  32.323  1.00  0.00     0.029 A 
ATOM     34  C   UNL A   1      42.536  28.723  32.965  1.00  0.00     0.049 A 
ATOM     35  H   UNL A   1      41.006  29.993  32.266  1.00  0.00     0.167 HD
ATOM     36  C   UNL A   1      42.199  30.299  34.876  1.00  0.00     0.074 A 
ATOM     37  C   UNL A   1      42.516  30.776  36.209  1.00  0.00     0.031 C 
ATOM     38  C   UNL A   1      42.808  29.243  34.281  1.00  0.00     0.037 A 
BRANCH  25  39
ATOM     39  C   UNL A   1      40.919  27.993  28.506  1.00  0.00     0.064 A 
ATOM     40  C   UNL A   1      40.250  26.779  28.301  1.00  0.00     0.173 A 
ATOM     41  C   UNL A   1      41.785  28.445  27.498  1.00  0.00     0.173 A 
ATOM     42  F   UNL A   1      39.442  26.283  29.251  1.00  0.00    -0.203 F 
ATOM     43  C   UNL A   1      40.459  26.033  27.142  1.00  0.00     0.198 A 
ATOM     44  C   UNL A   1      41.973  27.710  26.331  1.00  0.00     0.198 A 
ATOM     45  F   UNL A   1      42.462  29.592  27.653  1.00  0.00    -0.203 F 
ATOM     46  F   UNL A   1      39.851  24.847  26.990  1.00  0.00    -0.200 F 
ATOM     47  C   UNL A   1      41.316  26.502  26.156  1.00  0.00     0.200 A 
ATOM     48  F   UNL A   1      42.804  28.163  25.382  1.00  0.00    -0.200 F 
ATOM     49  F   UNL A   1      41.521  25.780  25.046  1.00  0.00    -0.200 F 
ENDBRANCH  25  39
BRANCH  26  50
ATOM     50  C   UNL A   1      39.682  33.910  36.604  1.00  0.00     0.064 A 
ATOM     51  C   UNL A   1      40.325  35.150  36.704  1.00  0.00     0.173 A 
ATOM     52  C   UNL A   1      38.883  33.507  37.688  1.00  0.00     0.173 A 
ATOM     53  F   UNL A   1      41.117  35.578  35.711  1.00  0.00    -0.203 F 
ATOM     54  C   UNL A   1      40.196  35.940  37.848  1.00  0.00     0.198 A 
ATOM     55  C   UNL A   1      38.724  34.314  38.813  1.00  0.00     0.198 A 
ATOM     56  F   UNL A   1      38.247  32.327  37.656  1.00  0.00    -0.203 F 
ATOM     57  F   UNL A   1      40.870  37.094  37.942  1.00  0.00    -0.200 F 
ATOM     58  C   UNL A   1      39.391  35.524  38.898  1.00  0.00     0.200 A 
ATOM     59  F   UNL A   1      37.931  33.911  39.816  1.00  0.00    -0.200 F 
ATOM     60  F   UNL A   1      39.270  36.281  39.997  1.00  0.00    -0.200 F 
ENDBRANCH  26  50
BRANCH  38  61
ATOM     61  C   UNL A   1      43.881  28.566  35.076  1.00  0.00     0.064 A 
ATOM     62  C   UNL A   1      43.586  27.504  35.942  1.00  0.00     0.173 A 
ATOM     63  C   UNL A   1      45.216  28.974  34.950  1.00  0.00     0.173 A 
ATOM     64  F   UNL A   1      42.318  27.097  36.106  1.00  0.00    -0.203 F 
ATOM     65  C   UNL A   1      44.592  26.892  36.681  1.00  0.00     0.198 A 
ATOM     66  C   UNL A   1      46.222  28.337  35.667  1.00  0.00     0.198 A 
ATOM     67  F   UNL A   1      45.542  29.982  34.128  1.00  0.00    -0.203 F 
ATOM     68  F   UNL A   1      44.284  25.916  37.546  1.00  0.00    -0.200 F 
ATOM     69  C   UNL A   1      45.908  27.304  36.538  1.00  0.00     0.200 A 
ATOM     70  F   UNL A   1      47.495  28.728  35.520  1.00  0.00    -0.200 F 
ATOM     71  F   UNL A   1      46.877  26.711  37.248  1.00  0.00    -0.200 F 
ENDBRANCH  38  61
ENDBRANCH  12  13
ENDBRANCH   5   7
ENDBRANCH   4   5
ENDBRANCH   3   4
ENDBRANCH   2   3
ENDBRANCH   1   2
BRANCH   1  72
ATOM     72  C   UNL A   1      33.026  30.357  26.755  1.00  0.00     0.202 C 
BRANCH  72  73
ATOM     73  C   UNL A   1      33.232  29.025  27.477  1.00  0.00     0.261 C 
BRANCH  73  74
ATOM     74  O   UNL A   1      33.093  27.927  26.555  1.00  0.00    -0.463 OA
BRANCH  74  75
ATOM     75  C   UNL A   1      31.940  27.208  26.685  1.00  0.00     0.318 C 
ATOM     76  O   UNL A   1      31.072  27.454  27.519  1.00  0.00    -0.251 OA
BRANCH  75  77
ATOM     77  C   UNL A   1      31.864  26.046  25.683  1.00  0.00     0.122 C 
ATOM     78  C   UNL A   1      32.997  25.065  26.043  1.00  0.00     0.031 C 
ATOM     79  C   UNL A   1      30.478  25.385  25.916  1.00  0.00     0.279 C 
ATOM     80  C   UNL A   1      32.758  23.637  25.556  1.00  0.00     0.063 C 
ATOM     81  N   UNL A   1      30.329  24.060  25.312  1.00  0.00    -0.345 N 
ATOM     82  C   UNL A   1      31.342  23.147  25.838  1.00  0.00     0.260 C 
ATOM     83  H   UNL A   1      29.401  23.695  25.528  1.00  0.00     0.346 HD
ATOM     84  H   UNL A   1      30.447  24.140  24.303  1.00  0.00     0.346 HD
BRANCH  77  85
ATOM     85  C   UNL A   1      31.989  26.624  24.250  1.00  0.00     0.082 C 
BRANCH  85  86
ATOM     86  C   UNL A   1      31.018  27.655  23.817  1.00  0.00     0.061 A 
ATOM     87  C   UNL A   1      31.169  29.025  23.828  1.00  0.00     0.116 A 
ATOM     88  N   UNL A   1      29.790  27.301  23.312  1.00  0.00    -0.234 NA
ATOM     89  N   UNL A   1      29.922  29.518  23.567  1.00  0.00    -0.307 N 
ATOM     90  C   UNL A   1      29.133  28.436  23.196  1.00  0.00     0.136 A 
ATOM     91  C   UNL A   1      29.446  30.818  23.695  1.00  0.00     0.093 A 
ATOM     92  C   UNL A   1      27.779  28.710  22.863  1.00  0.00     0.048 A 
ATOM     93  C   UNL A   1      28.149  31.062  23.443  1.00  0.00     0.018 A 
ATOM     94  C   UNL A   1      27.302  29.964  22.995  1.00  0.00     0.005 A 
ENDBRANCH  85  86
ENDBRANCH  77  85
ENDBRANCH  75  77
ENDBRANCH  74  75
ENDBRANCH  73  74
ENDBRANCH  72  73
ENDBRANCH   1  72
TORSDOF 16
ENDMDL
MODEL 3
REMARK VINA RESULT:     -11.6      2.433      8.564
REMARK SMILES O=C(OCCOCCOC(=O)[C@@]1(Cc2cn3ccccc3n2)CCC[NH2+]C1)c1ccc(-c2c3nc(c(-c4c(F)c(F)c(F)c(F)c4F)c4ccc([nH]4)c(-c4c(F)c(F)c(F)c(F)c4F)c4nc(c(-c5c(F)c(F)c(F)c(F)c5F)c5ccc2[nH]5)C=C4)C=C3)cc1
REMARK SMILES IDX 6 1 5 2 4 3 3 4 2 5 1 6 28 7 29 8 90 9 30 10 89 11 31 12
REMARK SMILES IDX 32 13 33 14 83 15 34 16 88 17 82 18 84 19 35 20 87 21 81 22
REMARK SMILES IDX 80 23 36 25 68 26 48 27 67 28 49 29 52 30 66 31 85 32 50 33
REMARK SMILES IDX 51 34 65 36 86 37 53 38 37 39 38 40 46 41 39 42 40 43 44 44
REMARK SMILES IDX 47 45 41 46 42 47 45 48 43 49 69 50 70 51 78 52 71 53 72 54
REMARK SMILES IDX 76 55 79 56 73 57 74 58 77 59 75 60 54 61 55 62 63 63 56 64
REMARK SMILES IDX 57 65 61 66 64 67 58 68 59 69 62 70 60 71 7 72 8 73 9 74
REMARK SMILES IDX 10 75 11 76 12 77 23 78 27 79 24 80 26 81 25 82 13 85 14 86
REMARK SMILES IDX 15 87 22 88 16 89 21 90 17 91 20 92 18 93 19 94
REMARK H PARENT 84 24 52 35 26 83 26 84
REMARK Flexibility Score: inf
ROOT
ATOM      1  O   UNL A   1      30.619  28.041  24.428  1.00  0.00    -0.374 OA
ENDROOT
BRANCH   1   2
ATOM      2  C   UNL A   1      31.370  29.249  24.557  1.00  0.00     0.202 C 
BRANCH   2   3
ATOM      3  C   UNL A   1      31.804  29.628  25.974  1.00  0.00     0.261 C 
BRANCH   3   4
ATOM      4  O   UNL A   1      32.902  30.554  25.923  1.00  0.00    -0.460 OA
BRANCH   4   5
ATOM      5  C   UNL A   1      33.371  31.326  26.934  1.00  0.00     0.338 C 
ATOM      6  O   UNL A   1      32.747  32.324  27.275  1.00  0.00    -0.246 OA
BRANCH   5   7
ATOM      7  C   UNL A   1      34.593  30.957  27.698  1.00  0.00     0.060 A 
ATOM      8  C   UNL A   1      34.873  29.662  28.116  1.00  0.00     0.016 A 
ATOM      9  C   UNL A   1      35.537  31.957  27.972  1.00  0.00     0.016 A 
ATOM     10  C   UNL A   1      35.967  29.366  28.888  1.00  0.00     0.010 A 
ATOM     11  C   UNL A   1      36.709  31.651  28.674  1.00  0.00     0.010 A 
ATOM     12  C   UNL A   1      36.911  30.348  29.144  1.00  0.00    -0.014 A 
BRANCH  12  13
ATOM     13  C   UNL A   1      38.036  29.927  29.988  1.00  0.00     0.031 A 
ATOM     14  C   UNL A   1      39.137  29.141  29.357  1.00  0.00     0.074 A 
ATOM     15  C   UNL A   1      38.158  30.484  31.209  1.00  0.00     0.049 A 
ATOM     16  N   UNL A   1      40.228  28.676  29.896  1.00  0.00    -0.248 NA
ATOM     17  C   UNL A   1      39.006  28.859  27.916  1.00  0.00     0.031 C 
ATOM     18  C   UNL A   1      37.193  31.417  31.808  1.00  0.00     0.029 A 
ATOM     19  N   UNL A   1      39.167  30.421  32.128  1.00  0.00    -0.354 N 
ATOM     20  C   UNL A   1      40.892  28.013  28.875  1.00  0.00     0.074 A 
ATOM     21  C   UNL A   1      40.094  28.144  27.679  1.00  0.00     0.031 C 
ATOM     22  C   UNL A   1      37.690  31.885  32.962  1.00  0.00     0.029 A 
ATOM     23  C   UNL A   1      38.944  31.199  33.238  1.00  0.00     0.049 A 
ATOM     24  H   UNL A   1      39.975  29.871  32.006  1.00  0.00     0.167 HD
ATOM     25  C   UNL A   1      42.064  27.344  28.956  1.00  0.00     0.037 A 
ATOM     26  C   UNL A   1      39.660  31.298  34.373  1.00  0.00     0.037 A 
ATOM     27  C   UNL A   1      42.824  27.252  30.173  1.00  0.00     0.049 A 
ATOM     28  C   UNL A   1      40.902  30.458  34.468  1.00  0.00     0.074 A 
ATOM     29  C   UNL A   1      43.953  26.505  30.440  1.00  0.00     0.029 A 
ATOM     30  N   UNL A   1      42.520  27.956  31.332  1.00  0.00    -0.354 N 
ATOM     31  N   UNL A   1      41.459  29.702  33.550  1.00  0.00    -0.248 NA
ATOM     32  C   UNL A   1      41.598  30.454  35.757  1.00  0.00     0.031 C 
ATOM     33  C   UNL A   1      44.315  26.734  31.773  1.00  0.00     0.029 A 
ATOM     34  C   UNL A   1      43.437  27.659  32.322  1.00  0.00     0.049 A 
ATOM     35  H   UNL A   1      41.761  28.576  31.433  1.00  0.00     0.167 HD
ATOM     36  C   UNL A   1      42.567  29.126  34.150  1.00  0.00     0.074 A 
ATOM     37  C   UNL A   1      42.626  29.658  35.499  1.00  0.00     0.031 C 
ATOM     38  C   UNL A   1      43.446  28.223  33.648  1.00  0.00     0.037 A 
BRANCH  25  39
ATOM     39  C   UNL A   1      42.513  26.607  27.733  1.00  0.00     0.064 A 
ATOM     40  C   UNL A   1      42.098  25.297  27.456  1.00  0.00     0.173 A 
ATOM     41  C   UNL A   1      43.415  27.212  26.843  1.00  0.00     0.173 A 
ATOM     42  F   UNL A   1      41.268  24.660  28.296  1.00  0.00    -0.203 F 
ATOM     43  C   UNL A   1      42.585  24.611  26.345  1.00  0.00     0.198 A 
ATOM     44  C   UNL A   1      43.882  26.532  25.722  1.00  0.00     0.198 A 
ATOM     45  F   UNL A   1      43.857  28.457  27.072  1.00  0.00    -0.203 F 
ATOM     46  F   UNL A   1      42.217  23.340  26.129  1.00  0.00    -0.200 F 
ATOM     47  C   UNL A   1      43.472  25.231  25.476  1.00  0.00     0.200 A 
ATOM     48  F   UNL A   1      44.741  27.132  24.886  1.00  0.00    -0.200 F 
ATOM     49  F   UNL A   1      43.945  24.567  24.413  1.00  0.00    -0.200 F 
ENDBRANCH  25  39
BRANCH  26  50
ATOM     50  C   UNL A   1      39.170  32.120  35.513  1.00  0.00     0.064 A 
ATOM     51  C   UNL A   1      39.529  33.465  35.660  1.00  0.00     0.173 A 
ATOM     52  C   UNL A   1      38.352  31.558  36.509  1.00  0.00     0.173 A 
ATOM     53  F   UNL A   1      40.325  34.050  34.753  1.00  0.00    -0.203 F 
ATOM     54  C   UNL A   1      39.110  34.208  36.765  1.00  0.00     0.198 A 
ATOM     55  C   UNL A   1      37.902  32.311  37.592  1.00  0.00     0.198 A 
ATOM     56  F   UNL A   1      37.979  30.272  36.430  1.00  0.00    -0.203 F 
ATOM     57  F   UNL A   1      39.518  35.477  36.910  1.00  0.00    -0.200 F 
ATOM     58  C   UNL A   1      38.294  33.632  37.726  1.00  0.00     0.200 A 
ATOM     59  F   UNL A   1      37.100  31.751  38.508  1.00  0.00    -0.200 F 
ATOM     60  F   UNL A   1      37.895  34.346  38.788  1.00  0.00    -0.200 F 
ENDBRANCH  26  50
BRANCH  38  61
ATOM     61  C   UNL A   1      44.543  27.789  34.570  1.00  0.00     0.064 A 
ATOM     62  C   UNL A   1      45.749  28.498  34.653  1.00  0.00     0.173 A 
ATOM     63  C   UNL A   1      44.372  26.666  35.390  1.00  0.00     0.173 A 
ATOM     64  F   UNL A   1      45.961  29.566  33.869  1.00  0.00    -0.203 F 
ATOM     65  C   UNL A   1      46.762  28.077  35.506  1.00  0.00     0.198 A 
ATOM     66  C   UNL A   1      45.375  26.268  36.266  1.00  0.00     0.198 A 
ATOM     67  F   UNL A   1      43.230  25.963  35.347  1.00  0.00    -0.203 F 
ATOM     68  F   UNL A   1      47.930  28.734  35.531  1.00  0.00    -0.200 F 
ATOM     69  C   UNL A   1      46.571  26.967  36.317  1.00  0.00     0.200 A 
ATOM     70  F   UNL A   1      45.186  25.202  37.056  1.00  0.00    -0.200 F 
ATOM     71  F   UNL A   1      47.547  26.564  37.141  1.00  0.00    -0.200 F 
ENDBRANCH  38  61
ENDBRANCH  12  13
ENDBRANCH   5   7
ENDBRANCH   4   5
ENDBRANCH   3   4
ENDBRANCH   2   3
ENDBRANCH   1   2
BRANCH   1  72
ATOM     72  C   UNL A   1      31.383  26.838  24.503  1.00  0.00     0.202 C 
BRANCH  72  73
ATOM     73  C   UNL A   1      31.367  26.094  23.167  1.00  0.00     0.261 C 
BRANCH  73  74
ATOM     74  O   UNL A   1      31.948  24.784  23.314  1.00  0.00    -0.463 OA
BRANCH  74  75
ATOM     75  C   UNL A   1      33.260  24.691  22.947  1.00  0.00     0.318 C 
ATOM     76  O   UNL A   1      33.733  25.247  21.960  1.00  0.00    -0.251 OA
BRANCH  75  77
ATOM     77  C   UNL A   1      34.067  23.794  23.898  1.00  0.00     0.122 C 
ATOM     78  C   UNL A   1      35.039  22.974  23.028  1.00  0.00     0.031 C 
ATOM     79  C   UNL A   1      34.850  24.765  24.823  1.00  0.00     0.279 C 
ATOM     80  C   UNL A   1      36.265  22.463  23.783  1.00  0.00     0.063 C 
ATOM     81  N   UNL A   1      35.935  24.139  25.578  1.00  0.00    -0.345 N 
ATOM     82  C   UNL A   1      36.902  23.531  24.666  1.00  0.00     0.260 C 
ATOM     83  H   UNL A   1      36.405  24.848  26.142  1.00  0.00     0.346 HD
ATOM     84  H   UNL A   1      35.547  23.414  26.181  1.00  0.00     0.346 HD
BRANCH  77  85
ATOM     85  C   UNL A   1      33.075  22.913  24.700  1.00  0.00     0.082 C 
BRANCH  85  86
ATOM     86  C   UNL A   1      33.145  21.443  24.540  1.00  0.00     0.061 A 
ATOM     87  C   UNL A   1      33.978  20.554  25.186  1.00  0.00     0.116 A 
ATOM     88  N   UNL A   1      32.307  20.786  23.671  1.00  0.00    -0.234 NA
ATOM     89  N   UNL A   1      33.821  19.374  24.517  1.00  0.00    -0.307 N 
ATOM     90  C   UNL A   1      32.749  19.546  23.648  1.00  0.00     0.136 A 
ATOM     91  C   UNL A   1      34.585  18.215  24.585  1.00  0.00     0.093 A 
ATOM     92  C   UNL A   1      32.387  18.432  22.843  1.00  0.00     0.048 A 
ATOM     93  C   UNL A   1      34.281  17.188  23.774  1.00  0.00     0.018 A 
ATOM     94  C   UNL A   1      33.129  17.308  22.890  1.00  0.00     0.005 A 
ENDBRANCH  85  86
ENDBRANCH  77  85
ENDBRANCH  75  77
ENDBRANCH  74  75
ENDBRANCH  73  74
ENDBRANCH  72  73
ENDBRANCH   1  72
TORSDOF 16
ENDMDL
