MODEL 1
REMARK VINA RESULT:     -12.0      0.000      0.000
REMARK SMILES Cc1ccc(S(=O)(=O)Nc2cc3c(cc2C(=O)OCCOCCOC(=O)c2ccc(-c4c5nc(c(-c6c(F)c(F)c(F)c(F)c6F)c6ccc([nH]6)c(-c6c(F)c(F)c(F)c(F)c6F)c6nc(c(-c7c(F)c(F)c(F)c(F)c7F)c7ccc4[nH]7)C=C6)C=C5)cc2)OCCO3)s1
REMARK SMILES IDX 20 1 19 2 18 3 16 4 17 5 15 6 10 7 11 8 12 9 14 10 13 11
REMARK SMILES IDX 93 12 90 13 92 14 91 15 9 16 6 18 7 19 8 20 5 21 1 22 2 23
REMARK SMILES IDX 3 24 94 25 4 26 21 27 22 28 23 29 24 30 25 31 26 32 27 33
REMARK SMILES IDX 28 34 89 35 29 36 88 37 30 38 31 39 32 40 82 41 33 42 87 43
REMARK SMILES IDX 81 44 83 45 34 46 86 47 80 48 79 49 35 51 67 52 47 53 66 54
REMARK SMILES IDX 48 55 51 56 65 57 84 58 49 59 50 60 64 62 85 63 52 64 36 65
REMARK SMILES IDX 37 66 45 67 38 68 39 69 43 70 46 71 40 72 41 73 44 74 42 75
REMARK SMILES IDX 68 76 69 77 77 78 70 79 71 80 75 81 78 82 72 83 73 84 76 85
REMARK SMILES IDX 74 86 53 87 54 88 62 89 55 90 56 91 60 92 63 93 57 94 58 95
REMARK SMILES IDX 61 96 59 97
REMARK H PARENT 9 17 83 50 51 61
REMARK Flexibility Score: inf
ROOT
ATOM      1  C   UNL A   1      31.415  28.048  26.724  1.00  0.00     0.202 C 
ENDROOT
BRANCH   1   2
ATOM      2  C   UNL A   1      31.546  26.524  26.701  1.00  0.00     0.261 C 
BRANCH   2   3
ATOM      3  O   UNL A   1      30.292  25.850  26.459  1.00  0.00    -0.460 OA
BRANCH   3   4
ATOM      4  C   UNL A   1      30.222  25.177  25.282  1.00  0.00     0.340 C 
ATOM      5  O   UNL A   1      30.312  23.969  25.123  1.00  0.00    -0.246 OA
BRANCH   4   6
ATOM      6  C   UNL A   1      30.049  26.090  24.136  1.00  0.00     0.088 A 
ATOM      7  C   UNL A   1      31.059  26.185  23.158  1.00  0.00     0.067 A 
ATOM      8  C   UNL A   1      31.126  27.330  22.364  1.00  0.00     0.078 A 
ATOM      9  C   UNL A   1      30.086  28.256  22.401  1.00  0.00     0.163 A 
ATOM     10  C   UNL A   1      28.977  26.989  24.137  1.00  0.00     0.068 A 
ATOM     11  C   UNL A   1      28.977  28.043  23.228  1.00  0.00     0.162 A 
ATOM     12  O   UNL A   1      30.204  29.335  21.564  1.00  0.00    -0.486 OA
ATOM     13  O   UNL A   1      27.877  28.862  23.220  1.00  0.00    -0.486 OA
ATOM     14  C   UNL A   1      29.244  30.350  21.882  1.00  0.00     0.271 C 
ATOM     15  C   UNL A   1      27.873  29.722  22.071  1.00  0.00     0.271 C 
BRANCH   7  16
ATOM     16  N   UNL A   1      32.012  25.127  23.006  1.00  0.00    -0.278 N 
ATOM     17  H   UNL A   1      31.710  24.205  22.837  1.00  0.00     0.180 HD
BRANCH  16  18
ATOM     18  S   UNL A   1      33.677  25.481  23.121  1.00  0.00     0.271 S 
ATOM     19  O   UNL A   1      33.786  26.492  24.148  1.00  0.00    -0.200 OA
ATOM     20  O   UNL A   1      34.191  25.703  21.787  1.00  0.00    -0.200 OA
BRANCH  18  21
ATOM     21  C   UNL A   1      34.537  24.023  23.712  1.00  0.00     0.140 A 
ATOM     22  C   UNL A   1      34.599  20.303  24.930  1.00  0.00     0.056 C 
ATOM     23  C   UNL A   1      34.863  21.710  24.514  1.00  0.00     0.003 A 
ATOM     24  C   UNL A   1      36.027  22.248  24.013  1.00  0.00     0.016 A 
ATOM     25  S   UNL A   1      33.633  22.898  24.638  1.00  0.00    -0.127 S 
ATOM     26  C   UNL A   1      35.849  23.597  23.592  1.00  0.00     0.034 A 
ENDBRANCH  18  21
ENDBRANCH  16  18
ENDBRANCH   7  16
ENDBRANCH   4   6
ENDBRANCH   3   4
ENDBRANCH   2   3
ENDBRANCH   1   2
BRANCH   1  27
ATOM     27  O   UNL A   1      31.977  28.789  25.646  1.00  0.00    -0.374 OA
BRANCH  27  28
ATOM     28  C   UNL A   1      31.457  30.077  25.363  1.00  0.00     0.202 C 
BRANCH  28  29
ATOM     29  C   UNL A   1      31.721  31.208  26.364  1.00  0.00     0.261 C 
BRANCH  29  30
ATOM     30  O   UNL A   1      32.825  31.027  27.246  1.00  0.00    -0.460 OA
BRANCH  30  31
ATOM     31  C   UNL A   1      33.528  32.151  27.506  1.00  0.00     0.338 C 
ATOM     32  O   UNL A   1      33.179  33.309  27.385  1.00  0.00    -0.246 OA
BRANCH  31  33
ATOM     33  C   UNL A   1      34.814  31.742  28.080  1.00  0.00     0.060 A 
ATOM     34  C   UNL A   1      34.943  30.420  28.505  1.00  0.00     0.016 A 
ATOM     35  C   UNL A   1      35.868  32.653  28.209  1.00  0.00     0.016 A 
ATOM     36  C   UNL A   1      36.134  30.005  29.087  1.00  0.00     0.010 A 
ATOM     37  C   UNL A   1      37.064  32.234  28.793  1.00  0.00     0.010 A 
ATOM     38  C   UNL A   1      37.192  30.913  29.250  1.00  0.00    -0.014 A 
BRANCH  38  39
ATOM     39  C   UNL A   1      38.411  30.455  29.949  1.00  0.00     0.031 A 
ATOM     40  C   UNL A   1      38.654  30.878  31.367  1.00  0.00     0.074 A 
ATOM     41  C   UNL A   1      39.245  29.605  29.326  1.00  0.00     0.049 A 
ATOM     42  N   UNL A   1      39.578  30.481  32.202  1.00  0.00    -0.248 NA
ATOM     43  C   UNL A   1      37.732  31.883  31.921  1.00  0.00     0.031 C 
ATOM     44  C   UNL A   1      39.093  29.144  27.946  1.00  0.00     0.029 A 
ATOM     45  N   UNL A   1      40.369  28.963  29.773  1.00  0.00    -0.354 N 
ATOM     46  C   UNL A   1      39.340  31.170  33.384  1.00  0.00     0.074 A 
ATOM     47  C   UNL A   1      38.211  32.044  33.146  1.00  0.00     0.031 C 
ATOM     48  C   UNL A   1      40.079  28.277  27.663  1.00  0.00     0.029 A 
ATOM     49  C   UNL A   1      40.935  28.132  28.838  1.00  0.00     0.049 A 
ATOM     50  H   UNL A   1      40.736  29.085  30.678  1.00  0.00     0.167 HD
ATOM     51  C   UNL A   1      40.000  31.066  34.561  1.00  0.00     0.037 A 
ATOM     52  C   UNL A   1      42.018  27.339  28.929  1.00  0.00     0.037 A 
ATOM     53  C   UNL A   1      41.128  30.196  34.775  1.00  0.00     0.049 A 
ATOM     54  C   UNL A   1      42.744  27.257  30.245  1.00  0.00     0.074 A 
ATOM     55  C   UNL A   1      41.862  29.996  35.930  1.00  0.00     0.029 A 
ATOM     56  N   UNL A   1      41.691  29.387  33.797  1.00  0.00    -0.354 N 
ATOM     57  N   UNL A   1      42.474  27.866  31.376  1.00  0.00    -0.248 NA
ATOM     58  C   UNL A   1      43.911  26.368  30.304  1.00  0.00     0.031 C 
ATOM     59  C   UNL A   1      42.897  29.102  35.639  1.00  0.00     0.029 A 
ATOM     60  C   UNL A   1      42.780  28.705  34.316  1.00  0.00     0.049 A 
ATOM     61  H   UNL A   1      41.364  29.309  32.871  1.00  0.00     0.167 HD
ATOM     62  C   UNL A   1      43.426  27.424  32.284  1.00  0.00     0.074 A 
ATOM     63  C   UNL A   1      44.262  26.474  31.577  1.00  0.00     0.031 C 
ATOM     64  C   UNL A   1      43.599  27.772  33.583  1.00  0.00     0.037 A 
BRANCH  51  65
ATOM     65  C   UNL A   1      39.530  31.924  35.700  1.00  0.00     0.064 A 
ATOM     66  C   UNL A   1      38.536  31.487  36.589  1.00  0.00     0.173 A 
ATOM     67  C   UNL A   1      40.105  33.183  35.927  1.00  0.00     0.173 A 
ATOM     68  F   UNL A   1      37.944  30.297  36.409  1.00  0.00    -0.203 F 
ATOM     69  C   UNL A   1      38.120  32.289  37.651  1.00  0.00     0.198 A 
ATOM     70  C   UNL A   1      39.706  33.971  37.004  1.00  0.00     0.198 A 
ATOM     71  F   UNL A   1      41.061  33.647  35.108  1.00  0.00    -0.203 F 
ATOM     72  F   UNL A   1      37.141  31.869  38.463  1.00  0.00    -0.200 F 
ATOM     73  C   UNL A   1      38.710  33.527  37.860  1.00  0.00     0.200 A 
ATOM     74  F   UNL A   1      40.282  35.163  37.210  1.00  0.00    -0.200 F 
ATOM     75  F   UNL A   1      38.314  34.294  38.885  1.00  0.00    -0.200 F 
ENDBRANCH  51  65
BRANCH  52  76
ATOM     76  C   UNL A   1      42.464  26.553  27.748  1.00  0.00     0.064 A 
ATOM     77  C   UNL A   1      41.937  25.284  27.476  1.00  0.00     0.173 A 
ATOM     78  C   UNL A   1      43.427  27.062  26.864  1.00  0.00     0.173 A 
ATOM     79  F   UNL A   1      41.026  24.745  28.300  1.00  0.00    -0.203 F 
ATOM     80  C   UNL A   1      42.369  24.545  26.374  1.00  0.00     0.198 A 
ATOM     81  C   UNL A   1      43.837  26.335  25.747  1.00  0.00     0.198 A 
ATOM     82  F   UNL A   1      43.960  28.274  27.076  1.00  0.00    -0.203 F 
ATOM     83  F   UNL A   1      41.879  23.316  26.161  1.00  0.00    -0.200 F 
ATOM     84  C   UNL A   1      43.313  25.074  25.509  1.00  0.00     0.200 A 
ATOM     85  F   UNL A   1      44.737  26.858  24.905  1.00  0.00    -0.200 F 
ATOM     86  F   UNL A   1      43.723  24.367  24.446  1.00  0.00    -0.200 F 
ENDBRANCH  52  76
BRANCH  64  87
ATOM     87  C   UNL A   1      44.730  27.115  34.316  1.00  0.00     0.064 A 
ATOM     88  C   UNL A   1      46.003  27.701  34.372  1.00  0.00     0.173 A 
ATOM     89  C   UNL A   1      44.532  25.901  34.989  1.00  0.00     0.173 A 
ATOM     90  F   UNL A   1      46.244  28.856  33.731  1.00  0.00    -0.203 F 
ATOM     91  C   UNL A   1      47.047  27.078  35.050  1.00  0.00     0.198 A 
ATOM     92  C   UNL A   1      45.571  25.296  35.691  1.00  0.00     0.198 A 
ATOM     93  F   UNL A   1      43.331  25.304  34.971  1.00  0.00    -0.203 F 
ATOM     94  F   UNL A   1      48.269  27.630  35.046  1.00  0.00    -0.200 F 
ATOM     95  C   UNL A   1      46.829  25.880  35.713  1.00  0.00     0.200 A 
ATOM     96  F   UNL A   1      45.356  24.145  36.342  1.00  0.00    -0.200 F 
ATOM     97  F   UNL A   1      47.835  25.283  36.368  1.00  0.00    -0.200 F 
ENDBRANCH  64  87
ENDBRANCH  38  39
ENDBRANCH  31  33
ENDBRANCH  30  31
ENDBRANCH  29  30
ENDBRANCH  28  29
ENDBRANCH  27  28
ENDBRANCH   1  27
TORSDOF 17
ENDMDL
MODEL 2
REMARK VINA RESULT:     -11.9      4.896     10.072
REMARK SMILES Cc1ccc(S(=O)(=O)Nc2cc3c(cc2C(=O)OCCOCCOC(=O)c2ccc(-c4c5nc(c(-c6c(F)c(F)c(F)c(F)c6F)c6ccc([nH]6)c(-c6c(F)c(F)c(F)c(F)c6F)c6nc(c(-c7c(F)c(F)c(F)c(F)c7F)c7ccc4[nH]7)C=C6)C=C5)cc2)OCCO3)s1
REMARK SMILES IDX 20 1 19 2 18 3 16 4 17 5 15 6 10 7 11 8 12 9 14 10 13 11
REMARK SMILES IDX 93 12 90 13 92 14 91 15 9 16 6 18 7 19 8 20 5 21 1 22 2 23
REMARK SMILES IDX 3 24 94 25 4 26 21 27 22 28 23 29 24 30 25 31 26 32 27 33
REMARK SMILES IDX 28 34 89 35 29 36 88 37 30 38 31 39 32 40 82 41 33 42 87 43
REMARK SMILES IDX 81 44 83 45 34 46 86 47 80 48 79 49 35 51 67 52 47 53 66 54
REMARK SMILES IDX 48 55 51 56 65 57 84 58 49 59 50 60 64 62 85 63 52 64 36 65
REMARK SMILES IDX 37 66 45 67 38 68 39 69 43 70 46 71 40 72 41 73 44 74 42 75
REMARK SMILES IDX 68 76 69 77 77 78 70 79 71 80 75 81 78 82 72 83 73 84 76 85
REMARK SMILES IDX 74 86 53 87 54 88 62 89 55 90 56 91 60 92 63 93 57 94 58 95
REMARK SMILES IDX 61 96 59 97
REMARK H PARENT 9 17 83 50 51 61
REMARK Flexibility Score: inf
ROOT
ATOM      1  C   UNL A   1      38.680  23.398  26.385  1.00  0.00     0.202 C 
ENDROOT
BRANCH   1   2
ATOM      2  C   UNL A   1      37.340  23.312  25.651  1.00  0.00     0.261 C 
BRANCH   2   3
ATOM      3  O   UNL A   1      36.206  23.584  26.503  1.00  0.00    -0.460 OA
BRANCH   3   4
ATOM      4  C   UNL A   1      35.105  22.833  26.247  1.00  0.00     0.340 C 
ATOM      5  O   UNL A   1      34.775  21.803  26.814  1.00  0.00    -0.246 OA
BRANCH   4   6
ATOM      6  C   UNL A   1      34.309  23.385  25.135  1.00  0.00     0.088 A 
ATOM      7  C   UNL A   1      34.043  22.592  24.002  1.00  0.00     0.067 A 
ATOM      8  C   UNL A   1      33.717  23.217  22.799  1.00  0.00     0.078 A 
ATOM      9  C   UNL A   1      33.455  24.585  22.782  1.00  0.00     0.163 A 
ATOM     10  C   UNL A   1      33.994  24.749  25.134  1.00  0.00     0.068 A 
ATOM     11  C   UNL A   1      33.517  25.332  23.963  1.00  0.00     0.162 A 
ATOM     12  O   UNL A   1      33.103  25.121  21.570  1.00  0.00    -0.486 OA
ATOM     13  O   UNL A   1      33.159  26.655  24.025  1.00  0.00    -0.486 OA
ATOM     14  C   UNL A   1      33.135  26.552  21.604  1.00  0.00     0.271 C 
ATOM     15  C   UNL A   1      32.432  27.055  22.854  1.00  0.00     0.271 C 
BRANCH   7  16
ATOM     16  N   UNL A   1      34.133  21.164  24.090  1.00  0.00    -0.278 N 
ATOM     17  H   UNL A   1      35.009  20.725  24.175  1.00  0.00     0.180 HD
BRANCH  16  18
ATOM     18  S   UNL A   1      32.704  20.234  24.046  1.00  0.00     0.271 S 
ATOM     19  O   UNL A   1      32.155  20.433  22.723  1.00  0.00    -0.200 OA
ATOM     20  O   UNL A   1      31.931  20.525  25.234  1.00  0.00    -0.200 OA
BRANCH  18  21
ATOM     21  C   UNL A   1      33.139  18.501  24.188  1.00  0.00     0.140 A 
ATOM     22  C   UNL A   1      32.549  14.894  25.592  1.00  0.00     0.056 C 
ATOM     23  C   UNL A   1      33.004  16.147  24.925  1.00  0.00     0.003 A 
ATOM     24  C   UNL A   1      33.736  16.281  23.767  1.00  0.00     0.016 A 
ATOM     25  S   UNL A   1      32.632  17.677  25.605  1.00  0.00    -0.127 S 
ATOM     26  C   UNL A   1      33.851  17.643  23.367  1.00  0.00     0.034 A 
ENDBRANCH  18  21
ENDBRANCH  16  18
ENDBRANCH   7  16
ENDBRANCH   4   6
ENDBRANCH   3   4
ENDBRANCH   2   3
ENDBRANCH   1   2
BRANCH   1  27
ATOM     27  O   UNL A   1      39.458  22.212  26.510  1.00  0.00    -0.374 OA
BRANCH  27  28
ATOM     28  C   UNL A   1      39.103  21.081  25.732  1.00  0.00     0.202 C 
BRANCH  28  29
ATOM     29  C   UNL A   1      39.763  19.736  26.057  1.00  0.00     0.261 C 
BRANCH  29  30
ATOM     30  O   UNL A   1      40.958  19.429  25.344  1.00  0.00    -0.460 OA
BRANCH  30  31
ATOM     31  C   UNL A   1      42.057  19.300  26.118  1.00  0.00     0.338 C 
ATOM     32  O   UNL A   1      42.639  18.285  26.449  1.00  0.00    -0.246 OA
BRANCH  31  33
ATOM     33  C   UNL A   1      42.528  20.652  26.439  1.00  0.00     0.060 A 
ATOM     34  C   UNL A   1      42.598  21.011  27.786  1.00  0.00     0.016 A 
ATOM     35  C   UNL A   1      42.879  21.552  25.428  1.00  0.00     0.016 A 
ATOM     36  C   UNL A   1      43.005  22.294  28.127  1.00  0.00     0.010 A 
ATOM     37  C   UNL A   1      43.287  22.841  25.774  1.00  0.00     0.010 A 
ATOM     38  C   UNL A   1      43.333  23.220  27.125  1.00  0.00    -0.014 A 
BRANCH  38  39
ATOM     39  C   UNL A   1      43.680  24.600  27.525  1.00  0.00     0.031 A 
ATOM     40  C   UNL A   1      45.077  25.103  27.316  1.00  0.00     0.074 A 
ATOM     41  C   UNL A   1      42.715  25.405  28.002  1.00  0.00     0.049 A 
ATOM     42  N   UNL A   1      45.552  26.312  27.466  1.00  0.00    -0.248 NA
ATOM     43  C   UNL A   1      46.073  24.113  26.878  1.00  0.00     0.031 C 
ATOM     44  C   UNL A   1      41.330  25.001  28.246  1.00  0.00     0.029 A 
ATOM     45  N   UNL A   1      42.745  26.731  28.347  1.00  0.00    -0.354 N 
ATOM     46  C   UNL A   1      46.895  26.234  27.123  1.00  0.00     0.074 A 
ATOM     47  C   UNL A   1      47.172  24.851  26.800  1.00  0.00     0.031 C 
ATOM     48  C   UNL A   1      40.636  26.063  28.685  1.00  0.00     0.029 A 
ATOM     49  C   UNL A   1      41.529  27.216  28.763  1.00  0.00     0.049 A 
ATOM     50  H   UNL A   1      43.558  27.283  28.301  1.00  0.00     0.167 HD
ATOM     51  C   UNL A   1      47.804  27.236  27.071  1.00  0.00     0.037 A 
ATOM     52  C   UNL A   1      41.181  28.456  29.154  1.00  0.00     0.037 A 
ATOM     53  C   UNL A   1      47.511  28.605  27.406  1.00  0.00     0.049 A 
ATOM     54  C   UNL A   1      42.219  29.546  29.103  1.00  0.00     0.074 A 
ATOM     55  C   UNL A   1      48.349  29.704  27.372  1.00  0.00     0.029 A 
ATOM     56  N   UNL A   1      46.274  29.056  27.848  1.00  0.00    -0.354 N 
ATOM     57  N   UNL A   1      43.472  29.476  28.719  1.00  0.00    -0.248 NA
ATOM     58  C   UNL A   1      41.793  30.886  29.523  1.00  0.00     0.031 C 
ATOM     59  C   UNL A   1      47.634  30.812  27.839  1.00  0.00     0.029 A 
ATOM     60  C   UNL A   1      46.335  30.415  28.116  1.00  0.00     0.049 A 
ATOM     61  H   UNL A   1      45.473  28.495  27.955  1.00  0.00     0.167 HD
ATOM     62  C   UNL A   1      43.979  30.762  28.836  1.00  0.00     0.074 A 
ATOM     63  C   UNL A   1      42.889  31.596  29.301  1.00  0.00     0.031 C 
ATOM     64  C   UNL A   1      45.233  31.216  28.587  1.00  0.00     0.037 A 
BRANCH  51  65
ATOM     65  C   UNL A   1      49.203  26.883  26.655  1.00  0.00     0.064 A 
ATOM     66  C   UNL A   1      50.163  26.459  27.586  1.00  0.00     0.173 A 
ATOM     67  C   UNL A   1      49.578  26.936  25.304  1.00  0.00     0.173 A 
ATOM     68  F   UNL A   1      49.861  26.404  28.892  1.00  0.00    -0.203 F 
ATOM     69  C   UNL A   1      51.454  26.122  27.182  1.00  0.00     0.198 A 
ATOM     70  C   UNL A   1      50.861  26.573  24.901  1.00  0.00     0.198 A 
ATOM     71  F   UNL A   1      48.698  27.333  24.373  1.00  0.00    -0.203 F 
ATOM     72  F   UNL A   1      52.367  25.758  28.094  1.00  0.00    -0.200 F 
ATOM     73  C   UNL A   1      51.799  26.173  25.840  1.00  0.00     0.200 A 
ATOM     74  F   UNL A   1      51.191  26.615  23.603  1.00  0.00    -0.200 F 
ATOM     75  F   UNL A   1      53.039  25.842  25.452  1.00  0.00    -0.200 F 
ENDBRANCH  51  65
BRANCH  52  76
ATOM     76  C   UNL A   1      39.792  28.729  29.604  1.00  0.00     0.064 A 
ATOM     77  C   UNL A   1      38.812  29.187  28.713  1.00  0.00     0.173 A 
ATOM     78  C   UNL A   1      39.415  28.533  30.942  1.00  0.00     0.173 A 
ATOM     79  F   UNL A   1      39.126  29.408  27.428  1.00  0.00    -0.203 F 
ATOM     80  C   UNL A   1      37.513  29.455  29.145  1.00  0.00     0.198 A 
ATOM     81  C   UNL A   1      38.109  28.773  31.367  1.00  0.00     0.198 A 
ATOM     82  F   UNL A   1      40.313  28.092  31.835  1.00  0.00    -0.203 F 
ATOM     83  F   UNL A   1      36.607  29.932  28.281  1.00  0.00    -0.200 F 
ATOM     84  C   UNL A   1      37.162  29.242  30.469  1.00  0.00     0.200 A 
ATOM     85  F   UNL A   1      37.772  28.550  32.643  1.00  0.00    -0.200 F 
ATOM     86  F   UNL A   1      35.912  29.493  30.883  1.00  0.00    -0.200 F 
ENDBRANCH  52  76
BRANCH  64  87
ATOM     87  C   UNL A   1      45.481  32.678  28.809  1.00  0.00     0.064 A 
ATOM     88  C   UNL A   1      45.251  33.620  27.795  1.00  0.00     0.173 A 
ATOM     89  C   UNL A   1      45.928  33.144  30.054  1.00  0.00     0.173 A 
ATOM     90  F   UNL A   1      44.837  33.220  26.583  1.00  0.00    -0.203 F 
ATOM     91  C   UNL A   1      45.492  34.974  28.011  1.00  0.00     0.198 A 
ATOM     92  C   UNL A   1      46.139  34.501  30.275  1.00  0.00     0.198 A 
ATOM     93  F   UNL A   1      46.155  32.283  31.057  1.00  0.00    -0.203 F 
ATOM     94  F   UNL A   1      45.316  35.850  27.012  1.00  0.00    -0.200 F 
ATOM     95  C   UNL A   1      45.929  35.414  29.252  1.00  0.00     0.200 A 
ATOM     96  F   UNL A   1      46.549  34.927  31.478  1.00  0.00    -0.200 F 
ATOM     97  F   UNL A   1      46.157  36.719  29.458  1.00  0.00    -0.200 F 
ENDBRANCH  64  87
ENDBRANCH  38  39
ENDBRANCH  31  33
ENDBRANCH  30  31
ENDBRANCH  29  30
ENDBRANCH  28  29
ENDBRANCH  27  28
ENDBRANCH   1  27
TORSDOF 17
ENDMDL
MODEL 3
REMARK VINA RESULT:     -11.8      1.844      4.260
REMARK SMILES Cc1ccc(S(=O)(=O)Nc2cc3c(cc2C(=O)OCCOCCOC(=O)c2ccc(-c4c5nc(c(-c6c(F)c(F)c(F)c(F)c6F)c6ccc([nH]6)c(-c6c(F)c(F)c(F)c(F)c6F)c6nc(c(-c7c(F)c(F)c(F)c(F)c7F)c7ccc4[nH]7)C=C6)C=C5)cc2)OCCO3)s1
REMARK SMILES IDX 20 1 19 2 18 3 16 4 17 5 15 6 10 7 11 8 12 9 14 10 13 11
REMARK SMILES IDX 93 12 90 13 92 14 91 15 9 16 6 18 7 19 8 20 5 21 1 22 2 23
REMARK SMILES IDX 3 24 94 25 4 26 21 27 22 28 23 29 24 30 25 31 26 32 27 33
REMARK SMILES IDX 28 34 89 35 29 36 88 37 30 38 31 39 32 40 82 41 33 42 87 43
REMARK SMILES IDX 81 44 83 45 34 46 86 47 80 48 79 49 35 51 67 52 47 53 66 54
REMARK SMILES IDX 48 55 51 56 65 57 84 58 49 59 50 60 64 62 85 63 52 64 36 65
REMARK SMILES IDX 37 66 45 67 38 68 39 69 43 70 46 71 40 72 41 73 44 74 42 75
REMARK SMILES IDX 68 76 69 77 77 78 70 79 71 80 75 81 78 82 72 83 73 84 76 85
REMARK SMILES IDX 74 86 53 87 54 88 62 89 55 90 56 91 60 92 63 93 57 94 58 95
REMARK SMILES IDX 61 96 59 97
REMARK H PARENT 9 17 83 50 51 61
REMARK Flexibility Score: inf
ROOT
ATOM      1  C   UNL A   1      33.753  30.679  27.264  1.00  0.00     0.202 C 
ENDROOT
BRANCH   1   2
ATOM      2  C   UNL A   1      34.552  29.392  27.049  1.00  0.00     0.261 C 
BRANCH   2   3
ATOM      3  O   UNL A   1      33.718  28.223  26.902  1.00  0.00    -0.460 OA
BRANCH   3   4
ATOM      4  C   UNL A   1      33.689  27.694  25.653  1.00  0.00     0.340 C 
ATOM      5  O   UNL A   1      33.825  28.298  24.600  1.00  0.00    -0.246 OA
BRANCH   4   6
ATOM      6  C   UNL A   1      33.433  26.242  25.675  1.00  0.00     0.088 A 
ATOM      7  C   UNL A   1      32.109  25.764  25.669  1.00  0.00     0.067 A 
ATOM      8  C   UNL A   1      31.850  24.479  26.147  1.00  0.00     0.078 A 
ATOM      9  C   UNL A   1      32.911  23.620  26.422  1.00  0.00     0.163 A 
ATOM     10  C   UNL A   1      34.501  25.365  25.898  1.00  0.00     0.068 A 
ATOM     11  C   UNL A   1      34.231  24.038  26.221  1.00  0.00     0.162 A 
ATOM     12  O   UNL A   1      32.578  22.361  26.850  1.00  0.00    -0.486 OA
ATOM     13  O   UNL A   1      35.306  23.199  26.367  1.00  0.00    -0.486 OA
ATOM     14  C   UNL A   1      33.718  21.667  27.369  1.00  0.00     0.271 C 
ATOM     15  C   UNL A   1      34.894  21.825  26.420  1.00  0.00     0.271 C 
BRANCH   7  16
ATOM     16  N   UNL A   1      31.046  26.603  25.200  1.00  0.00    -0.278 N 
ATOM     17  H   UNL A   1      30.626  27.258  25.802  1.00  0.00     0.180 HD
BRANCH  16  18
ATOM     18  S   UNL A   1      30.517  26.454  23.586  1.00  0.00     0.271 S 
ATOM     19  O   UNL A   1      29.772  25.215  23.536  1.00  0.00    -0.200 OA
ATOM     20  O   UNL A   1      31.644  26.691  22.710  1.00  0.00    -0.200 OA
BRANCH  18  21
ATOM     21  C   UNL A   1      29.367  27.782  23.231  1.00  0.00     0.140 A 
ATOM     22  C   UNL A   1      28.234  30.916  21.175  1.00  0.00     0.056 C 
ATOM     23  C   UNL A   1      28.422  29.770  22.110  1.00  0.00     0.003 A 
ATOM     24  C   UNL A   1      27.460  29.062  22.795  1.00  0.00     0.016 A 
ATOM     25  S   UNL A   1      29.993  29.178  22.457  1.00  0.00    -0.127 S 
ATOM     26  C   UNL A   1      28.013  27.941  23.478  1.00  0.00     0.034 A 
ENDBRANCH  18  21
ENDBRANCH  16  18
ENDBRANCH   7  16
ENDBRANCH   4   6
ENDBRANCH   3   4
ENDBRANCH   2   3
ENDBRANCH   1   2
BRANCH   1  27
ATOM     27  O   UNL A   1      32.349  30.647  27.029  1.00  0.00    -0.374 OA
BRANCH  27  28
ATOM     28  C   UNL A   1      31.659  31.875  26.864  1.00  0.00     0.202 C 
BRANCH  28  29
ATOM     29  C   UNL A   1      32.405  33.178  27.170  1.00  0.00     0.261 C 
BRANCH  29  30
ATOM     30  O   UNL A   1      32.191  33.743  28.460  1.00  0.00    -0.460 OA
BRANCH  30  31
ATOM     31  C   UNL A   1      33.061  34.719  28.799  1.00  0.00     0.338 C 
ATOM     32  O   UNL A   1      32.881  35.921  28.828  1.00  0.00    -0.246 OA
BRANCH  31  33
ATOM     33  C   UNL A   1      34.298  34.069  29.244  1.00  0.00     0.060 A 
ATOM     34  C   UNL A   1      34.190  33.048  30.189  1.00  0.00     0.016 A 
ATOM     35  C   UNL A   1      35.543  34.471  28.748  1.00  0.00     0.016 A 
ATOM     36  C   UNL A   1      35.342  32.433  30.662  1.00  0.00     0.010 A 
ATOM     37  C   UNL A   1      36.699  33.851  29.224  1.00  0.00     0.010 A 
ATOM     38  C   UNL A   1      36.601  32.843  30.196  1.00  0.00    -0.014 A 
BRANCH  38  39
ATOM     39  C   UNL A   1      37.807  32.222  30.785  1.00  0.00     0.031 A 
ATOM     40  C   UNL A   1      38.243  32.617  32.164  1.00  0.00     0.074 A 
ATOM     41  C   UNL A   1      38.448  31.258  30.103  1.00  0.00     0.049 A 
ATOM     42  N   UNL A   1      39.180  32.099  32.915  1.00  0.00    -0.248 NA
ATOM     43  C   UNL A   1      37.529  33.746  32.782  1.00  0.00     0.031 C 
ATOM     44  C   UNL A   1      38.099  30.813  28.753  1.00  0.00     0.029 A 
ATOM     45  N   UNL A   1      39.509  30.467  30.454  1.00  0.00    -0.354 N 
ATOM     46  C   UNL A   1      39.156  32.823  34.100  1.00  0.00     0.074 A 
ATOM     47  C   UNL A   1      38.143  33.846  33.953  1.00  0.00     0.031 C 
ATOM     48  C   UNL A   1      38.921  29.814  28.396  1.00  0.00     0.029 A 
ATOM     49  C   UNL A   1      39.859  29.558  29.486  1.00  0.00     0.049 A 
ATOM     50  H   UNL A   1      39.977  30.542  31.317  1.00  0.00     0.167 HD
ATOM     51  C   UNL A   1      39.907  32.634  35.211  1.00  0.00     0.037 A 
ATOM     52  C   UNL A   1      40.824  28.620  29.490  1.00  0.00     0.037 A 
ATOM     53  C   UNL A   1      40.917  31.616  35.334  1.00  0.00     0.049 A 
ATOM     54  C   UNL A   1      41.656  28.445  30.733  1.00  0.00     0.074 A 
ATOM     55  C   UNL A   1      41.725  31.322  36.418  1.00  0.00     0.029 A 
ATOM     56  N   UNL A   1      41.263  30.728  34.323  1.00  0.00    -0.354 N 
ATOM     57  N   UNL A   1      41.586  29.094  31.871  1.00  0.00    -0.248 NA
ATOM     58  C   UNL A   1      42.687  27.401  30.698  1.00  0.00     0.031 C 
ATOM     59  C   UNL A   1      42.591  30.288  36.048  1.00  0.00     0.029 A 
ATOM     60  C   UNL A   1      42.291  29.903  34.750  1.00  0.00     0.049 A 
ATOM     61  H   UNL A   1      40.840  30.690  33.435  1.00  0.00     0.167 HD
ATOM     62  C   UNL A   1      42.550  28.528  32.693  1.00  0.00     0.074 A 
ATOM     63  C   UNL A   1      43.172  27.465  31.930  1.00  0.00     0.031 C 
ATOM     64  C   UNL A   1      42.896  28.858  33.962  1.00  0.00     0.037 A 
BRANCH  51  65
ATOM     65  C   UNL A   1      39.675  33.558  36.371  1.00  0.00     0.064 A 
ATOM     66  C   UNL A   1      40.268  34.828  36.431  1.00  0.00     0.173 A 
ATOM     67  C   UNL A   1      38.822  33.184  37.419  1.00  0.00     0.173 A 
ATOM     68  F   UNL A   1      41.104  35.230  35.461  1.00  0.00    -0.203 F 
ATOM     69  C   UNL A   1      40.032  35.681  37.508  1.00  0.00     0.198 A 
ATOM     70  C   UNL A   1      38.567  34.048  38.482  1.00  0.00     0.198 A 
ATOM     71  F   UNL A   1      38.228  31.981  37.411  1.00  0.00    -0.203 F 
ATOM     72  F   UNL A   1      40.642  36.873  37.563  1.00  0.00    -0.200 F 
ATOM     73  C   UNL A   1      39.178  35.293  38.528  1.00  0.00     0.200 A 
ATOM     74  F   UNL A   1      37.735  33.675  39.463  1.00  0.00    -0.200 F 
ATOM     75  F   UNL A   1      38.946  36.116  39.560  1.00  0.00    -0.200 F 
ENDBRANCH  51  65
BRANCH  52  76
ATOM     76  C   UNL A   1      41.038  27.770  28.289  1.00  0.00     0.064 A 
ATOM     77  C   UNL A   1      40.419  26.520  28.160  1.00  0.00     0.173 A 
ATOM     78  C   UNL A   1      41.866  28.198  27.240  1.00  0.00     0.173 A 
ATOM     79  F   UNL A   1      39.632  26.058  29.142  1.00  0.00    -0.203 F 
ATOM     80  C   UNL A   1      40.634  25.721  27.037  1.00  0.00     0.198 A 
ATOM     81  C   UNL A   1      42.058  27.412  26.105  1.00  0.00     0.198 A 
ATOM     82  F   UNL A   1      42.479  29.389  27.311  1.00  0.00    -0.203 F 
ATOM     83  F   UNL A   1      40.063  24.511  26.959  1.00  0.00    -0.200 F 
ATOM     84  C   UNL A   1      41.448  26.171  26.009  1.00  0.00     0.200 A 
ATOM     85  F   UNL A   1      42.832  27.859  25.108  1.00  0.00    -0.200 F 
ATOM     86  F   UNL A   1      41.649  25.406  24.926  1.00  0.00    -0.200 F 
ENDBRANCH  52  76
BRANCH  64  87
ATOM     87  C   UNL A   1      43.990  28.053  34.597  1.00  0.00     0.064 A 
ATOM     88  C   UNL A   1      45.327  28.475  34.556  1.00  0.00     0.173 A 
ATOM     89  C   UNL A   1      43.695  26.861  35.275  1.00  0.00     0.173 A 
ATOM     90  F   UNL A   1      45.659  29.601  33.906  1.00  0.00    -0.203 F 
ATOM     91  C   UNL A   1      46.334  27.715  35.143  1.00  0.00     0.198 A 
ATOM     92  C   UNL A   1      44.701  26.119  35.887  1.00  0.00     0.198 A 
ATOM     93  F   UNL A   1      42.431  26.419  35.349  1.00  0.00    -0.203 F 
ATOM     94  F   UNL A   1      47.611  28.110  35.045  1.00  0.00    -0.200 F 
ATOM     95  C   UNL A   1      46.020  26.541  35.813  1.00  0.00     0.200 A 
ATOM     96  F   UNL A   1      44.395  24.992  36.545  1.00  0.00    -0.200 F 
ATOM     97  F   UNL A   1      46.992  25.812  36.380  1.00  0.00    -0.200 F 
ENDBRANCH  64  87
ENDBRANCH  38  39
ENDBRANCH  31  33
ENDBRANCH  30  31
ENDBRANCH  29  30
ENDBRANCH  28  29
ENDBRANCH  27  28
ENDBRANCH   1  27
TORSDOF 17
ENDMDL
