MODEL 1
REMARK VINA RESULT:     -13.3      0.000      0.000
REMARK SMILES Cc1ccccc1-c1c(Cl)ccc2c1C=C(C(=O)OCCOCCOC(=O)c1ccc(-c3c4nc(c(-c5c(F)c(F)c(F)c(F)c5F)c5ccc([nH]5)c(-c5c(F)c(F)c(F)c(F)c5F)c5nc(c(-c6c(F)c(F)c(F)c(F)c6F)c6ccc3[nH]6)C=C5)C=C4)cc1)[C@@H](C(F)(F)F)O2
REMARK SMILES IDX 23 1 22 2 21 3 20 4 19 5 17 6 18 7 16 8 8 9 9 10 14 11 10 12
REMARK SMILES IDX 11 13 13 14 15 15 12 16 96 17 91 18 7 19 1 20 2 21 3 22 4 23
REMARK SMILES IDX 6 24 5 25 92 26 93 27 94 28 95 29 24 30 25 31 26 32 27 33
REMARK SMILES IDX 28 34 29 35 90 36 30 37 89 38 31 39 32 40 33 41 83 42 34 43
REMARK SMILES IDX 88 44 82 45 84 46 35 47 87 48 81 49 80 50 36 52 68 53 48 54
REMARK SMILES IDX 67 55 49 56 52 57 66 58 85 59 50 60 51 61 65 63 86 64 53 65
REMARK SMILES IDX 37 66 38 67 46 68 39 69 40 70 44 71 47 72 41 73 42 74 45 75
REMARK SMILES IDX 43 76 69 77 70 78 78 79 71 80 72 81 76 82 79 83 73 84 74 85
REMARK SMILES IDX 77 86 75 87 54 88 55 89 63 90 56 91 57 92 61 93 64 94 58 95
REMARK SMILES IDX 59 96 62 97 60 98
REMARK H PARENT 84 51 52 62
REMARK Flexibility Score: inf
ROOT
ATOM      1  C   UNL A   1      33.262  33.834  28.070  1.00  0.00     0.202 C 
ENDROOT
BRANCH   1   2
ATOM      2  O   UNL A   1      33.521  32.498  28.473  1.00  0.00    -0.374 OA
BRANCH   2   3
ATOM      3  C   UNL A   1      34.113  31.660  27.483  1.00  0.00     0.202 C 
BRANCH   3   4
ATOM      4  C   UNL A   1      33.139  30.526  27.251  1.00  0.00     0.261 C 
BRANCH   4   5
ATOM      5  O   UNL A   1      33.189  30.064  25.889  1.00  0.00    -0.460 OA
BRANCH   5   6
ATOM      6  C   UNL A   1      33.607  28.784  25.763  1.00  0.00     0.338 C 
ATOM      7  O   UNL A   1      34.402  28.200  26.484  1.00  0.00    -0.246 OA
BRANCH   6   8
ATOM      8  C   UNL A   1      32.999  28.105  24.597  1.00  0.00     0.087 C 
ATOM      9  C   UNL A   1      33.125  24.508  25.322  1.00  0.00     0.012 A 
ATOM     10  C   UNL A   1      32.284  23.681  26.118  1.00  0.00     0.049 A 
ATOM     11  C   UNL A   1      32.616  25.796  24.972  1.00  0.00     0.027 A 
ATOM     12  Cl  UNL A   1      32.798  22.133  26.714  1.00  0.00    -0.084 Cl
ATOM     13  C   UNL A   1      30.995  24.075  26.498  1.00  0.00     0.025 A 
ATOM     14  C   UNL A   1      31.300  26.159  25.350  1.00  0.00     0.128 A 
ATOM     15  C   UNL A   1      33.477  26.865  24.404  1.00  0.00     0.028 C 
ATOM     16  C   UNL A   1      30.498  25.305  26.101  1.00  0.00     0.049 A 
ATOM     17  O   UNL A   1      30.710  27.370  25.081  1.00  0.00    -0.475 OA
ATOM     18  C   UNL A   1      31.531  28.380  24.472  1.00  0.00     0.316 C 
BRANCH   9  19
ATOM     19  C   UNL A   1      34.435  23.981  24.822  1.00  0.00    -0.013 A 
ATOM     20  C   UNL A   1      33.641  23.279  22.464  1.00  0.00     0.045 C 
ATOM     21  C   UNL A   1      34.671  23.415  23.547  1.00  0.00    -0.043 A 
ATOM     22  C   UNL A   1      35.959  22.952  23.206  1.00  0.00     0.004 A 
ATOM     23  C   UNL A   1      37.031  23.088  24.080  1.00  0.00     0.000 A 
ATOM     24  C   UNL A   1      35.547  24.088  25.690  1.00  0.00     0.009 A 
ATOM     25  C   UNL A   1      36.828  23.672  25.319  1.00  0.00     0.001 A 
ENDBRANCH   9  19
BRANCH  18  26
ATOM     26  C   UNL A   1      31.158  28.590  23.000  1.00  0.00     0.430 C 
ATOM     27  F   UNL A   1      29.990  29.263  22.879  1.00  0.00    -0.167 F 
ATOM     28  F   UNL A   1      32.100  29.330  22.360  1.00  0.00    -0.167 F 
ATOM     29  F   UNL A   1      31.031  27.427  22.322  1.00  0.00    -0.167 F 
ENDBRANCH  18  26
ENDBRANCH   6   8
ENDBRANCH   5   6
ENDBRANCH   4   5
ENDBRANCH   3   4
ENDBRANCH   2   3
ENDBRANCH   1   2
BRANCH   1  30
ATOM     30  C   UNL A   1      33.665  34.888  29.110  1.00  0.00     0.261 C 
BRANCH  30  31
ATOM     31  O   UNL A   1      33.347  34.416  30.432  1.00  0.00    -0.460 OA
BRANCH  31  32
ATOM     32  C   UNL A   1      34.372  34.456  31.323  1.00  0.00     0.338 C 
ATOM     33  O   UNL A   1      34.673  35.422  32.010  1.00  0.00    -0.246 OA
BRANCH  32  34
ATOM     34  C   UNL A   1      35.240  33.266  31.130  1.00  0.00     0.060 A 
ATOM     35  C   UNL A   1      35.167  32.192  32.035  1.00  0.00     0.016 A 
ATOM     36  C   UNL A   1      36.316  33.366  30.252  1.00  0.00     0.016 A 
ATOM     37  C   UNL A   1      36.244  31.306  32.155  1.00  0.00     0.010 A 
ATOM     38  C   UNL A   1      37.419  32.574  30.462  1.00  0.00     0.010 A 
ATOM     39  C   UNL A   1      37.400  31.552  31.420  1.00  0.00    -0.014 A 
BRANCH  39  40
ATOM     40  C   UNL A   1      38.681  30.869  31.579  1.00  0.00     0.031 A 
ATOM     41  C   UNL A   1      38.957  29.646  30.786  1.00  0.00     0.074 A 
ATOM     42  C   UNL A   1      39.707  31.511  32.181  1.00  0.00     0.049 A 
ATOM     43  N   UNL A   1      40.014  28.920  30.912  1.00  0.00    -0.248 NA
ATOM     44  C   UNL A   1      38.050  29.126  29.771  1.00  0.00     0.031 C 
ATOM     45  C   UNL A   1      41.128  31.252  31.992  1.00  0.00     0.029 A 
ATOM     46  N   UNL A   1      39.684  32.477  33.198  1.00  0.00    -0.354 N 
ATOM     47  C   UNL A   1      40.111  28.108  29.804  1.00  0.00     0.074 A 
ATOM     48  C   UNL A   1      38.815  28.204  29.180  1.00  0.00     0.031 C 
ATOM     49  C   UNL A   1      41.799  31.705  33.056  1.00  0.00     0.029 A 
ATOM     50  C   UNL A   1      40.817  32.228  33.988  1.00  0.00     0.049 A 
ATOM     51  H   UNL A   1      39.011  33.183  33.332  1.00  0.00     0.167 HD
ATOM     52  C   UNL A   1      41.337  27.583  29.498  1.00  0.00     0.037 A 
ATOM     53  C   UNL A   1      40.760  32.010  35.324  1.00  0.00     0.037 A 
ATOM     54  C   UNL A   1      42.314  27.919  30.552  1.00  0.00     0.049 A 
ATOM     55  C   UNL A   1      41.444  30.712  35.589  1.00  0.00     0.074 A 
ATOM     56  C   UNL A   1      43.373  28.812  30.603  1.00  0.00     0.029 A 
ATOM     57  N   UNL A   1      42.074  27.531  31.875  1.00  0.00    -0.354 N 
ATOM     58  N   UNL A   1      41.408  29.723  34.733  1.00  0.00    -0.248 NA
ATOM     59  C   UNL A   1      42.401  30.513  36.672  1.00  0.00     0.031 C 
ATOM     60  C   UNL A   1      43.726  29.002  31.966  1.00  0.00     0.029 A 
ATOM     61  C   UNL A   1      42.896  28.215  32.751  1.00  0.00     0.049 A 
ATOM     62  H   UNL A   1      41.407  26.858  32.145  1.00  0.00     0.167 HD
ATOM     63  C   UNL A   1      42.437  28.878  35.027  1.00  0.00     0.074 A 
ATOM     64  C   UNL A   1      42.976  29.360  36.291  1.00  0.00     0.031 C 
ATOM     65  C   UNL A   1      42.915  27.927  34.178  1.00  0.00     0.037 A 
BRANCH  52  66
ATOM     66  C   UNL A   1      41.740  27.000  28.143  1.00  0.00     0.064 A 
ATOM     67  C   UNL A   1      42.163  25.653  28.026  1.00  0.00     0.173 A 
ATOM     68  C   UNL A   1      41.777  27.708  26.923  1.00  0.00     0.173 A 
ATOM     69  F   UNL A   1      42.113  24.809  29.064  1.00  0.00    -0.203 F 
ATOM     70  C   UNL A   1      42.653  25.105  26.832  1.00  0.00     0.198 A 
ATOM     71  C   UNL A   1      42.299  27.172  25.737  1.00  0.00     0.198 A 
ATOM     72  F   UNL A   1      41.253  28.927  26.795  1.00  0.00    -0.203 F 
ATOM     73  F   UNL A   1      43.043  23.822  26.800  1.00  0.00    -0.200 F 
ATOM     74  C   UNL A   1      42.742  25.872  25.692  1.00  0.00     0.200 A 
ATOM     75  F   UNL A   1      42.351  27.934  24.634  1.00  0.00    -0.200 F 
ATOM     76  F   UNL A   1      43.225  25.355  24.553  1.00  0.00    -0.200 F 
ENDBRANCH  52  66
BRANCH  53  77
ATOM     77  C   UNL A   1      39.580  32.664  35.945  1.00  0.00     0.064 A 
ATOM     78  C   UNL A   1      38.582  31.782  36.421  1.00  0.00     0.173 A 
ATOM     79  C   UNL A   1      39.659  33.925  36.549  1.00  0.00     0.173 A 
ATOM     80  F   UNL A   1      38.474  30.551  35.894  1.00  0.00    -0.203 F 
ATOM     81  C   UNL A   1      37.830  32.076  37.558  1.00  0.00     0.198 A 
ATOM     82  C   UNL A   1      38.883  34.225  37.677  1.00  0.00     0.198 A 
ATOM     83  F   UNL A   1      40.588  34.807  36.156  1.00  0.00    -0.203 F 
ATOM     84  F   UNL A   1      37.028  31.141  38.089  1.00  0.00    -0.200 F 
ATOM     85  C   UNL A   1      38.011  33.283  38.208  1.00  0.00     0.200 A 
ATOM     86  F   UNL A   1      39.064  35.386  38.325  1.00  0.00    -0.200 F 
ATOM     87  F   UNL A   1      37.391  33.513  39.375  1.00  0.00    -0.200 F 
ENDBRANCH  53  77
BRANCH  65  88
ATOM     88  C   UNL A   1      43.587  26.681  34.671  1.00  0.00     0.064 A 
ATOM     89  C   UNL A   1      42.869  25.502  34.938  1.00  0.00     0.173 A 
ATOM     90  C   UNL A   1      44.994  26.566  34.676  1.00  0.00     0.173 A 
ATOM     91  F   UNL A   1      41.531  25.464  34.864  1.00  0.00    -0.203 F 
ATOM     92  C   UNL A   1      43.511  24.303  35.231  1.00  0.00     0.198 A 
ATOM     93  C   UNL A   1      45.631  25.353  34.915  1.00  0.00     0.198 A 
ATOM     94  F   UNL A   1      45.790  27.610  34.403  1.00  0.00    -0.203 F 
ATOM     95  F   UNL A   1      42.782  23.214  35.504  1.00  0.00    -0.200 F 
ATOM     96  C   UNL A   1      44.890  24.225  35.203  1.00  0.00     0.200 A 
ATOM     97  F   UNL A   1      46.967  25.278  34.831  1.00  0.00    -0.200 F 
ATOM     98  F   UNL A   1      45.503  23.057  35.429  1.00  0.00    -0.200 F 
ENDBRANCH  65  88
ENDBRANCH  39  40
ENDBRANCH  32  34
ENDBRANCH  31  32
ENDBRANCH  30  31
ENDBRANCH   1  30
TORSDOF 16
ENDMDL
MODEL 2
REMARK VINA RESULT:     -13.2      5.410     11.030
REMARK SMILES Cc1ccccc1-c1c(Cl)ccc2c1C=C(C(=O)OCCOCCOC(=O)c1ccc(-c3c4nc(c(-c5c(F)c(F)c(F)c(F)c5F)c5ccc([nH]5)c(-c5c(F)c(F)c(F)c(F)c5F)c5nc(c(-c6c(F)c(F)c(F)c(F)c6F)c6ccc3[nH]6)C=C5)C=C4)cc1)[C@@H](C(F)(F)F)O2
REMARK SMILES IDX 23 1 22 2 21 3 20 4 19 5 17 6 18 7 16 8 8 9 9 10 14 11 10 12
REMARK SMILES IDX 11 13 13 14 15 15 12 16 96 17 91 18 7 19 1 20 2 21 3 22 4 23
REMARK SMILES IDX 6 24 5 25 92 26 93 27 94 28 95 29 24 30 25 31 26 32 27 33
REMARK SMILES IDX 28 34 29 35 90 36 30 37 89 38 31 39 32 40 33 41 83 42 34 43
REMARK SMILES IDX 88 44 82 45 84 46 35 47 87 48 81 49 80 50 36 52 68 53 48 54
REMARK SMILES IDX 67 55 49 56 52 57 66 58 85 59 50 60 51 61 65 63 86 64 53 65
REMARK SMILES IDX 37 66 38 67 46 68 39 69 40 70 44 71 47 72 41 73 42 74 45 75
REMARK SMILES IDX 43 76 69 77 70 78 78 79 71 80 72 81 76 82 79 83 73 84 74 85
REMARK SMILES IDX 77 86 75 87 54 88 55 89 63 90 56 91 57 92 61 93 64 94 58 95
REMARK SMILES IDX 59 96 62 97 60 98
REMARK H PARENT 84 51 52 62
REMARK Flexibility Score: inf
ROOT
ATOM      1  C   UNL A   1      41.381  20.526  26.541  1.00  0.00     0.202 C 
ENDROOT
BRANCH   1   2
ATOM      2  O   UNL A   1      40.051  20.606  26.053  1.00  0.00    -0.374 OA
BRANCH   2   3
ATOM      3  C   UNL A   1      39.374  21.835  26.306  1.00  0.00     0.202 C 
BRANCH   3   4
ATOM      4  C   UNL A   1      38.204  21.878  25.349  1.00  0.00     0.261 C 
BRANCH   4   5
ATOM      5  O   UNL A   1      36.950  21.836  26.054  1.00  0.00    -0.460 OA
BRANCH   5   6
ATOM      6  C   UNL A   1      36.200  22.951  25.898  1.00  0.00     0.338 C 
ATOM      7  O   UNL A   1      36.609  24.091  25.736  1.00  0.00    -0.246 OA
BRANCH   6   8
ATOM      8  C   UNL A   1      34.749  22.667  25.959  1.00  0.00     0.087 C 
ATOM      9  C   UNL A   1      33.074  25.530  24.386  1.00  0.00     0.012 A 
ATOM     10  C   UNL A   1      32.853  25.853  23.018  1.00  0.00     0.049 A 
ATOM     11  C   UNL A   1      33.458  24.185  24.677  1.00  0.00     0.027 A 
ATOM     12  Cl  UNL A   1      32.485  27.466  22.491  1.00  0.00    -0.084 Cl
ATOM     13  C   UNL A   1      32.948  24.894  22.001  1.00  0.00     0.025 A 
ATOM     14  C   UNL A   1      33.523  23.231  23.631  1.00  0.00     0.128 A 
ATOM     15  C   UNL A   1      33.998  23.779  25.999  1.00  0.00     0.028 C 
ATOM     16  C   UNL A   1      33.266  23.582  22.310  1.00  0.00     0.049 A 
ATOM     17  O   UNL A   1      33.890  21.917  23.788  1.00  0.00    -0.475 OA
ATOM     18  C   UNL A   1      34.351  21.514  25.089  1.00  0.00     0.316 C 
BRANCH   9  19
ATOM     19  C   UNL A   1      32.819  26.557  25.447  1.00  0.00    -0.013 A 
ATOM     20  C   UNL A   1      30.357  25.934  25.935  1.00  0.00     0.045 C 
ATOM     21  C   UNL A   1      31.598  26.753  26.136  1.00  0.00    -0.043 A 
ATOM     22  C   UNL A   1      31.493  27.765  27.113  1.00  0.00     0.004 A 
ATOM     23  C   UNL A   1      32.586  28.549  27.462  1.00  0.00     0.000 A 
ATOM     24  C   UNL A   1      33.904  27.385  25.818  1.00  0.00     0.009 A 
ATOM     25  C   UNL A   1      33.799  28.348  26.825  1.00  0.00     0.001 A 
ENDBRANCH   9  19
BRANCH  18  26
ATOM     26  C   UNL A   1      33.310  20.646  25.806  1.00  0.00     0.430 C 
ATOM     27  F   UNL A   1      33.478  20.685  27.149  1.00  0.00    -0.167 F 
ATOM     28  F   UNL A   1      32.052  21.092  25.559  1.00  0.00    -0.167 F 
ATOM     29  F   UNL A   1      33.360  19.350  25.426  1.00  0.00    -0.167 F 
ENDBRANCH  18  26
ENDBRANCH   6   8
ENDBRANCH   5   6
ENDBRANCH   4   5
ENDBRANCH   3   4
ENDBRANCH   2   3
ENDBRANCH   1   2
BRANCH   1  30
ATOM     30  C   UNL A   1      42.286  19.586  25.733  1.00  0.00     0.261 C 
BRANCH  30  31
ATOM     31  O   UNL A   1      43.657  20.005  25.855  1.00  0.00    -0.460 OA
BRANCH  31  32
ATOM     32  C   UNL A   1      44.201  20.537  24.729  1.00  0.00     0.338 C 
ATOM     33  O   UNL A   1      44.453  19.918  23.705  1.00  0.00    -0.246 OA
BRANCH  32  34
ATOM     34  C   UNL A   1      44.705  21.904  25.023  1.00  0.00     0.060 A 
ATOM     35  C   UNL A   1      45.511  22.125  26.154  1.00  0.00     0.016 A 
ATOM     36  C   UNL A   1      44.123  22.981  24.360  1.00  0.00     0.016 A 
ATOM     37  C   UNL A   1      45.609  23.409  26.701  1.00  0.00     0.010 A 
ATOM     38  C   UNL A   1      44.119  24.212  24.972  1.00  0.00     0.010 A 
ATOM     39  C   UNL A   1      44.846  24.434  26.149  1.00  0.00    -0.014 A 
BRANCH  39  40
ATOM     40  C   UNL A   1      44.659  25.766  26.715  1.00  0.00     0.031 A 
ATOM     41  C   UNL A   1      43.314  26.392  26.677  1.00  0.00     0.074 A 
ATOM     42  C   UNL A   1      45.601  26.277  27.540  1.00  0.00     0.049 A 
ATOM     43  N   UNL A   1      43.058  27.593  27.066  1.00  0.00    -0.248 NA
ATOM     44  C   UNL A   1      42.125  25.709  26.182  1.00  0.00     0.031 C 
ATOM     45  C   UNL A   1      45.402  27.288  28.570  1.00  0.00     0.029 A 
ATOM     46  N   UNL A   1      46.989  26.073  27.546  1.00  0.00    -0.354 N 
ATOM     47  C   UNL A   1      41.696  27.710  27.231  1.00  0.00     0.074 A 
ATOM     48  C   UNL A   1      41.159  26.545  26.571  1.00  0.00     0.031 C 
ATOM     49  C   UNL A   1      46.572  27.880  28.831  1.00  0.00     0.029 A 
ATOM     50  C   UNL A   1      47.553  27.298  27.935  1.00  0.00     0.049 A 
ATOM     51  H   UNL A   1      47.468  25.243  27.322  1.00  0.00     0.167 HD
ATOM     52  C   UNL A   1      41.230  28.713  28.036  1.00  0.00     0.037 A 
ATOM     53  C   UNL A   1      48.482  27.956  27.200  1.00  0.00     0.037 A 
ATOM     54  C   UNL A   1      42.344  29.574  28.476  1.00  0.00     0.049 A 
ATOM     55  C   UNL A   1      47.966  29.336  26.969  1.00  0.00     0.074 A 
ATOM     56  C   UNL A   1      43.001  29.718  29.688  1.00  0.00     0.029 A 
ATOM     57  N   UNL A   1      43.147  30.217  27.526  1.00  0.00    -0.354 N 
ATOM     58  N   UNL A   1      46.688  29.583  26.836  1.00  0.00    -0.248 NA
ATOM     59  C   UNL A   1      48.781  30.536  27.121  1.00  0.00     0.031 C 
ATOM     60  C   UNL A   1      44.227  30.395  29.450  1.00  0.00     0.029 A 
ATOM     61  C   UNL A   1      44.318  30.682  28.095  1.00  0.00     0.049 A 
ATOM     62  H   UNL A   1      42.908  30.322  26.576  1.00  0.00     0.167 HD
ATOM     63  C   UNL A   1      46.493  30.911  27.074  1.00  0.00     0.074 A 
ATOM     64  C   UNL A   1      47.829  31.483  27.162  1.00  0.00     0.031 C 
ATOM     65  C   UNL A   1      45.281  31.472  27.344  1.00  0.00     0.037 A 
BRANCH  52  66
ATOM     66  C   UNL A   1      39.831  28.780  28.651  1.00  0.00     0.064 A 
ATOM     67  C   UNL A   1      38.739  29.306  27.919  1.00  0.00     0.173 A 
ATOM     68  C   UNL A   1      39.491  28.387  29.962  1.00  0.00     0.173 A 
ATOM     69  F   UNL A   1      38.857  29.652  26.631  1.00  0.00    -0.203 F 
ATOM     70  C   UNL A   1      37.465  29.498  28.475  1.00  0.00     0.198 A 
ATOM     71  C   UNL A   1      38.229  28.609  30.530  1.00  0.00     0.198 A 
ATOM     72  F   UNL A   1      40.336  27.709  30.739  1.00  0.00    -0.203 F 
ATOM     73  F   UNL A   1      36.481  30.010  27.722  1.00  0.00    -0.200 F 
ATOM     74  C   UNL A   1      37.217  29.170  29.789  1.00  0.00     0.200 A 
ATOM     75  F   UNL A   1      38.007  28.257  31.805  1.00  0.00    -0.200 F 
ATOM     76  F   UNL A   1      36.005  29.366  30.328  1.00  0.00    -0.200 F 
ENDBRANCH  52  66
BRANCH  53  77
ATOM     77  C   UNL A   1      49.280  27.032  26.354  1.00  0.00     0.064 A 
ATOM     78  C   UNL A   1      49.083  27.168  24.960  1.00  0.00     0.173 A 
ATOM     79  C   UNL A   1      50.508  26.507  26.778  1.00  0.00     0.173 A 
ATOM     80  F   UNL A   1      47.934  27.687  24.497  1.00  0.00    -0.203 F 
ATOM     81  C   UNL A   1      50.122  26.962  24.053  1.00  0.00     0.198 A 
ATOM     82  C   UNL A   1      51.541  26.279  25.858  1.00  0.00     0.198 A 
ATOM     83  F   UNL A   1      50.767  26.361  28.084  1.00  0.00    -0.203 F 
ATOM     84  F   UNL A   1      49.953  27.280  22.761  1.00  0.00    -0.200 F 
ATOM     85  C   UNL A   1      51.362  26.556  24.509  1.00  0.00     0.200 A 
ATOM     86  F   UNL A   1      52.753  25.902  26.293  1.00  0.00    -0.200 F 
ATOM     87  F   UNL A   1      52.398  26.490  23.659  1.00  0.00    -0.200 F 
ENDBRANCH  53  77
BRANCH  65  88
ATOM     88  C   UNL A   1      44.977  32.906  27.030  1.00  0.00     0.064 A 
ATOM     89  C   UNL A   1      44.147  33.274  25.957  1.00  0.00     0.173 A 
ATOM     90  C   UNL A   1      45.327  33.938  27.928  1.00  0.00     0.173 A 
ATOM     91  F   UNL A   1      43.669  32.364  25.096  1.00  0.00    -0.203 F 
ATOM     92  C   UNL A   1      43.730  34.588  25.770  1.00  0.00     0.198 A 
ATOM     93  C   UNL A   1      44.862  35.239  27.767  1.00  0.00     0.198 A 
ATOM     94  F   UNL A   1      46.086  33.708  29.009  1.00  0.00    -0.203 F 
ATOM     95  F   UNL A   1      42.961  34.893  24.716  1.00  0.00    -0.200 F 
ATOM     96  C   UNL A   1      44.074  35.566  26.683  1.00  0.00     0.200 A 
ATOM     97  F   UNL A   1      45.158  36.166  28.689  1.00  0.00    -0.200 F 
ATOM     98  F   UNL A   1      43.624  36.817  26.531  1.00  0.00    -0.200 F 
ENDBRANCH  65  88
ENDBRANCH  39  40
ENDBRANCH  32  34
ENDBRANCH  31  32
ENDBRANCH  30  31
ENDBRANCH   1  30
TORSDOF 16
ENDMDL
MODEL 3
REMARK VINA RESULT:     -13.2      2.722      4.093
REMARK SMILES Cc1ccccc1-c1c(Cl)ccc2c1C=C(C(=O)OCCOCCOC(=O)c1ccc(-c3c4nc(c(-c5c(F)c(F)c(F)c(F)c5F)c5ccc([nH]5)c(-c5c(F)c(F)c(F)c(F)c5F)c5nc(c(-c6c(F)c(F)c(F)c(F)c6F)c6ccc3[nH]6)C=C5)C=C4)cc1)[C@@H](C(F)(F)F)O2
REMARK SMILES IDX 23 1 22 2 21 3 20 4 19 5 17 6 18 7 16 8 8 9 9 10 14 11 10 12
REMARK SMILES IDX 11 13 13 14 15 15 12 16 96 17 91 18 7 19 1 20 2 21 3 22 4 23
REMARK SMILES IDX 6 24 5 25 92 26 93 27 94 28 95 29 24 30 25 31 26 32 27 33
REMARK SMILES IDX 28 34 29 35 90 36 30 37 89 38 31 39 32 40 33 41 83 42 34 43
REMARK SMILES IDX 88 44 82 45 84 46 35 47 87 48 81 49 80 50 36 52 68 53 48 54
REMARK SMILES IDX 67 55 49 56 52 57 66 58 85 59 50 60 51 61 65 63 86 64 53 65
REMARK SMILES IDX 37 66 38 67 46 68 39 69 40 70 44 71 47 72 41 73 42 74 45 75
REMARK SMILES IDX 43 76 69 77 70 78 78 79 71 80 72 81 76 82 79 83 73 84 74 85
REMARK SMILES IDX 77 86 75 87 54 88 55 89 63 90 56 91 57 92 61 93 64 94 58 95
REMARK SMILES IDX 59 96 62 97 60 98
REMARK H PARENT 84 51 52 62
REMARK Flexibility Score: inf
ROOT
ATOM      1  C   UNL A   1      32.996  31.959  27.274  1.00  0.00     0.202 C 
ENDROOT
BRANCH   1   2
ATOM      2  O   UNL A   1      33.008  30.775  26.491  1.00  0.00    -0.374 OA
BRANCH   2   3
ATOM      3  C   UNL A   1      31.799  30.019  26.501  1.00  0.00     0.202 C 
BRANCH   3   4
ATOM      4  C   UNL A   1      31.989  28.933  27.536  1.00  0.00     0.261 C 
BRANCH   4   5
ATOM      5  O   UNL A   1      33.015  28.005  27.139  1.00  0.00    -0.460 OA
BRANCH   5   6
ATOM      6  C   UNL A   1      32.551  26.943  26.443  1.00  0.00     0.338 C 
ATOM      7  O   UNL A   1      31.836  26.047  26.867  1.00  0.00    -0.246 OA
BRANCH   6   8
ATOM      8  C   UNL A   1      33.017  26.941  25.039  1.00  0.00     0.087 C 
ATOM      9  C   UNL A   1      33.317  23.416  24.059  1.00  0.00     0.012 A 
ATOM     10  C   UNL A   1      32.340  22.474  23.631  1.00  0.00     0.049 A 
ATOM     11  C   UNL A   1      32.936  24.792  24.042  1.00  0.00     0.027 A 
ATOM     12  Cl  UNL A   1      32.611  20.760  23.692  1.00  0.00    -0.084 Cl
ATOM     13  C   UNL A   1      31.081  22.869  23.160  1.00  0.00     0.025 A 
ATOM     14  C   UNL A   1      31.664  25.164  23.539  1.00  0.00     0.128 A 
ATOM     15  C   UNL A   1      33.729  25.847  24.724  1.00  0.00     0.028 C 
ATOM     16  C   UNL A   1      30.750  24.212  23.099  1.00  0.00     0.049 A 
ATOM     17  O   UNL A   1      31.185  26.450  23.484  1.00  0.00    -0.475 OA
ATOM     18  C   UNL A   1      31.989  27.477  24.090  1.00  0.00     0.316 C 
BRANCH   9  19
ATOM     19  C   UNL A   1      34.696  22.952  24.416  1.00  0.00    -0.013 A 
ATOM     20  C   UNL A   1      34.239  22.419  26.904  1.00  0.00     0.045 C 
ATOM     21  C   UNL A   1      35.121  22.516  25.694  1.00  0.00    -0.043 A 
ATOM     22  C   UNL A   1      36.456  22.109  25.895  1.00  0.00     0.004 A 
ATOM     23  C   UNL A   1      37.365  22.070  24.844  1.00  0.00     0.000 A 
ATOM     24  C   UNL A   1      35.654  22.914  23.376  1.00  0.00     0.009 A 
ATOM     25  C   UNL A   1      36.959  22.458  23.579  1.00  0.00     0.001 A 
ENDBRANCH   9  19
BRANCH  18  26
ATOM     26  C   UNL A   1      32.659  28.359  23.029  1.00  0.00     0.430 C 
ATOM     27  F   UNL A   1      33.112  27.621  21.989  1.00  0.00    -0.167 F 
ATOM     28  F   UNL A   1      31.779  29.255  22.515  1.00  0.00    -0.167 F 
ATOM     29  F   UNL A   1      33.706  29.060  23.519  1.00  0.00    -0.167 F 
ENDBRANCH  18  26
ENDBRANCH   6   8
ENDBRANCH   5   6
ENDBRANCH   4   5
ENDBRANCH   3   4
ENDBRANCH   2   3
ENDBRANCH   1   2
BRANCH   1  30
ATOM     30  C   UNL A   1      34.057  31.984  28.383  1.00  0.00     0.261 C 
BRANCH  30  31
ATOM     31  O   UNL A   1      34.999  30.915  28.180  1.00  0.00    -0.460 OA
BRANCH  31  32
ATOM     32  C   UNL A   1      36.307  31.268  28.295  1.00  0.00     0.338 C 
ATOM     33  O   UNL A   1      36.758  32.387  28.093  1.00  0.00    -0.246 OA
BRANCH  32  34
ATOM     34  C   UNL A   1      37.139  30.043  28.420  1.00  0.00     0.060 A 
ATOM     35  C   UNL A   1      37.091  29.281  29.601  1.00  0.00     0.016 A 
ATOM     36  C   UNL A   1      38.169  29.846  27.503  1.00  0.00     0.016 A 
ATOM     37  C   UNL A   1      38.155  28.432  29.926  1.00  0.00     0.010 A 
ATOM     38  C   UNL A   1      39.265  29.111  27.886  1.00  0.00     0.010 A 
ATOM     39  C   UNL A   1      39.275  28.412  29.101  1.00  0.00    -0.014 A 
BRANCH  39  40
ATOM     40  C   UNL A   1      40.548  27.761  29.395  1.00  0.00     0.031 A 
ATOM     41  C   UNL A   1      40.815  26.406  28.851  1.00  0.00     0.074 A 
ATOM     42  C   UNL A   1      41.579  28.496  29.869  1.00  0.00     0.049 A 
ATOM     43  N   UNL A   1      41.863  25.707  29.119  1.00  0.00    -0.248 NA
ATOM     44  C   UNL A   1      39.907  25.711  27.948  1.00  0.00     0.031 C 
ATOM     45  C   UNL A   1      42.998  28.192  29.742  1.00  0.00     0.029 A 
ATOM     46  N   UNL A   1      41.561  29.638  30.684  1.00  0.00    -0.354 N 
ATOM     47  C   UNL A   1      41.958  24.699  28.187  1.00  0.00     0.074 A 
ATOM     48  C   UNL A   1      40.665  24.685  27.548  1.00  0.00     0.031 C 
ATOM     49  C   UNL A   1      43.668  28.833  30.705  1.00  0.00     0.029 A 
ATOM     50  C   UNL A   1      42.688  29.533  31.513  1.00  0.00     0.049 A 
ATOM     51  H   UNL A   1      40.894  30.362  30.676  1.00  0.00     0.167 HD
ATOM     52  C   UNL A   1      43.179  24.113  27.994  1.00  0.00     0.037 A 
ATOM     53  C   UNL A   1      42.623  29.575  32.866  1.00  0.00     0.037 A 
ATOM     54  C   UNL A   1      44.155  24.635  28.971  1.00  0.00     0.049 A 
ATOM     55  C   UNL A   1      43.292  28.345  33.378  1.00  0.00     0.074 A 
ATOM     56  C   UNL A   1      45.223  25.512  28.858  1.00  0.00     0.029 A 
ATOM     57  N   UNL A   1      43.906  24.508  30.342  1.00  0.00    -0.354 N 
ATOM     58  N   UNL A   1      43.250  27.211  32.726  1.00  0.00    -0.248 NA
ATOM     59  C   UNL A   1      44.242  28.347  34.485  1.00  0.00     0.031 C 
ATOM     60  C   UNL A   1      45.572  25.954  30.161  1.00  0.00     0.029 A 
ATOM     61  C   UNL A   1      44.730  25.340  31.077  1.00  0.00     0.049 A 
ATOM     62  H   UNL A   1      43.231  23.906  30.732  1.00  0.00     0.167 HD
ATOM     63  C   UNL A   1      44.269  26.429  33.182  1.00  0.00     0.074 A 
ATOM     64  C   UNL A   1      44.808  27.137  34.334  1.00  0.00     0.031 C 
ATOM     65  C   UNL A   1      44.741  25.328  32.532  1.00  0.00     0.037 A 
BRANCH  52  66
ATOM     66  C   UNL A   1      43.582  23.279  26.778  1.00  0.00     0.064 A 
ATOM     67  C   UNL A   1      43.159  21.934  26.645  1.00  0.00     0.173 A 
ATOM     68  C   UNL A   1      44.411  23.714  25.723  1.00  0.00     0.173 A 
ATOM     69  F   UNL A   1      42.300  21.379  27.509  1.00  0.00    -0.203 F 
ATOM     70  C   UNL A   1      43.595  21.092  25.611  1.00  0.00     0.198 A 
ATOM     71  C   UNL A   1      44.875  22.866  24.708  1.00  0.00     0.198 A 
ATOM     72  F   UNL A   1      44.762  24.992  25.578  1.00  0.00    -0.203 F 
ATOM     73  F   UNL A   1      43.158  19.826  25.556  1.00  0.00    -0.200 F 
ATOM     74  C   UNL A   1      44.473  21.552  24.654  1.00  0.00     0.200 A 
ATOM     75  F   UNL A   1      45.709  23.346  23.773  1.00  0.00    -0.200 F 
ATOM     76  F   UNL A   1      44.903  20.746  23.674  1.00  0.00    -0.200 F 
ENDBRANCH  52  66
BRANCH  53  77
ATOM     77  C   UNL A   1      41.447  30.346  33.344  1.00  0.00     0.064 A 
ATOM     78  C   UNL A   1      41.586  31.753  33.291  1.00  0.00     0.173 A 
ATOM     79  C   UNL A   1      40.146  29.831  33.291  1.00  0.00     0.173 A 
ATOM     80  F   UNL A   1      42.812  32.302  33.315  1.00  0.00    -0.203 F 
ATOM     81  C   UNL A   1      40.500  32.584  33.017  1.00  0.00     0.198 A 
ATOM     82  C   UNL A   1      39.055  30.674  33.039  1.00  0.00     0.198 A 
ATOM     83  F   UNL A   1      39.940  28.507  33.325  1.00  0.00    -0.203 F 
ATOM     84  F   UNL A   1      40.700  33.890  32.789  1.00  0.00    -0.200 F 
ATOM     85  C   UNL A   1      39.241  32.037  32.852  1.00  0.00     0.200 A 
ATOM     86  F   UNL A   1      37.832  30.151  32.860  1.00  0.00    -0.200 F 
ATOM     87  F   UNL A   1      38.223  32.814  32.454  1.00  0.00    -0.200 F 
ENDBRANCH  53  77
BRANCH  65  88
ATOM     88  C   UNL A   1      45.398  24.193  33.258  1.00  0.00     0.064 A 
ATOM     89  C   UNL A   1      46.689  24.305  33.804  1.00  0.00     0.173 A 
ATOM     90  C   UNL A   1      44.666  23.041  33.622  1.00  0.00     0.173 A 
ATOM     91  F   UNL A   1      47.439  25.399  33.611  1.00  0.00    -0.203 F 
ATOM     92  C   UNL A   1      47.227  23.315  34.620  1.00  0.00     0.198 A 
ATOM     93  C   UNL A   1      45.189  22.082  34.482  1.00  0.00     0.198 A 
ATOM     94  F   UNL A   1      43.413  22.835  33.194  1.00  0.00    -0.203 F 
ATOM     95  F   UNL A   1      48.472  23.456  35.094  1.00  0.00    -0.200 F 
ATOM     96  C   UNL A   1      46.472  22.213  34.972  1.00  0.00     0.200 A 
ATOM     97  F   UNL A   1      44.427  21.046  34.860  1.00  0.00    -0.200 F 
ATOM     98  F   UNL A   1      46.973  21.291  35.804  1.00  0.00    -0.200 F 
ENDBRANCH  65  88
ENDBRANCH  39  40
ENDBRANCH  32  34
ENDBRANCH  31  32
ENDBRANCH  30  31
ENDBRANCH   1  30
TORSDOF 16
ENDMDL
