MODEL 1
REMARK VINA RESULT:     -12.6      0.000      0.000
REMARK SMILES O=C1C[C@@H](C(=O)OCCOCCOC(=O)c2ccc(-c3c4nc(c(-c5c(F)c(F)c(F)c(F)c5F)c5ccc([nH]5)c(-c5c(F)c(F)c(F)c(F)c5F)c5nc(c(-c6c(F)c(F)c(F)c(F)c6F)c6ccc3[nH]6)C=C5)C=C4)cc2)C2(CC[NH+](Cc3c[nH]nc3-c3ccc(Cl)cc3)CC2)N1
REMARK SMILES IDX 9 1 8 2 7 3 5 4 6 5 4 6 1 7 2 8 3 9 98 10 79 11 80 13 97 14
REMARK SMILES IDX 81 15 96 16 82 17 83 19 84 20 85 21 88 22 86 23 87 24 89 26
REMARK SMILES IDX 90 27 95 28 91 29 94 30 92 31 93 32 10 33 11 34 12 35 13 36
REMARK SMILES IDX 14 37 15 38 16 39 17 40 78 41 18 42 77 43 19 44 20 45 21 46
REMARK SMILES IDX 71 47 22 48 76 49 70 50 72 51 23 52 75 53 69 54 68 55 24 57
REMARK SMILES IDX 56 58 36 59 55 60 37 61 40 62 54 63 73 64 38 65 39 66 53 68
REMARK SMILES IDX 74 69 41 70 25 71 26 72 34 73 27 74 28 75 32 76 35 77 29 78
REMARK SMILES IDX 30 79 33 80 31 81 57 82 58 83 66 84 59 85 60 86 64 87 67 88
REMARK SMILES IDX 61 89 62 90 65 91 63 92 42 93 43 94 51 95 44 96 45 97 49 98
REMARK SMILES IDX 52 99 46 100 47 101 50 102 48 103
REMARK H PARENT 98 12 82 18 86 25 72 56 40 67
REMARK Flexibility Score: inf
ROOT
ATOM      1  C   UNL A   1      34.504  21.485  26.604  1.00  0.00     0.202 C 
ENDROOT
BRANCH   1   2
ATOM      2  C   UNL A   1      34.089  22.744  27.376  1.00  0.00     0.261 C 
BRANCH   2   3
ATOM      3  O   UNL A   1      33.257  23.663  26.642  1.00  0.00    -0.463 OA
BRANCH   3   4
ATOM      4  C   UNL A   1      31.926  23.407  26.688  1.00  0.00     0.311 C 
ATOM      5  O   UNL A   1      31.325  23.051  27.697  1.00  0.00    -0.252 OA
BRANCH   4   6
ATOM      6  C   UNL A   1      31.221  23.466  25.346  1.00  0.00     0.134 C 
ATOM      7  O   UNL A   1      33.234  21.700  22.983  1.00  0.00    -0.275 OA
ATOM      8  C   UNL A   1      32.557  22.477  23.630  1.00  0.00     0.221 C 
ATOM      9  C   UNL A   1      31.505  22.120  24.647  1.00  0.00     0.117 C 
ATOM     10  N   UNL A   1      32.591  23.844  23.507  1.00  0.00    -0.349 N 
ATOM     11  C   UNL A   1      31.561  24.526  24.273  1.00  0.00     0.064 C 
ATOM     12  H   UNL A   1      33.250  24.318  22.951  1.00  0.00     0.164 HD
ATOM     13  C   UNL A   1      32.098  25.883  24.742  1.00  0.00     0.091 C 
ATOM     14  C   UNL A   1      30.327  24.719  23.340  1.00  0.00     0.091 C 
ATOM     15  C   UNL A   1      31.009  26.847  25.192  1.00  0.00     0.264 C 
ATOM     16  C   UNL A   1      29.368  25.847  23.740  1.00  0.00     0.264 C 
ATOM     17  N   UNL A   1      30.005  27.078  24.175  1.00  0.00    -0.331 N 
ATOM     18  H   UNL A   1      29.256  27.585  24.645  1.00  0.00     0.348 HD
BRANCH  17  19
ATOM     19  C   UNL A   1      30.272  28.126  23.177  1.00  0.00     0.303 C 
BRANCH  19  20
ATOM     20  C   UNL A   1      29.988  29.530  23.613  1.00  0.00     0.052 A 
ATOM     21  C   UNL A   1      28.846  30.257  23.326  1.00  0.00     0.115 A 
ATOM     22  C   UNL A   1      30.703  30.379  24.529  1.00  0.00     0.101 A 
ATOM     23  N   UNL A   1      29.005  31.483  23.888  1.00  0.00    -0.285 N 
ATOM     24  N   UNL A   1      30.112  31.583  24.623  1.00  0.00    -0.175 NA
ATOM     25  H   UNL A   1      28.367  32.223  23.763  1.00  0.00     0.189 HD
BRANCH  22  26
ATOM     26  C   UNL A   1      31.878  30.118  25.364  1.00  0.00     0.003 A 
ATOM     27  C   UNL A   1      31.930  30.686  26.649  1.00  0.00     0.012 A 
ATOM     28  C   UNL A   1      32.974  29.375  24.919  1.00  0.00     0.012 A 
ATOM     29  C   UNL A   1      33.051  30.519  27.466  1.00  0.00     0.021 A 
ATOM     30  C   UNL A   1      34.096  29.197  25.739  1.00  0.00     0.021 A 
ATOM     31  C   UNL A   1      34.132  29.778  27.004  1.00  0.00     0.041 A 
ATOM     32  Cl  UNL A   1      35.532  29.597  27.987  1.00  0.00    -0.084 Cl
ENDBRANCH  22  26
ENDBRANCH  19  20
ENDBRANCH  17  19
ENDBRANCH   4   6
ENDBRANCH   3   4
ENDBRANCH   2   3
ENDBRANCH   1   2
BRANCH   1  33
ATOM     33  O   UNL A   1      35.584  21.623  25.685  1.00  0.00    -0.374 OA
BRANCH  33  34
ATOM     34  C   UNL A   1      36.014  20.451  24.992  1.00  0.00     0.202 C 
BRANCH  34  35
ATOM     35  C   UNL A   1      37.530  20.236  24.955  1.00  0.00     0.261 C 
BRANCH  35  36
ATOM     36  O   UNL A   1      38.212  21.438  25.357  1.00  0.00    -0.460 OA
BRANCH  36  37
ATOM     37  C   UNL A   1      39.324  21.205  26.086  1.00  0.00     0.338 C 
ATOM     38  O   UNL A   1      40.011  20.200  26.075  1.00  0.00    -0.246 OA
BRANCH  37  39
ATOM     39  C   UNL A   1      39.715  22.436  26.789  1.00  0.00     0.060 A 
ATOM     40  C   UNL A   1      39.066  23.620  26.425  1.00  0.00     0.016 A 
ATOM     41  C   UNL A   1      40.785  22.453  27.685  1.00  0.00     0.016 A 
ATOM     42  C   UNL A   1      39.531  24.841  26.908  1.00  0.00     0.010 A 
ATOM     43  C   UNL A   1      41.250  23.680  28.170  1.00  0.00     0.010 A 
ATOM     44  C   UNL A   1      40.655  24.882  27.747  1.00  0.00    -0.014 A 
BRANCH  44  45
ATOM     45  C   UNL A   1      41.279  26.192  28.054  1.00  0.00     0.031 A 
ATOM     46  C   UNL A   1      42.678  26.470  27.579  1.00  0.00     0.074 A 
ATOM     47  C   UNL A   1      40.588  27.142  28.709  1.00  0.00     0.049 A 
ATOM     48  N   UNL A   1      43.386  27.567  27.674  1.00  0.00    -0.248 NA
ATOM     49  C   UNL A   1      43.376  25.363  26.906  1.00  0.00     0.031 C 
ATOM     50  C   UNL A   1      39.228  26.992  29.217  1.00  0.00     0.029 A 
ATOM     51  N   UNL A   1      40.944  28.420  29.058  1.00  0.00    -0.354 N 
ATOM     52  C   UNL A   1      44.605  27.286  27.072  1.00  0.00     0.074 A 
ATOM     53  C   UNL A   1      44.558  25.903  26.646  1.00  0.00     0.031 C 
ATOM     54  C   UNL A   1      38.862  28.135  29.822  1.00  0.00     0.029 A 
ATOM     55  C   UNL A   1      39.968  29.090  29.752  1.00  0.00     0.049 A 
ATOM     56  H   UNL A   1      41.814  28.820  28.833  1.00  0.00     0.167 HD
ATOM     57  C   UNL A   1      45.664  28.108  26.882  1.00  0.00     0.037 A 
ATOM     58  C   UNL A   1      39.970  30.330  30.278  1.00  0.00     0.037 A 
ATOM     59  C   UNL A   1      45.713  29.482  27.307  1.00  0.00     0.049 A 
ATOM     60  C   UNL A   1      41.171  31.217  30.081  1.00  0.00     0.074 A 
ATOM     61  C   UNL A   1      46.722  30.411  27.117  1.00  0.00     0.029 A 
ATOM     62  N   UNL A   1      44.712  30.120  28.024  1.00  0.00    -0.354 N 
ATOM     63  N   UNL A   1      42.291  30.965  29.447  1.00  0.00    -0.248 NA
ATOM     64  C   UNL A   1      41.104  32.565  30.663  1.00  0.00     0.031 C 
ATOM     65  C   UNL A   1      46.351  31.597  27.762  1.00  0.00     0.029 A 
ATOM     66  C   UNL A   1      45.092  31.421  28.313  1.00  0.00     0.049 A 
ATOM     67  H   UNL A   1      43.856  29.710  28.289  1.00  0.00     0.167 HD
ATOM     68  C   UNL A   1      43.051  32.123  29.536  1.00  0.00     0.074 A 
ATOM     69  C   UNL A   1      42.259  33.086  30.272  1.00  0.00     0.031 C 
ATOM     70  C   UNL A   1      44.294  32.366  29.051  1.00  0.00     0.037 A 
BRANCH  57  71
ATOM     71  C   UNL A   1      46.869  27.536  26.193  1.00  0.00     0.064 A 
ATOM     72  C   UNL A   1      47.036  27.632  24.804  1.00  0.00     0.173 A 
ATOM     73  C   UNL A   1      47.883  26.915  26.937  1.00  0.00     0.173 A 
ATOM     74  F   UNL A   1      46.091  28.208  24.047  1.00  0.00    -0.203 F 
ATOM     75  C   UNL A   1      48.165  27.104  24.182  1.00  0.00     0.198 A 
ATOM     76  C   UNL A   1      49.022  26.411  26.315  1.00  0.00     0.198 A 
ATOM     77  F   UNL A   1      47.774  26.804  28.270  1.00  0.00    -0.203 F 
ATOM     78  F   UNL A   1      48.287  27.171  22.848  1.00  0.00    -0.200 F 
ATOM     79  C   UNL A   1      49.159  26.499  24.938  1.00  0.00     0.200 A 
ATOM     80  F   UNL A   1      49.986  25.837  27.047  1.00  0.00    -0.200 F 
ATOM     81  F   UNL A   1      50.247  25.997  24.338  1.00  0.00    -0.200 F 
ENDBRANCH  57  71
BRANCH  58  82
ATOM     82  C   UNL A   1      38.786  30.807  31.037  1.00  0.00     0.064 A 
ATOM     83  C   UNL A   1      38.703  30.653  32.427  1.00  0.00     0.173 A 
ATOM     84  C   UNL A   1      37.716  31.436  30.383  1.00  0.00     0.173 A 
ATOM     85  F   UNL A   1      39.691  30.036  33.092  1.00  0.00    -0.203 F 
ATOM     86  C   UNL A   1      37.590  31.102  33.134  1.00  0.00     0.198 A 
ATOM     87  C   UNL A   1      36.615  31.906  31.094  1.00  0.00     0.198 A 
ATOM     88  F   UNL A   1      37.748  31.605  29.053  1.00  0.00    -0.203 F 
ATOM     89  F   UNL A   1      37.519  30.911  34.458  1.00  0.00    -0.200 F 
ATOM     90  C   UNL A   1      36.550  31.734  32.468  1.00  0.00     0.200 A 
ATOM     91  F   UNL A   1      35.616  32.525  30.449  1.00  0.00    -0.200 F 
ATOM     92  F   UNL A   1      35.483  32.172  33.151  1.00  0.00    -0.200 F 
ENDBRANCH  58  82
BRANCH  70  93
ATOM     93  C   UNL A   1      44.870  33.732  29.289  1.00  0.00     0.064 A 
ATOM     94  C   UNL A   1      45.597  34.028  30.451  1.00  0.00     0.173 A 
ATOM     95  C   UNL A   1      44.731  34.741  28.323  1.00  0.00     0.173 A 
ATOM     96  F   UNL A   1      45.745  33.102  31.409  1.00  0.00    -0.203 F 
ATOM     97  C   UNL A   1      46.145  35.293  30.648  1.00  0.00     0.198 A 
ATOM     98  C   UNL A   1      45.304  35.996  28.511  1.00  0.00     0.198 A 
ATOM     99  F   UNL A   1      44.051  34.505  27.191  1.00  0.00    -0.203 F 
ATOM    100  F   UNL A   1      46.801  35.568  31.783  1.00  0.00    -0.200 F 
ATOM    101  C   UNL A   1      46.005  36.273  29.676  1.00  0.00     0.200 A 
ATOM    102  F   UNL A   1      45.176  36.938  27.567  1.00  0.00    -0.200 F 
ATOM    103  F   UNL A   1      46.538  37.488  29.864  1.00  0.00    -0.200 F 
ENDBRANCH  70  93
ENDBRANCH  44  45
ENDBRANCH  37  39
ENDBRANCH  36  37
ENDBRANCH  35  36
ENDBRANCH  34  35
ENDBRANCH  33  34
ENDBRANCH   1  33
TORSDOF 17
ENDMDL
MODEL 2
REMARK VINA RESULT:     -12.4      0.441      6.970
REMARK SMILES O=C1C[C@@H](C(=O)OCCOCCOC(=O)c2ccc(-c3c4nc(c(-c5c(F)c(F)c(F)c(F)c5F)c5ccc([nH]5)c(-c5c(F)c(F)c(F)c(F)c5F)c5nc(c(-c6c(F)c(F)c(F)c(F)c6F)c6ccc3[nH]6)C=C5)C=C4)cc2)C2(CC[NH+](Cc3c[nH]nc3-c3ccc(Cl)cc3)CC2)N1
REMARK SMILES IDX 9 1 8 2 7 3 5 4 6 5 4 6 1 7 2 8 3 9 98 10 79 11 80 13 97 14
REMARK SMILES IDX 81 15 96 16 82 17 83 19 84 20 85 21 88 22 86 23 87 24 89 26
REMARK SMILES IDX 90 27 95 28 91 29 94 30 92 31 93 32 10 33 11 34 12 35 13 36
REMARK SMILES IDX 14 37 15 38 16 39 17 40 78 41 18 42 77 43 19 44 20 45 21 46
REMARK SMILES IDX 71 47 22 48 76 49 70 50 72 51 23 52 75 53 69 54 68 55 24 57
REMARK SMILES IDX 56 58 36 59 55 60 37 61 40 62 54 63 73 64 38 65 39 66 53 68
REMARK SMILES IDX 74 69 41 70 25 71 26 72 34 73 27 74 28 75 32 76 35 77 29 78
REMARK SMILES IDX 30 79 33 80 31 81 57 82 58 83 66 84 59 85 60 86 64 87 67 88
REMARK SMILES IDX 61 89 62 90 65 91 63 92 42 93 43 94 51 95 44 96 45 97 49 98
REMARK SMILES IDX 52 99 46 100 47 101 50 102 48 103
REMARK H PARENT 98 12 82 18 86 25 72 56 40 67
REMARK Flexibility Score: inf
ROOT
ATOM      1  C   UNL A   1      34.418  21.361  26.807  1.00  0.00     0.202 C 
ENDROOT
BRANCH   1   2
ATOM      2  C   UNL A   1      33.830  22.576  27.534  1.00  0.00     0.261 C 
BRANCH   2   3
ATOM      3  O   UNL A   1      33.170  23.535  26.686  1.00  0.00    -0.463 OA
BRANCH   3   4
ATOM      4  C   UNL A   1      31.817  23.442  26.646  1.00  0.00     0.311 C 
ATOM      5  O   UNL A   1      31.111  23.219  27.624  1.00  0.00    -0.252 OA
BRANCH   4   6
ATOM      6  C   UNL A   1      31.217  23.507  25.254  1.00  0.00     0.134 C 
ATOM      7  O   UNL A   1      33.469  21.866  23.021  1.00  0.00    -0.275 OA
ATOM      8  C   UNL A   1      32.716  22.604  23.628  1.00  0.00     0.221 C 
ATOM      9  C   UNL A   1      31.602  22.188  24.553  1.00  0.00     0.117 C 
ATOM     10  N   UNL A   1      32.710  23.974  23.535  1.00  0.00    -0.349 N 
ATOM     11  C   UNL A   1      31.601  24.602  24.233  1.00  0.00     0.064 C 
ATOM     12  H   UNL A   1      33.393  24.483  23.042  1.00  0.00     0.164 HD
ATOM     13  C   UNL A   1      32.050  25.966  24.768  1.00  0.00     0.091 C 
ATOM     14  C   UNL A   1      30.436  24.774  23.210  1.00  0.00     0.091 C 
ATOM     15  C   UNL A   1      30.896  26.881  25.152  1.00  0.00     0.264 C 
ATOM     16  C   UNL A   1      29.408  25.858  23.556  1.00  0.00     0.264 C 
ATOM     17  N   UNL A   1      29.965  27.100  24.063  1.00  0.00    -0.331 N 
ATOM     18  H   UNL A   1      29.164  27.571  24.484  1.00  0.00     0.348 HD
BRANCH  17  19
ATOM     19  C   UNL A   1      30.271  28.180  23.111  1.00  0.00     0.303 C 
BRANCH  19  20
ATOM     20  C   UNL A   1      30.018  29.572  23.598  1.00  0.00     0.052 A 
ATOM     21  C   UNL A   1      28.888  30.331  23.348  1.00  0.00     0.115 A 
ATOM     22  C   UNL A   1      30.757  30.374  24.538  1.00  0.00     0.101 A 
ATOM     23  N   UNL A   1      29.075  31.533  23.951  1.00  0.00    -0.285 N 
ATOM     24  N   UNL A   1      30.190  31.586  24.679  1.00  0.00    -0.175 NA
ATOM     25  H   UNL A   1      28.451  32.288  23.858  1.00  0.00     0.189 HD
BRANCH  22  26
ATOM     26  C   UNL A   1      31.934  30.062  25.352  1.00  0.00     0.003 A 
ATOM     27  C   UNL A   1      31.953  30.480  26.694  1.00  0.00     0.012 A 
ATOM     28  C   UNL A   1      33.060  29.415  24.838  1.00  0.00     0.012 A 
ATOM     29  C   UNL A   1      33.073  30.260  27.501  1.00  0.00     0.021 A 
ATOM     30  C   UNL A   1      34.181  29.184  25.648  1.00  0.00     0.021 A 
ATOM     31  C   UNL A   1      34.185  29.616  26.971  1.00  0.00     0.041 A 
ATOM     32  Cl  UNL A   1      35.581  29.374  27.945  1.00  0.00    -0.084 Cl
ENDBRANCH  22  26
ENDBRANCH  19  20
ENDBRANCH  17  19
ENDBRANCH   4   6
ENDBRANCH   3   4
ENDBRANCH   2   3
ENDBRANCH   1   2
BRANCH   1  33
ATOM     33  O   UNL A   1      35.443  21.619  25.851  1.00  0.00    -0.374 OA
BRANCH  33  34
ATOM     34  C   UNL A   1      35.871  20.530  25.033  1.00  0.00     0.202 C 
BRANCH  34  35
ATOM     35  C   UNL A   1      37.387  20.346  24.934  1.00  0.00     0.261 C 
BRANCH  35  36
ATOM     36  O   UNL A   1      38.062  21.543  25.362  1.00  0.00    -0.460 OA
BRANCH  36  37
ATOM     37  C   UNL A   1      39.182  21.301  26.076  1.00  0.00     0.338 C 
ATOM     38  O   UNL A   1      39.823  20.266  26.108  1.00  0.00    -0.246 OA
BRANCH  37  39
ATOM     39  C   UNL A   1      39.648  22.551  26.694  1.00  0.00     0.060 A 
ATOM     40  C   UNL A   1      39.090  23.747  26.230  1.00  0.00     0.016 A 
ATOM     41  C   UNL A   1      40.701  22.562  27.610  1.00  0.00     0.016 A 
ATOM     42  C   UNL A   1      39.633  24.966  26.631  1.00  0.00     0.010 A 
ATOM     43  C   UNL A   1      41.244  23.787  28.013  1.00  0.00     0.010 A 
ATOM     44  C   UNL A   1      40.743  24.992  27.489  1.00  0.00    -0.014 A 
BRANCH  44  45
ATOM     45  C   UNL A   1      41.453  26.275  27.712  1.00  0.00     0.031 A 
ATOM     46  C   UNL A   1      40.749  27.391  28.431  1.00  0.00     0.074 A 
ATOM     47  C   UNL A   1      42.730  26.426  27.317  1.00  0.00     0.049 A 
ATOM     48  N   UNL A   1      41.204  28.564  28.794  1.00  0.00    -0.248 NA
ATOM     49  C   UNL A   1      39.342  27.156  28.792  1.00  0.00     0.031 C 
ATOM     50  C   UNL A   1      43.518  25.418  26.613  1.00  0.00     0.029 A 
ATOM     51  N   UNL A   1      43.584  27.491  27.454  1.00  0.00    -0.354 N 
ATOM     52  C   UNL A   1      40.146  29.203  29.426  1.00  0.00     0.074 A 
ATOM     53  C   UNL A   1      39.012  28.303  29.368  1.00  0.00     0.031 C 
ATOM     54  C   UNL A   1      44.743  25.915  26.372  1.00  0.00     0.029 A 
ATOM     55  C   UNL A   1      44.819  27.279  26.894  1.00  0.00     0.049 A 
ATOM     56  H   UNL A   1      43.336  28.327  27.910  1.00  0.00     0.167 HD
ATOM     57  C   UNL A   1      40.123  30.423  30.012  1.00  0.00     0.037 A 
ATOM     58  C   UNL A   1      45.885  28.097  26.807  1.00  0.00     0.037 A 
ATOM     59  C   UNL A   1      41.248  31.318  30.068  1.00  0.00     0.049 A 
ATOM     60  C   UNL A   1      45.827  29.463  27.439  1.00  0.00     0.074 A 
ATOM     61  C   UNL A   1      41.338  32.556  30.682  1.00  0.00     0.029 A 
ATOM     62  N   UNL A   1      42.477  31.077  29.473  1.00  0.00    -0.354 N 
ATOM     63  N   UNL A   1      44.845  30.028  28.097  1.00  0.00    -0.248 NA
ATOM     64  C   UNL A   1      47.031  30.299  27.324  1.00  0.00     0.031 C 
ATOM     65  C   UNL A   1      42.607  33.084  30.416  1.00  0.00     0.029 A 
ATOM     66  C   UNL A   1      43.323  32.156  29.677  1.00  0.00     0.049 A 
ATOM     67  H   UNL A   1      42.715  30.259  28.978  1.00  0.00     0.167 HD
ATOM     68  C   UNL A   1      45.315  31.274  28.492  1.00  0.00     0.074 A 
ATOM     69  C   UNL A   1      46.677  31.376  28.012  1.00  0.00     0.031 C 
ATOM     70  C   UNL A   1      44.675  32.245  29.189  1.00  0.00     0.037 A 
BRANCH  57  71
ATOM     71  C   UNL A   1      38.830  30.871  30.629  1.00  0.00     0.064 A 
ATOM     72  C   UNL A   1      37.803  31.432  29.855  1.00  0.00     0.173 A 
ATOM     73  C   UNL A   1      38.604  30.705  32.002  1.00  0.00     0.173 A 
ATOM     74  F   UNL A   1      37.974  31.621  28.538  1.00  0.00    -0.203 F 
ATOM     75  C   UNL A   1      36.605  31.834  30.441  1.00  0.00     0.198 A 
ATOM     76  C   UNL A   1      37.395  31.084  32.581  1.00  0.00     0.198 A 
ATOM     77  F   UNL A   1      39.551  30.166  32.784  1.00  0.00    -0.203 F 
ATOM     78  F   UNL A   1      35.652  32.405  29.691  1.00  0.00    -0.200 F 
ATOM     79  C   UNL A   1      36.400  31.655  31.801  1.00  0.00     0.200 A 
ATOM     80  F   UNL A   1      37.194  30.900  33.893  1.00  0.00    -0.200 F 
ATOM     81  F   UNL A   1      35.244  32.037  32.362  1.00  0.00    -0.200 F 
ENDBRANCH  57  71
BRANCH  58  82
ATOM     82  C   UNL A   1      47.105  27.636  26.096  1.00  0.00     0.064 A 
ATOM     83  C   UNL A   1      48.184  27.074  26.791  1.00  0.00     0.173 A 
ATOM     84  C   UNL A   1      47.210  27.743  24.700  1.00  0.00     0.173 A 
ATOM     85  F   UNL A   1      48.139  26.974  28.128  1.00  0.00    -0.203 F 
ATOM     86  C   UNL A   1      49.326  26.645  26.119  1.00  0.00     0.198 A 
ATOM     87  C   UNL A   1      48.343  27.291  24.028  1.00  0.00     0.198 A 
ATOM     88  F   UNL A   1      46.204  28.276  23.991  1.00  0.00    -0.203 F 
ATOM     89  F   UNL A   1      50.358  26.144  26.811  1.00  0.00    -0.200 F 
ATOM     90  C   UNL A   1      49.401  26.747  24.738  1.00  0.00     0.200 A 
ATOM     91  F   UNL A   1      48.408  27.382  22.692  1.00  0.00    -0.200 F 
ATOM     92  F   UNL A   1      50.498  26.326  24.092  1.00  0.00    -0.200 F 
ENDBRANCH  58  82
BRANCH  70  93
ATOM     93  C   UNL A   1      45.445  33.498  29.488  1.00  0.00     0.064 A 
ATOM     94  C   UNL A   1      45.367  34.622  28.653  1.00  0.00     0.173 A 
ATOM     95  C   UNL A   1      46.233  33.591  30.645  1.00  0.00     0.173 A 
ATOM     96  F   UNL A   1      44.639  34.578  27.527  1.00  0.00    -0.203 F 
ATOM     97  C   UNL A   1      46.069  35.787  28.954  1.00  0.00     0.198 A 
ATOM     98  C   UNL A   1      46.911  34.765  30.958  1.00  0.00     0.198 A 
ATOM     99  F   UNL A   1      46.334  32.545  31.480  1.00  0.00    -0.203 F 
ATOM    100  F   UNL A   1      46.013  36.835  28.122  1.00  0.00    -0.200 F 
ATOM    101  C   UNL A   1      46.834  35.860  30.109  1.00  0.00     0.200 A 
ATOM    102  F   UNL A   1      47.642  34.838  32.079  1.00  0.00    -0.200 F 
ATOM    103  F   UNL A   1      47.504  36.984  30.401  1.00  0.00    -0.200 F 
ENDBRANCH  70  93
ENDBRANCH  44  45
ENDBRANCH  37  39
ENDBRANCH  36  37
ENDBRANCH  35  36
ENDBRANCH  34  35
ENDBRANCH  33  34
ENDBRANCH   1  33
TORSDOF 17
ENDMDL
MODEL 3
REMARK VINA RESULT:     -12.3      4.846      8.595
REMARK SMILES O=C1C[C@@H](C(=O)OCCOCCOC(=O)c2ccc(-c3c4nc(c(-c5c(F)c(F)c(F)c(F)c5F)c5ccc([nH]5)c(-c5c(F)c(F)c(F)c(F)c5F)c5nc(c(-c6c(F)c(F)c(F)c(F)c6F)c6ccc3[nH]6)C=C5)C=C4)cc2)C2(CC[NH+](Cc3c[nH]nc3-c3ccc(Cl)cc3)CC2)N1
REMARK SMILES IDX 9 1 8 2 7 3 5 4 6 5 4 6 1 7 2 8 3 9 98 10 79 11 80 13 97 14
REMARK SMILES IDX 81 15 96 16 82 17 83 19 84 20 85 21 88 22 86 23 87 24 89 26
REMARK SMILES IDX 90 27 95 28 91 29 94 30 92 31 93 32 10 33 11 34 12 35 13 36
REMARK SMILES IDX 14 37 15 38 16 39 17 40 78 41 18 42 77 43 19 44 20 45 21 46
REMARK SMILES IDX 71 47 22 48 76 49 70 50 72 51 23 52 75 53 69 54 68 55 24 57
REMARK SMILES IDX 56 58 36 59 55 60 37 61 40 62 54 63 73 64 38 65 39 66 53 68
REMARK SMILES IDX 74 69 41 70 25 71 26 72 34 73 27 74 28 75 32 76 35 77 29 78
REMARK SMILES IDX 30 79 33 80 31 81 57 82 58 83 66 84 59 85 60 86 64 87 67 88
REMARK SMILES IDX 61 89 62 90 65 91 63 92 42 93 43 94 51 95 44 96 45 97 49 98
REMARK SMILES IDX 52 99 46 100 47 101 50 102 48 103
REMARK H PARENT 98 12 82 18 86 25 72 56 40 67
REMARK Flexibility Score: inf
ROOT
ATOM      1  C   UNL A   1      34.616  29.730  27.088  1.00  0.00     0.202 C 
ENDROOT
BRANCH   1   2
ATOM      2  C   UNL A   1      34.142  28.766  25.993  1.00  0.00     0.261 C 
BRANCH   2   3
ATOM      3  O   UNL A   1      33.312  29.358  24.975  1.00  0.00    -0.463 OA
BRANCH   3   4
ATOM      4  C   UNL A   1      32.067  28.834  24.862  1.00  0.00     0.311 C 
ATOM      5  O   UNL A   1      31.246  28.799  25.773  1.00  0.00    -0.252 OA
BRANCH   4   6
ATOM      6  C   UNL A   1      31.781  28.155  23.535  1.00  0.00     0.134 C 
ATOM      7  O   UNL A   1      28.237  28.049  23.107  1.00  0.00    -0.275 OA
ATOM      8  C   UNL A   1      29.434  27.852  23.212  1.00  0.00     0.221 C 
ATOM      9  C   UNL A   1      30.533  28.848  22.951  1.00  0.00     0.117 C 
ATOM     10  N   UNL A   1      30.010  26.650  23.536  1.00  0.00    -0.349 N 
ATOM     11  C   UNL A   1      31.459  26.647  23.425  1.00  0.00     0.064 C 
ATOM     12  H   UNL A   1      29.491  25.862  23.818  1.00  0.00     0.164 HD
ATOM     13  C   UNL A   1      32.044  25.703  24.481  1.00  0.00     0.091 C 
ATOM     14  C   UNL A   1      31.822  26.153  21.991  1.00  0.00     0.091 C 
ATOM     15  C   UNL A   1      33.487  25.303  24.211  1.00  0.00     0.264 C 
ATOM     16  C   UNL A   1      33.232  25.572  21.830  1.00  0.00     0.264 C 
ATOM     17  N   UNL A   1      33.670  24.700  22.907  1.00  0.00    -0.331 N 
ATOM     18  H   UNL A   1      34.679  24.641  22.776  1.00  0.00     0.348 HD
BRANCH  17  19
ATOM     19  C   UNL A   1      33.433  23.253  22.785  1.00  0.00     0.303 C 
BRANCH  19  20
ATOM     20  C   UNL A   1      33.077  22.540  24.052  1.00  0.00     0.052 A 
ATOM     21  C   UNL A   1      31.829  22.039  24.382  1.00  0.00     0.115 A 
ATOM     22  C   UNL A   1      33.920  22.063  25.116  1.00  0.00     0.101 A 
ATOM     23  N   UNL A   1      31.936  21.493  25.620  1.00  0.00    -0.285 N 
ATOM     24  N   UNL A   1      33.185  21.488  26.085  1.00  0.00    -0.175 NA
ATOM     25  H   UNL A   1      31.168  21.137  26.124  1.00  0.00     0.189 HD
BRANCH  22  26
ATOM     26  C   UNL A   1      35.378  22.066  25.263  1.00  0.00     0.003 A 
ATOM     27  C   UNL A   1      36.076  20.861  25.065  1.00  0.00     0.012 A 
ATOM     28  C   UNL A   1      36.099  23.200  25.644  1.00  0.00     0.012 A 
ATOM     29  C   UNL A   1      37.459  20.792  25.248  1.00  0.00     0.021 A 
ATOM     30  C   UNL A   1      37.487  23.136  25.819  1.00  0.00     0.021 A 
ATOM     31  C   UNL A   1      38.159  21.931  25.629  1.00  0.00     0.041 A 
ATOM     32  Cl  UNL A   1      39.856  21.848  25.893  1.00  0.00    -0.084 Cl
ENDBRANCH  22  26
ENDBRANCH  19  20
ENDBRANCH  17  19
ENDBRANCH   4   6
ENDBRANCH   3   4
ENDBRANCH   2   3
ENDBRANCH   1   2
BRANCH   1  33
ATOM     33  O   UNL A   1      34.125  31.066  27.023  1.00  0.00    -0.374 OA
BRANCH  33  34
ATOM     34  C   UNL A   1      32.850  31.330  27.609  1.00  0.00     0.202 C 
BRANCH  34  35
ATOM     35  C   UNL A   1      32.313  32.747  27.390  1.00  0.00     0.261 C 
BRANCH  35  36
ATOM     36  O   UNL A   1      33.396  33.695  27.394  1.00  0.00    -0.460 OA
BRANCH  36  37
ATOM     37  C   UNL A   1      33.350  34.557  28.433  1.00  0.00     0.338 C 
ATOM     38  O   UNL A   1      32.477  35.371  28.672  1.00  0.00    -0.246 OA
BRANCH  37  39
ATOM     39  C   UNL A   1      34.441  34.252  29.370  1.00  0.00     0.060 A 
ATOM     40  C   UNL A   1      35.751  34.372  28.895  1.00  0.00     0.016 A 
ATOM     41  C   UNL A   1      34.186  33.732  30.640  1.00  0.00     0.016 A 
ATOM     42  C   UNL A   1      36.813  33.906  29.668  1.00  0.00     0.010 A 
ATOM     43  C   UNL A   1      35.253  33.265  31.415  1.00  0.00     0.010 A 
ATOM     44  C   UNL A   1      36.566  33.308  30.913  1.00  0.00    -0.014 A 
BRANCH  44  45
ATOM     45  C   UNL A   1      37.672  32.604  31.608  1.00  0.00     0.031 A 
ATOM     46  C   UNL A   1      38.303  31.404  30.959  1.00  0.00     0.074 A 
ATOM     47  C   UNL A   1      38.139  33.060  32.784  1.00  0.00     0.049 A 
ATOM     48  N   UNL A   1      39.324  30.686  31.355  1.00  0.00    -0.248 NA
ATOM     49  C   UNL A   1      37.705  30.950  29.694  1.00  0.00     0.031 C 
ATOM     50  C   UNL A   1      37.611  34.211  33.509  1.00  0.00     0.029 A 
ATOM     51  N   UNL A   1      39.164  32.601  33.572  1.00  0.00    -0.354 N 
ATOM     52  C   UNL A   1      39.493  29.703  30.390  1.00  0.00     0.074 A 
ATOM     53  C   UNL A   1      38.448  29.891  29.406  1.00  0.00     0.031 C 
ATOM     54  C   UNL A   1      38.312  34.369  34.645  1.00  0.00     0.029 A 
ATOM     55  C   UNL A   1      39.330  33.321  34.729  1.00  0.00     0.049 A 
ATOM     56  H   UNL A   1      39.727  31.831  33.332  1.00  0.00     0.167 HD
ATOM     57  C   UNL A   1      40.440  28.737  30.324  1.00  0.00     0.037 A 
ATOM     58  C   UNL A   1      40.198  33.148  35.743  1.00  0.00     0.037 A 
ATOM     59  C   UNL A   1      41.478  28.548  31.302  1.00  0.00     0.049 A 
ATOM     60  C   UNL A   1      41.223  32.047  35.663  1.00  0.00     0.074 A 
ATOM     61  C   UNL A   1      42.513  27.628  31.299  1.00  0.00     0.029 A 
ATOM     62  N   UNL A   1      41.602  29.284  32.471  1.00  0.00    -0.354 N 
ATOM     63  N   UNL A   1      41.420  31.167  34.711  1.00  0.00    -0.248 NA
ATOM     64  C   UNL A   1      42.154  31.923  36.794  1.00  0.00     0.031 C 
ATOM     65  C   UNL A   1      43.234  27.777  32.489  1.00  0.00     0.029 A 
ATOM     66  C   UNL A   1      42.677  28.820  33.212  1.00  0.00     0.049 A 
ATOM     67  H   UNL A   1      41.013  30.029  32.735  1.00  0.00     0.167 HD
ATOM     68  C   UNL A   1      42.504  30.400  35.116  1.00  0.00     0.074 A 
ATOM     69  C   UNL A   1      42.934  30.928  36.394  1.00  0.00     0.031 C 
ATOM     70  C   UNL A   1      43.090  29.353  34.485  1.00  0.00     0.037 A 
BRANCH  57  71
ATOM     71  C   UNL A   1      40.387  27.795  29.155  1.00  0.00     0.064 A 
ATOM     72  C   UNL A   1      39.598  26.636  29.182  1.00  0.00     0.173 A 
ATOM     73  C   UNL A   1      41.109  28.075  27.986  1.00  0.00     0.173 A 
ATOM     74  F   UNL A   1      38.897  26.320  30.281  1.00  0.00    -0.203 F 
ATOM     75  C   UNL A   1      39.553  25.778  28.086  1.00  0.00     0.198 A 
ATOM     76  C   UNL A   1      41.042  27.227  26.883  1.00  0.00     0.198 A 
ATOM     77  F   UNL A   1      41.874  29.174  27.908  1.00  0.00    -0.203 F 
ATOM     78  F   UNL A   1      38.823  24.654  28.146  1.00  0.00    -0.200 F 
ATOM     79  C   UNL A   1      40.270  26.076  26.936  1.00  0.00     0.200 A 
ATOM     80  F   UNL A   1      41.726  27.522  25.769  1.00  0.00    -0.200 F 
ATOM     81  F   UNL A   1      40.220  25.252  25.881  1.00  0.00    -0.200 F 
ENDBRANCH  57  71
BRANCH  58  82
ATOM     82  C   UNL A   1      40.138  34.049  36.922  1.00  0.00     0.064 A 
ATOM     83  C   UNL A   1      40.928  35.204  36.996  1.00  0.00     0.173 A 
ATOM     84  C   UNL A   1      39.277  33.775  37.996  1.00  0.00     0.173 A 
ATOM     85  F   UNL A   1      41.783  35.494  36.004  1.00  0.00    -0.203 F 
ATOM     86  C   UNL A   1      40.868  36.045  38.105  1.00  0.00     0.198 A 
ATOM     87  C   UNL A   1      39.201  34.631  39.092  1.00  0.00     0.198 A 
ATOM     88  F   UNL A   1      38.502  32.681  37.972  1.00  0.00    -0.203 F 
ATOM     89  F   UNL A   1      41.660  37.124  38.167  1.00  0.00    -0.200 F 
ATOM     90  C   UNL A   1      40.000  35.762  39.148  1.00  0.00     0.200 A 
ATOM     91  F   UNL A   1      38.353  34.359  40.094  1.00  0.00    -0.200 F 
ATOM     92  F   UNL A   1      39.938  36.578  40.210  1.00  0.00    -0.200 F 
ENDBRANCH  58  82
BRANCH  70  93
ATOM     93  C   UNL A   1      44.269  28.716  35.160  1.00  0.00     0.064 A 
ATOM     94  C   UNL A   1      44.115  27.629  36.033  1.00  0.00     0.173 A 
ATOM     95  C   UNL A   1      45.571  29.168  34.895  1.00  0.00     0.173 A 
ATOM     96  F   UNL A   1      42.890  27.170  36.329  1.00  0.00    -0.203 F 
ATOM     97  C   UNL A   1      45.220  27.033  36.635  1.00  0.00     0.198 A 
ATOM     98  C   UNL A   1      46.675  28.552  35.477  1.00  0.00     0.198 A 
ATOM     99  F   UNL A   1      45.773  30.200  34.061  1.00  0.00    -0.203 F 
ATOM    100  F   UNL A   1      45.047  26.023  37.497  1.00  0.00    -0.200 F 
ATOM    101  C   UNL A   1      46.499  27.490  36.351  1.00  0.00     0.200 A 
ATOM    102  F   UNL A   1      47.910  28.988  35.194  1.00  0.00    -0.200 F 
ATOM    103  F   UNL A   1      47.562  26.910  36.926  1.00  0.00    -0.200 F 
ENDBRANCH  70  93
ENDBRANCH  44  45
ENDBRANCH  37  39
ENDBRANCH  36  37
ENDBRANCH  35  36
ENDBRANCH  34  35
ENDBRANCH  33  34
ENDBRANCH   1  33
TORSDOF 17
ENDMDL
