MODEL 1
REMARK VINA RESULT:     -12.3      0.000      0.000
REMARK SMILES Cc1ccccc1[C@@H](Cc1c(Cl)cccc1Cl)C(=O)OCCOCCOC(=O)c1ccc(-c2c3nc(c(-c4c(F)c(F)c(F)c(F)c4F)c4ccc([nH]4)c(-c4c(F)c(F)c(F)c(F)c4F)c4nc(c(-c5c(F)c(F)c(F)c(F)c5F)c5ccc2[nH]5)C=C4)C=C3)cc1
REMARK SMILES IDX 23 1 22 2 21 3 20 4 18 5 19 6 8 7 7 8 1 9 2 10 3 11 4 12
REMARK SMILES IDX 6 13 5 14 9 15 10 16 11 17 16 18 12 19 13 20 15 21 17 22
REMARK SMILES IDX 14 23 24 24 25 25 26 26 27 27 28 28 29 29 30 30 91 31 31 32
REMARK SMILES IDX 90 33 32 34 33 35 34 36 84 37 35 38 89 39 83 40 85 41 36 42
REMARK SMILES IDX 88 43 82 44 81 45 37 47 69 48 49 49 68 50 50 51 53 52 67 53
REMARK SMILES IDX 86 54 51 55 52 56 66 58 87 59 54 60 38 61 39 62 47 63 40 64
REMARK SMILES IDX 41 65 45 66 48 67 42 68 43 69 46 70 44 71 70 72 71 73 79 74
REMARK SMILES IDX 72 75 73 76 77 77 80 78 74 79 75 80 78 81 76 82 55 83 56 84
REMARK SMILES IDX 64 85 57 86 58 87 62 88 65 89 59 90 60 91 63 92 61 93
REMARK H PARENT 85 46 53 57
REMARK Flexibility Score: inf
ROOT
ATOM      1  O   UNL A   1      32.863  29.998  25.089  1.00  0.00    -0.374 OA
ENDROOT
BRANCH   1   2
ATOM      2  C   UNL A   1      32.356  28.846  24.434  1.00  0.00     0.202 C 
BRANCH   2   3
ATOM      3  C   UNL A   1      33.239  28.601  23.240  1.00  0.00     0.261 C 
BRANCH   3   4
ATOM      4  O   UNL A   1      34.020  27.402  23.323  1.00  0.00    -0.463 OA
BRANCH   4   5
ATOM      5  C   UNL A   1      33.662  26.377  22.497  1.00  0.00     0.313 C 
ATOM      6  O   UNL A   1      33.576  26.478  21.281  1.00  0.00    -0.252 OA
BRANCH   5   7
ATOM      7  C   UNL A   1      33.405  25.079  23.283  1.00  0.00     0.134 C 
BRANCH   7   8
ATOM      8  C   UNL A   1      32.086  25.156  24.060  1.00  0.00    -0.031 A 
ATOM      9  C   UNL A   1      33.214  24.681  26.332  1.00  0.00     0.044 C 
ATOM     10  C   UNL A   1      32.062  25.141  25.474  1.00  0.00    -0.047 A 
ATOM     11  C   UNL A   1      30.883  25.525  26.134  1.00  0.00     0.004 A 
ATOM     12  C   UNL A   1      29.762  25.951  25.424  1.00  0.00     0.000 A 
ATOM     13  C   UNL A   1      30.896  25.460  23.364  1.00  0.00     0.005 A 
ATOM     14  C   UNL A   1      29.762  25.907  24.038  1.00  0.00     0.000 A 
ENDBRANCH   7   8
BRANCH   7  15
ATOM     15  C   UNL A   1      33.608  23.804  22.445  1.00  0.00     0.058 C 
BRANCH  15  16
ATOM     16  C   UNL A   1      33.807  22.510  23.227  1.00  0.00    -0.010 A 
ATOM     17  C   UNL A   1      34.914  22.407  24.096  1.00  0.00     0.045 A 
ATOM     18  C   UNL A   1      32.862  21.464  23.261  1.00  0.00     0.045 A 
ATOM     19  Cl  UNL A   1      36.300  23.433  23.958  1.00  0.00    -0.084 Cl
ATOM     20  C   UNL A   1      34.916  21.478  25.128  1.00  0.00     0.021 A 
ATOM     21  C   UNL A   1      32.802  20.614  24.352  1.00  0.00     0.021 A 
ATOM     22  Cl  UNL A   1      31.770  21.076  21.979  1.00  0.00    -0.084 Cl
ATOM     23  C   UNL A   1      33.816  20.646  25.284  1.00  0.00     0.003 A 
ENDBRANCH  15  16
ENDBRANCH   7  15
ENDBRANCH   5   7
ENDBRANCH   4   5
ENDBRANCH   3   4
ENDBRANCH   2   3
ENDBRANCH   1   2
BRANCH   1  24
ATOM     24  C   UNL A   1      32.758  29.981  26.502  1.00  0.00     0.202 C 
BRANCH  24  25
ATOM     25  C   UNL A   1      34.097  29.722  27.209  1.00  0.00     0.261 C 
BRANCH  25  26
ATOM     26  O   UNL A   1      34.829  30.962  27.321  1.00  0.00    -0.460 OA
BRANCH  26  27
ATOM     27  C   UNL A   1      35.573  31.122  28.447  1.00  0.00     0.338 C 
ATOM     28  O   UNL A   1      35.647  32.160  29.103  1.00  0.00    -0.246 OA
BRANCH  27  29
ATOM     29  C   UNL A   1      36.503  29.969  28.614  1.00  0.00     0.060 A 
ATOM     30  C   UNL A   1      36.659  29.350  29.869  1.00  0.00     0.016 A 
ATOM     31  C   UNL A   1      37.441  29.731  27.615  1.00  0.00     0.016 A 
ATOM     32  C   UNL A   1      37.834  28.634  30.169  1.00  0.00     0.010 A 
ATOM     33  C   UNL A   1      38.637  29.134  27.955  1.00  0.00     0.010 A 
ATOM     34  C   UNL A   1      38.871  28.607  29.238  1.00  0.00    -0.014 A 
BRANCH  34  35
ATOM     35  C   UNL A   1      40.268  28.187  29.476  1.00  0.00     0.031 A 
ATOM     36  C   UNL A   1      40.721  26.900  28.860  1.00  0.00     0.074 A 
ATOM     37  C   UNL A   1      41.195  29.049  29.969  1.00  0.00     0.049 A 
ATOM     38  N   UNL A   1      41.903  26.391  28.950  1.00  0.00    -0.248 NA
ATOM     39  C   UNL A   1      39.832  26.066  28.059  1.00  0.00     0.031 C 
ATOM     40  C   UNL A   1      42.645  28.967  29.801  1.00  0.00     0.029 A 
ATOM     41  N   UNL A   1      41.055  30.226  30.726  1.00  0.00    -0.354 N 
ATOM     42  C   UNL A   1      41.995  25.295  28.118  1.00  0.00     0.074 A 
ATOM     43  C   UNL A   1      40.684  25.185  27.528  1.00  0.00     0.031 C 
ATOM     44  C   UNL A   1      43.265  29.832  30.618  1.00  0.00     0.029 A 
ATOM     45  C   UNL A   1      42.243  30.384  31.470  1.00  0.00     0.049 A 
ATOM     46  H   UNL A   1      40.275  30.826  30.736  1.00  0.00     0.167 HD
ATOM     47  C   UNL A   1      43.189  24.634  28.011  1.00  0.00     0.037 A 
ATOM     48  C   UNL A   1      42.225  30.341  32.826  1.00  0.00     0.037 A 
ATOM     49  C   UNL A   1      44.147  25.097  29.046  1.00  0.00     0.049 A 
ATOM     50  C   UNL A   1      42.983  29.116  33.271  1.00  0.00     0.074 A 
ATOM     51  C   UNL A   1      45.439  25.601  29.066  1.00  0.00     0.029 A 
ATOM     52  N   UNL A   1      43.692  25.253  30.371  1.00  0.00    -0.354 N 
ATOM     53  N   UNL A   1      43.082  28.013  32.564  1.00  0.00    -0.248 NA
ATOM     54  C   UNL A   1      43.845  29.121  34.445  1.00  0.00     0.031 C 
ATOM     55  C   UNL A   1      45.667  26.235  30.316  1.00  0.00     0.029 A 
ATOM     56  C   UNL A   1      44.592  25.959  31.140  1.00  0.00     0.049 A 
ATOM     57  H   UNL A   1      42.835  24.902  30.706  1.00  0.00     0.167 HD
ATOM     58  C   UNL A   1      44.041  27.212  33.126  1.00  0.00     0.074 A 
ATOM     59  C   UNL A   1      44.480  27.946  34.302  1.00  0.00     0.031 C 
ATOM     60  C   UNL A   1      44.487  26.036  32.588  1.00  0.00     0.037 A 
BRANCH  47  61
ATOM     61  C   UNL A   1      43.526  23.686  26.847  1.00  0.00     0.064 A 
ATOM     62  C   UNL A   1      43.024  22.366  26.788  1.00  0.00     0.173 A 
ATOM     63  C   UNL A   1      44.387  23.994  25.771  1.00  0.00     0.173 A 
ATOM     64  F   UNL A   1      42.107  21.919  27.648  1.00  0.00    -0.203 F 
ATOM     65  C   UNL A   1      43.427  21.424  25.828  1.00  0.00     0.198 A 
ATOM     66  C   UNL A   1      44.831  23.044  24.836  1.00  0.00     0.198 A 
ATOM     67  F   UNL A   1      44.770  25.248  25.518  1.00  0.00    -0.203 F 
ATOM     68  F   UNL A   1      42.902  20.190  25.848  1.00  0.00    -0.200 F 
ATOM     69  C   UNL A   1      44.356  21.753  24.869  1.00  0.00     0.200 A 
ATOM     70  F   UNL A   1      45.712  23.403  23.889  1.00  0.00    -0.200 F 
ATOM     71  F   UNL A   1      44.758  20.849  23.965  1.00  0.00    -0.200 F 
ENDBRANCH  47  61
BRANCH  48  72
ATOM     72  C   UNL A   1      40.995  31.015  33.350  1.00  0.00     0.064 A 
ATOM     73  C   UNL A   1      40.978  32.425  33.190  1.00  0.00     0.173 A 
ATOM     74  C   UNL A   1      39.754  30.366  33.377  1.00  0.00     0.173 A 
ATOM     75  F   UNL A   1      42.137  33.105  33.154  1.00  0.00    -0.203 F 
ATOM     76  C   UNL A   1      39.812  33.107  32.844  1.00  0.00     0.198 A 
ATOM     77  C   UNL A   1      38.578  31.065  33.061  1.00  0.00     0.198 A 
ATOM     78  F   UNL A   1      39.688  29.037  33.533  1.00  0.00    -0.203 F 
ATOM     79  F   UNL A   1      39.874  34.394  32.471  1.00  0.00    -0.200 F 
ATOM     80  C   UNL A   1      38.620  32.415  32.733  1.00  0.00     0.200 A 
ATOM     81  F   UNL A   1      37.417  30.404  32.947  1.00  0.00    -0.200 F 
ATOM     82  F   UNL A   1      37.535  33.026  32.237  1.00  0.00    -0.200 F 
ENDBRANCH  48  72
BRANCH  60  83
ATOM     83  C   UNL A   1      45.082  24.884  33.375  1.00  0.00     0.064 A 
ATOM     84  C   UNL A   1      44.385  23.706  33.683  1.00  0.00     0.173 A 
ATOM     85  C   UNL A   1      46.468  24.859  33.698  1.00  0.00     0.173 A 
ATOM     86  F   UNL A   1      43.117  23.515  33.304  1.00  0.00    -0.203 F 
ATOM     87  C   UNL A   1      44.993  22.637  34.343  1.00  0.00     0.198 A 
ATOM     88  C   UNL A   1      47.082  23.770  34.306  1.00  0.00     0.198 A 
ATOM     89  F   UNL A   1      47.301  25.859  33.388  1.00  0.00    -0.203 F 
ATOM     90  F   UNL A   1      44.263  21.557  34.649  1.00  0.00    -0.200 F 
ATOM     91  C   UNL A   1      46.339  22.665  34.647  1.00  0.00     0.200 A 
ATOM     92  F   UNL A   1      48.404  23.794  34.528  1.00  0.00    -0.200 F 
ATOM     93  F   UNL A   1      46.925  21.615  35.235  1.00  0.00    -0.200 F 
ENDBRANCH  60  83
ENDBRANCH  34  35
ENDBRANCH  27  29
ENDBRANCH  26  27
ENDBRANCH  25  26
ENDBRANCH  24  25
ENDBRANCH   1  24
TORSDOF 17
ENDMDL
MODEL 2
REMARK VINA RESULT:     -12.3      3.668      9.671
REMARK SMILES Cc1ccccc1[C@@H](Cc1c(Cl)cccc1Cl)C(=O)OCCOCCOC(=O)c1ccc(-c2c3nc(c(-c4c(F)c(F)c(F)c(F)c4F)c4ccc([nH]4)c(-c4c(F)c(F)c(F)c(F)c4F)c4nc(c(-c5c(F)c(F)c(F)c(F)c5F)c5ccc2[nH]5)C=C4)C=C3)cc1
REMARK SMILES IDX 23 1 22 2 21 3 20 4 18 5 19 6 8 7 7 8 1 9 2 10 3 11 4 12
REMARK SMILES IDX 6 13 5 14 9 15 10 16 11 17 16 18 12 19 13 20 15 21 17 22
REMARK SMILES IDX 14 23 24 24 25 25 26 26 27 27 28 28 29 29 30 30 91 31 31 32
REMARK SMILES IDX 90 33 32 34 33 35 34 36 84 37 35 38 89 39 83 40 85 41 36 42
REMARK SMILES IDX 88 43 82 44 81 45 37 47 69 48 49 49 68 50 50 51 53 52 67 53
REMARK SMILES IDX 86 54 51 55 52 56 66 58 87 59 54 60 38 61 39 62 47 63 40 64
REMARK SMILES IDX 41 65 45 66 48 67 42 68 43 69 46 70 44 71 70 72 71 73 79 74
REMARK SMILES IDX 72 75 73 76 77 77 80 78 74 79 75 80 78 81 76 82 55 83 56 84
REMARK SMILES IDX 64 85 57 86 58 87 62 88 65 89 59 90 60 91 63 92 61 93
REMARK H PARENT 85 46 53 57
REMARK Flexibility Score: inf
ROOT
ATOM      1  O   UNL A   1      37.336  21.346  25.843  1.00  0.00    -0.374 OA
ENDROOT
BRANCH   1   2
ATOM      2  C   UNL A   1      36.539  21.949  24.836  1.00  0.00     0.202 C 
BRANCH   2   3
ATOM      3  C   UNL A   1      36.311  23.374  25.258  1.00  0.00     0.261 C 
BRANCH   3   4
ATOM      4  O   UNL A   1      36.019  24.269  24.176  1.00  0.00    -0.463 OA
BRANCH   4   5
ATOM      5  C   UNL A   1      34.898  24.004  23.445  1.00  0.00     0.313 C 
ATOM      6  O   UNL A   1      34.899  23.360  22.404  1.00  0.00    -0.252 OA
BRANCH   5   7
ATOM      7  C   UNL A   1      33.639  24.594  24.102  1.00  0.00     0.134 C 
BRANCH   7   8
ATOM      8  C   UNL A   1      33.456  26.068  23.721  1.00  0.00    -0.031 A 
ATOM      9  C   UNL A   1      33.291  26.846  26.175  1.00  0.00     0.044 C 
ATOM     10  C   UNL A   1      33.473  27.090  24.698  1.00  0.00    -0.047 A 
ATOM     11  C   UNL A   1      33.617  28.422  24.279  1.00  0.00     0.004 A 
ATOM     12  C   UNL A   1      33.777  28.746  22.933  1.00  0.00     0.000 A 
ATOM     13  C   UNL A   1      33.482  26.433  22.356  1.00  0.00     0.005 A 
ATOM     14  C   UNL A   1      33.697  27.752  21.968  1.00  0.00     0.000 A 
ENDBRANCH   7   8
BRANCH   7  15
ATOM     15  C   UNL A   1      32.391  23.707  23.943  1.00  0.00     0.058 C 
BRANCH  15  16
ATOM     16  C   UNL A   1      32.468  22.319  24.569  1.00  0.00    -0.010 A 
ATOM     17  C   UNL A   1      32.437  21.192  23.721  1.00  0.00     0.045 A 
ATOM     18  C   UNL A   1      32.732  22.090  25.935  1.00  0.00     0.045 A 
ATOM     19  Cl  UNL A   1      31.830  21.264  22.102  1.00  0.00    -0.084 Cl
ATOM     20  C   UNL A   1      32.927  19.968  24.157  1.00  0.00     0.021 A 
ATOM     21  C   UNL A   1      33.327  20.908  26.342  1.00  0.00     0.021 A 
ATOM     22  Cl  UNL A   1      32.295  23.161  27.219  1.00  0.00    -0.084 Cl
ATOM     23  C   UNL A   1      33.439  19.870  25.443  1.00  0.00     0.003 A 
ENDBRANCH  15  16
ENDBRANCH   7  15
ENDBRANCH   5   7
ENDBRANCH   4   5
ENDBRANCH   3   4
ENDBRANCH   2   3
ENDBRANCH   1   2
BRANCH   1  24
ATOM     24  C   UNL A   1      38.681  21.092  25.473  1.00  0.00     0.202 C 
BRANCH  24  25
ATOM     25  C   UNL A   1      39.704  21.701  26.443  1.00  0.00     0.261 C 
BRANCH  25  26
ATOM     26  O   UNL A   1      39.464  23.120  26.567  1.00  0.00    -0.460 OA
BRANCH  26  27
ATOM     27  C   UNL A   1      40.368  23.821  27.299  1.00  0.00     0.338 C 
ATOM     28  O   UNL A   1      41.295  23.327  27.939  1.00  0.00    -0.246 OA
BRANCH  27  29
ATOM     29  C   UNL A   1      39.918  25.234  27.453  1.00  0.00     0.060 A 
ATOM     30  C   UNL A   1      40.399  26.238  26.592  1.00  0.00     0.016 A 
ATOM     31  C   UNL A   1      39.287  25.596  28.639  1.00  0.00     0.016 A 
ATOM     32  C   UNL A   1      40.396  27.587  26.998  1.00  0.00     0.010 A 
ATOM     33  C   UNL A   1      39.398  26.900  29.079  1.00  0.00     0.010 A 
ATOM     34  C   UNL A   1      39.981  27.908  28.289  1.00  0.00    -0.014 A 
BRANCH  34  35
ATOM     35  C   UNL A   1      40.190  29.188  28.998  1.00  0.00     0.031 A 
ATOM     36  C   UNL A   1      39.093  30.204  28.935  1.00  0.00     0.074 A 
ATOM     37  C   UNL A   1      41.183  29.339  29.913  1.00  0.00     0.049 A 
ATOM     38  N   UNL A   1      39.098  31.363  29.502  1.00  0.00    -0.248 NA
ATOM     39  C   UNL A   1      37.857  29.970  28.196  1.00  0.00     0.031 C 
ATOM     40  C   UNL A   1      41.223  30.303  31.011  1.00  0.00     0.029 A 
ATOM     41  N   UNL A   1      42.393  28.646  30.088  1.00  0.00    -0.354 N 
ATOM     42  C   UNL A   1      37.857  31.946  29.365  1.00  0.00     0.074 A 
ATOM     43  C   UNL A   1      37.097  30.991  28.600  1.00  0.00     0.031 C 
ATOM     44  C   UNL A   1      42.446  30.344  31.560  1.00  0.00     0.029 A 
ATOM     45  C   UNL A   1      43.290  29.532  30.722  1.00  0.00     0.049 A 
ATOM     46  H   UNL A   1      42.580  27.718  29.820  1.00  0.00     0.167 HD
ATOM     47  C   UNL A   1      37.620  33.162  29.950  1.00  0.00     0.037 A 
ATOM     48  C   UNL A   1      44.423  29.939  30.096  1.00  0.00     0.037 A 
ATOM     49  C   UNL A   1      38.882  33.768  30.445  1.00  0.00     0.049 A 
ATOM     50  C   UNL A   1      44.309  31.419  29.827  1.00  0.00     0.074 A 
ATOM     51  C   UNL A   1      39.348  34.274  31.649  1.00  0.00     0.029 A 
ATOM     52  N   UNL A   1      40.020  33.740  29.613  1.00  0.00    -0.354 N 
ATOM     53  N   UNL A   1      43.172  32.049  29.638  1.00  0.00    -0.248 NA
ATOM     54  C   UNL A   1      45.446  32.320  29.954  1.00  0.00     0.031 C 
ATOM     55  C   UNL A   1      40.767  34.341  31.601  1.00  0.00     0.029 A 
ATOM     56  C   UNL A   1      41.167  34.063  30.307  1.00  0.00     0.049 A 
ATOM     57  H   UNL A   1      39.998  33.517  28.655  1.00  0.00     0.167 HD
ATOM     58  C   UNL A   1      43.400  33.399  29.685  1.00  0.00     0.074 A 
ATOM     59  C   UNL A   1      44.837  33.514  29.877  1.00  0.00     0.031 C 
ATOM     60  C   UNL A   1      42.424  34.356  29.640  1.00  0.00     0.037 A 
BRANCH  47  61
ATOM     61  C   UNL A   1      36.206  33.708  30.215  1.00  0.00     0.064 A 
ATOM     62  C   UNL A   1      35.352  34.112  29.163  1.00  0.00     0.173 A 
ATOM     63  C   UNL A   1      35.640  33.916  31.492  1.00  0.00     0.173 A 
ATOM     64  F   UNL A   1      35.655  33.895  27.883  1.00  0.00    -0.203 F 
ATOM     65  C   UNL A   1      34.120  34.754  29.367  1.00  0.00     0.198 A 
ATOM     66  C   UNL A   1      34.432  34.600  31.703  1.00  0.00     0.198 A 
ATOM     67  F   UNL A   1      36.183  33.387  32.592  1.00  0.00    -0.203 F 
ATOM     68  F   UNL A   1      33.373  35.108  28.310  1.00  0.00    -0.200 F 
ATOM     69  C   UNL A   1      33.673  35.029  30.638  1.00  0.00     0.200 A 
ATOM     70  F   UNL A   1      34.004  34.823  32.955  1.00  0.00    -0.200 F 
ATOM     71  F   UNL A   1      32.508  35.661  30.835  1.00  0.00    -0.200 F 
ENDBRANCH  47  61
BRANCH  48  72
ATOM     72  C   UNL A   1      45.016  28.812  29.311  1.00  0.00     0.064 A 
ATOM     73  C   UNL A   1      45.635  27.804  30.095  1.00  0.00     0.173 A 
ATOM     74  C   UNL A   1      44.488  28.417  28.075  1.00  0.00     0.173 A 
ATOM     75  F   UNL A   1      46.158  28.119  31.292  1.00  0.00    -0.203 F 
ATOM     76  C   UNL A   1      45.521  26.453  29.769  1.00  0.00     0.198 A 
ATOM     77  C   UNL A   1      44.408  27.057  27.737  1.00  0.00     0.198 A 
ATOM     78  F   UNL A   1      43.897  29.313  27.274  1.00  0.00    -0.203 F 
ATOM     79  F   UNL A   1      45.910  25.517  30.649  1.00  0.00    -0.200 F 
ATOM     80  C   UNL A   1      44.864  26.079  28.612  1.00  0.00     0.200 A 
ATOM     81  F   UNL A   1      43.769  26.683  26.618  1.00  0.00    -0.200 F 
ATOM     82  F   UNL A   1      44.601  24.785  28.380  1.00  0.00    -0.200 F 
ENDBRANCH  48  72
BRANCH  60  83
ATOM     83  C   UNL A   1      42.613  35.775  29.140  1.00  0.00     0.064 A 
ATOM     84  C   UNL A   1      41.982  36.292  27.999  1.00  0.00     0.173 A 
ATOM     85  C   UNL A   1      43.318  36.736  29.919  1.00  0.00     0.173 A 
ATOM     86  F   UNL A   1      41.158  35.552  27.250  1.00  0.00    -0.203 F 
ATOM     87  C   UNL A   1      42.122  37.627  27.615  1.00  0.00     0.198 A 
ATOM     88  C   UNL A   1      43.409  38.076  29.562  1.00  0.00     0.198 A 
ATOM     89  F   UNL A   1      43.899  36.435  31.086  1.00  0.00    -0.203 F 
ATOM     90  F   UNL A   1      41.531  38.050  26.491  1.00  0.00    -0.200 F 
ATOM     91  C   UNL A   1      42.827  38.519  28.398  1.00  0.00     0.200 A 
ATOM     92  F   UNL A   1      44.041  38.936  30.374  1.00  0.00    -0.200 F 
ATOM     93  F   UNL A   1      42.915  39.808  28.049  1.00  0.00    -0.200 F 
ENDBRANCH  60  83
ENDBRANCH  34  35
ENDBRANCH  27  29
ENDBRANCH  26  27
ENDBRANCH  25  26
ENDBRANCH  24  25
ENDBRANCH   1  24
TORSDOF 17
ENDMDL
MODEL 3
REMARK VINA RESULT:     -12.2      1.605      3.399
REMARK SMILES Cc1ccccc1[C@@H](Cc1c(Cl)cccc1Cl)C(=O)OCCOCCOC(=O)c1ccc(-c2c3nc(c(-c4c(F)c(F)c(F)c(F)c4F)c4ccc([nH]4)c(-c4c(F)c(F)c(F)c(F)c4F)c4nc(c(-c5c(F)c(F)c(F)c(F)c5F)c5ccc2[nH]5)C=C4)C=C3)cc1
REMARK SMILES IDX 23 1 22 2 21 3 20 4 18 5 19 6 8 7 7 8 1 9 2 10 3 11 4 12
REMARK SMILES IDX 6 13 5 14 9 15 10 16 11 17 16 18 12 19 13 20 15 21 17 22
REMARK SMILES IDX 14 23 24 24 25 25 26 26 27 27 28 28 29 29 30 30 91 31 31 32
REMARK SMILES IDX 90 33 32 34 33 35 34 36 84 37 35 38 89 39 83 40 85 41 36 42
REMARK SMILES IDX 88 43 82 44 81 45 37 47 69 48 49 49 68 50 50 51 53 52 67 53
REMARK SMILES IDX 86 54 51 55 52 56 66 58 87 59 54 60 38 61 39 62 47 63 40 64
REMARK SMILES IDX 41 65 45 66 48 67 42 68 43 69 46 70 44 71 70 72 71 73 79 74
REMARK SMILES IDX 72 75 73 76 77 77 80 78 74 79 75 80 78 81 76 82 55 83 56 84
REMARK SMILES IDX 64 85 57 86 58 87 62 88 65 89 59 90 60 91 63 92 61 93
REMARK H PARENT 85 46 53 57
REMARK Flexibility Score: inf
ROOT
ATOM      1  O   UNL A   1      31.490  29.385  26.921  1.00  0.00    -0.374 OA
ENDROOT
BRANCH   1   2
ATOM      2  C   UNL A   1      32.196  28.373  27.621  1.00  0.00     0.202 C 
BRANCH   2   3
ATOM      3  C   UNL A   1      32.063  27.112  26.812  1.00  0.00     0.261 C 
BRANCH   3   4
ATOM      4  O   UNL A   1      33.307  26.596  26.319  1.00  0.00    -0.463 OA
BRANCH   4   5
ATOM      5  C   UNL A   1      33.294  25.321  25.832  1.00  0.00     0.313 C 
ATOM      6  O   UNL A   1      32.563  24.436  26.257  1.00  0.00    -0.252 OA
BRANCH   5   7
ATOM      7  C   UNL A   1      34.290  25.146  24.674  1.00  0.00     0.134 C 
BRANCH   7   8
ATOM      8  C   UNL A   1      35.238  23.969  24.933  1.00  0.00    -0.031 A 
ATOM      9  C   UNL A   1      33.705  22.268  23.743  1.00  0.00     0.044 C 
ATOM     10  C   UNL A   1      35.019  22.702  24.343  1.00  0.00    -0.047 A 
ATOM     11  C   UNL A   1      36.062  21.763  24.354  1.00  0.00     0.004 A 
ATOM     12  C   UNL A   1      37.308  22.070  24.899  1.00  0.00     0.000 A 
ATOM     13  C   UNL A   1      36.460  24.205  25.599  1.00  0.00     0.005 A 
ATOM     14  C   UNL A   1      37.505  23.287  25.534  1.00  0.00     0.000 A 
ENDBRANCH   7   8
BRANCH   7  15
ATOM     15  C   UNL A   1      33.628  25.171  23.285  1.00  0.00     0.058 C 
BRANCH  15  16
ATOM     16  C   UNL A   1      32.512  26.191  23.090  1.00  0.00    -0.010 A 
ATOM     17  C   UNL A   1      31.174  25.771  23.251  1.00  0.00     0.045 A 
ATOM     18  C   UNL A   1      32.736  27.573  22.917  1.00  0.00     0.045 A 
ATOM     19  Cl  UNL A   1      30.708  24.107  23.164  1.00  0.00    -0.084 Cl
ATOM     20  C   UNL A   1      30.172  26.695  23.516  1.00  0.00     0.021 A 
ATOM     21  C   UNL A   1      31.768  28.489  23.293  1.00  0.00     0.021 A 
ATOM     22  Cl  UNL A   1      34.137  28.262  22.177  1.00  0.00    -0.084 Cl
ATOM     23  C   UNL A   1      30.505  28.039  23.611  1.00  0.00     0.003 A 
ENDBRANCH  15  16
ENDBRANCH   7  15
ENDBRANCH   5   7
ENDBRANCH   4   5
ENDBRANCH   3   4
ENDBRANCH   2   3
ENDBRANCH   1   2
BRANCH   1  24
ATOM     24  C   UNL A   1      32.139  30.644  26.871  1.00  0.00     0.202 C 
BRANCH  24  25
ATOM     25  C   UNL A   1      33.672  30.542  26.910  1.00  0.00     0.261 C 
BRANCH  25  26
ATOM     26  O   UNL A   1      34.160  31.115  28.143  1.00  0.00    -0.460 OA
BRANCH  26  27
ATOM     27  C   UNL A   1      35.466  31.488  28.156  1.00  0.00     0.338 C 
ATOM     28  O   UNL A   1      35.884  32.607  27.864  1.00  0.00    -0.246 OA
BRANCH  27  29
ATOM     29  C   UNL A   1      36.341  30.288  28.293  1.00  0.00     0.060 A 
ATOM     30  C   UNL A   1      36.504  29.659  29.542  1.00  0.00     0.016 A 
ATOM     31  C   UNL A   1      37.233  30.005  27.264  1.00  0.00     0.016 A 
ATOM     32  C   UNL A   1      37.649  28.882  29.804  1.00  0.00     0.010 A 
ATOM     33  C   UNL A   1      38.408  29.346  27.566  1.00  0.00     0.010 A 
ATOM     34  C   UNL A   1      38.654  28.805  28.842  1.00  0.00    -0.014 A 
BRANCH  34  35
ATOM     35  C   UNL A   1      40.035  28.313  29.034  1.00  0.00     0.031 A 
ATOM     36  C   UNL A   1      40.312  26.877  28.715  1.00  0.00     0.074 A 
ATOM     37  C   UNL A   1      41.076  29.169  29.202  1.00  0.00     0.049 A 
ATOM     38  N   UNL A   1      41.454  26.286  28.811  1.00  0.00    -0.248 NA
ATOM     39  C   UNL A   1      39.272  25.971  28.241  1.00  0.00     0.031 C 
ATOM     40  C   UNL A   1      42.484  28.901  28.916  1.00  0.00     0.029 A 
ATOM     41  N   UNL A   1      41.118  30.500  29.653  1.00  0.00    -0.354 N 
ATOM     42  C   UNL A   1      41.362  25.020  28.272  1.00  0.00     0.074 A 
ATOM     43  C   UNL A   1      39.984  24.907  27.863  1.00  0.00     0.031 C 
ATOM     44  C   UNL A   1      43.262  29.868  29.425  1.00  0.00     0.029 A 
ATOM     45  C   UNL A   1      42.396  30.709  30.211  1.00  0.00     0.049 A 
ATOM     46  H   UNL A   1      40.392  31.162  29.591  1.00  0.00     0.167 HD
ATOM     47  C   UNL A   1      42.482  24.234  28.214  1.00  0.00     0.037 A 
ATOM     48  C   UNL A   1      42.541  30.993  31.530  1.00  0.00     0.037 A 
ATOM     49  C   UNL A   1      43.591  24.830  29.000  1.00  0.00     0.049 A 
ATOM     50  C   UNL A   1      43.254  29.838  32.187  1.00  0.00     0.074 A 
ATOM     51  C   UNL A   1      44.910  25.189  28.763  1.00  0.00     0.029 A 
ATOM     52  N   UNL A   1      43.314  25.343  30.283  1.00  0.00    -0.354 N 
ATOM     53  N   UNL A   1      43.184  28.594  31.770  1.00  0.00    -0.248 NA
ATOM     54  C   UNL A   1      44.252  30.035  33.231  1.00  0.00     0.031 C 
ATOM     55  C   UNL A   1      45.335  26.077  29.787  1.00  0.00     0.029 A 
ATOM     56  C   UNL A   1      44.352  26.116  30.758  1.00  0.00     0.049 A 
ATOM     57  H   UNL A   1      42.480  25.172  30.778  1.00  0.00     0.167 HD
ATOM     58  C   UNL A   1      44.142  27.857  32.415  1.00  0.00     0.074 A 
ATOM     59  C   UNL A   1      44.775  28.802  33.321  1.00  0.00     0.031 C 
ATOM     60  C   UNL A   1      44.430  26.547  32.144  1.00  0.00     0.037 A 
BRANCH  47  61
ATOM     61  C   UNL A   1      42.602  23.007  27.294  1.00  0.00     0.064 A 
ATOM     62  C   UNL A   1      41.884  21.814  27.540  1.00  0.00     0.173 A 
ATOM     63  C   UNL A   1      43.453  22.912  26.171  1.00  0.00     0.173 A 
ATOM     64  F   UNL A   1      40.945  21.736  28.485  1.00  0.00    -0.203 F 
ATOM     65  C   UNL A   1      42.080  20.626  26.818  1.00  0.00     0.198 A 
ATOM     66  C   UNL A   1      43.688  21.715  25.474  1.00  0.00     0.198 A 
ATOM     67  F   UNL A   1      44.029  23.992  25.637  1.00  0.00    -0.203 F 
ATOM     68  F   UNL A   1      41.357  19.538  27.122  1.00  0.00    -0.200 F 
ATOM     69  C   UNL A   1      43.006  20.566  25.804  1.00  0.00     0.200 A 
ATOM     70  F   UNL A   1      44.574  21.695  24.466  1.00  0.00    -0.200 F 
ATOM     71  F   UNL A   1      43.210  19.428  25.126  1.00  0.00    -0.200 F 
ENDBRANCH  47  61
BRANCH  48  72
ATOM     72  C   UNL A   1      41.439  31.894  31.991  1.00  0.00     0.064 A 
ATOM     73  C   UNL A   1      40.539  31.305  32.916  1.00  0.00     0.173 A 
ATOM     74  C   UNL A   1      41.605  33.283  32.066  1.00  0.00     0.173 A 
ATOM     75  F   UNL A   1      40.337  29.976  32.896  1.00  0.00    -0.203 F 
ATOM     76  C   UNL A   1      40.025  32.025  33.995  1.00  0.00     0.198 A 
ATOM     77  C   UNL A   1      41.056  34.008  33.136  1.00  0.00     0.198 A 
ATOM     78  F   UNL A   1      42.431  33.913  31.220  1.00  0.00    -0.203 F 
ATOM     79  F   UNL A   1      39.372  31.385  34.977  1.00  0.00    -0.200 F 
ATOM     80  C   UNL A   1      40.325  33.368  34.128  1.00  0.00     0.200 A 
ATOM     81  F   UNL A   1      41.344  35.311  33.278  1.00  0.00    -0.200 F 
ATOM     82  F   UNL A   1      39.980  34.023  35.246  1.00  0.00    -0.200 F 
ENDBRANCH  48  72
BRANCH  60  83
ATOM     83  C   UNL A   1      45.030  25.562  33.129  1.00  0.00     0.064 A 
ATOM     84  C   UNL A   1      46.397  25.254  33.193  1.00  0.00     0.173 A 
ATOM     85  C   UNL A   1      44.246  25.016  34.184  1.00  0.00     0.173 A 
ATOM     86  F   UNL A   1      47.286  25.814  32.365  1.00  0.00    -0.203 F 
ATOM     87  C   UNL A   1      46.920  24.400  34.165  1.00  0.00     0.198 A 
ATOM     88  C   UNL A   1      44.781  24.210  35.183  1.00  0.00     0.198 A 
ATOM     89  F   UNL A   1      42.943  25.284  34.332  1.00  0.00    -0.203 F 
ATOM     90  F   UNL A   1      48.227  24.110  34.146  1.00  0.00    -0.200 F 
ATOM     91  C   UNL A   1      46.116  23.885  35.161  1.00  0.00     0.200 A 
ATOM     92  F   UNL A   1      43.993  23.778  36.178  1.00  0.00    -0.200 F 
ATOM     93  F   UNL A   1      46.635  23.106  36.119  1.00  0.00    -0.200 F 
ENDBRANCH  60  83
ENDBRANCH  34  35
ENDBRANCH  27  29
ENDBRANCH  26  27
ENDBRANCH  25  26
ENDBRANCH  24  25
ENDBRANCH   1  24
TORSDOF 17
ENDMDL
