MODEL 1
REMARK VINA RESULT:      -9.3      0.000      0.000
REMARK SMILES CC#CC[C@H](C(=O)OCCOCCOC(=O)c1ccc(-c2c3nc(c(-c4c(F)c(F)c(F)c(F)c4F)c4ccc([nH]4)c(-c4c(F)c(F)c(F)c(F)c4F)c4nc(c(-c5c(F)c(F)c(F)c(F)c5F)c5ccc2[nH]5)C=C4)C=C3)cc1)c1cccc(Br)c1
REMARK SMILES IDX 11 1 10 2 9 3 8 4 6 5 7 6 5 7 4 8 3 9 1 10 2 11 80 12 81 13
REMARK SMILES IDX 86 14 82 15 84 16 83 17 85 18 12 19 13 20 14 21 15 22 16 23
REMARK SMILES IDX 17 24 18 25 79 26 19 27 78 28 20 29 21 30 22 31 72 32 23 33
REMARK SMILES IDX 77 34 71 35 73 36 24 37 76 38 70 39 69 40 25 42 57 43 37 44
REMARK SMILES IDX 56 45 38 46 41 47 55 48 74 49 39 50 40 51 54 53 75 54 42 55
REMARK SMILES IDX 26 56 27 57 35 58 28 59 29 60 33 61 36 62 30 63 31 64 34 65
REMARK SMILES IDX 32 66 58 67 59 68 67 69 60 70 61 71 65 72 68 73 62 74 63 75
REMARK SMILES IDX 66 76 64 77 43 78 44 79 52 80 45 81 46 82 50 83 53 84 47 85
REMARK SMILES IDX 48 86 51 87 49 88
REMARK H PARENT 73 41 41 52
REMARK Flexibility Score: inf
ROOT
ATOM      1  O   UNL A   1      42.841  20.538  25.362  1.00  0.00    -0.374 OA
ENDROOT
BRANCH   1   2
ATOM      2  C   UNL A   1      44.163  19.986  25.369  1.00  0.00     0.202 C 
BRANCH   2   3
ATOM      3  C   UNL A   1      45.208  20.752  24.554  1.00  0.00     0.261 C 
BRANCH   3   4
ATOM      4  O   UNL A   1      46.041  21.535  25.437  1.00  0.00    -0.463 OA
BRANCH   4   5
ATOM      5  C   UNL A   1      46.004  22.884  25.257  1.00  0.00     0.314 C 
ATOM      6  O   UNL A   1      45.872  23.428  24.166  1.00  0.00    -0.252 OA
BRANCH   5   7
ATOM      7  C   UNL A   1      46.107  23.661  26.562  1.00  0.00     0.141 C 
BRANCH   7   8
ATOM      8  C   UNL A   1      46.516  25.155  26.302  1.00  0.00     0.109 C 
BRANCH   8   9
ATOM      9  C   UNL A   1      45.306  25.953  25.846  1.00  0.00    -0.102 C 
ATOM     10  C   UNL A   1      43.056  27.435  24.999  1.00  0.00     0.107 C 
ATOM     11  C   UNL A   1      44.267  26.638  25.456  1.00  0.00    -0.107 C 
ENDBRANCH   8   9
ENDBRANCH   7   8
BRANCH   7  12
ATOM     12  C   UNL A   1      44.962  23.431  27.565  1.00  0.00    -0.032 A 
ATOM     13  C   UNL A   1      43.648  23.094  27.198  1.00  0.00     0.005 A 
ATOM     14  C   UNL A   1      45.211  23.695  28.929  1.00  0.00     0.020 A 
ATOM     15  C   UNL A   1      42.621  23.043  28.150  1.00  0.00     0.001 A 
ATOM     16  C   UNL A   1      44.177  23.668  29.869  1.00  0.00     0.018 A 
ATOM     17  C   UNL A   1      42.881  23.341  29.484  1.00  0.00     0.016 A 
ATOM     18  Br  UNL A   1      44.531  24.138  31.666  1.00  0.00    -0.051 Br
ENDBRANCH   7  12
ENDBRANCH   5   7
ENDBRANCH   4   5
ENDBRANCH   3   4
ENDBRANCH   2   3
ENDBRANCH   1   2
BRANCH   1  19
ATOM     19  C   UNL A   1      41.863  19.883  26.162  1.00  0.00     0.202 C 
BRANCH  19  20
ATOM     20  C   UNL A   1      40.466  20.520  26.200  1.00  0.00     0.261 C 
BRANCH  20  21
ATOM     21  O   UNL A   1      40.485  21.954  26.139  1.00  0.00    -0.460 OA
BRANCH  21  22
ATOM     22  C   UNL A   1      39.258  22.518  26.204  1.00  0.00     0.338 C 
ATOM     23  O   UNL A   1      38.181  21.991  25.943  1.00  0.00    -0.246 OA
BRANCH  22  24
ATOM     24  C   UNL A   1      39.331  23.872  26.774  1.00  0.00     0.060 A 
ATOM     25  C   UNL A   1      39.992  24.846  26.017  1.00  0.00     0.016 A 
ATOM     26  C   UNL A   1      38.875  24.161  28.063  1.00  0.00     0.016 A 
ATOM     27  C   UNL A   1      40.250  26.097  26.567  1.00  0.00     0.010 A 
ATOM     28  C   UNL A   1      39.140  25.420  28.616  1.00  0.00     0.010 A 
ATOM     29  C   UNL A   1      39.863  26.379  27.884  1.00  0.00    -0.014 A 
BRANCH  29  30
ATOM     30  C   UNL A   1      40.340  27.635  28.510  1.00  0.00     0.031 A 
ATOM     31  C   UNL A   1      41.804  27.802  28.810  1.00  0.00     0.074 A 
ATOM     32  C   UNL A   1      39.485  28.646  28.740  1.00  0.00     0.049 A 
ATOM     33  N   UNL A   1      42.444  28.849  29.266  1.00  0.00    -0.248 NA
ATOM     34  C   UNL A   1      42.662  26.634  28.558  1.00  0.00     0.031 C 
ATOM     35  C   UNL A   1      38.049  28.609  28.474  1.00  0.00     0.029 A 
ATOM     36  N   UNL A   1      39.707  29.905  29.237  1.00  0.00    -0.354 N 
ATOM     37  C   UNL A   1      43.777  28.470  29.351  1.00  0.00     0.074 A 
ATOM     38  C   UNL A   1      43.850  27.086  28.934  1.00  0.00     0.031 C 
ATOM     39  C   UNL A   1      37.515  29.795  28.810  1.00  0.00     0.029 A 
ATOM     40  C   UNL A   1      38.570  30.667  29.326  1.00  0.00     0.049 A 
ATOM     41  H   UNL A   1      40.597  30.230  29.506  1.00  0.00     0.167 HD
ATOM     42  C   UNL A   1      44.845  29.214  29.728  1.00  0.00     0.037 A 
ATOM     43  C   UNL A   1      38.400  31.925  29.775  1.00  0.00     0.037 A 
ATOM     44  C   UNL A   1      44.772  30.590  30.142  1.00  0.00     0.049 A 
ATOM     45  C   UNL A   1      39.596  32.719  30.227  1.00  0.00     0.074 A 
ATOM     46  C   UNL A   1      45.802  31.439  30.510  1.00  0.00     0.029 A 
ATOM     47  N   UNL A   1      43.596  31.318  30.256  1.00  0.00    -0.354 N 
ATOM     48  N   UNL A   1      40.859  32.369  30.254  1.00  0.00    -0.248 NA
ATOM     49  C   UNL A   1      39.342  34.088  30.698  1.00  0.00     0.031 C 
ATOM     50  C   UNL A   1      45.245  32.664  30.893  1.00  0.00     0.029 A 
ATOM     51  C   UNL A   1      43.872  32.596  30.718  1.00  0.00     0.049 A 
ATOM     52  H   UNL A   1      42.698  30.976  30.041  1.00  0.00     0.167 HD
ATOM     53  C   UNL A   1      41.553  33.475  30.728  1.00  0.00     0.074 A 
ATOM     54  C   UNL A   1      40.571  34.515  30.958  1.00  0.00     0.031 C 
ATOM     55  C   UNL A   1      42.882  33.616  30.953  1.00  0.00     0.037 A 
BRANCH  42  56
ATOM     56  C   UNL A   1      46.187  28.539  29.730  1.00  0.00     0.064 A 
ATOM     57  C   UNL A   1      46.716  27.955  30.889  1.00  0.00     0.173 A 
ATOM     58  C   UNL A   1      46.943  28.463  28.551  1.00  0.00     0.173 A 
ATOM     59  F   UNL A   1      46.038  28.013  32.046  1.00  0.00    -0.203 F 
ATOM     60  C   UNL A   1      47.968  27.343  30.876  1.00  0.00     0.198 A 
ATOM     61  C   UNL A   1      48.182  27.828  28.535  1.00  0.00     0.198 A 
ATOM     62  F   UNL A   1      46.481  29.003  27.413  1.00  0.00    -0.203 F 
ATOM     63  F   UNL A   1      48.475  26.833  32.007  1.00  0.00    -0.200 F 
ATOM     64  C   UNL A   1      48.697  27.275  29.698  1.00  0.00     0.200 A 
ATOM     65  F   UNL A   1      48.881  27.754  27.394  1.00  0.00    -0.200 F 
ATOM     66  F   UNL A   1      49.900  26.686  29.686  1.00  0.00    -0.200 F 
ENDBRANCH  42  56
BRANCH  43  67
ATOM     67  C   UNL A   1      37.036  32.512  29.806  1.00  0.00     0.064 A 
ATOM     68  C   UNL A   1      36.192  32.329  30.909  1.00  0.00     0.173 A 
ATOM     69  C   UNL A   1      36.557  33.281  28.736  1.00  0.00     0.173 A 
ATOM     70  F   UNL A   1      36.598  31.581  31.946  1.00  0.00    -0.203 F 
ATOM     71  C   UNL A   1      34.917  32.887  30.938  1.00  0.00     0.198 A 
ATOM     72  C   UNL A   1      35.291  33.860  28.776  1.00  0.00     0.198 A 
ATOM     73  F   UNL A   1      37.329  33.486  27.659  1.00  0.00    -0.203 F 
ATOM     74  F   UNL A   1      34.117  32.670  31.991  1.00  0.00    -0.200 F 
ATOM     75  C   UNL A   1      34.470  33.659  29.875  1.00  0.00     0.200 A 
ATOM     76  F   UNL A   1      34.869  34.614  27.753  1.00  0.00    -0.200 F 
ATOM     77  F   UNL A   1      33.247  34.205  29.908  1.00  0.00    -0.200 F 
ENDBRANCH  43  67
BRANCH  55  78
ATOM     78  C   UNL A   1      43.353  34.947  31.463  1.00  0.00     0.064 A 
ATOM     79  C   UNL A   1      43.694  35.988  30.587  1.00  0.00     0.173 A 
ATOM     80  C   UNL A   1      43.440  35.193  32.841  1.00  0.00     0.173 A 
ATOM     81  F   UNL A   1      43.642  35.799  29.259  1.00  0.00    -0.203 F 
ATOM     82  C   UNL A   1      44.132  37.219  31.073  1.00  0.00     0.198 A 
ATOM     83  C   UNL A   1      43.852  36.433  33.323  1.00  0.00     0.198 A 
ATOM     84  F   UNL A   1      43.119  34.234  33.722  1.00  0.00    -0.203 F 
ATOM     85  F   UNL A   1      44.499  38.182  30.217  1.00  0.00    -0.200 F 
ATOM     86  C   UNL A   1      44.205  37.441  32.440  1.00  0.00     0.200 A 
ATOM     87  F   UNL A   1      43.911  36.651  34.644  1.00  0.00    -0.200 F 
ATOM     88  F   UNL A   1      44.625  38.625  32.905  1.00  0.00    -0.200 F 
ENDBRANCH  55  78
ENDBRANCH  29  30
ENDBRANCH  22  24
ENDBRANCH  21  22
ENDBRANCH  20  21
ENDBRANCH  19  20
ENDBRANCH   1  19
TORSDOF 17
ENDMDL
MODEL 2
REMARK VINA RESULT:      -8.9      5.070     10.812
REMARK SMILES CC#CC[C@H](C(=O)OCCOCCOC(=O)c1ccc(-c2c3nc(c(-c4c(F)c(F)c(F)c(F)c4F)c4ccc([nH]4)c(-c4c(F)c(F)c(F)c(F)c4F)c4nc(c(-c5c(F)c(F)c(F)c(F)c5F)c5ccc2[nH]5)C=C4)C=C3)cc1)c1cccc(Br)c1
REMARK SMILES IDX 11 1 10 2 9 3 8 4 6 5 7 6 5 7 4 8 3 9 1 10 2 11 80 12 81 13
REMARK SMILES IDX 86 14 82 15 84 16 83 17 85 18 12 19 13 20 14 21 15 22 16 23
REMARK SMILES IDX 17 24 18 25 79 26 19 27 78 28 20 29 21 30 22 31 72 32 23 33
REMARK SMILES IDX 77 34 71 35 73 36 24 37 76 38 70 39 69 40 25 42 57 43 37 44
REMARK SMILES IDX 56 45 38 46 41 47 55 48 74 49 39 50 40 51 54 53 75 54 42 55
REMARK SMILES IDX 26 56 27 57 35 58 28 59 29 60 33 61 36 62 30 63 31 64 34 65
REMARK SMILES IDX 32 66 58 67 59 68 67 69 60 70 61 71 65 72 68 73 62 74 63 75
REMARK SMILES IDX 66 76 64 77 43 78 44 79 52 80 45 81 46 82 50 83 53 84 47 85
REMARK SMILES IDX 48 86 51 87 49 88
REMARK H PARENT 73 41 41 52
REMARK Flexibility Score: inf
ROOT
ATOM      1  O   UNL A   1      34.043  33.014  32.202  1.00  0.00    -0.374 OA
ENDROOT
BRANCH   1   2
ATOM      2  C   UNL A   1      34.300  33.854  31.072  1.00  0.00     0.202 C 
BRANCH   2   3
ATOM      3  C   UNL A   1      35.464  33.427  30.174  1.00  0.00     0.261 C 
BRANCH   3   4
ATOM      4  O   UNL A   1      35.183  32.136  29.588  1.00  0.00    -0.463 OA
BRANCH   4   5
ATOM      5  C   UNL A   1      35.114  32.096  28.230  1.00  0.00     0.314 C 
ATOM      6  O   UNL A   1      34.877  33.070  27.524  1.00  0.00    -0.252 OA
BRANCH   5   7
ATOM      7  C   UNL A   1      35.401  30.713  27.660  1.00  0.00     0.141 C 
BRANCH   7   8
ATOM      8  C   UNL A   1      36.360  29.900  28.599  1.00  0.00     0.109 C 
BRANCH   8   9
ATOM      9  C   UNL A   1      37.660  29.591  27.873  1.00  0.00    -0.102 C 
ATOM     10  C   UNL A   1      40.073  29.020  26.523  1.00  0.00     0.107 C 
ATOM     11  C   UNL A   1      38.774  29.328  27.249  1.00  0.00    -0.107 C 
ENDBRANCH   8   9
ENDBRANCH   7   8
BRANCH   7  12
ATOM     12  C   UNL A   1      34.179  29.955  27.109  1.00  0.00    -0.032 A 
ATOM     13  C   UNL A   1      32.851  30.389  27.253  1.00  0.00     0.005 A 
ATOM     14  C   UNL A   1      34.392  28.685  26.531  1.00  0.00     0.020 A 
ATOM     15  C   UNL A   1      31.778  29.579  26.857  1.00  0.00     0.001 A 
ATOM     16  C   UNL A   1      33.317  27.872  26.163  1.00  0.00     0.018 A 
ATOM     17  C   UNL A   1      32.008  28.315  26.322  1.00  0.00     0.016 A 
ATOM     18  Br  UNL A   1      33.642  26.132  25.498  1.00  0.00    -0.051 Br
ENDBRANCH   7  12
ENDBRANCH   5   7
ENDBRANCH   4   5
ENDBRANCH   3   4
ENDBRANCH   2   3
ENDBRANCH   1   2
BRANCH   1  19
ATOM     19  C   UNL A   1      34.332  33.553  33.488  1.00  0.00     0.202 C 
BRANCH  19  20
ATOM     20  C   UNL A   1      35.740  33.292  34.043  1.00  0.00     0.261 C 
BRANCH  20  21
ATOM     21  O   UNL A   1      36.564  32.501  33.174  1.00  0.00    -0.460 OA
BRANCH  21  22
ATOM     22  C   UNL A   1      37.500  31.773  33.825  1.00  0.00     0.338 C 
ATOM     23  O   UNL A   1      37.584  31.579  35.034  1.00  0.00    -0.246 OA
BRANCH  22  24
ATOM     24  C   UNL A   1      38.390  31.091  32.874  1.00  0.00     0.060 A 
ATOM     25  C   UNL A   1      39.447  30.348  33.413  1.00  0.00     0.016 A 
ATOM     26  C   UNL A   1      38.274  31.263  31.492  1.00  0.00     0.016 A 
ATOM     27  C   UNL A   1      40.424  29.822  32.575  1.00  0.00     0.010 A 
ATOM     28  C   UNL A   1      39.261  30.737  30.651  1.00  0.00     0.010 A 
ATOM     29  C   UNL A   1      40.361  30.048  31.193  1.00  0.00    -0.014 A 
BRANCH  29  30
ATOM     30  C   UNL A   1      41.524  29.662  30.358  1.00  0.00     0.031 A 
ATOM     31  C   UNL A   1      41.517  28.336  29.649  1.00  0.00     0.074 A 
ATOM     32  C   UNL A   1      42.541  30.520  30.174  1.00  0.00     0.049 A 
ATOM     33  N   UNL A   1      42.385  27.845  28.799  1.00  0.00    -0.248 NA
ATOM     34  C   UNL A   1      40.381  27.446  29.933  1.00  0.00     0.031 C 
ATOM     35  C   UNL A   1      42.650  31.840  30.791  1.00  0.00     0.029 A 
ATOM     36  N   UNL A   1      43.670  30.412  29.402  1.00  0.00    -0.354 N 
ATOM     37  C   UNL A   1      41.897  26.595  28.443  1.00  0.00     0.074 A 
ATOM     38  C   UNL A   1      40.679  26.386  29.196  1.00  0.00     0.031 C 
ATOM     39  C   UNL A   1      43.786  32.422  30.373  1.00  0.00     0.029 A 
ATOM     40  C   UNL A   1      44.488  31.511  29.470  1.00  0.00     0.049 A 
ATOM     41  H   UNL A   1      43.875  29.620  28.853  1.00  0.00     0.167 HD
ATOM     42  C   UNL A   1      42.412  25.707  27.558  1.00  0.00     0.037 A 
ATOM     43  C   UNL A   1      45.670  31.753  28.872  1.00  0.00     0.037 A 
ATOM     44  C   UNL A   1      43.624  25.914  26.810  1.00  0.00     0.049 A 
ATOM     45  C   UNL A   1      46.242  30.735  27.923  1.00  0.00     0.074 A 
ATOM     46  C   UNL A   1      44.209  25.090  25.864  1.00  0.00     0.029 A 
ATOM     47  N   UNL A   1      44.446  27.025  26.934  1.00  0.00    -0.354 N 
ATOM     48  N   UNL A   1      45.749  29.578  27.553  1.00  0.00    -0.248 NA
ATOM     49  C   UNL A   1      47.532  31.064  27.299  1.00  0.00     0.031 C 
ATOM     50  C   UNL A   1      45.409  25.679  25.452  1.00  0.00     0.029 A 
ATOM     51  C   UNL A   1      45.549  26.894  26.105  1.00  0.00     0.049 A 
ATOM     52  H   UNL A   1      44.272  27.793  27.525  1.00  0.00     0.167 HD
ATOM     53  C   UNL A   1      46.654  29.048  26.643  1.00  0.00     0.074 A 
ATOM     54  C   UNL A   1      47.719  30.020  26.502  1.00  0.00     0.031 C 
ATOM     55  C   UNL A   1      46.608  27.864  25.984  1.00  0.00     0.037 A 
BRANCH  42  56
ATOM     56  C   UNL A   1      41.671  24.415  27.369  1.00  0.00     0.064 A 
ATOM     57  C   UNL A   1      40.466  24.354  26.652  1.00  0.00     0.173 A 
ATOM     58  C   UNL A   1      42.182  23.220  27.898  1.00  0.00     0.173 A 
ATOM     59  F   UNL A   1      39.929  25.471  26.138  1.00  0.00    -0.203 F 
ATOM     60  C   UNL A   1      39.786  23.149  26.495  1.00  0.00     0.198 A 
ATOM     61  C   UNL A   1      41.512  22.013  27.717  1.00  0.00     0.198 A 
ATOM     62  F   UNL A   1      43.331  23.223  28.589  1.00  0.00    -0.203 F 
ATOM     63  F   UNL A   1      38.613  23.122  25.848  1.00  0.00    -0.200 F 
ATOM     64  C   UNL A   1      40.312  21.979  27.023  1.00  0.00     0.200 A 
ATOM     65  F   UNL A   1      42.026  20.882  28.219  1.00  0.00    -0.200 F 
ATOM     66  F   UNL A   1      39.657  20.820  26.871  1.00  0.00    -0.200 F 
ENDBRANCH  42  56
BRANCH  43  67
ATOM     67  C   UNL A   1      46.383  33.025  29.151  1.00  0.00     0.064 A 
ATOM     68  C   UNL A   1      47.351  33.108  30.160  1.00  0.00     0.173 A 
ATOM     69  C   UNL A   1      46.120  34.179  28.400  1.00  0.00     0.173 A 
ATOM     70  F   UNL A   1      47.621  32.036  30.920  1.00  0.00    -0.203 F 
ATOM     71  C   UNL A   1      48.023  34.302  30.414  1.00  0.00     0.198 A 
ATOM     72  C   UNL A   1      46.810  35.366  28.638  1.00  0.00     0.198 A 
ATOM     73  F   UNL A   1      45.202  34.149  27.422  1.00  0.00    -0.203 F 
ATOM     74  F   UNL A   1      48.922  34.364  31.406  1.00  0.00    -0.200 F 
ATOM     75  C   UNL A   1      47.758  35.427  29.647  1.00  0.00     0.200 A 
ATOM     76  F   UNL A   1      46.559  36.446  27.887  1.00  0.00    -0.200 F 
ATOM     77  F   UNL A   1      48.413  36.571  29.885  1.00  0.00    -0.200 F 
ENDBRANCH  43  67
BRANCH  55  78
ATOM     78  C   UNL A   1      47.736  27.559  25.042  1.00  0.00     0.064 A 
ATOM     79  C   UNL A   1      48.943  27.008  25.499  1.00  0.00     0.173 A 
ATOM     80  C   UNL A   1      47.602  27.798  23.667  1.00  0.00     0.173 A 
ATOM     81  F   UNL A   1      49.127  26.775  26.808  1.00  0.00    -0.203 F 
ATOM     82  C   UNL A   1      49.984  26.732  24.615  1.00  0.00     0.198 A 
ATOM     83  C   UNL A   1      48.635  27.496  22.783  1.00  0.00     0.198 A 
ATOM     84  F   UNL A   1      46.466  28.319  23.178  1.00  0.00    -0.203 F 
ATOM     85  F   UNL A   1      51.145  26.251  25.081  1.00  0.00    -0.200 F 
ATOM     86  C   UNL A   1      49.826  26.971  23.258  1.00  0.00     0.200 A 
ATOM     87  F   UNL A   1      48.478  27.716  21.470  1.00  0.00    -0.200 F 
ATOM     88  F   UNL A   1      50.828  26.704  22.410  1.00  0.00    -0.200 F 
ENDBRANCH  55  78
ENDBRANCH  29  30
ENDBRANCH  22  24
ENDBRANCH  21  22
ENDBRANCH  20  21
ENDBRANCH  19  20
ENDBRANCH   1  19
TORSDOF 17
ENDMDL
MODEL 3
REMARK VINA RESULT:      -8.8      0.828      7.566
REMARK SMILES CC#CC[C@H](C(=O)OCCOCCOC(=O)c1ccc(-c2c3nc(c(-c4c(F)c(F)c(F)c(F)c4F)c4ccc([nH]4)c(-c4c(F)c(F)c(F)c(F)c4F)c4nc(c(-c5c(F)c(F)c(F)c(F)c5F)c5ccc2[nH]5)C=C4)C=C3)cc1)c1cccc(Br)c1
REMARK SMILES IDX 11 1 10 2 9 3 8 4 6 5 7 6 5 7 4 8 3 9 1 10 2 11 80 12 81 13
REMARK SMILES IDX 86 14 82 15 84 16 83 17 85 18 12 19 13 20 14 21 15 22 16 23
REMARK SMILES IDX 17 24 18 25 79 26 19 27 78 28 20 29 21 30 22 31 72 32 23 33
REMARK SMILES IDX 77 34 71 35 73 36 24 37 76 38 70 39 69 40 25 42 57 43 37 44
REMARK SMILES IDX 56 45 38 46 41 47 55 48 74 49 39 50 40 51 54 53 75 54 42 55
REMARK SMILES IDX 26 56 27 57 35 58 28 59 29 60 33 61 36 62 30 63 31 64 34 65
REMARK SMILES IDX 32 66 58 67 59 68 67 69 60 70 61 71 65 72 68 73 62 74 63 75
REMARK SMILES IDX 66 76 64 77 43 78 44 79 52 80 45 81 46 82 50 83 53 84 47 85
REMARK SMILES IDX 48 86 51 87 49 88
REMARK H PARENT 73 41 41 52
REMARK Flexibility Score: inf
ROOT
ATOM      1  O   UNL A   1      42.677  20.661  25.410  1.00  0.00    -0.374 OA
ENDROOT
BRANCH   1   2
ATOM      2  C   UNL A   1      43.954  20.020  25.501  1.00  0.00     0.202 C 
BRANCH   2   3
ATOM      3  C   UNL A   1      45.070  20.634  24.653  1.00  0.00     0.261 C 
BRANCH   3   4
ATOM      4  O   UNL A   1      45.926  21.448  25.485  1.00  0.00    -0.463 OA
BRANCH   4   5
ATOM      5  C   UNL A   1      45.865  22.792  25.274  1.00  0.00     0.314 C 
ATOM      6  O   UNL A   1      45.644  23.307  24.184  1.00  0.00    -0.252 OA
BRANCH   5   7
ATOM      7  C   UNL A   1      46.063  23.604  26.547  1.00  0.00     0.141 C 
BRANCH   7   8
ATOM      8  C   UNL A   1      46.515  25.072  26.220  1.00  0.00     0.109 C 
BRANCH   8   9
ATOM      9  C   UNL A   1      45.313  25.903  25.802  1.00  0.00    -0.102 C 
ATOM     10  C   UNL A   1      43.080  27.448  25.026  1.00  0.00     0.107 C 
ATOM     11  C   UNL A   1      44.282  26.617  25.444  1.00  0.00    -0.107 C 
ENDBRANCH   8   9
ENDBRANCH   7   8
BRANCH   7  12
ATOM     12  C   UNL A   1      44.962  23.449  27.612  1.00  0.00    -0.032 A 
ATOM     13  C   UNL A   1      43.621  23.148  27.322  1.00  0.00     0.005 A 
ATOM     14  C   UNL A   1      45.289  23.749  28.952  1.00  0.00     0.020 A 
ATOM     15  C   UNL A   1      42.642  23.166  28.324  1.00  0.00     0.001 A 
ATOM     16  C   UNL A   1      44.302  23.791  29.942  1.00  0.00     0.018 A 
ATOM     17  C   UNL A   1      42.978  23.499  29.633  1.00  0.00     0.016 A 
ATOM     18  Br  UNL A   1      44.762  24.308  31.701  1.00  0.00    -0.051 Br
ENDBRANCH   7  12
ENDBRANCH   5   7
ENDBRANCH   4   5
ENDBRANCH   3   4
ENDBRANCH   2   3
ENDBRANCH   1   2
BRANCH   1  19
ATOM     19  C   UNL A   1      41.613  20.095  26.167  1.00  0.00     0.202 C 
BRANCH  19  20
ATOM     20  C   UNL A   1      40.283  20.863  26.166  1.00  0.00     0.261 C 
BRANCH  20  21
ATOM     21  O   UNL A   1      40.439  22.287  26.256  1.00  0.00    -0.460 OA
BRANCH  21  22
ATOM     22  C   UNL A   1      39.268  22.960  26.313  1.00  0.00     0.338 C 
ATOM     23  O   UNL A   1      38.152  22.541  26.022  1.00  0.00    -0.246 OA
BRANCH  22  24
ATOM     24  C   UNL A   1      39.455  24.290  26.915  1.00  0.00     0.060 A 
ATOM     25  C   UNL A   1      40.134  25.244  26.149  1.00  0.00     0.016 A 
ATOM     26  C   UNL A   1      39.087  24.567  28.233  1.00  0.00     0.016 A 
ATOM     27  C   UNL A   1      40.498  26.460  26.717  1.00  0.00     0.010 A 
ATOM     28  C   UNL A   1      39.457  25.790  28.806  1.00  0.00     0.010 A 
ATOM     29  C   UNL A   1      40.199  26.725  28.061  1.00  0.00    -0.014 A 
BRANCH  29  30
ATOM     30  C   UNL A   1      40.785  27.931  28.694  1.00  0.00     0.031 A 
ATOM     31  C   UNL A   1      39.892  29.084  29.056  1.00  0.00     0.074 A 
ATOM     32  C   UNL A   1      42.091  27.964  29.010  1.00  0.00     0.049 A 
ATOM     33  N   UNL A   1      40.181  30.189  29.698  1.00  0.00    -0.248 NA
ATOM     34  C   UNL A   1      38.484  28.977  28.645  1.00  0.00     0.031 C 
ATOM     35  C   UNL A   1      43.052  26.900  28.727  1.00  0.00     0.029 A 
ATOM     36  N   UNL A   1      42.829  28.927  29.651  1.00  0.00    -0.354 N 
ATOM     37  C   UNL A   1      38.994  30.904  29.771  1.00  0.00     0.074 A 
ATOM     38  C   UNL A   1      37.988  30.127  29.077  1.00  0.00     0.031 C 
ATOM     39  C   UNL A   1      44.257  27.268  29.194  1.00  0.00     0.029 A 
ATOM     40  C   UNL A   1      44.152  28.597  29.796  1.00  0.00     0.049 A 
ATOM     41  H   UNL A   1      42.445  29.774  29.974  1.00  0.00     0.167 HD
ATOM     42  C   UNL A   1      38.760  32.094  30.375  1.00  0.00     0.037 A 
ATOM     43  C   UNL A   1      45.165  29.289  30.351  1.00  0.00     0.037 A 
ATOM     44  C   UNL A   1      39.759  32.867  31.064  1.00  0.00     0.049 A 
ATOM     45  C   UNL A   1      44.889  30.628  30.980  1.00  0.00     0.074 A 
ATOM     46  C   UNL A   1      39.613  34.068  31.737  1.00  0.00     0.029 A 
ATOM     47  N   UNL A   1      41.099  32.518  31.158  1.00  0.00    -0.354 N 
ATOM     48  N   UNL A   1      43.753  31.273  31.090  1.00  0.00    -0.248 NA
ATOM     49  C   UNL A   1      46.036  31.329  31.574  1.00  0.00     0.031 C 
ATOM     50  C   UNL A   1      40.873  34.469  32.196  1.00  0.00     0.029 A 
ATOM     51  C   UNL A   1      41.797  33.495  31.851  1.00  0.00     0.049 A 
ATOM     52  H   UNL A   1      41.496  31.697  30.786  1.00  0.00     0.167 HD
ATOM     53  C   UNL A   1      44.042  32.445  31.778  1.00  0.00     0.074 A 
ATOM     54  C   UNL A   1      45.459  32.413  32.077  1.00  0.00     0.031 C 
ATOM     55  C   UNL A   1      43.210  33.455  32.130  1.00  0.00     0.037 A 
BRANCH  42  56
ATOM     56  C   UNL A   1      37.365  32.645  30.295  1.00  0.00     0.064 A 
ATOM     57  C   UNL A   1      36.968  33.498  29.254  1.00  0.00     0.173 A 
ATOM     58  C   UNL A   1      36.410  32.299  31.262  1.00  0.00     0.173 A 
ATOM     59  F   UNL A   1      37.848  33.869  28.311  1.00  0.00    -0.203 F 
ATOM     60  C   UNL A   1      35.672  34.008  29.201  1.00  0.00     0.198 A 
ATOM     61  C   UNL A   1      35.109  32.790  31.192  1.00  0.00     0.198 A 
ATOM     62  F   UNL A   1      36.737  31.484  32.276  1.00  0.00    -0.203 F 
ATOM     63  F   UNL A   1      35.328  34.859  28.225  1.00  0.00    -0.200 F 
ATOM     64  C   UNL A   1      34.743  33.649  30.166  1.00  0.00     0.200 A 
ATOM     65  F   UNL A   1      34.209  32.435  32.119  1.00  0.00    -0.200 F 
ATOM     66  F   UNL A   1      33.497  34.140  30.114  1.00  0.00    -0.200 F 
ENDBRANCH  42  56
BRANCH  43  67
ATOM     67  C   UNL A   1      46.534  28.716  30.341  1.00  0.00     0.064 A 
ATOM     68  C   UNL A   1      46.995  27.919  31.397  1.00  0.00     0.173 A 
ATOM     69  C   UNL A   1      47.404  28.944  29.265  1.00  0.00     0.173 A 
ATOM     70  F   UNL A   1      46.207  27.693  32.459  1.00  0.00    -0.203 F 
ATOM     71  C   UNL A   1      48.278  27.377  31.381  1.00  0.00     0.198 A 
ATOM     72  C   UNL A   1      48.678  28.381  29.238  1.00  0.00     0.198 A 
ATOM     73  F   UNL A   1      47.008  29.699  28.230  1.00  0.00    -0.203 F 
ATOM     74  F   UNL A   1      48.706  26.644  32.418  1.00  0.00    -0.200 F 
ATOM     75  C   UNL A   1      49.115  27.602  30.298  1.00  0.00     0.200 A 
ATOM     76  F   UNL A   1      49.478  28.591  28.185  1.00  0.00    -0.200 F 
ATOM     77  F   UNL A   1      50.345  27.071  30.278  1.00  0.00    -0.200 F 
ENDBRANCH  43  67
BRANCH  55  78
ATOM     78  C   UNL A   1      43.809  34.604  32.888  1.00  0.00     0.064 A 
ATOM     79  C   UNL A   1      43.914  34.584  34.286  1.00  0.00     0.173 A 
ATOM     80  C   UNL A   1      44.307  35.725  32.207  1.00  0.00     0.173 A 
ATOM     81  F   UNL A   1      43.439  33.541  34.984  1.00  0.00    -0.203 F 
ATOM     82  C   UNL A   1      44.470  35.658  34.978  1.00  0.00     0.198 A 
ATOM     83  C   UNL A   1      44.888  36.785  32.901  1.00  0.00     0.198 A 
ATOM     84  F   UNL A   1      44.238  35.792  30.869  1.00  0.00    -0.203 F 
ATOM     85  F   UNL A   1      44.515  35.637  36.317  1.00  0.00    -0.200 F 
ATOM     86  C   UNL A   1      44.961  36.754  34.284  1.00  0.00     0.200 A 
ATOM     87  F   UNL A   1      45.372  37.838  32.229  1.00  0.00    -0.200 F 
ATOM     88  F   UNL A   1      45.497  37.785  34.952  1.00  0.00    -0.200 F 
ENDBRANCH  55  78
ENDBRANCH  29  30
ENDBRANCH  22  24
ENDBRANCH  21  22
ENDBRANCH  20  21
ENDBRANCH  19  20
ENDBRANCH   1  19
TORSDOF 17
ENDMDL
