MODEL 1
REMARK VINA RESULT:     -11.8      0.000      0.000
REMARK SMILES O=C(OCCOCCOC(=O)c1ncccc1-c1cc(Cl)cc(Cl)c1)c1ccc(-c2c3nc(c(-c4c(F)c(F)c(F)c(F)c4F)c4ccc([nH]4)c(-c4c(F)c(F)c(F)c(F)c4F)c4nc(c(-c5c(F)c(F)c(F)c(F)c5F)c5ccc2[nH]5)C=C4)C=C3)cc1
REMARK SMILES IDX 5 1 4 2 3 3 2 4 1 5 26 6 27 7 88 8 28 9 87 10 29 11 30 12
REMARK SMILES IDX 31 13 81 14 32 15 86 16 80 17 82 18 33 19 85 20 79 21 78 22
REMARK SMILES IDX 34 24 66 25 46 26 65 27 47 28 50 29 64 30 83 31 48 32 49 33
REMARK SMILES IDX 63 35 84 36 51 37 35 38 36 39 44 40 37 41 38 42 42 43 45 44
REMARK SMILES IDX 39 45 40 46 43 47 41 48 67 49 68 50 76 51 69 52 70 53 74 54
REMARK SMILES IDX 77 55 71 56 72 57 75 58 73 59 52 60 53 61 61 62 54 63 55 64
REMARK SMILES IDX 59 65 62 66 56 67 57 68 60 69 58 70 6 71 7 72 8 73 9 74
REMARK SMILES IDX 10 75 11 76 12 77 13 78 17 79 14 80 16 81 15 82 18 83 19 84
REMARK SMILES IDX 25 85 20 86 23 87 21 88 22 89 24 90
REMARK H PARENT 82 23 50 34
REMARK Flexibility Score: inf
ROOT
ATOM      1  C   UNL A   1      31.384  32.295  26.759  1.00  0.00     0.202 C 
ENDROOT
BRANCH   1   2
ATOM      2  C   UNL A   1      32.650  33.035  27.196  1.00  0.00     0.261 C 
BRANCH   2   3
ATOM      3  O   UNL A   1      32.310  34.285  27.817  1.00  0.00    -0.460 OA
BRANCH   3   4
ATOM      4  C   UNL A   1      32.955  34.952  28.799  1.00  0.00     0.338 C 
ATOM      5  O   UNL A   1      32.573  36.094  29.062  1.00  0.00    -0.246 OA
BRANCH   4   6
ATOM      6  C   UNL A   1      34.108  34.417  29.595  1.00  0.00     0.060 A 
ATOM      7  C   UNL A   1      34.020  33.677  30.777  1.00  0.00     0.016 A 
ATOM      8  C   UNL A   1      35.387  34.584  29.031  1.00  0.00     0.016 A 
ATOM      9  C   UNL A   1      35.135  33.086  31.358  1.00  0.00     0.010 A 
ATOM     10  C   UNL A   1      36.518  34.003  29.610  1.00  0.00     0.010 A 
ATOM     11  C   UNL A   1      36.385  33.239  30.771  1.00  0.00    -0.014 A 
BRANCH  11  12
ATOM     12  C   UNL A   1      37.543  32.630  31.439  1.00  0.00     0.031 A 
ATOM     13  C   UNL A   1      38.266  31.525  30.743  1.00  0.00     0.074 A 
ATOM     14  C   UNL A   1      37.975  33.144  32.604  1.00  0.00     0.049 A 
ATOM     15  N   UNL A   1      39.262  30.796  31.163  1.00  0.00    -0.248 NA
ATOM     16  C   UNL A   1      37.813  31.207  29.378  1.00  0.00     0.031 C 
ATOM     17  C   UNL A   1      37.390  34.304  33.281  1.00  0.00     0.029 A 
ATOM     18  N   UNL A   1      39.009  32.768  33.418  1.00  0.00    -0.354 N 
ATOM     19  C   UNL A   1      39.538  29.916  30.129  1.00  0.00     0.074 A 
ATOM     20  C   UNL A   1      38.620  30.207  29.052  1.00  0.00     0.031 C 
ATOM     21  C   UNL A   1      38.070  34.538  34.414  1.00  0.00     0.029 A 
ATOM     22  C   UNL A   1      39.094  33.511  34.572  1.00  0.00     0.049 A 
ATOM     23  H   UNL A   1      39.631  32.037  33.200  1.00  0.00     0.167 HD
ATOM     24  C   UNL A   1      40.471  28.938  30.106  1.00  0.00     0.037 A 
ATOM     25  C   UNL A   1      39.881  33.334  35.648  1.00  0.00     0.037 A 
ATOM     26  C   UNL A   1      41.369  28.678  31.196  1.00  0.00     0.049 A 
ATOM     27  C   UNL A   1      40.845  32.175  35.631  1.00  0.00     0.074 A 
ATOM     28  C   UNL A   1      42.345  27.706  31.303  1.00  0.00     0.029 A 
ATOM     29  N   UNL A   1      41.387  29.404  32.381  1.00  0.00    -0.354 N 
ATOM     30  N   UNL A   1      41.090  31.320  34.666  1.00  0.00    -0.248 NA
ATOM     31  C   UNL A   1      41.619  31.936  36.854  1.00  0.00     0.031 C 
ATOM     32  C   UNL A   1      42.919  27.812  32.574  1.00  0.00     0.029 A 
ATOM     33  C   UNL A   1      42.331  28.876  33.243  1.00  0.00     0.049 A 
ATOM     34  H   UNL A   1      40.812  30.179  32.578  1.00  0.00     0.167 HD
ATOM     35  C   UNL A   1      42.042  30.443  35.163  1.00  0.00     0.074 A 
ATOM     36  C   UNL A   1      42.355  30.890  36.505  1.00  0.00     0.031 C 
ATOM     37  C   UNL A   1      42.602  29.358  34.573  1.00  0.00     0.037 A 
BRANCH  24  38
ATOM     38  C   UNL A   1      40.501  28.044  28.907  1.00  0.00     0.064 A 
ATOM     39  C   UNL A   1      41.272  28.338  27.774  1.00  0.00     0.173 A 
ATOM     40  C   UNL A   1      39.734  26.868  28.894  1.00  0.00     0.173 A 
ATOM     41  F   UNL A   1      41.999  29.464  27.726  1.00  0.00    -0.203 F 
ATOM     42  C   UNL A   1      41.263  27.495  26.665  1.00  0.00     0.198 A 
ATOM     43  C   UNL A   1      39.743  26.018  27.793  1.00  0.00     0.198 A 
ATOM     44  F   UNL A   1      38.970  26.549  29.950  1.00  0.00    -0.203 F 
ATOM     45  F   UNL A   1      41.975  27.814  25.575  1.00  0.00    -0.200 F 
ATOM     46  C   UNL A   1      40.503  26.333  26.677  1.00  0.00     0.200 A 
ATOM     47  F   UNL A   1      39.008  24.898  27.808  1.00  0.00    -0.200 F 
ATOM     48  F   UNL A   1      40.495  25.524  25.609  1.00  0.00    -0.200 F 
ENDBRANCH  24  38
BRANCH  25  49
ATOM     49  C   UNL A   1      39.732  34.203  36.847  1.00  0.00     0.064 A 
ATOM     50  C   UNL A   1      40.440  35.405  36.972  1.00  0.00     0.173 A 
ATOM     51  C   UNL A   1      38.900  33.827  37.915  1.00  0.00     0.173 A 
ATOM     52  F   UNL A   1      41.270  35.799  35.996  1.00  0.00    -0.203 F 
ATOM     53  C   UNL A   1      40.336  36.187  38.125  1.00  0.00     0.198 A 
ATOM     54  C   UNL A   1      38.773  34.624  39.050  1.00  0.00     0.198 A 
ATOM     55  F   UNL A   1      38.206  32.681  37.855  1.00  0.00    -0.203 F 
ATOM     56  F   UNL A   1      41.067  37.304  38.241  1.00  0.00    -0.200 F 
ATOM     57  C   UNL A   1      39.499  35.798  39.159  1.00  0.00     0.200 A 
ATOM     58  F   UNL A   1      37.954  34.248  40.042  1.00  0.00    -0.200 F 
ATOM     59  F   UNL A   1      39.404  36.547  40.266  1.00  0.00    -0.200 F 
ENDBRANCH  25  49
BRANCH  37  60
ATOM     60  C   UNL A   1      43.596  28.586  35.384  1.00  0.00     0.064 A 
ATOM     61  C   UNL A   1      44.962  28.903  35.344  1.00  0.00     0.173 A 
ATOM     62  C   UNL A   1      43.172  27.577  36.259  1.00  0.00     0.173 A 
ATOM     63  F   UNL A   1      45.411  29.850  34.509  1.00  0.00    -0.203 F 
ATOM     64  C   UNL A   1      45.871  28.224  36.149  1.00  0.00     0.198 A 
ATOM     65  C   UNL A   1      44.081  26.920  37.082  1.00  0.00     0.198 A 
ATOM     66  F   UNL A   1      41.873  27.249  36.335  1.00  0.00    -0.203 F 
ATOM     67  F   UNL A   1      47.177  28.519  36.075  1.00  0.00    -0.200 F 
ATOM     68  C   UNL A   1      45.429  27.242  37.024  1.00  0.00     0.200 A 
ATOM     69  F   UNL A   1      43.652  25.981  37.935  1.00  0.00    -0.200 F 
ATOM     70  F   UNL A   1      46.305  26.602  37.810  1.00  0.00    -0.200 F 
ENDBRANCH  37  60
ENDBRANCH  11  12
ENDBRANCH   4   6
ENDBRANCH   3   4
ENDBRANCH   2   3
ENDBRANCH   1   2
BRANCH   1  71
ATOM     71  O   UNL A   1      31.679  31.026  26.180  1.00  0.00    -0.374 OA
BRANCH  71  72
ATOM     72  C   UNL A   1      32.249  30.051  27.056  1.00  0.00     0.202 C 
BRANCH  72  73
ATOM     73  C   UNL A   1      33.273  29.251  26.262  1.00  0.00     0.261 C 
BRANCH  73  74
ATOM     74  O   UNL A   1      32.620  28.827  25.062  1.00  0.00    -0.458 OA
BRANCH  74  75
ATOM     75  C   UNL A   1      32.014  27.607  25.084  1.00  0.00     0.357 C 
ATOM     76  O   UNL A   1      31.340  27.137  25.977  1.00  0.00    -0.244 OA
BRANCH  75  77
ATOM     77  C   UNL A   1      32.227  27.004  23.728  1.00  0.00     0.156 A 
ATOM     78  N   UNL A   1      33.313  26.181  23.650  1.00  0.00    -0.249 NA
ATOM     79  C   UNL A   1      31.281  27.177  22.700  1.00  0.00     0.015 A 
ATOM     80  C   UNL A   1      33.449  25.459  22.523  1.00  0.00     0.112 A 
ATOM     81  C   UNL A   1      31.471  26.395  21.554  1.00  0.00     0.013 A 
ATOM     82  C   UNL A   1      32.557  25.521  21.467  1.00  0.00     0.021 A 
BRANCH  79  83
ATOM     83  C   UNL A   1      30.111  28.061  22.856  1.00  0.00    -0.013 A 
ATOM     84  C   UNL A   1      30.087  29.321  22.235  1.00  0.00     0.029 A 
ATOM     85  C   UNL A   1      28.920  27.581  23.435  1.00  0.00     0.029 A 
ATOM     86  C   UNL A   1      28.892  30.035  22.129  1.00  0.00     0.043 A 
ATOM     87  C   UNL A   1      27.730  28.299  23.307  1.00  0.00     0.043 A 
ATOM     88  Cl  UNL A   1      28.872  31.533  21.281  1.00  0.00    -0.084 Cl
ATOM     89  C   UNL A   1      27.707  29.521  22.645  1.00  0.00     0.041 A 
ATOM     90  Cl  UNL A   1      26.264  27.623  23.902  1.00  0.00    -0.084 Cl
ENDBRANCH  79  83
ENDBRANCH  75  77
ENDBRANCH  74  75
ENDBRANCH  73  74
ENDBRANCH  72  73
ENDBRANCH  71  72
ENDBRANCH   1  71
TORSDOF 15
ENDMDL
MODEL 2
REMARK VINA RESULT:     -11.7      3.147      4.807
REMARK SMILES O=C(OCCOCCOC(=O)c1ncccc1-c1cc(Cl)cc(Cl)c1)c1ccc(-c2c3nc(c(-c4c(F)c(F)c(F)c(F)c4F)c4ccc([nH]4)c(-c4c(F)c(F)c(F)c(F)c4F)c4nc(c(-c5c(F)c(F)c(F)c(F)c5F)c5ccc2[nH]5)C=C4)C=C3)cc1
REMARK SMILES IDX 5 1 4 2 3 3 2 4 1 5 26 6 27 7 88 8 28 9 87 10 29 11 30 12
REMARK SMILES IDX 31 13 81 14 32 15 86 16 80 17 82 18 33 19 85 20 79 21 78 22
REMARK SMILES IDX 34 24 66 25 46 26 65 27 47 28 50 29 64 30 83 31 48 32 49 33
REMARK SMILES IDX 63 35 84 36 51 37 35 38 36 39 44 40 37 41 38 42 42 43 45 44
REMARK SMILES IDX 39 45 40 46 43 47 41 48 67 49 68 50 76 51 69 52 70 53 74 54
REMARK SMILES IDX 77 55 71 56 72 57 75 58 73 59 52 60 53 61 61 62 54 63 55 64
REMARK SMILES IDX 59 65 62 66 56 67 57 68 60 69 58 70 6 71 7 72 8 73 9 74
REMARK SMILES IDX 10 75 11 76 12 77 13 78 17 79 14 80 16 81 15 82 18 83 19 84
REMARK SMILES IDX 25 85 20 86 23 87 21 88 22 89 24 90
REMARK H PARENT 82 23 50 34
REMARK Flexibility Score: inf
ROOT
ATOM      1  C   UNL A   1      32.005  28.896  24.442  1.00  0.00     0.202 C 
ENDROOT
BRANCH   1   2
ATOM      2  C   UNL A   1      33.162  29.511  25.232  1.00  0.00     0.261 C 
BRANCH   2   3
ATOM      3  O   UNL A   1      32.661  30.397  26.245  1.00  0.00    -0.460 OA
BRANCH   3   4
ATOM      4  C   UNL A   1      33.335  31.278  27.016  1.00  0.00     0.338 C 
ATOM      5  O   UNL A   1      32.838  32.394  27.180  1.00  0.00    -0.246 OA
BRANCH   4   6
ATOM      6  C   UNL A   1      34.649  31.010  27.689  1.00  0.00     0.060 A 
ATOM      7  C   UNL A   1      35.669  31.940  27.905  1.00  0.00     0.016 A 
ATOM      8  C   UNL A   1      34.812  29.730  28.252  1.00  0.00     0.016 A 
ATOM      9  C   UNL A   1      36.784  31.641  28.679  1.00  0.00     0.010 A 
ATOM     10  C   UNL A   1      35.932  29.413  29.024  1.00  0.00     0.010 A 
ATOM     11  C   UNL A   1      36.913  30.381  29.249  1.00  0.00    -0.014 A 
BRANCH  11  12
ATOM     12  C   UNL A   1      38.125  30.094  30.028  1.00  0.00     0.031 A 
ATOM     13  C   UNL A   1      39.174  29.226  29.416  1.00  0.00     0.074 A 
ATOM     14  C   UNL A   1      38.298  30.693  31.219  1.00  0.00     0.049 A 
ATOM     15  N   UNL A   1      40.285  28.783  29.935  1.00  0.00    -0.248 NA
ATOM     16  C   UNL A   1      38.948  28.812  28.021  1.00  0.00     0.031 C 
ATOM     17  C   UNL A   1      37.368  31.650  31.823  1.00  0.00     0.029 A 
ATOM     18  N   UNL A   1      39.316  30.595  32.129  1.00  0.00    -0.354 N 
ATOM     19  C   UNL A   1      40.877  28.017  28.943  1.00  0.00     0.074 A 
ATOM     20  C   UNL A   1      40.016  28.065  27.784  1.00  0.00     0.031 C 
ATOM     21  C   UNL A   1      37.856  32.045  33.010  1.00  0.00     0.029 A 
ATOM     22  C   UNL A   1      39.096  31.323  33.274  1.00  0.00     0.049 A 
ATOM     23  H   UNL A   1      40.126  30.058  31.978  1.00  0.00     0.167 HD
ATOM     24  C   UNL A   1      42.034  27.322  29.019  1.00  0.00     0.037 A 
ATOM     25  C   UNL A   1      39.802  31.351  34.419  1.00  0.00     0.037 A 
ATOM     26  C   UNL A   1      42.865  27.298  30.189  1.00  0.00     0.049 A 
ATOM     27  C   UNL A   1      41.034  30.488  34.506  1.00  0.00     0.074 A 
ATOM     28  C   UNL A   1      44.049  26.618  30.398  1.00  0.00     0.029 A 
ATOM     29  N   UNL A   1      42.583  27.991  31.360  1.00  0.00    -0.354 N 
ATOM     30  N   UNL A   1      41.584  29.738  33.580  1.00  0.00    -0.248 NA
ATOM     31  C   UNL A   1      41.730  30.452  35.798  1.00  0.00     0.031 C 
ATOM     32  C   UNL A   1      44.458  26.860  31.714  1.00  0.00     0.029 A 
ATOM     33  C   UNL A   1      43.551  27.723  32.311  1.00  0.00     0.049 A 
ATOM     34  H   UNL A   1      41.808  28.585  31.493  1.00  0.00     0.167 HD
ATOM     35  C   UNL A   1      42.685  29.140  34.173  1.00  0.00     0.074 A 
ATOM     36  C   UNL A   1      42.745  29.641  35.532  1.00  0.00     0.031 C 
ATOM     37  C   UNL A   1      43.563  28.247  33.653  1.00  0.00     0.037 A 
BRANCH  24  38
ATOM     38  C   UNL A   1      42.407  26.478  27.841  1.00  0.00     0.064 A 
ATOM     39  C   UNL A   1      41.923  25.173  27.672  1.00  0.00     0.173 A 
ATOM     40  C   UNL A   1      43.273  26.991  26.862  1.00  0.00     0.173 A 
ATOM     41  F   UNL A   1      41.116  24.629  28.594  1.00  0.00    -0.203 F 
ATOM     42  C   UNL A   1      42.305  24.407  26.574  1.00  0.00     0.198 A 
ATOM     43  C   UNL A   1      43.637  26.229  25.756  1.00  0.00     0.198 A 
ATOM     44  F   UNL A   1      43.772  28.230  26.984  1.00  0.00    -0.203 F 
ATOM     45  F   UNL A   1      41.865  23.146  26.452  1.00  0.00    -0.200 F 
ATOM     46  C   UNL A   1      43.156  24.936  25.615  1.00  0.00     0.200 A 
ATOM     47  F   UNL A   1      44.459  26.744  24.831  1.00  0.00    -0.200 F 
ATOM     48  F   UNL A   1      43.524  24.196  24.560  1.00  0.00    -0.200 F 
ENDBRANCH  24  38
BRANCH  25  49
ATOM     49  C   UNL A   1      39.320  32.138  35.587  1.00  0.00     0.064 A 
ATOM     50  C   UNL A   1      39.740  33.457  35.805  1.00  0.00     0.173 A 
ATOM     51  C   UNL A   1      38.451  31.571  36.534  1.00  0.00     0.173 A 
ATOM     52  F   UNL A   1      40.591  34.039  34.948  1.00  0.00    -0.203 F 
ATOM     53  C   UNL A   1      39.326  34.169  36.932  1.00  0.00     0.198 A 
ATOM     54  C   UNL A   1      38.013  32.293  37.642  1.00  0.00     0.198 A 
ATOM     55  F   UNL A   1      38.023  30.308  36.383  1.00  0.00    -0.203 F 
ATOM     56  F   UNL A   1      39.787  35.409  37.144  1.00  0.00    -0.200 F 
ATOM     57  C   UNL A   1      38.459  33.588  37.846  1.00  0.00     0.200 A 
ATOM     58  F   UNL A   1      37.168  31.730  38.515  1.00  0.00    -0.200 F 
ATOM     59  F   UNL A   1      38.067  34.272  38.929  1.00  0.00    -0.200 F 
ENDBRANCH  25  49
BRANCH  37  60
ATOM     60  C   UNL A   1      44.648  27.759  34.562  1.00  0.00     0.064 A 
ATOM     61  C   UNL A   1      44.489  26.582  35.308  1.00  0.00     0.173 A 
ATOM     62  C   UNL A   1      45.876  28.430  34.630  1.00  0.00     0.173 A 
ATOM     63  F   UNL A   1      43.324  25.919  35.285  1.00  0.00    -0.203 F 
ATOM     64  C   UNL A   1      45.526  26.101  36.101  1.00  0.00     0.198 A 
ATOM     65  C   UNL A   1      46.919  27.930  35.402  1.00  0.00     0.198 A 
ATOM     66  F   UNL A   1      46.072  29.555  33.925  1.00  0.00    -0.203 F 
ATOM     67  F   UNL A   1      45.346  24.991  36.831  1.00  0.00    -0.200 F 
ATOM     68  C   UNL A   1      46.741  26.768  36.139  1.00  0.00     0.200 A 
ATOM     69  F   UNL A   1      48.096  28.568  35.428  1.00  0.00    -0.200 F 
ATOM     70  F   UNL A   1      47.743  26.291  36.890  1.00  0.00    -0.200 F 
ENDBRANCH  37  60
ENDBRANCH  11  12
ENDBRANCH   4   6
ENDBRANCH   3   4
ENDBRANCH   2   3
ENDBRANCH   1   2
BRANCH   1  71
ATOM     71  O   UNL A   1      32.422  28.423  23.163  1.00  0.00    -0.374 OA
BRANCH  71  72
ATOM     72  C   UNL A   1      33.656  27.703  23.129  1.00  0.00     0.202 C 
BRANCH  72  73
ATOM     73  C   UNL A   1      33.424  26.413  22.354  1.00  0.00     0.261 C 
BRANCH  73  74
ATOM     74  O   UNL A   1      34.173  25.393  23.022  1.00  0.00    -0.458 OA
BRANCH  74  75
ATOM     75  C   UNL A   1      33.666  24.129  22.989  1.00  0.00     0.357 C 
ATOM     76  O   UNL A   1      33.789  23.310  22.102  1.00  0.00    -0.244 OA
BRANCH  75  77
ATOM     77  C   UNL A   1      33.034  23.892  24.327  1.00  0.00     0.156 A 
ATOM     78  N   UNL A   1      31.701  24.184  24.373  1.00  0.00    -0.249 NA
ATOM     79  C   UNL A   1      33.753  23.277  25.370  1.00  0.00     0.015 A 
ATOM     80  C   UNL A   1      31.035  23.813  25.481  1.00  0.00     0.112 A 
ATOM     81  C   UNL A   1      33.005  22.908  26.495  1.00  0.00     0.013 A 
ATOM     82  C   UNL A   1      31.633  23.168  26.549  1.00  0.00     0.021 A 
BRANCH  79  83
ATOM     83  C   UNL A   1      35.188  22.960  25.250  1.00  0.00    -0.013 A 
ATOM     84  C   UNL A   1      36.156  23.874  25.700  1.00  0.00     0.029 A 
ATOM     85  C   UNL A   1      35.610  21.665  24.891  1.00  0.00     0.029 A 
ATOM     86  C   UNL A   1      37.483  23.475  25.863  1.00  0.00     0.043 A 
ATOM     87  C   UNL A   1      36.938  21.276  25.074  1.00  0.00     0.043 A 
ATOM     88  Cl  UNL A   1      38.630  24.586  26.505  1.00  0.00    -0.084 Cl
ATOM     89  C   UNL A   1      37.877  22.173  25.569  1.00  0.00     0.041 A 
ATOM     90  Cl  UNL A   1      37.395  19.648  24.759  1.00  0.00    -0.084 Cl
ENDBRANCH  79  83
ENDBRANCH  75  77
ENDBRANCH  74  75
ENDBRANCH  73  74
ENDBRANCH  72  73
ENDBRANCH  71  72
ENDBRANCH   1  71
TORSDOF 15
ENDMDL
MODEL 3
REMARK VINA RESULT:     -11.7      1.932      3.084
REMARK SMILES O=C(OCCOCCOC(=O)c1ncccc1-c1cc(Cl)cc(Cl)c1)c1ccc(-c2c3nc(c(-c4c(F)c(F)c(F)c(F)c4F)c4ccc([nH]4)c(-c4c(F)c(F)c(F)c(F)c4F)c4nc(c(-c5c(F)c(F)c(F)c(F)c5F)c5ccc2[nH]5)C=C4)C=C3)cc1
REMARK SMILES IDX 5 1 4 2 3 3 2 4 1 5 26 6 27 7 88 8 28 9 87 10 29 11 30 12
REMARK SMILES IDX 31 13 81 14 32 15 86 16 80 17 82 18 33 19 85 20 79 21 78 22
REMARK SMILES IDX 34 24 66 25 46 26 65 27 47 28 50 29 64 30 83 31 48 32 49 33
REMARK SMILES IDX 63 35 84 36 51 37 35 38 36 39 44 40 37 41 38 42 42 43 45 44
REMARK SMILES IDX 39 45 40 46 43 47 41 48 67 49 68 50 76 51 69 52 70 53 74 54
REMARK SMILES IDX 77 55 71 56 72 57 75 58 73 59 52 60 53 61 61 62 54 63 55 64
REMARK SMILES IDX 59 65 62 66 56 67 57 68 60 69 58 70 6 71 7 72 8 73 9 74
REMARK SMILES IDX 10 75 11 76 12 77 13 78 17 79 14 80 16 81 15 82 18 83 19 84
REMARK SMILES IDX 25 85 20 86 23 87 21 88 22 89 24 90
REMARK H PARENT 82 23 50 34
REMARK Flexibility Score: inf
ROOT
ATOM      1  C   UNL A   1      31.380  31.955  26.716  1.00  0.00     0.202 C 
ENDROOT
BRANCH   1   2
ATOM      2  C   UNL A   1      32.654  32.734  27.049  1.00  0.00     0.261 C 
BRANCH   2   3
ATOM      3  O   UNL A   1      32.326  33.998  27.647  1.00  0.00    -0.460 OA
BRANCH   3   4
ATOM      4  C   UNL A   1      32.972  34.673  28.622  1.00  0.00     0.338 C 
ATOM      5  O   UNL A   1      32.597  35.820  28.871  1.00  0.00    -0.246 OA
BRANCH   4   6
ATOM      6  C   UNL A   1      34.119  34.140  29.429  1.00  0.00     0.060 A 
ATOM      7  C   UNL A   1      34.024  33.306  30.546  1.00  0.00     0.016 A 
ATOM      8  C   UNL A   1      35.409  34.420  28.940  1.00  0.00     0.016 A 
ATOM      9  C   UNL A   1      35.146  32.732  31.132  1.00  0.00     0.010 A 
ATOM     10  C   UNL A   1      36.547  33.858  29.526  1.00  0.00     0.010 A 
ATOM     11  C   UNL A   1      36.409  32.999  30.617  1.00  0.00    -0.014 A 
BRANCH  11  12
ATOM     12  C   UNL A   1      37.571  32.403  31.291  1.00  0.00     0.031 A 
ATOM     13  C   UNL A   1      38.336  31.338  30.578  1.00  0.00     0.074 A 
ATOM     14  C   UNL A   1      37.967  32.896  32.477  1.00  0.00     0.049 A 
ATOM     15  N   UNL A   1      39.344  30.625  30.998  1.00  0.00    -0.248 NA
ATOM     16  C   UNL A   1      37.918  31.046  29.197  1.00  0.00     0.031 C 
ATOM     17  C   UNL A   1      37.337  34.020  33.174  1.00  0.00     0.029 A 
ATOM     18  N   UNL A   1      38.995  32.524  33.301  1.00  0.00    -0.354 N 
ATOM     19  C   UNL A   1      39.663  29.781  29.945  1.00  0.00     0.074 A 
ATOM     20  C   UNL A   1      38.758  30.078  28.859  1.00  0.00     0.031 C 
ATOM     21  C   UNL A   1      37.989  34.240  34.327  1.00  0.00     0.029 A 
ATOM     22  C   UNL A   1      39.038  33.237  34.476  1.00  0.00     0.049 A 
ATOM     23  H   UNL A   1      39.640  31.817  33.075  1.00  0.00     0.167 HD
ATOM     24  C   UNL A   1      40.624  28.831  29.913  1.00  0.00     0.037 A 
ATOM     25  C   UNL A   1      39.810  33.051  35.562  1.00  0.00     0.037 A 
ATOM     26  C   UNL A   1      41.508  28.564  31.013  1.00  0.00     0.049 A 
ATOM     27  C   UNL A   1      40.804  31.919  35.532  1.00  0.00     0.074 A 
ATOM     28  C   UNL A   1      42.508  27.617  31.112  1.00  0.00     0.029 A 
ATOM     29  N   UNL A   1      41.484  29.257  32.218  1.00  0.00    -0.354 N 
ATOM     30  N   UNL A   1      41.091  31.099  34.549  1.00  0.00    -0.248 NA
ATOM     31  C   UNL A   1      41.563  31.668  36.763  1.00  0.00     0.031 C 
ATOM     32  C   UNL A   1      43.056  27.702  32.397  1.00  0.00     0.029 A 
ATOM     33  C   UNL A   1      42.425  28.730  33.083  1.00  0.00     0.049 A 
ATOM     34  H   UNL A   1      40.884  30.011  32.425  1.00  0.00     0.167 HD
ATOM     35  C   UNL A   1      42.058  30.235  35.039  1.00  0.00     0.074 A 
ATOM     36  C   UNL A   1      42.334  30.652  36.400  1.00  0.00     0.031 C 
ATOM     37  C   UNL A   1      42.658  29.182  34.431  1.00  0.00     0.037 A 
BRANCH  24  38
ATOM     38  C   UNL A   1      40.700  27.971  28.691  1.00  0.00     0.064 A 
ATOM     39  C   UNL A   1      41.443  28.342  27.562  1.00  0.00     0.173 A 
ATOM     40  C   UNL A   1      40.008  26.751  28.652  1.00  0.00     0.173 A 
ATOM     41  F   UNL A   1      42.098  29.513  27.539  1.00  0.00    -0.203 F 
ATOM     42  C   UNL A   1      41.478  27.529  26.431  1.00  0.00     0.198 A 
ATOM     43  C   UNL A   1      40.062  25.932  27.528  1.00  0.00     0.198 A 
ATOM     44  F   UNL A   1      39.273  26.357  29.703  1.00  0.00    -0.203 F 
ATOM     45  F   UNL A   1      42.161  27.921  25.346  1.00  0.00    -0.200 F 
ATOM     46  C   UNL A   1      40.793  26.323  26.417  1.00  0.00     0.200 A 
ATOM     47  F   UNL A   1      39.399  24.767  27.518  1.00  0.00    -0.200 F 
ATOM     48  F   UNL A   1      40.827  25.543  25.328  1.00  0.00    -0.200 F 
ENDBRANCH  24  38
BRANCH  25  49
ATOM     49  C   UNL A   1      39.614  33.882  36.782  1.00  0.00     0.064 A 
ATOM     50  C   UNL A   1      38.802  33.450  37.839  1.00  0.00     0.173 A 
ATOM     51  C   UNL A   1      40.213  35.147  36.900  1.00  0.00     0.173 A 
ATOM     52  F   UNL A   1      38.184  32.263  37.767  1.00  0.00    -0.203 F 
ATOM     53  C   UNL A   1      38.581  34.259  38.955  1.00  0.00     0.198 A 
ATOM     54  C   UNL A   1      40.016  35.940  38.029  1.00  0.00     0.198 A 
ATOM     55  F   UNL A   1      40.993  35.616  35.915  1.00  0.00    -0.203 F 
ATOM     56  F   UNL A   1      37.755  33.845  39.925  1.00  0.00    -0.200 F 
ATOM     57  C   UNL A   1      39.192  35.500  39.050  1.00  0.00     0.200 A 
ATOM     58  F   UNL A   1      40.619  37.133  38.119  1.00  0.00    -0.200 F 
ATOM     59  F   UNL A   1      38.975  36.277  40.120  1.00  0.00    -0.200 F 
ENDBRANCH  25  49
BRANCH  37  60
ATOM     60  C   UNL A   1      43.658  28.415  35.240  1.00  0.00     0.064 A 
ATOM     61  C   UNL A   1      45.012  28.782  35.252  1.00  0.00     0.173 A 
ATOM     62  C   UNL A   1      43.248  27.357  36.062  1.00  0.00     0.173 A 
ATOM     63  F   UNL A   1      45.448  29.778  34.467  1.00  0.00    -0.203 F 
ATOM     64  C   UNL A   1      45.923  28.105  36.055  1.00  0.00     0.198 A 
ATOM     65  C   UNL A   1      44.158  26.701  36.884  1.00  0.00     0.198 A 
ATOM     66  F   UNL A   1      41.961  26.979  36.087  1.00  0.00    -0.203 F 
ATOM     67  F   UNL A   1      47.218  28.450  36.030  1.00  0.00    -0.200 F 
ATOM     68  C   UNL A   1      45.494  27.074  36.877  1.00  0.00     0.200 A 
ATOM     69  F   UNL A   1      43.741  25.713  37.687  1.00  0.00    -0.200 F 
ATOM     70  F   UNL A   1      46.372  26.435  37.663  1.00  0.00    -0.200 F 
ENDBRANCH  37  60
ENDBRANCH  11  12
ENDBRANCH   4   6
ENDBRANCH   3   4
ENDBRANCH   2   3
ENDBRANCH   1   2
BRANCH   1  71
ATOM     71  O   UNL A   1      31.660  30.608  26.341  1.00  0.00    -0.374 OA
BRANCH  71  72
ATOM     72  C   UNL A   1      32.509  29.871  27.222  1.00  0.00     0.202 C 
BRANCH  72  73
ATOM     73  C   UNL A   1      31.777  28.598  27.623  1.00  0.00     0.261 C 
BRANCH  73  74
ATOM     74  O   UNL A   1      32.388  27.528  26.896  1.00  0.00    -0.458 OA
BRANCH  74  75
ATOM     75  C   UNL A   1      31.572  26.760  26.121  1.00  0.00     0.357 C 
ATOM     76  O   UNL A   1      30.588  26.143  26.475  1.00  0.00    -0.244 OA
BRANCH  75  77
ATOM     77  C   UNL A   1      32.045  26.930  24.709  1.00  0.00     0.156 A 
ATOM     78  N   UNL A   1      31.610  28.078  24.111  1.00  0.00    -0.249 NA
ATOM     79  C   UNL A   1      32.978  26.040  24.143  1.00  0.00     0.015 A 
ATOM     80  C   UNL A   1      32.152  28.386  22.920  1.00  0.00     0.112 A 
ATOM     81  C   UNL A   1      33.511  26.416  22.905  1.00  0.00     0.013 A 
ATOM     82  C   UNL A   1      33.105  27.604  22.291  1.00  0.00     0.021 A 
BRANCH  79  83
ATOM     83  C   UNL A   1      33.431  24.828  24.852  1.00  0.00    -0.013 A 
ATOM     84  C   UNL A   1      32.619  23.682  24.887  1.00  0.00     0.029 A 
ATOM     85  C   UNL A   1      34.757  24.720  25.312  1.00  0.00     0.029 A 
ATOM     86  C   UNL A   1      33.146  22.455  25.292  1.00  0.00     0.043 A 
ATOM     87  C   UNL A   1      35.275  23.482  25.699  1.00  0.00     0.043 A 
ATOM     88  Cl  UNL A   1      32.156  21.047  25.237  1.00  0.00    -0.084 Cl
ATOM     89  C   UNL A   1      34.478  22.344  25.680  1.00  0.00     0.041 A 
ATOM     90  Cl  UNL A   1      36.937  23.353  26.122  1.00  0.00    -0.084 Cl
ENDBRANCH  79  83
ENDBRANCH  75  77
ENDBRANCH  74  75
ENDBRANCH  73  74
ENDBRANCH  72  73
ENDBRANCH  71  72
ENDBRANCH   1  71
TORSDOF 15
ENDMDL
