MODEL 1
REMARK VINA RESULT:     -11.7      0.000      0.000
REMARK SMILES O=C(OCCOCCOC(=O)c1ccccc1C(=O)Nc1ccc(N2C(=O)[C@H]3[C@@H]4CC[C@@H](C4)[C@@H]3C2=O)cc1)c1ccc(-c2c3nc(c(-c4c(F)c(F)c(F)c(F)c4F)c4ccc([nH]4)c(-c4c(F)c(F)c(F)c(F)c4F)c4nc(c(-c5c(F)c(F)c(F)c(F)c5F)c5ccc2[nH]5)C=C4)C=C3)cc1
REMARK SMILES IDX 7 1 6 2 5 3 4 4 3 5 2 6 1 7 39 8 40 9 101 10 41 11 100 12
REMARK SMILES IDX 42 13 43 14 44 15 94 16 45 17 99 18 93 19 95 20 46 21 98 22
REMARK SMILES IDX 92 23 91 24 47 26 79 27 59 28 78 29 60 30 63 31 77 32 96 33
REMARK SMILES IDX 61 34 62 35 76 37 97 38 64 39 48 40 49 41 57 42 50 43 51 44
REMARK SMILES IDX 55 45 58 46 52 47 53 48 56 49 54 50 80 51 81 52 89 53 82 54
REMARK SMILES IDX 83 55 87 56 90 57 84 58 85 59 88 60 86 61 65 62 66 63 74 64
REMARK SMILES IDX 67 65 68 66 72 67 75 68 69 69 70 70 73 71 71 72 8 73 9 74
REMARK SMILES IDX 10 75 11 76 12 77 13 78 17 79 14 80 16 81 15 82 18 83 19 84
REMARK SMILES IDX 20 85 21 87 22 88 38 89 23 90 37 91 24 92 25 93 26 94 35 95
REMARK SMILES IDX 27 96 28 97 34 98 36 99 29 100 32 101 30 102 33 103 31 104
REMARK H PARENT 95 25 63 36 20 86
REMARK Flexibility Score: inf
ROOT
ATOM      1  C   UNL A   1      46.617  23.188  24.663  1.00  0.00     0.202 C 
ENDROOT
BRANCH   1   2
ATOM      2  O   UNL A   1      47.120  24.472  24.979  1.00  0.00    -0.374 OA
BRANCH   2   3
ATOM      3  C   UNL A   1      47.568  24.660  26.321  1.00  0.00     0.202 C 
BRANCH   3   4
ATOM      4  C   UNL A   1      48.533  25.838  26.402  1.00  0.00     0.261 C 
BRANCH   4   5
ATOM      5  O   UNL A   1      47.899  26.929  27.091  1.00  0.00    -0.460 OA
BRANCH   5   6
ATOM      6  C   UNL A   1      47.310  27.860  26.284  1.00  0.00     0.338 C 
ATOM      7  O   UNL A   1      47.770  28.409  25.314  1.00  0.00    -0.246 OA
BRANCH   6   8
ATOM      8  C   UNL A   1      45.979  28.123  26.869  1.00  0.00     0.060 A 
ATOM      9  C   UNL A   1      45.490  29.423  26.820  1.00  0.00     0.016 A 
ATOM     10  C   UNL A   1      45.289  27.144  27.576  1.00  0.00     0.016 A 
ATOM     11  C   UNL A   1      44.457  29.797  27.665  1.00  0.00     0.010 A 
ATOM     12  C   UNL A   1      44.203  27.520  28.386  1.00  0.00     0.010 A 
ATOM     13  C   UNL A   1      43.870  28.879  28.545  1.00  0.00    -0.014 A 
BRANCH  13  14
ATOM     14  C   UNL A   1      43.190  29.401  29.782  1.00  0.00     0.031 A 
ATOM     15  C   UNL A   1      41.736  29.841  29.692  1.00  0.00     0.074 A 
ATOM     16  C   UNL A   1      43.716  29.234  31.017  1.00  0.00     0.049 A 
ATOM     17  N   UNL A   1      40.953  30.342  30.620  1.00  0.00    -0.248 NA
ATOM     18  C   UNL A   1      41.053  29.648  28.400  1.00  0.00     0.031 C 
ATOM     19  C   UNL A   1      45.017  28.634  31.311  1.00  0.00     0.029 A 
ATOM     20  N   UNL A   1      43.178  29.466  32.263  1.00  0.00    -0.354 N 
ATOM     21  C   UNL A   1      39.713  30.529  30.018  1.00  0.00     0.074 A 
ATOM     22  C   UNL A   1      39.844  30.128  28.638  1.00  0.00     0.031 C 
ATOM     23  C   UNL A   1      45.124  28.437  32.634  1.00  0.00     0.029 A 
ATOM     24  C   UNL A   1      43.982  29.052  33.301  1.00  0.00     0.049 A 
ATOM     25  H   UNL A   1      42.300  29.890  32.400  1.00  0.00     0.167 HD
ATOM     26  C   UNL A   1      38.548  30.956  30.561  1.00  0.00     0.037 A 
ATOM     27  C   UNL A   1      43.857  29.208  34.636  1.00  0.00     0.037 A 
ATOM     28  C   UNL A   1      38.372  31.320  31.937  1.00  0.00     0.049 A 
ATOM     29  C   UNL A   1      42.670  29.962  35.173  1.00  0.00     0.074 A 
ATOM     30  C   UNL A   1      37.264  31.876  32.550  1.00  0.00     0.029 A 
ATOM     31  N   UNL A   1      39.328  31.139  32.921  1.00  0.00    -0.354 N 
ATOM     32  N   UNL A   1      41.564  30.312  34.564  1.00  0.00    -0.248 NA
ATOM     33  C   UNL A   1      42.741  30.396  36.577  1.00  0.00     0.031 C 
ATOM     34  C   UNL A   1      37.568  32.078  33.900  1.00  0.00     0.029 A 
ATOM     35  C   UNL A   1      38.850  31.608  34.133  1.00  0.00     0.049 A 
ATOM     36  H   UNL A   1      40.216  30.738  32.781  1.00  0.00     0.167 HD
ATOM     37  C   UNL A   1      40.811  31.001  35.507  1.00  0.00     0.074 A 
ATOM     38  C   UNL A   1      41.569  30.992  36.740  1.00  0.00     0.031 C 
ATOM     39  C   UNL A   1      39.605  31.602  35.357  1.00  0.00     0.037 A 
BRANCH  26  40
ATOM     40  C   UNL A   1      37.375  31.096  29.639  1.00  0.00     0.064 A 
ATOM     41  C   UNL A   1      36.551  30.008  29.320  1.00  0.00     0.173 A 
ATOM     42  C   UNL A   1      37.070  32.345  29.077  1.00  0.00     0.173 A 
ATOM     43  F   UNL A   1      36.821  28.789  29.813  1.00  0.00    -0.203 F 
ATOM     44  C   UNL A   1      35.470  30.163  28.455  1.00  0.00     0.198 A 
ATOM     45  C   UNL A   1      35.976  32.499  28.230  1.00  0.00     0.198 A 
ATOM     46  F   UNL A   1      37.832  33.413  29.351  1.00  0.00    -0.203 F 
ATOM     47  F   UNL A   1      34.717  29.102  28.130  1.00  0.00    -0.200 F 
ATOM     48  C   UNL A   1      35.181  31.408  27.916  1.00  0.00     0.200 A 
ATOM     49  F   UNL A   1      35.697  33.704  27.713  1.00  0.00    -0.200 F 
ATOM     50  F   UNL A   1      34.140  31.554  27.084  1.00  0.00    -0.200 F 
ENDBRANCH  26  40
BRANCH  27  51
ATOM     51  C   UNL A   1      44.949  28.772  35.559  1.00  0.00     0.064 A 
ATOM     52  C   UNL A   1      44.922  27.523  36.195  1.00  0.00     0.173 A 
ATOM     53  C   UNL A   1      46.011  29.635  35.881  1.00  0.00     0.173 A 
ATOM     54  F   UNL A   1      43.903  26.678  35.976  1.00  0.00    -0.203 F 
ATOM     55  C   UNL A   1      45.910  27.159  37.114  1.00  0.00     0.198 A 
ATOM     56  C   UNL A   1      47.020  29.253  36.759  1.00  0.00     0.198 A 
ATOM     57  F   UNL A   1      46.070  30.861  35.340  1.00  0.00    -0.203 F 
ATOM     58  F   UNL A   1      45.823  25.989  37.761  1.00  0.00    -0.200 F 
ATOM     59  C   UNL A   1      46.964  28.020  37.384  1.00  0.00     0.200 A 
ATOM     60  F   UNL A   1      48.037  30.089  37.009  1.00  0.00    -0.200 F 
ATOM     61  F   UNL A   1      47.912  27.670  38.265  1.00  0.00    -0.200 F 
ENDBRANCH  27  51
BRANCH  39  62
ATOM     62  C   UNL A   1      39.022  32.297  36.551  1.00  0.00     0.064 A 
ATOM     63  C   UNL A   1      38.104  31.650  37.394  1.00  0.00     0.173 A 
ATOM     64  C   UNL A   1      39.410  33.603  36.883  1.00  0.00     0.173 A 
ATOM     65  F   UNL A   1      37.691  30.406  37.112  1.00  0.00    -0.203 F 
ATOM     66  C   UNL A   1      37.581  32.295  38.511  1.00  0.00     0.198 A 
ATOM     67  C   UNL A   1      38.908  34.234  38.018  1.00  0.00     0.198 A 
ATOM     68  F   UNL A   1      40.290  34.263  36.116  1.00  0.00    -0.203 F 
ATOM     69  F   UNL A   1      36.672  31.674  39.276  1.00  0.00    -0.200 F 
ATOM     70  C   UNL A   1      37.989  33.583  38.827  1.00  0.00     0.200 A 
ATOM     71  F   UNL A   1      39.315  35.472  38.330  1.00  0.00    -0.200 F 
ATOM     72  F   UNL A   1      37.490  34.199  39.907  1.00  0.00    -0.200 F 
ENDBRANCH  39  62
ENDBRANCH  13  14
ENDBRANCH   6   8
ENDBRANCH   5   6
ENDBRANCH   4   5
ENDBRANCH   3   4
ENDBRANCH   2   3
ENDBRANCH   1   2
BRANCH   1  73
ATOM     73  C   UNL A   1      45.170  23.298  24.188  1.00  0.00     0.261 C 
BRANCH  73  74
ATOM     74  O   UNL A   1      44.420  24.352  24.817  1.00  0.00    -0.460 OA
BRANCH  74  75
ATOM     75  C   UNL A   1      43.183  24.036  25.245  1.00  0.00     0.339 C 
ATOM     76  O   UNL A   1      42.621  22.954  25.268  1.00  0.00    -0.246 OA
BRANCH  75  77
ATOM     77  C   UNL A   1      42.522  25.218  25.763  1.00  0.00     0.072 A 
ATOM     78  C   UNL A   1      42.702  26.403  25.035  1.00  0.00     0.016 A 
ATOM     79  C   UNL A   1      41.736  25.175  26.917  1.00  0.00     0.054 A 
ATOM     80  C   UNL A   1      41.999  27.546  25.397  1.00  0.00     0.001 A 
ATOM     81  C   UNL A   1      40.990  26.322  27.233  1.00  0.00     0.015 A 
ATOM     82  C   UNL A   1      41.119  27.496  26.475  1.00  0.00     0.001 A 
BRANCH  79  83
ATOM     83  C   UNL A   1      41.522  23.954  27.739  1.00  0.00     0.256 C 
ATOM     84  O   UNL A   1      42.373  23.698  28.596  1.00  0.00    -0.269 OA
ATOM     85  N   UNL A   1      40.397  23.154  27.675  1.00  0.00    -0.322 N 
ATOM     86  H   UNL A   1      40.294  22.554  28.449  1.00  0.00     0.170 HD
BRANCH  85  87
ATOM     87  C   UNL A   1      39.369  23.026  26.721  1.00  0.00     0.041 A 
ATOM     88  C   UNL A   1      39.212  21.769  26.118  1.00  0.00     0.028 A 
ATOM     89  C   UNL A   1      38.462  24.041  26.414  1.00  0.00     0.028 A 
ATOM     90  C   UNL A   1      38.047  21.469  25.396  1.00  0.00     0.029 A 
ATOM     91  C   UNL A   1      37.338  23.764  25.616  1.00  0.00     0.029 A 
ATOM     92  C   UNL A   1      37.090  22.460  25.167  1.00  0.00     0.052 A 
BRANCH  92  93
ATOM     93  N   UNL A   1      35.827  22.125  24.641  1.00  0.00    -0.250 N 
ATOM     94  C   UNL A   1      35.298  22.628  23.442  1.00  0.00     0.237 C 
ATOM     95  C   UNL A   1      34.822  21.529  25.412  1.00  0.00     0.237 C 
ATOM     96  O   UNL A   1      35.869  23.123  22.489  1.00  0.00    -0.274 OA
ATOM     97  C   UNL A   1      33.809  22.565  23.675  1.00  0.00     0.095 C 
ATOM     98  C   UNL A   1      33.765  21.240  24.410  1.00  0.00     0.095 C 
ATOM     99  O   UNL A   1      34.746  21.289  26.601  1.00  0.00    -0.274 OA
ATOM    100  C   UNL A   1      32.518  22.494  22.853  1.00  0.00     0.002 C 
ATOM    101  C   UNL A   1      32.282  20.941  24.481  1.00  0.00     0.002 C 
ATOM    102  C   UNL A   1      31.436  23.110  23.782  1.00  0.00     0.005 C 
ATOM    103  C   UNL A   1      32.037  21.029  22.957  1.00  0.00     0.009 C 
ATOM    104  C   UNL A   1      31.427  22.122  24.981  1.00  0.00     0.005 C 
ENDBRANCH  92  93
ENDBRANCH  85  87
ENDBRANCH  79  83
ENDBRANCH  75  77
ENDBRANCH  74  75
ENDBRANCH  73  74
ENDBRANCH   1  73
TORSDOF 17
ENDMDL
MODEL 2
REMARK VINA RESULT:     -11.6      5.389     10.356
REMARK SMILES O=C(OCCOCCOC(=O)c1ccccc1C(=O)Nc1ccc(N2C(=O)[C@H]3[C@@H]4CC[C@@H](C4)[C@@H]3C2=O)cc1)c1ccc(-c2c3nc(c(-c4c(F)c(F)c(F)c(F)c4F)c4ccc([nH]4)c(-c4c(F)c(F)c(F)c(F)c4F)c4nc(c(-c5c(F)c(F)c(F)c(F)c5F)c5ccc2[nH]5)C=C4)C=C3)cc1
REMARK SMILES IDX 7 1 6 2 5 3 4 4 3 5 2 6 1 7 39 8 40 9 101 10 41 11 100 12
REMARK SMILES IDX 42 13 43 14 44 15 94 16 45 17 99 18 93 19 95 20 46 21 98 22
REMARK SMILES IDX 92 23 91 24 47 26 79 27 59 28 78 29 60 30 63 31 77 32 96 33
REMARK SMILES IDX 61 34 62 35 76 37 97 38 64 39 48 40 49 41 57 42 50 43 51 44
REMARK SMILES IDX 55 45 58 46 52 47 53 48 56 49 54 50 80 51 81 52 89 53 82 54
REMARK SMILES IDX 83 55 87 56 90 57 84 58 85 59 88 60 86 61 65 62 66 63 74 64
REMARK SMILES IDX 67 65 68 66 72 67 75 68 69 69 70 70 73 71 71 72 8 73 9 74
REMARK SMILES IDX 10 75 11 76 12 77 13 78 17 79 14 80 16 81 15 82 18 83 19 84
REMARK SMILES IDX 20 85 21 87 22 88 38 89 23 90 37 91 24 92 25 93 26 94 35 95
REMARK SMILES IDX 27 96 28 97 34 98 36 99 29 100 32 101 30 102 33 103 31 104
REMARK H PARENT 95 25 63 36 20 86
REMARK Flexibility Score: inf
ROOT
ATOM      1  C   UNL A   1      38.334  32.390  37.310  1.00  0.00     0.202 C 
ENDROOT
BRANCH   1   2
ATOM      2  O   UNL A   1      38.092  33.505  38.147  1.00  0.00    -0.374 OA
BRANCH   2   3
ATOM      3  C   UNL A   1      38.811  33.535  39.379  1.00  0.00     0.202 C 
BRANCH   3   4
ATOM      4  C   UNL A   1      38.898  34.961  39.912  1.00  0.00     0.261 C 
BRANCH   4   5
ATOM      5  O   UNL A   1      39.420  35.824  38.886  1.00  0.00    -0.460 OA
BRANCH   5   6
ATOM      6  C   UNL A   1      40.770  36.022  38.928  1.00  0.00     0.338 C 
ATOM      7  O   UNL A   1      41.457  36.304  39.877  1.00  0.00    -0.246 OA
BRANCH   6   8
ATOM      8  C   UNL A   1      41.247  35.878  37.536  1.00  0.00     0.060 A 
ATOM      9  C   UNL A   1      40.297  35.811  36.525  1.00  0.00     0.016 A 
ATOM     10  C   UNL A   1      42.592  35.670  37.246  1.00  0.00     0.016 A 
ATOM     11  C   UNL A   1      40.653  35.305  35.285  1.00  0.00     0.010 A 
ATOM     12  C   UNL A   1      42.954  35.212  35.967  1.00  0.00     0.010 A 
ATOM     13  C   UNL A   1      41.964  34.890  35.020  1.00  0.00    -0.014 A 
BRANCH  13  14
ATOM     14  C   UNL A   1      42.192  33.874  33.934  1.00  0.00     0.031 A 
ATOM     15  C   UNL A   1      42.606  34.355  32.550  1.00  0.00     0.074 A 
ATOM     16  C   UNL A   1      42.322  32.554  34.199  1.00  0.00     0.049 A 
ATOM     17  N   UNL A   1      42.836  33.664  31.457  1.00  0.00    -0.248 NA
ATOM     18  C   UNL A   1      42.839  35.800  32.382  1.00  0.00     0.031 C 
ATOM     19  C   UNL A   1      42.167  31.934  35.515  1.00  0.00     0.029 A 
ATOM     20  N   UNL A   1      42.709  31.506  33.392  1.00  0.00    -0.354 N 
ATOM     21  C   UNL A   1      43.222  34.589  30.492  1.00  0.00     0.074 A 
ATOM     22  C   UNL A   1      43.162  35.894  31.104  1.00  0.00     0.031 C 
ATOM     23  C   UNL A   1      42.569  30.655  35.451  1.00  0.00     0.029 A 
ATOM     24  C   UNL A   1      42.843  30.310  34.060  1.00  0.00     0.049 A 
ATOM     25  H   UNL A   1      42.874  31.605  32.426  1.00  0.00     0.167 HD
ATOM     26  C   UNL A   1      43.632  34.383  29.218  1.00  0.00     0.037 A 
ATOM     27  C   UNL A   1      43.088  29.063  33.605  1.00  0.00     0.037 A 
ATOM     28  C   UNL A   1      43.746  33.097  28.592  1.00  0.00     0.049 A 
ATOM     29  C   UNL A   1      43.245  28.846  32.124  1.00  0.00     0.074 A 
ATOM     30  C   UNL A   1      44.037  32.799  27.273  1.00  0.00     0.029 A 
ATOM     31  N   UNL A   1      43.596  31.891  29.254  1.00  0.00    -0.354 N 
ATOM     32  N   UNL A   1      43.424  29.727  31.170  1.00  0.00    -0.248 NA
ATOM     33  C   UNL A   1      43.173  27.457  31.647  1.00  0.00     0.031 C 
ATOM     34  C   UNL A   1      44.015  31.408  27.126  1.00  0.00     0.029 A 
ATOM     35  C   UNL A   1      43.752  30.843  28.363  1.00  0.00     0.049 A 
ATOM     36  H   UNL A   1      43.406  31.792  30.215  1.00  0.00     0.167 HD
ATOM     37  C   UNL A   1      43.489  29.000  29.987  1.00  0.00     0.074 A 
ATOM     38  C   UNL A   1      43.365  27.603  30.344  1.00  0.00     0.031 C 
ATOM     39  C   UNL A   1      43.624  29.455  28.717  1.00  0.00     0.037 A 
BRANCH  26  40
ATOM     40  C   UNL A   1      43.947  35.597  28.396  1.00  0.00     0.064 A 
ATOM     41  C   UNL A   1      42.946  36.322  27.736  1.00  0.00     0.173 A 
ATOM     42  C   UNL A   1      45.272  36.041  28.280  1.00  0.00     0.173 A 
ATOM     43  F   UNL A   1      41.667  35.918  27.796  1.00  0.00    -0.203 F 
ATOM     44  C   UNL A   1      43.264  37.443  26.972  1.00  0.00     0.198 A 
ATOM     45  C   UNL A   1      45.584  37.174  27.533  1.00  0.00     0.198 A 
ATOM     46  F   UNL A   1      46.263  35.377  28.891  1.00  0.00    -0.203 F 
ATOM     47  F   UNL A   1      42.298  38.101  26.315  1.00  0.00    -0.200 F 
ATOM     48  C   UNL A   1      44.581  37.870  26.877  1.00  0.00     0.200 A 
ATOM     49  F   UNL A   1      46.856  37.587  27.445  1.00  0.00    -0.200 F 
ATOM     50  F   UNL A   1      44.885  38.949  26.141  1.00  0.00    -0.200 F 
ENDBRANCH  26  40
BRANCH  27  51
ATOM     51  C   UNL A   1      43.056  27.894  34.535  1.00  0.00     0.064 A 
ATOM     52  C   UNL A   1      44.195  27.484  35.244  1.00  0.00     0.173 A 
ATOM     53  C   UNL A   1      41.896  27.113  34.676  1.00  0.00     0.173 A 
ATOM     54  F   UNL A   1      45.350  28.152  35.104  1.00  0.00    -0.203 F 
ATOM     55  C   UNL A   1      44.172  26.345  36.051  1.00  0.00     0.198 A 
ATOM     56  C   UNL A   1      41.860  26.006  35.518  1.00  0.00     0.198 A 
ATOM     57  F   UNL A   1      40.786  27.426  33.991  1.00  0.00    -0.203 F 
ATOM     58  F   UNL A   1      45.292  25.934  36.661  1.00  0.00    -0.200 F 
ATOM     59  C   UNL A   1      43.001  25.615  36.197  1.00  0.00     0.200 A 
ATOM     60  F   UNL A   1      40.722  25.312  35.656  1.00  0.00    -0.200 F 
ATOM     61  F   UNL A   1      42.979  24.522  36.972  1.00  0.00    -0.200 F 
ENDBRANCH  27  51
BRANCH  39  62
ATOM     62  C   UNL A   1      43.650  28.439  27.615  1.00  0.00     0.064 A 
ATOM     63  C   UNL A   1      44.843  27.802  27.239  1.00  0.00     0.173 A 
ATOM     64  C   UNL A   1      42.470  28.065  26.954  1.00  0.00     0.173 A 
ATOM     65  F   UNL A   1      46.000  28.134  27.830  1.00  0.00    -0.203 F 
ATOM     66  C   UNL A   1      44.856  26.846  26.227  1.00  0.00     0.198 A 
ATOM     67  C   UNL A   1      42.482  27.087  25.963  1.00  0.00     0.198 A 
ATOM     68  F   UNL A   1      41.302  28.637  27.281  1.00  0.00    -0.203 F 
ATOM     69  F   UNL A   1      46.015  26.284  25.854  1.00  0.00    -0.200 F 
ATOM     70  C   UNL A   1      43.675  26.484  25.596  1.00  0.00     0.200 A 
ATOM     71  F   UNL A   1      41.338  26.727  25.366  1.00  0.00    -0.200 F 
ATOM     72  F   UNL A   1      43.689  25.558  24.628  1.00  0.00    -0.200 F 
ENDBRANCH  39  62
ENDBRANCH  13  14
ENDBRANCH   6   8
ENDBRANCH   5   6
ENDBRANCH   4   5
ENDBRANCH   3   4
ENDBRANCH   2   3
ENDBRANCH   1   2
BRANCH   1  73
ATOM     73  C   UNL A   1      38.131  32.783  35.849  1.00  0.00     0.261 C 
BRANCH  73  74
ATOM     74  O   UNL A   1      38.318  31.704  34.916  1.00  0.00    -0.460 OA
BRANCH  74  75
ATOM     75  C   UNL A   1      37.693  31.821  33.728  1.00  0.00     0.339 C 
ATOM     76  O   UNL A   1      36.536  32.122  33.485  1.00  0.00    -0.246 OA
BRANCH  75  77
ATOM     77  C   UNL A   1      38.628  31.565  32.650  1.00  0.00     0.072 A 
ATOM     78  C   UNL A   1      39.186  30.279  32.601  1.00  0.00     0.016 A 
ATOM     79  C   UNL A   1      38.944  32.541  31.702  1.00  0.00     0.054 A 
ATOM     80  C   UNL A   1      39.990  29.919  31.526  1.00  0.00     0.001 A 
ATOM     81  C   UNL A   1      39.710  32.143  30.596  1.00  0.00     0.015 A 
ATOM     82  C   UNL A   1      40.225  30.841  30.508  1.00  0.00     0.001 A 
BRANCH  79  83
ATOM     83  C   UNL A   1      38.397  33.925  31.713  1.00  0.00     0.256 C 
ATOM     84  O   UNL A   1      38.951  34.742  32.455  1.00  0.00    -0.269 OA
ATOM     85  N   UNL A   1      37.389  34.375  30.883  1.00  0.00    -0.322 N 
ATOM     86  H   UNL A   1      37.327  35.356  30.831  1.00  0.00     0.170 HD
BRANCH  85  87
ATOM     87  C   UNL A   1      36.430  33.708  30.096  1.00  0.00     0.041 A 
ATOM     88  C   UNL A   1      36.782  33.422  28.769  1.00  0.00     0.028 A 
ATOM     89  C   UNL A   1      35.205  33.250  30.584  1.00  0.00     0.028 A 
ATOM     90  C   UNL A   1      36.028  32.511  28.014  1.00  0.00     0.029 A 
ATOM     91  C   UNL A   1      34.403  32.408  29.795  1.00  0.00     0.029 A 
ATOM     92  C   UNL A   1      34.847  31.977  28.537  1.00  0.00     0.052 A 
BRANCH  92  93
ATOM     93  N   UNL A   1      34.200  30.905  27.891  1.00  0.00    -0.250 N 
ATOM     94  C   UNL A   1      34.821  29.706  27.512  1.00  0.00     0.237 C 
ATOM     95  C   UNL A   1      32.964  31.046  27.251  1.00  0.00     0.237 C 
ATOM     96  O   UNL A   1      35.848  29.199  27.922  1.00  0.00    -0.274 OA
ATOM     97  C   UNL A   1      33.996  29.255  26.332  1.00  0.00     0.095 C 
ATOM     98  C   UNL A   1      32.632  29.651  26.864  1.00  0.00     0.095 C 
ATOM     99  O   UNL A   1      32.278  32.021  27.014  1.00  0.00    -0.274 OA
ATOM    100  C   UNL A   1      33.661  27.956  25.591  1.00  0.00     0.002 C 
ATOM    101  C   UNL A   1      31.683  29.018  25.868  1.00  0.00     0.002 C 
ATOM    102  C   UNL A   1      33.296  28.416  24.154  1.00  0.00     0.005 C 
ATOM    103  C   UNL A   1      32.228  27.580  26.032  1.00  0.00     0.009 C 
ATOM    104  C   UNL A   1      32.041  29.297  24.396  1.00  0.00     0.005 C 
ENDBRANCH  92  93
ENDBRANCH  85  87
ENDBRANCH  79  83
ENDBRANCH  75  77
ENDBRANCH  74  75
ENDBRANCH  73  74
ENDBRANCH   1  73
TORSDOF 17
ENDMDL
MODEL 3
REMARK VINA RESULT:     -11.2      3.295      7.858
REMARK SMILES O=C(OCCOCCOC(=O)c1ccccc1C(=O)Nc1ccc(N2C(=O)[C@H]3[C@@H]4CC[C@@H](C4)[C@@H]3C2=O)cc1)c1ccc(-c2c3nc(c(-c4c(F)c(F)c(F)c(F)c4F)c4ccc([nH]4)c(-c4c(F)c(F)c(F)c(F)c4F)c4nc(c(-c5c(F)c(F)c(F)c(F)c5F)c5ccc2[nH]5)C=C4)C=C3)cc1
REMARK SMILES IDX 7 1 6 2 5 3 4 4 3 5 2 6 1 7 39 8 40 9 101 10 41 11 100 12
REMARK SMILES IDX 42 13 43 14 44 15 94 16 45 17 99 18 93 19 95 20 46 21 98 22
REMARK SMILES IDX 92 23 91 24 47 26 79 27 59 28 78 29 60 30 63 31 77 32 96 33
REMARK SMILES IDX 61 34 62 35 76 37 97 38 64 39 48 40 49 41 57 42 50 43 51 44
REMARK SMILES IDX 55 45 58 46 52 47 53 48 56 49 54 50 80 51 81 52 89 53 82 54
REMARK SMILES IDX 83 55 87 56 90 57 84 58 85 59 88 60 86 61 65 62 66 63 74 64
REMARK SMILES IDX 67 65 68 66 72 67 75 68 69 69 70 70 73 71 71 72 8 73 9 74
REMARK SMILES IDX 10 75 11 76 12 77 13 78 17 79 14 80 16 81 15 82 18 83 19 84
REMARK SMILES IDX 20 85 21 87 22 88 38 89 23 90 37 91 24 92 25 93 26 94 35 95
REMARK SMILES IDX 27 96 28 97 34 98 36 99 29 100 32 101 30 102 33 103 31 104
REMARK H PARENT 95 25 63 36 20 86
REMARK Flexibility Score: inf
ROOT
ATOM      1  C   UNL A   1      48.157  27.685  24.372  1.00  0.00     0.202 C 
ENDROOT
BRANCH   1   2
ATOM      2  O   UNL A   1      49.451  27.684  24.943  1.00  0.00    -0.374 OA
BRANCH   2   3
ATOM      3  C   UNL A   1      50.522  27.313  24.076  1.00  0.00     0.202 C 
BRANCH   3   4
ATOM      4  C   UNL A   1      51.861  27.447  24.793  1.00  0.00     0.261 C 
BRANCH   4   5
ATOM      5  O   UNL A   1      52.065  26.306  25.643  1.00  0.00    -0.460 OA
BRANCH   5   6
ATOM      6  C   UNL A   1      52.686  26.572  26.830  1.00  0.00     0.338 C 
ATOM      7  O   UNL A   1      53.848  26.824  27.027  1.00  0.00    -0.246 OA
BRANCH   6   8
ATOM      8  C   UNL A   1      51.648  26.433  27.873  1.00  0.00     0.060 A 
ATOM      9  C   UNL A   1      50.587  25.571  27.628  1.00  0.00     0.016 A 
ATOM     10  C   UNL A   1      51.645  27.241  29.006  1.00  0.00     0.016 A 
ATOM     11  C   UNL A   1      49.426  25.687  28.374  1.00  0.00     0.010 A 
ATOM     12  C   UNL A   1      50.483  27.310  29.795  1.00  0.00     0.010 A 
ATOM     13  C   UNL A   1      49.312  26.637  29.397  1.00  0.00    -0.014 A 
BRANCH  13  14
ATOM     14  C   UNL A   1      47.939  27.114  29.788  1.00  0.00     0.031 A 
ATOM     15  C   UNL A   1      47.274  26.513  31.019  1.00  0.00     0.074 A 
ATOM     16  C   UNL A   1      47.393  28.237  29.270  1.00  0.00     0.049 A 
ATOM     17  N   UNL A   1      46.090  26.754  31.533  1.00  0.00    -0.248 NA
ATOM     18  C   UNL A   1      48.063  25.549  31.807  1.00  0.00     0.031 C 
ATOM     19  C   UNL A   1      47.990  29.067  28.224  1.00  0.00     0.029 A 
ATOM     20  N   UNL A   1      46.256  28.931  29.622  1.00  0.00    -0.354 N 
ATOM     21  C   UNL A   1      46.001  25.968  32.678  1.00  0.00     0.074 A 
ATOM     22  C   UNL A   1      47.226  25.212  32.773  1.00  0.00     0.031 C 
ATOM     23  C   UNL A   1      47.287  30.203  28.105  1.00  0.00     0.029 A 
ATOM     24  C   UNL A   1      46.091  30.113  28.936  1.00  0.00     0.049 A 
ATOM     25  H   UNL A   1      45.619  28.610  30.302  1.00  0.00     0.167 HD
ATOM     26  C   UNL A   1      45.012  25.901  33.600  1.00  0.00     0.037 A 
ATOM     27  C   UNL A   1      45.068  30.993  28.919  1.00  0.00     0.037 A 
ATOM     28  C   UNL A   1      43.801  26.670  33.560  1.00  0.00     0.049 A 
ATOM     29  C   UNL A   1      43.849  30.709  29.755  1.00  0.00     0.074 A 
ATOM     30  C   UNL A   1      42.693  26.582  34.382  1.00  0.00     0.029 A 
ATOM     31  N   UNL A   1      43.553  27.689  32.657  1.00  0.00    -0.354 N 
ATOM     32  N   UNL A   1      43.689  29.837  30.720  1.00  0.00    -0.248 NA
ATOM     33  C   UNL A   1      42.643  31.496  29.457  1.00  0.00     0.031 C 
ATOM     34  C   UNL A   1      41.750  27.519  33.944  1.00  0.00     0.029 A 
ATOM     35  C   UNL A   1      42.292  28.216  32.877  1.00  0.00     0.049 A 
ATOM     36  H   UNL A   1      44.179  27.994  31.961  1.00  0.00     0.167 HD
ATOM     37  C   UNL A   1      42.372  29.973  31.143  1.00  0.00     0.074 A 
ATOM     38  C   UNL A   1      41.784  31.034  30.354  1.00  0.00     0.031 C 
ATOM     39  C   UNL A   1      41.707  29.268  32.090  1.00  0.00     0.037 A 
BRANCH  26  40
ATOM     40  C   UNL A   1      45.184  24.917  34.717  1.00  0.00     0.064 A 
ATOM     41  C   UNL A   1      45.706  25.295  35.962  1.00  0.00     0.173 A 
ATOM     42  C   UNL A   1      44.809  23.577  34.536  1.00  0.00     0.173 A 
ATOM     43  F   UNL A   1      46.103  26.560  36.171  1.00  0.00    -0.203 F 
ATOM     44  C   UNL A   1      45.863  24.360  36.982  1.00  0.00     0.198 A 
ATOM     45  C   UNL A   1      44.948  22.650  35.566  1.00  0.00     0.198 A 
ATOM     46  F   UNL A   1      44.308  23.169  33.362  1.00  0.00    -0.203 F 
ATOM     47  F   UNL A   1      46.401  24.732  38.153  1.00  0.00    -0.200 F 
ATOM     48  C   UNL A   1      45.479  23.042  36.785  1.00  0.00     0.200 A 
ATOM     49  F   UNL A   1      44.573  21.378  35.374  1.00  0.00    -0.200 F 
ATOM     50  F   UNL A   1      45.631  22.144  37.769  1.00  0.00    -0.200 F 
ENDBRANCH  26  40
BRANCH  27  51
ATOM     51  C   UNL A   1      45.077  32.152  27.976  1.00  0.00     0.064 A 
ATOM     52  C   UNL A   1      45.681  33.372  28.312  1.00  0.00     0.173 A 
ATOM     53  C   UNL A   1      44.410  32.083  26.740  1.00  0.00     0.173 A 
ATOM     54  F   UNL A   1      46.280  33.520  29.503  1.00  0.00    -0.203 F 
ATOM     55  C   UNL A   1      45.616  34.471  27.453  1.00  0.00     0.198 A 
ATOM     56  C   UNL A   1      44.388  33.164  25.863  1.00  0.00     0.198 A 
ATOM     57  F   UNL A   1      43.775  30.959  26.378  1.00  0.00    -0.203 F 
ATOM     58  F   UNL A   1      46.140  35.646  27.828  1.00  0.00    -0.200 F 
ATOM     59  C   UNL A   1      44.981  34.361  26.224  1.00  0.00     0.200 A 
ATOM     60  F   UNL A   1      43.777  33.045  24.676  1.00  0.00    -0.200 F 
ATOM     61  F   UNL A   1      44.919  35.416  25.399  1.00  0.00    -0.200 F 
ENDBRANCH  27  51
BRANCH  39  62
ATOM     62  C   UNL A   1      40.269  29.619  32.336  1.00  0.00     0.064 A 
ATOM     63  C   UNL A   1      39.909  30.594  33.279  1.00  0.00     0.173 A 
ATOM     64  C   UNL A   1      39.244  29.008  31.598  1.00  0.00     0.173 A 
ATOM     65  F   UNL A   1      40.850  31.197  34.019  1.00  0.00    -0.203 F 
ATOM     66  C   UNL A   1      38.574  30.928  33.488  1.00  0.00     0.198 A 
ATOM     67  C   UNL A   1      37.913  29.366  31.789  1.00  0.00     0.198 A 
ATOM     68  F   UNL A   1      39.536  28.076  30.679  1.00  0.00    -0.203 F 
ATOM     69  F   UNL A   1      38.250  31.829  34.425  1.00  0.00    -0.200 F 
ATOM     70  C   UNL A   1      37.578  30.320  32.738  1.00  0.00     0.200 A 
ATOM     71  F   UNL A   1      36.954  28.789  31.052  1.00  0.00    -0.200 F 
ATOM     72  F   UNL A   1      36.294  30.648  32.935  1.00  0.00    -0.200 F 
ENDBRANCH  39  62
ENDBRANCH  13  14
ENDBRANCH   6   8
ENDBRANCH   5   6
ENDBRANCH   4   5
ENDBRANCH   3   4
ENDBRANCH   2   3
ENDBRANCH   1   2
BRANCH   1  73
ATOM     73  C   UNL A   1      47.233  26.773  25.176  1.00  0.00     0.261 C 
BRANCH  73  74
ATOM     74  O   UNL A   1      45.835  26.940  24.880  1.00  0.00    -0.460 OA
BRANCH  74  75
ATOM     75  C   UNL A   1      45.008  25.970  25.316  1.00  0.00     0.339 C 
ATOM     76  O   UNL A   1      44.721  24.903  24.800  1.00  0.00    -0.246 OA
BRANCH  75  77
ATOM     77  C   UNL A   1      44.461  26.332  26.609  1.00  0.00     0.072 A 
ATOM     78  C   UNL A   1      43.719  27.521  26.662  1.00  0.00     0.016 A 
ATOM     79  C   UNL A   1      44.649  25.531  27.738  1.00  0.00     0.054 A 
ATOM     80  C   UNL A   1      43.058  27.867  27.834  1.00  0.00     0.001 A 
ATOM     81  C   UNL A   1      43.928  25.866  28.895  1.00  0.00     0.015 A 
ATOM     82  C   UNL A   1      43.136  27.023  28.939  1.00  0.00     0.001 A 
BRANCH  79  83
ATOM     83  C   UNL A   1      45.439  24.270  27.747  1.00  0.00     0.256 C 
ATOM     84  O   UNL A   1      46.660  24.373  27.892  1.00  0.00    -0.269 OA
ATOM     85  N   UNL A   1      44.890  23.002  27.705  1.00  0.00    -0.322 N 
ATOM     86  H   UNL A   1      45.515  22.292  27.979  1.00  0.00     0.170 HD
BRANCH  85  87
ATOM     87  C   UNL A   1      43.615  22.524  27.347  1.00  0.00     0.041 A 
ATOM     88  C   UNL A   1      42.675  22.382  28.378  1.00  0.00     0.028 A 
ATOM     89  C   UNL A   1      43.220  22.271  26.033  1.00  0.00     0.028 A 
ATOM     90  C   UNL A   1      41.315  22.206  28.081  1.00  0.00     0.029 A 
ATOM     91  C   UNL A   1      41.870  22.006  25.741  1.00  0.00     0.029 A 
ATOM     92  C   UNL A   1      40.903  22.046  26.755  1.00  0.00     0.052 A 
BRANCH  92  93
ATOM     93  N   UNL A   1      39.535  22.089  26.422  1.00  0.00    -0.250 N 
ATOM     94  C   UNL A   1      38.845  21.079  25.734  1.00  0.00     0.237 C 
ATOM     95  C   UNL A   1      38.794  23.275  26.432  1.00  0.00     0.237 C 
ATOM     96  O   UNL A   1      39.124  19.903  25.598  1.00  0.00    -0.274 OA
ATOM     97  C   UNL A   1      37.737  21.835  25.045  1.00  0.00     0.095 C 
ATOM     98  C   UNL A   1      37.411  22.803  26.166  1.00  0.00     0.095 C 
ATOM     99  O   UNL A   1      39.119  24.436  26.592  1.00  0.00    -0.274 OA
ATOM    100  C   UNL A   1      36.342  21.562  24.473  1.00  0.00     0.002 C 
ATOM    101  C   UNL A   1      36.134  23.459  25.687  1.00  0.00     0.002 C 
ATOM    102  C   UNL A   1      36.148  22.661  23.392  1.00  0.00     0.005 C 
ATOM    103  C   UNL A   1      35.346  22.141  25.502  1.00  0.00     0.009 C 
ATOM    104  C   UNL A   1      36.196  23.965  24.232  1.00  0.00     0.005 C 
ENDBRANCH  92  93
ENDBRANCH  85  87
ENDBRANCH  79  83
ENDBRANCH  75  77
ENDBRANCH  74  75
ENDBRANCH  73  74
ENDBRANCH   1  73
TORSDOF 17
ENDMDL
