MODEL 1
REMARK VINA RESULT:     -11.8      0.000      0.000
REMARK SMILES O=C(OCCOCCOC(=O)c1ccc(-c2c3nc(c(-c4c(F)c(F)c(F)c(F)c4F)c4ccc([nH]4)c(-c4c(F)c(F)c(F)c(F)c4F)c4nc(c(-c5c(F)c(F)c(F)c(F)c5F)c5ccc2[nH]5)C=C4)C=C3)cc1)C1=Cc2c(ccc(Cl)c2Cl)O[C@H]1C(F)(F)F
REMARK SMILES IDX 7 1 6 2 5 3 4 4 3 5 2 6 1 7 75 8 76 9 86 10 77 11 85 12
REMARK SMILES IDX 78 13 83 14 79 15 81 16 84 17 80 18 82 19 87 20 88 21 89 22
REMARK SMILES IDX 90 23 8 24 9 25 10 26 11 27 12 28 13 29 74 30 14 31 73 32
REMARK SMILES IDX 15 33 16 34 17 35 67 36 18 37 72 38 66 39 68 40 19 41 71 42
REMARK SMILES IDX 65 43 64 44 20 46 52 47 32 48 51 49 33 50 36 51 50 52 69 53
REMARK SMILES IDX 34 54 35 55 49 57 70 58 37 59 21 60 22 61 30 62 23 63 24 64
REMARK SMILES IDX 28 65 31 66 25 67 26 68 29 69 27 70 53 71 54 72 62 73 55 74
REMARK SMILES IDX 56 75 60 76 63 77 57 78 58 79 61 80 59 81 38 82 39 83 47 84
REMARK SMILES IDX 40 85 41 86 45 87 48 88 42 89 43 90 46 91 44 92
REMARK H PARENT 68 45 36 56
REMARK Flexibility Score: inf
ROOT
ATOM      1  C   UNL A   1      45.984  22.209  25.099  1.00  0.00     0.202 C 
ENDROOT
BRANCH   1   2
ATOM      2  O   UNL A   1      46.378  20.928  24.626  1.00  0.00    -0.374 OA
BRANCH   2   3
ATOM      3  C   UNL A   1      45.812  19.844  25.364  1.00  0.00     0.202 C 
BRANCH   3   4
ATOM      4  C   UNL A   1      44.529  19.339  24.697  1.00  0.00     0.261 C 
BRANCH   4   5
ATOM      5  O   UNL A   1      43.372  20.130  25.045  1.00  0.00    -0.460 OA
BRANCH   5   6
ATOM      6  C   UNL A   1      42.218  19.698  25.612  1.00  0.00     0.338 C 
ATOM      7  O   UNL A   1      42.133  18.531  25.986  1.00  0.00    -0.246 OA
BRANCH   6   8
ATOM      8  C   UNL A   1      41.148  20.648  26.009  1.00  0.00     0.087 C 
ATOM      9  C   UNL A   1      39.870  20.366  26.264  1.00  0.00     0.029 C 
ATOM     10  C   UNL A   1      41.628  22.011  26.492  1.00  0.00     0.316 C 
ATOM     11  C   UNL A   1      38.899  21.406  26.005  1.00  0.00     0.037 A 
ATOM     12  O   UNL A   1      40.558  22.988  26.758  1.00  0.00    -0.475 OA
ATOM     13  C   UNL A   1      39.300  22.700  26.305  1.00  0.00     0.129 A 
ATOM     14  C   UNL A   1      37.651  21.167  25.387  1.00  0.00     0.070 A 
ATOM     15  C   UNL A   1      38.408  23.752  26.132  1.00  0.00     0.049 A 
ATOM     16  C   UNL A   1      36.776  22.235  25.170  1.00  0.00     0.060 A 
ATOM     17  Cl  UNL A   1      37.246  19.586  24.787  1.00  0.00    -0.082 Cl
ATOM     18  C   UNL A   1      37.149  23.520  25.567  1.00  0.00     0.026 A 
ATOM     19  Cl  UNL A   1      35.240  22.038  24.397  1.00  0.00    -0.083 Cl
BRANCH  10  20
ATOM     20  C   UNL A   1      42.478  21.839  27.794  1.00  0.00     0.430 C 
ATOM     21  F   UNL A   1      42.433  20.582  28.302  1.00  0.00    -0.167 F 
ATOM     22  F   UNL A   1      43.779  22.148  27.584  1.00  0.00    -0.167 F 
ATOM     23  F   UNL A   1      42.044  22.653  28.791  1.00  0.00    -0.167 F 
ENDBRANCH  10  20
ENDBRANCH   6   8
ENDBRANCH   5   6
ENDBRANCH   4   5
ENDBRANCH   3   4
ENDBRANCH   2   3
ENDBRANCH   1   2
BRANCH   1  24
ATOM     24  C   UNL A   1      45.256  23.027  24.031  1.00  0.00     0.261 C 
BRANCH  24  25
ATOM     25  O   UNL A   1      44.370  24.007  24.610  1.00  0.00    -0.460 OA
BRANCH  25  26
ATOM     26  C   UNL A   1      44.961  25.154  25.033  1.00  0.00     0.338 C 
ATOM     27  O   UNL A   1      46.020  25.620  24.619  1.00  0.00    -0.246 OA
BRANCH  26  28
ATOM     28  C   UNL A   1      44.131  25.854  26.052  1.00  0.00     0.060 A 
ATOM     29  C   UNL A   1      44.384  27.212  26.294  1.00  0.00     0.016 A 
ATOM     30  C   UNL A   1      43.115  25.211  26.769  1.00  0.00     0.016 A 
ATOM     31  C   UNL A   1      43.654  27.914  27.261  1.00  0.00     0.010 A 
ATOM     32  C   UNL A   1      42.378  25.916  27.733  1.00  0.00     0.010 A 
ATOM     33  C   UNL A   1      42.662  27.264  28.008  1.00  0.00    -0.014 A 
BRANCH  33  34
ATOM     34  C   UNL A   1      42.044  27.949  29.176  1.00  0.00     0.031 A 
ATOM     35  C   UNL A   1      42.693  27.804  30.527  1.00  0.00     0.074 A 
ATOM     36  C   UNL A   1      40.941  28.711  29.052  1.00  0.00     0.049 A 
ATOM     37  N   UNL A   1      42.367  28.348  31.673  1.00  0.00    -0.248 NA
ATOM     38  C   UNL A   1      43.869  26.922  30.593  1.00  0.00     0.031 C 
ATOM     39  C   UNL A   1      40.203  28.935  27.814  1.00  0.00     0.029 A 
ATOM     40  N   UNL A   1      40.250  29.438  29.992  1.00  0.00    -0.354 N 
ATOM     41  C   UNL A   1      43.310  27.896  32.587  1.00  0.00     0.074 A 
ATOM     42  C   UNL A   1      44.180  26.982  31.879  1.00  0.00     0.031 C 
ATOM     43  C   UNL A   1      39.158  29.743  28.067  1.00  0.00     0.029 A 
ATOM     44  C   UNL A   1      39.145  30.084  29.490  1.00  0.00     0.049 A 
ATOM     45  H   UNL A   1      40.520  29.491  30.937  1.00  0.00     0.167 HD
ATOM     46  C   UNL A   1      43.457  28.227  33.893  1.00  0.00     0.037 A 
ATOM     47  C   UNL A   1      38.228  30.856  30.109  1.00  0.00     0.037 A 
ATOM     48  C   UNL A   1      42.576  29.103  34.619  1.00  0.00     0.049 A 
ATOM     49  C   UNL A   1      38.373  31.154  31.584  1.00  0.00     0.074 A 
ATOM     50  C   UNL A   1      42.641  29.486  35.948  1.00  0.00     0.029 A 
ATOM     51  N   UNL A   1      41.457  29.722  34.081  1.00  0.00    -0.354 N 
ATOM     52  N   UNL A   1      39.303  30.770  32.425  1.00  0.00    -0.248 NA
ATOM     53  C   UNL A   1      37.342  32.010  32.192  1.00  0.00     0.031 C 
ATOM     54  C   UNL A   1      41.532  30.292  36.228  1.00  0.00     0.029 A 
ATOM     55  C   UNL A   1      40.813  30.466  35.057  1.00  0.00     0.049 A 
ATOM     56  H   UNL A   1      41.164  29.644  33.144  1.00  0.00     0.167 HD
ATOM     57  C   UNL A   1      38.988  31.360  33.644  1.00  0.00     0.074 A 
ATOM     58  C   UNL A   1      37.795  32.150  33.429  1.00  0.00     0.031 C 
ATOM     59  C   UNL A   1      39.626  31.255  34.838  1.00  0.00     0.037 A 
BRANCH  46  60
ATOM     60  C   UNL A   1      44.623  27.624  34.622  1.00  0.00     0.064 A 
ATOM     61  C   UNL A   1      44.519  26.379  35.263  1.00  0.00     0.173 A 
ATOM     62  C   UNL A   1      45.861  28.283  34.665  1.00  0.00     0.173 A 
ATOM     63  F   UNL A   1      43.353  25.716  35.264  1.00  0.00    -0.203 F 
ATOM     64  C   UNL A   1      45.601  25.832  35.946  1.00  0.00     0.198 A 
ATOM     65  C   UNL A   1      46.951  27.717  35.322  1.00  0.00     0.198 A 
ATOM     66  F   UNL A   1      46.016  29.473  34.066  1.00  0.00    -0.203 F 
ATOM     67  F   UNL A   1      45.462  24.670  36.598  1.00  0.00    -0.200 F 
ATOM     68  C   UNL A   1      46.818  26.497  35.969  1.00  0.00     0.200 A 
ATOM     69  F   UNL A   1      48.129  28.354  35.332  1.00  0.00    -0.200 F 
ATOM     70  F   UNL A   1      47.860  25.967  36.624  1.00  0.00    -0.200 F 
ENDBRANCH  46  60
BRANCH  47  71
ATOM     71  C   UNL A   1      37.073  31.410  29.347  1.00  0.00     0.064 A 
ATOM     72  C   UNL A   1      36.998  32.773  29.023  1.00  0.00     0.173 A 
ATOM     73  C   UNL A   1      35.989  30.597  28.985  1.00  0.00     0.173 A 
ATOM     74  F   UNL A   1      37.992  33.601  29.376  1.00  0.00    -0.203 F 
ATOM     75  C   UNL A   1      35.870  33.307  28.403  1.00  0.00     0.198 A 
ATOM     76  C   UNL A   1      34.877  31.125  28.330  1.00  0.00     0.198 A 
ATOM     77  F   UNL A   1      36.004  29.287  29.274  1.00  0.00    -0.203 F 
ATOM     78  F   UNL A   1      35.793  34.625  28.174  1.00  0.00    -0.200 F 
ATOM     79  C   UNL A   1      34.812  32.481  28.052  1.00  0.00     0.200 A 
ATOM     80  F   UNL A   1      33.862  30.321  27.984  1.00  0.00    -0.200 F 
ATOM     81  F   UNL A   1      33.724  32.996  27.461  1.00  0.00    -0.200 F 
ENDBRANCH  47  71
BRANCH  59  82
ATOM     82  C   UNL A   1      39.071  32.041  35.995  1.00  0.00     0.064 A 
ATOM     83  C   UNL A   1      39.405  33.389  36.205  1.00  0.00     0.173 A 
ATOM     84  C   UNL A   1      38.179  31.443  36.898  1.00  0.00     0.173 A 
ATOM     85  F   UNL A   1      40.259  34.010  35.379  1.00  0.00    -0.203 F 
ATOM     86  C   UNL A   1      38.902  34.091  37.299  1.00  0.00     0.198 A 
ATOM     87  C   UNL A   1      37.648  32.159  37.969  1.00  0.00     0.198 A 
ATOM     88  F   UNL A   1      37.814  30.162  36.742  1.00  0.00    -0.203 F 
ATOM     89  F   UNL A   1      39.289  35.356  37.516  1.00  0.00    -0.200 F 
ATOM     90  C   UNL A   1      38.021  33.479  38.176  1.00  0.00     0.200 A 
ATOM     91  F   UNL A   1      36.782  31.570  38.804  1.00  0.00    -0.200 F 
ATOM     92  F   UNL A   1      37.538  34.156  39.227  1.00  0.00    -0.200 F 
ENDBRANCH  59  82
ENDBRANCH  33  34
ENDBRANCH  26  28
ENDBRANCH  25  26
ENDBRANCH  24  25
ENDBRANCH   1  24
TORSDOF 15
ENDMDL
MODEL 2
REMARK VINA RESULT:     -11.6      3.869      9.491
REMARK SMILES O=C(OCCOCCOC(=O)c1ccc(-c2c3nc(c(-c4c(F)c(F)c(F)c(F)c4F)c4ccc([nH]4)c(-c4c(F)c(F)c(F)c(F)c4F)c4nc(c(-c5c(F)c(F)c(F)c(F)c5F)c5ccc2[nH]5)C=C4)C=C3)cc1)C1=Cc2c(ccc(Cl)c2Cl)O[C@H]1C(F)(F)F
REMARK SMILES IDX 7 1 6 2 5 3 4 4 3 5 2 6 1 7 75 8 76 9 86 10 77 11 85 12
REMARK SMILES IDX 78 13 83 14 79 15 81 16 84 17 80 18 82 19 87 20 88 21 89 22
REMARK SMILES IDX 90 23 8 24 9 25 10 26 11 27 12 28 13 29 74 30 14 31 73 32
REMARK SMILES IDX 15 33 16 34 17 35 67 36 18 37 72 38 66 39 68 40 19 41 71 42
REMARK SMILES IDX 65 43 64 44 20 46 52 47 32 48 51 49 33 50 36 51 50 52 69 53
REMARK SMILES IDX 34 54 35 55 49 57 70 58 37 59 21 60 22 61 30 62 23 63 24 64
REMARK SMILES IDX 28 65 31 66 25 67 26 68 29 69 27 70 53 71 54 72 62 73 55 74
REMARK SMILES IDX 56 75 60 76 63 77 57 78 58 79 61 80 59 81 38 82 39 83 47 84
REMARK SMILES IDX 40 85 41 86 45 87 48 88 42 89 43 90 46 91 44 92
REMARK H PARENT 68 45 36 56
REMARK Flexibility Score: inf
ROOT
ATOM      1  C   UNL A   1      31.791  31.165  26.674  1.00  0.00     0.202 C 
ENDROOT
BRANCH   1   2
ATOM      2  O   UNL A   1      31.180  30.751  25.460  1.00  0.00    -0.374 OA
BRANCH   2   3
ATOM      3  C   UNL A   1      31.629  29.477  24.995  1.00  0.00     0.202 C 
BRANCH   3   4
ATOM      4  C   UNL A   1      33.145  29.337  25.165  1.00  0.00     0.261 C 
BRANCH   4   5
ATOM      5  O   UNL A   1      33.558  27.968  25.365  1.00  0.00    -0.460 OA
BRANCH   5   6
ATOM      6  C   UNL A   1      33.540  26.960  24.458  1.00  0.00     0.338 C 
ATOM      7  O   UNL A   1      33.717  27.218  23.270  1.00  0.00    -0.246 OA
BRANCH   6   8
ATOM      8  C   UNL A   1      33.550  25.537  24.882  1.00  0.00     0.087 C 
ATOM      9  C   UNL A   1      34.485  24.912  25.599  1.00  0.00     0.029 C 
ATOM     10  C   UNL A   1      32.215  24.811  24.771  1.00  0.00     0.316 C 
ATOM     11  C   UNL A   1      34.656  23.495  25.372  1.00  0.00     0.037 A 
ATOM     12  O   UNL A   1      32.265  23.369  25.068  1.00  0.00    -0.475 OA
ATOM     13  C   UNL A   1      33.493  22.772  25.141  1.00  0.00     0.129 A 
ATOM     14  C   UNL A   1      35.919  22.869  25.279  1.00  0.00     0.070 A 
ATOM     15  C   UNL A   1      33.566  21.395  24.964  1.00  0.00     0.049 A 
ATOM     16  C   UNL A   1      35.989  21.492  25.052  1.00  0.00     0.060 A 
ATOM     17  Cl  UNL A   1      37.380  23.810  25.323  1.00  0.00    -0.082 Cl
ATOM     18  C   UNL A   1      34.810  20.756  24.920  1.00  0.00     0.026 A 
ATOM     19  Cl  UNL A   1      37.492  20.649  24.898  1.00  0.00    -0.083 Cl
BRANCH  10  20
ATOM     20  C   UNL A   1      31.172  25.479  25.727  1.00  0.00     0.430 C 
ATOM     21  F   UNL A   1      31.737  26.056  26.817  1.00  0.00    -0.167 F 
ATOM     22  F   UNL A   1      30.450  26.430  25.089  1.00  0.00    -0.167 F 
ATOM     23  F   UNL A   1      30.280  24.576  26.210  1.00  0.00    -0.167 F 
ENDBRANCH  10  20
ENDBRANCH   6   8
ENDBRANCH   5   6
ENDBRANCH   4   5
ENDBRANCH   3   4
ENDBRANCH   2   3
ENDBRANCH   1   2
BRANCH   1  24
ATOM     24  C   UNL A   1      31.688  32.676  26.894  1.00  0.00     0.261 C 
BRANCH  24  25
ATOM     25  O   UNL A   1      32.981  33.315  26.874  1.00  0.00    -0.460 OA
BRANCH  25  26
ATOM     26  C   UNL A   1      33.430  33.769  28.071  1.00  0.00     0.338 C 
ATOM     27  O   UNL A   1      32.879  34.607  28.781  1.00  0.00    -0.246 OA
BRANCH  26  28
ATOM     28  C   UNL A   1      34.680  33.076  28.486  1.00  0.00     0.060 A 
ATOM     29  C   UNL A   1      34.586  31.748  28.930  1.00  0.00     0.016 A 
ATOM     30  C   UNL A   1      35.936  33.695  28.448  1.00  0.00     0.016 A 
ATOM     31  C   UNL A   1      35.725  31.056  29.360  1.00  0.00     0.010 A 
ATOM     32  C   UNL A   1      37.078  32.999  28.871  1.00  0.00     0.010 A 
ATOM     33  C   UNL A   1      36.978  31.685  29.359  1.00  0.00    -0.014 A 
BRANCH  33  34
ATOM     34  C   UNL A   1      38.139  31.027  30.017  1.00  0.00     0.031 A 
ATOM     35  C   UNL A   1      38.453  31.371  31.448  1.00  0.00     0.074 A 
ATOM     36  C   UNL A   1      38.897  30.117  29.375  1.00  0.00     0.049 A 
ATOM     37  N   UNL A   1      39.378  30.889  32.240  1.00  0.00    -0.248 NA
ATOM     38  C   UNL A   1      37.609  32.405  32.068  1.00  0.00     0.031 C 
ATOM     39  C   UNL A   1      38.718  29.692  27.991  1.00  0.00     0.029 A 
ATOM     40  N   UNL A   1      39.977  29.388  29.815  1.00  0.00    -0.354 N 
ATOM     41  C   UNL A   1      39.210  31.539  33.456  1.00  0.00     0.074 A 
ATOM     42  C   UNL A   1      38.139  32.497  33.279  1.00  0.00     0.031 C 
ATOM     43  C   UNL A   1      39.656  28.777  27.690  1.00  0.00     0.029 A 
ATOM     44  C   UNL A   1      40.512  28.559  28.857  1.00  0.00     0.049 A 
ATOM     45  H   UNL A   1      40.333  29.452  30.730  1.00  0.00     0.167 HD
ATOM     46  C   UNL A   1      39.868  31.343  34.625  1.00  0.00     0.037 A 
ATOM     47  C   UNL A   1      41.573  27.728  28.915  1.00  0.00     0.037 A 
ATOM     48  C   UNL A   1      40.960  30.423  34.804  1.00  0.00     0.049 A 
ATOM     49  C   UNL A   1      42.338  27.579  30.211  1.00  0.00     0.074 A 
ATOM     50  C   UNL A   1      41.694  30.167  35.949  1.00  0.00     0.029 A 
ATOM     51  N   UNL A   1      41.486  29.617  33.806  1.00  0.00    -0.354 N 
ATOM     52  N   UNL A   1      42.131  28.154  31.371  1.00  0.00    -0.248 NA
ATOM     53  C   UNL A   1      43.478  26.649  30.205  1.00  0.00     0.031 C 
ATOM     54  C   UNL A   1      42.700  29.247  35.631  1.00  0.00     0.029 A 
ATOM     55  C   UNL A   1      42.550  28.880  34.304  1.00  0.00     0.049 A 
ATOM     56  H   UNL A   1      41.154  29.575  32.879  1.00  0.00     0.167 HD
ATOM     57  C   UNL A   1      43.090  27.633  32.235  1.00  0.00     0.074 A 
ATOM     58  C   UNL A   1      43.862  26.677  31.473  1.00  0.00     0.031 C 
ATOM     59  C   UNL A   1      43.314  27.925  33.541  1.00  0.00     0.037 A 
BRANCH  46  60
ATOM     60  C   UNL A   1      39.419  32.156  35.805  1.00  0.00     0.064 A 
ATOM     61  C   UNL A   1      38.442  31.677  36.692  1.00  0.00     0.173 A 
ATOM     62  C   UNL A   1      39.982  33.414  36.066  1.00  0.00     0.173 A 
ATOM     63  F   UNL A   1      37.862  30.486  36.479  1.00  0.00    -0.203 F 
ATOM     64  C   UNL A   1      38.023  32.441  37.778  1.00  0.00     0.198 A 
ATOM     65  C   UNL A   1      39.584  34.161  37.171  1.00  0.00     0.198 A 
ATOM     66  F   UNL A   1      40.921  33.917  35.252  1.00  0.00    -0.203 F 
ATOM     67  F   UNL A   1      37.050  31.987  38.579  1.00  0.00    -0.200 F 
ATOM     68  C   UNL A   1      38.599  33.679  38.021  1.00  0.00     0.200 A 
ATOM     69  F   UNL A   1      40.150  35.351  37.412  1.00  0.00    -0.200 F 
ATOM     70  F   UNL A   1      38.198  34.412  39.069  1.00  0.00    -0.200 F 
ENDBRANCH  46  60
BRANCH  47  71
ATOM     71  C   UNL A   1      41.996  26.962  27.708  1.00  0.00     0.064 A 
ATOM     72  C   UNL A   1      41.495  25.678  27.445  1.00  0.00     0.173 A 
ATOM     73  C   UNL A   1      42.962  27.474  26.829  1.00  0.00     0.173 A 
ATOM     74  F   UNL A   1      40.594  25.129  28.273  1.00  0.00    -0.203 F 
ATOM     75  C   UNL A   1      41.969  24.924  26.374  1.00  0.00     0.198 A 
ATOM     76  C   UNL A   1      43.408  26.733  25.736  1.00  0.00     0.198 A 
ATOM     77  F   UNL A   1      43.481  28.694  27.035  1.00  0.00    -0.203 F 
ATOM     78  F   UNL A   1      41.528  23.672  26.191  1.00  0.00    -0.200 F 
ATOM     79  C   UNL A   1      42.922  25.454  25.517  1.00  0.00     0.200 A 
ATOM     80  F   UNL A   1      44.322  27.253  24.904  1.00  0.00    -0.200 F 
ATOM     81  F   UNL A   1      43.383  24.725  24.491  1.00  0.00    -0.200 F 
ENDBRANCH  47  71
BRANCH  59  82
ATOM     82  C   UNL A   1      44.413  27.173  34.243  1.00  0.00     0.064 A 
ATOM     83  C   UNL A   1      45.723  27.674  34.323  1.00  0.00     0.173 A 
ATOM     84  C   UNL A   1      44.150  25.940  34.859  1.00  0.00     0.173 A 
ATOM     85  F   UNL A   1      46.035  28.844  33.746  1.00  0.00    -0.203 F 
ATOM     86  C   UNL A   1      46.732  26.949  34.953  1.00  0.00     0.198 A 
ATOM     87  C   UNL A   1      45.153  25.235  35.521  1.00  0.00     0.198 A 
ATOM     88  F   UNL A   1      42.916  25.416  34.826  1.00  0.00    -0.203 F 
ATOM     89  F   UNL A   1      47.988  27.417  34.957  1.00  0.00    -0.200 F 
ATOM     90  C   UNL A   1      46.446  25.734  35.556  1.00  0.00     0.200 A 
ATOM     91  F   UNL A   1      44.870  24.070  36.120  1.00  0.00    -0.200 F 
ATOM     92  F   UNL A   1      47.419  25.038  36.162  1.00  0.00    -0.200 F 
ENDBRANCH  59  82
ENDBRANCH  33  34
ENDBRANCH  26  28
ENDBRANCH  25  26
ENDBRANCH  24  25
ENDBRANCH   1  24
TORSDOF 15
ENDMDL
MODEL 3
REMARK VINA RESULT:     -11.5      4.081      9.739
REMARK SMILES O=C(OCCOCCOC(=O)c1ccc(-c2c3nc(c(-c4c(F)c(F)c(F)c(F)c4F)c4ccc([nH]4)c(-c4c(F)c(F)c(F)c(F)c4F)c4nc(c(-c5c(F)c(F)c(F)c(F)c5F)c5ccc2[nH]5)C=C4)C=C3)cc1)C1=Cc2c(ccc(Cl)c2Cl)O[C@H]1C(F)(F)F
REMARK SMILES IDX 7 1 6 2 5 3 4 4 3 5 2 6 1 7 75 8 76 9 86 10 77 11 85 12
REMARK SMILES IDX 78 13 83 14 79 15 81 16 84 17 80 18 82 19 87 20 88 21 89 22
REMARK SMILES IDX 90 23 8 24 9 25 10 26 11 27 12 28 13 29 74 30 14 31 73 32
REMARK SMILES IDX 15 33 16 34 17 35 67 36 18 37 72 38 66 39 68 40 19 41 71 42
REMARK SMILES IDX 65 43 64 44 20 46 52 47 32 48 51 49 33 50 36 51 50 52 69 53
REMARK SMILES IDX 34 54 35 55 49 57 70 58 37 59 21 60 22 61 30 62 23 63 24 64
REMARK SMILES IDX 28 65 31 66 25 67 26 68 29 69 27 70 53 71 54 72 62 73 55 74
REMARK SMILES IDX 56 75 60 76 63 77 57 78 58 79 61 80 59 81 38 82 39 83 47 84
REMARK SMILES IDX 40 85 41 86 45 87 48 88 42 89 43 90 46 91 44 92
REMARK H PARENT 68 45 36 56
REMARK Flexibility Score: inf
ROOT
ATOM      1  C   UNL A   1      31.406  32.080  26.785  1.00  0.00     0.202 C 
ENDROOT
BRANCH   1   2
ATOM      2  O   UNL A   1      32.087  30.934  26.293  1.00  0.00    -0.374 OA
BRANCH   2   3
ATOM      3  C   UNL A   1      33.189  30.528  27.105  1.00  0.00     0.202 C 
BRANCH   3   4
ATOM      4  C   UNL A   1      33.315  29.002  27.133  1.00  0.00     0.261 C 
BRANCH   4   5
ATOM      5  O   UNL A   1      34.122  28.490  26.051  1.00  0.00    -0.460 OA
BRANCH   5   6
ATOM      6  C   UNL A   1      33.695  27.848  24.935  1.00  0.00     0.338 C 
ATOM      7  O   UNL A   1      33.823  28.394  23.842  1.00  0.00    -0.246 OA
BRANCH   6   8
ATOM      8  C   UNL A   1      33.299  26.417  24.969  1.00  0.00     0.087 C 
ATOM      9  C   UNL A   1      33.810  25.454  25.737  1.00  0.00     0.029 C 
ATOM     10  C   UNL A   1      31.967  26.091  24.307  1.00  0.00     0.316 C 
ATOM     11  C   UNL A   1      33.780  24.106  25.215  1.00  0.00     0.037 A 
ATOM     12  O   UNL A   1      31.646  24.655  24.230  1.00  0.00    -0.475 OA
ATOM     13  C   UNL A   1      32.647  23.760  24.491  1.00  0.00     0.129 A 
ATOM     14  C   UNL A   1      34.863  23.206  25.325  1.00  0.00     0.070 A 
ATOM     15  C   UNL A   1      32.517  22.467  23.998  1.00  0.00     0.049 A 
ATOM     16  C   UNL A   1      34.746  21.922  24.785  1.00  0.00     0.060 A 
ATOM     17  Cl  UNL A   1      36.374  23.716  26.015  1.00  0.00    -0.082 Cl
ATOM     18  C   UNL A   1      33.563  21.549  24.145  1.00  0.00     0.026 A 
ATOM     19  Cl  UNL A   1      36.031  20.764  24.852  1.00  0.00    -0.083 Cl
BRANCH  10  20
ATOM     20  C   UNL A   1      30.809  26.817  25.068  1.00  0.00     0.430 C 
ATOM     21  F   UNL A   1      30.719  28.138  24.773  1.00  0.00    -0.167 F 
ATOM     22  F   UNL A   1      29.606  26.256  24.799  1.00  0.00    -0.167 F 
ATOM     23  F   UNL A   1      30.972  26.752  26.415  1.00  0.00    -0.167 F 
ENDBRANCH  10  20
ENDBRANCH   6   8
ENDBRANCH   5   6
ENDBRANCH   4   5
ENDBRANCH   3   4
ENDBRANCH   2   3
ENDBRANCH   1   2
BRANCH   1  24
ATOM     24  C   UNL A   1      32.327  33.294  26.921  1.00  0.00     0.261 C 
BRANCH  24  25
ATOM     25  O   UNL A   1      32.351  33.807  28.269  1.00  0.00    -0.460 OA
BRANCH  25  26
ATOM     26  C   UNL A   1      33.414  34.591  28.579  1.00  0.00     0.338 C 
ATOM     27  O   UNL A   1      33.423  35.820  28.614  1.00  0.00    -0.246 OA
BRANCH  26  28
ATOM     28  C   UNL A   1      34.605  33.779  28.949  1.00  0.00     0.060 A 
ATOM     29  C   UNL A   1      34.407  32.628  29.726  1.00  0.00     0.016 A 
ATOM     30  C   UNL A   1      35.904  34.118  28.552  1.00  0.00     0.016 A 
ATOM     31  C   UNL A   1      35.493  31.841  30.128  1.00  0.00     0.010 A 
ATOM     32  C   UNL A   1      36.992  33.326  28.948  1.00  0.00     0.010 A 
ATOM     33  C   UNL A   1      36.799  32.199  29.764  1.00  0.00    -0.014 A 
BRANCH  33  34
ATOM     34  C   UNL A   1      37.959  31.491  30.371  1.00  0.00     0.031 A 
ATOM     35  C   UNL A   1      38.342  31.811  31.791  1.00  0.00     0.074 A 
ATOM     36  C   UNL A   1      38.655  30.558  29.694  1.00  0.00     0.049 A 
ATOM     37  N   UNL A   1      39.278  31.287  32.542  1.00  0.00    -0.248 NA
ATOM     38  C   UNL A   1      37.564  32.871  32.451  1.00  0.00     0.031 C 
ATOM     39  C   UNL A   1      38.406  30.151  28.315  1.00  0.00     0.029 A 
ATOM     40  N   UNL A   1      39.722  29.784  30.085  1.00  0.00    -0.354 N 
ATOM     41  C   UNL A   1      39.183  31.933  33.768  1.00  0.00     0.074 A 
ATOM     42  C   UNL A   1      38.144  32.933  33.640  1.00  0.00     0.031 C 
ATOM     43  C   UNL A   1      39.295  29.203  27.971  1.00  0.00     0.029 A 
ATOM     44  C   UNL A   1      40.187  28.943  29.102  1.00  0.00     0.049 A 
ATOM     45  H   UNL A   1      40.117  29.827  30.986  1.00  0.00     0.167 HD
ATOM     46  C   UNL A   1      39.878  31.702  34.909  1.00  0.00     0.037 A 
ATOM     47  C   UNL A   1      41.217  28.072  29.112  1.00  0.00     0.037 A 
ATOM     48  C   UNL A   1      40.940  30.739  35.039  1.00  0.00     0.049 A 
ATOM     49  C   UNL A   1      42.025  27.883  30.375  1.00  0.00     0.074 A 
ATOM     50  C   UNL A   1      41.708  30.446  36.152  1.00  0.00     0.029 A 
ATOM     51  N   UNL A   1      41.396  29.922  34.015  1.00  0.00    -0.354 N 
ATOM     52  N   UNL A   1      41.887  28.455  31.547  1.00  0.00    -0.248 NA
ATOM     53  C   UNL A   1      43.128  26.909  30.318  1.00  0.00     0.031 C 
ATOM     54  C   UNL A   1      42.664  29.491  35.788  1.00  0.00     0.029 A 
ATOM     55  C   UNL A   1      42.448  29.141  34.466  1.00  0.00     0.049 A 
ATOM     56  H   UNL A   1      41.025  29.900  33.102  1.00  0.00     0.167 HD
ATOM     57  C   UNL A   1      42.858  27.891  32.368  1.00  0.00     0.074 A 
ATOM     58  C   UNL A   1      43.562  26.912  31.570  1.00  0.00     0.031 C 
ATOM     59  C   UNL A   1      43.145  28.163  33.667  1.00  0.00     0.037 A 
BRANCH  46  60
ATOM     60  C   UNL A   1      39.508  32.522  36.111  1.00  0.00     0.064 A 
ATOM     61  C   UNL A   1      40.150  33.739  36.391  1.00  0.00     0.173 A 
ATOM     62  C   UNL A   1      38.490  32.102  36.980  1.00  0.00     0.173 A 
ATOM     63  F   UNL A   1      41.140  34.178  35.599  1.00  0.00    -0.203 F 
ATOM     64  C   UNL A   1      39.808  34.488  37.514  1.00  0.00     0.198 A 
ATOM     65  C   UNL A   1      38.129  32.870  38.084  1.00  0.00     0.198 A 
ATOM     66  F   UNL A   1      37.842  30.949  36.757  1.00  0.00    -0.203 F 
ATOM     67  F   UNL A   1      40.474  35.618  37.791  1.00  0.00    -0.200 F 
ATOM     68  C   UNL A   1      38.794  34.057  38.355  1.00  0.00     0.200 A 
ATOM     69  F   UNL A   1      37.140  32.459  38.889  1.00  0.00    -0.200 F 
ATOM     70  F   UNL A   1      38.463  34.781  39.433  1.00  0.00    -0.200 F 
ENDBRANCH  46  60
BRANCH  47  71
ATOM     71  C   UNL A   1      41.562  27.300  27.884  1.00  0.00     0.064 A 
ATOM     72  C   UNL A   1      41.027  26.024  27.649  1.00  0.00     0.173 A 
ATOM     73  C   UNL A   1      42.487  27.797  26.954  1.00  0.00     0.173 A 
ATOM     74  F   UNL A   1      40.164  25.488  28.525  1.00  0.00    -0.203 F 
ATOM     75  C   UNL A   1      41.431  25.263  26.554  1.00  0.00     0.198 A 
ATOM     76  C   UNL A   1      42.861  27.050  25.839  1.00  0.00     0.198 A 
ATOM     77  F   UNL A   1      43.034  29.009  27.131  1.00  0.00    -0.203 F 
ATOM     78  F   UNL A   1      40.962  24.018  26.395  1.00  0.00    -0.200 F 
ATOM     79  C   UNL A   1      42.344  25.778  25.647  1.00  0.00     0.200 A 
ATOM     80  F   UNL A   1      43.737  27.557  24.959  1.00  0.00    -0.200 F 
ATOM     81  F   UNL A   1      42.738  25.043  24.597  1.00  0.00    -0.200 F 
ENDBRANCH  47  71
BRANCH  59  82
ATOM     82  C   UNL A   1      44.241  27.364  34.319  1.00  0.00     0.064 A 
ATOM     83  C   UNL A   1      43.995  26.121  34.924  1.00  0.00     0.173 A 
ATOM     84  C   UNL A   1      45.561  27.841  34.324  1.00  0.00     0.173 A 
ATOM     85  F   UNL A   1      42.752  25.619  34.956  1.00  0.00    -0.203 F 
ATOM     86  C   UNL A   1      45.019  25.410  35.546  1.00  0.00     0.198 A 
ATOM     87  C   UNL A   1      46.590  27.110  34.915  1.00  0.00     0.198 A 
ATOM     88  F   UNL A   1      45.859  29.016  33.752  1.00  0.00    -0.203 F 
ATOM     89  F   UNL A   1      44.746  24.258  36.176  1.00  0.00    -0.200 F 
ATOM     90  C   UNL A   1      46.316  25.901  35.537  1.00  0.00     0.200 A 
ATOM     91  F   UNL A   1      47.845  27.578  34.887  1.00  0.00    -0.200 F 
ATOM     92  F   UNL A   1      47.299  25.216  36.136  1.00  0.00    -0.200 F 
ENDBRANCH  59  82
ENDBRANCH  33  34
ENDBRANCH  26  28
ENDBRANCH  25  26
ENDBRANCH  24  25
ENDBRANCH   1  24
TORSDOF 15
ENDMDL
