MODEL 1
REMARK VINA RESULT:     -11.4      0.000      0.000
REMARK SMILES CC1(C)[C@H](C(=O)OCCOCCOC(=O)c2ccc(-c3c4nc(c(-c5c(F)c(F)c(F)c(F)c5F)c5ccc([nH]5)c(-c5c(F)c(F)c(F)c(F)c5F)c5nc(c(-c6c(F)c(F)c(F)c(F)c6F)c6ccc3[nH]6)C=C5)C=C4)cc2)[C@@H]1C(=O)Nc1ccc(NC(=O)C2CCC2)cc1
REMARK SMILES IDX 9 1 8 2 7 3 5 4 6 5 4 6 1 7 2 8 3 9 79 10 80 11 81 12 82 13
REMARK SMILES IDX 83 15 84 16 95 17 85 18 94 19 86 20 87 21 88 22 89 24 90 25
REMARK SMILES IDX 91 26 93 27 92 28 10 29 11 30 12 31 13 32 14 33 15 34 16 35
REMARK SMILES IDX 17 36 78 37 18 38 77 39 19 40 20 41 21 42 71 43 22 44 76 45
REMARK SMILES IDX 70 46 72 47 23 48 75 49 69 50 68 51 24 53 56 54 36 55 55 56
REMARK SMILES IDX 37 57 40 58 54 59 73 60 38 61 39 62 53 64 74 65 41 66 25 67
REMARK SMILES IDX 26 68 34 69 27 70 28 71 32 72 35 73 29 74 30 75 33 76 31 77
REMARK SMILES IDX 57 78 58 79 66 80 59 81 60 82 64 83 67 84 61 85 62 86 65 87
REMARK SMILES IDX 63 88 42 89 43 90 51 91 44 92 45 93 49 94 52 95 46 96 47 97
REMARK SMILES IDX 50 98 48 99
REMARK H PARENT 82 14 87 23 72 52 40 63
REMARK Flexibility Score: inf
ROOT
ATOM      1  C   UNL A   1      35.880  20.357  25.408  1.00  0.00     0.202 C 
ENDROOT
BRANCH   1   2
ATOM      2  C   UNL A   1      34.706  21.018  24.659  1.00  0.00     0.261 C 
BRANCH   2   3
ATOM      3  O   UNL A   1      33.807  21.897  25.331  1.00  0.00    -0.463 OA
BRANCH   3   4
ATOM      4  C   UNL A   1      32.487  21.729  25.092  1.00  0.00     0.310 C 
ATOM      5  O   UNL A   1      31.915  20.660  25.079  1.00  0.00    -0.252 OA
BRANCH   4   6
ATOM      6  C   UNL A   1      31.713  22.991  25.033  1.00  0.00     0.118 C 
ATOM      7  C   UNL A   1      31.263  25.215  26.226  1.00  0.00     0.013 C 
ATOM      8  C   UNL A   1      32.204  24.379  25.391  1.00  0.00    -0.009 C 
ATOM      9  C   UNL A   1      33.657  24.625  25.743  1.00  0.00     0.013 C 
ATOM     10  C   UNL A   1      31.782  24.032  23.945  1.00  0.00     0.100 C 
BRANCH  10  11
ATOM     11  C   UNL A   1      32.771  24.208  22.855  1.00  0.00     0.228 C 
ATOM     12  O   UNL A   1      33.288  23.210  22.354  1.00  0.00    -0.274 OA
ATOM     13  N   UNL A   1      33.154  25.439  22.391  1.00  0.00    -0.326 N 
ATOM     14  H   UNL A   1      33.944  25.444  21.805  1.00  0.00     0.169 HD
BRANCH  13  15
ATOM     15  C   UNL A   1      32.581  26.684  22.636  1.00  0.00     0.041 A 
ATOM     16  C   UNL A   1      31.345  26.878  22.041  1.00  0.00     0.028 A 
ATOM     17  C   UNL A   1      33.097  27.659  23.483  1.00  0.00     0.028 A 
ATOM     18  C   UNL A   1      30.545  27.938  22.449  1.00  0.00     0.028 A 
ATOM     19  C   UNL A   1      32.310  28.786  23.799  1.00  0.00     0.028 A 
ATOM     20  C   UNL A   1      30.985  28.896  23.337  1.00  0.00     0.041 A 
BRANCH  20  21
ATOM     21  N   UNL A   1      30.179  29.916  23.863  1.00  0.00    -0.326 N 
ATOM     22  C   UNL A   1      29.402  30.948  23.378  1.00  0.00     0.227 C 
ATOM     23  H   UNL A   1      30.162  29.886  24.848  1.00  0.00     0.169 HD
ATOM     24  O   UNL A   1      28.815  31.582  24.282  1.00  0.00    -0.274 OA
BRANCH  22  25
ATOM     25  C   UNL A   1      29.142  31.360  21.913  1.00  0.00     0.079 C 
ATOM     26  C   UNL A   1      28.060  30.455  21.209  1.00  0.00     0.013 C 
ATOM     27  C   UNL A   1      28.288  32.534  21.370  1.00  0.00     0.013 C 
ATOM     28  C   UNL A   1      27.778  31.619  20.257  1.00  0.00     0.002 C 
ENDBRANCH  22  25
ENDBRANCH  20  21
ENDBRANCH  13  15
ENDBRANCH  10  11
ENDBRANCH   4   6
ENDBRANCH   3   4
ENDBRANCH   2   3
ENDBRANCH   1   2
BRANCH   1  29
ATOM     29  O   UNL A   1      37.133  20.022  24.839  1.00  0.00    -0.374 OA
BRANCH  29  30
ATOM     30  C   UNL A   1      38.327  20.709  25.143  1.00  0.00     0.202 C 
BRANCH  30  31
ATOM     31  C   UNL A   1      39.411  19.958  25.909  1.00  0.00     0.261 C 
BRANCH  31  32
ATOM     32  O   UNL A   1      40.647  19.860  25.192  1.00  0.00    -0.460 OA
BRANCH  32  33
ATOM     33  C   UNL A   1      41.701  19.500  25.962  1.00  0.00     0.338 C 
ATOM     34  O   UNL A   1      42.082  18.372  26.220  1.00  0.00    -0.246 OA
BRANCH  33  35
ATOM     35  C   UNL A   1      42.451  20.694  26.386  1.00  0.00     0.060 A 
ATOM     36  C   UNL A   1      42.336  21.079  27.727  1.00  0.00     0.016 A 
ATOM     37  C   UNL A   1      43.170  21.473  25.477  1.00  0.00     0.016 A 
ATOM     38  C   UNL A   1      42.876  22.289  28.150  1.00  0.00     0.010 A 
ATOM     39  C   UNL A   1      43.704  22.694  25.900  1.00  0.00     0.010 A 
ATOM     40  C   UNL A   1      43.511  23.128  27.224  1.00  0.00    -0.014 A 
BRANCH  40  41
ATOM     41  C   UNL A   1      43.767  24.536  27.602  1.00  0.00     0.031 A 
ATOM     42  C   UNL A   1      45.190  25.022  27.636  1.00  0.00     0.074 A 
ATOM     43  C   UNL A   1      42.753  25.385  27.843  1.00  0.00     0.049 A 
ATOM     44  N   UNL A   1      45.658  26.212  27.917  1.00  0.00    -0.248 NA
ATOM     45  C   UNL A   1      46.228  24.031  27.308  1.00  0.00     0.031 C 
ATOM     46  C   UNL A   1      41.334  25.039  27.796  1.00  0.00     0.029 A 
ATOM     47  N   UNL A   1      42.768  26.716  28.173  1.00  0.00    -0.354 N 
ATOM     48  C   UNL A   1      47.038  26.110  27.799  1.00  0.00     0.074 A 
ATOM     49  C   UNL A   1      47.338  24.737  27.458  1.00  0.00     0.031 C 
ATOM     50  C   UNL A   1      40.611  26.133  28.093  1.00  0.00     0.029 A 
ATOM     51  C   UNL A   1      41.518  27.245  28.375  1.00  0.00     0.049 A 
ATOM     52  H   UNL A   1      43.596  27.241  28.256  1.00  0.00     0.167 HD
ATOM     53  C   UNL A   1      47.972  27.080  27.948  1.00  0.00     0.037 A 
ATOM     54  C   UNL A   1      41.155  28.484  28.758  1.00  0.00     0.037 A 
ATOM     55  C   UNL A   1      47.671  28.445  28.285  1.00  0.00     0.049 A 
ATOM     56  C   UNL A   1      42.219  29.528  28.988  1.00  0.00     0.074 A 
ATOM     57  C   UNL A   1      48.544  29.508  28.443  1.00  0.00     0.029 A 
ATOM     58  N   UNL A   1      46.396  28.935  28.522  1.00  0.00    -0.354 N 
ATOM     59  N   UNL A   1      43.519  29.432  28.845  1.00  0.00    -0.248 NA
ATOM     60  C   UNL A   1      41.761  30.854  29.424  1.00  0.00     0.031 C 
ATOM     61  C   UNL A   1      47.801  30.628  28.829  1.00  0.00     0.029 A 
ATOM     62  C   UNL A   1      46.461  30.279  28.853  1.00  0.00     0.049 A 
ATOM     63  H   UNL A   1      45.568  28.407  28.464  1.00  0.00     0.167 HD
ATOM     64  C   UNL A   1      44.031  30.689  29.146  1.00  0.00     0.074 A 
ATOM     65  C   UNL A   1      42.898  31.533  29.462  1.00  0.00     0.031 C 
ATOM     66  C   UNL A   1      45.321  31.107  29.160  1.00  0.00     0.037 A 
BRANCH  53  67
ATOM     67  C   UNL A   1      49.411  26.687  27.775  1.00  0.00     0.064 A 
ATOM     68  C   UNL A   1      50.003  26.591  26.505  1.00  0.00     0.173 A 
ATOM     69  C   UNL A   1      50.215  26.430  28.894  1.00  0.00     0.173 A 
ATOM     70  F   UNL A   1      49.272  26.811  25.402  1.00  0.00    -0.203 F 
ATOM     71  C   UNL A   1      51.340  26.226  26.364  1.00  0.00     0.198 A 
ATOM     72  C   UNL A   1      51.558  26.095  28.751  1.00  0.00     0.198 A 
ATOM     73  F   UNL A   1      49.699  26.509  30.131  1.00  0.00    -0.203 F 
ATOM     74  F   UNL A   1      51.871  26.094  25.141  1.00  0.00    -0.200 F 
ATOM     75  C   UNL A   1      52.118  25.986  27.487  1.00  0.00     0.200 A 
ATOM     76  F   UNL A   1      52.312  25.873  29.837  1.00  0.00    -0.200 F 
ATOM     77  F   UNL A   1      53.405  25.641  27.350  1.00  0.00    -0.200 F 
ENDBRANCH  53  67
BRANCH  54  78
ATOM     78  C   UNL A   1      39.719  28.809  28.961  1.00  0.00     0.064 A 
ATOM     79  C   UNL A   1      39.108  28.646  30.212  1.00  0.00     0.173 A 
ATOM     80  C   UNL A   1      38.921  29.265  27.901  1.00  0.00     0.173 A 
ATOM     81  F   UNL A   1      39.823  28.190  31.252  1.00  0.00    -0.203 F 
ATOM     82  C   UNL A   1      37.750  28.906  30.390  1.00  0.00     0.198 A 
ATOM     83  C   UNL A   1      37.571  29.554  28.087  1.00  0.00     0.198 A 
ATOM     84  F   UNL A   1      39.457  29.437  26.683  1.00  0.00    -0.203 F 
ATOM     85  F   UNL A   1      37.181  28.694  31.584  1.00  0.00    -0.200 F 
ATOM     86  C   UNL A   1      36.984  29.365  29.329  1.00  0.00     0.200 A 
ATOM     87  F   UNL A   1      36.839  30.008  27.061  1.00  0.00    -0.200 F 
ATOM     88  F   UNL A   1      35.679  29.617  29.500  1.00  0.00    -0.200 F 
ENDBRANCH  54  78
BRANCH  66  89
ATOM     89  C   UNL A   1      45.576  32.548  29.494  1.00  0.00     0.064 A 
ATOM     90  C   UNL A   1      45.841  32.966  30.806  1.00  0.00     0.173 A 
ATOM     91  C   UNL A   1      45.592  33.520  28.480  1.00  0.00     0.173 A 
ATOM     92  F   UNL A   1      45.822  32.080  31.814  1.00  0.00    -0.203 F 
ATOM     93  C   UNL A   1      46.082  34.306  31.096  1.00  0.00     0.198 A 
ATOM     94  C   UNL A   1      45.868  34.853  28.769  1.00  0.00     0.198 A 
ATOM     95  F   UNL A   1      45.355  33.172  27.206  1.00  0.00    -0.203 F 
ATOM     96  F   UNL A   1      46.280  34.691  32.365  1.00  0.00    -0.200 F 
ATOM     97  C   UNL A   1      46.104  35.247  30.077  1.00  0.00     0.200 A 
ATOM     98  F   UNL A   1      45.903  35.758  27.781  1.00  0.00    -0.200 F 
ATOM     99  F   UNL A   1      46.342  36.535  30.358  1.00  0.00    -0.200 F 
ENDBRANCH  66  89
ENDBRANCH  40  41
ENDBRANCH  33  35
ENDBRANCH  32  33
ENDBRANCH  31  32
ENDBRANCH  30  31
ENDBRANCH  29  30
ENDBRANCH   1  29
TORSDOF 18
ENDMDL
MODEL 2
REMARK VINA RESULT:     -11.3      3.238      9.357
REMARK SMILES CC1(C)[C@H](C(=O)OCCOCCOC(=O)c2ccc(-c3c4nc(c(-c5c(F)c(F)c(F)c(F)c5F)c5ccc([nH]5)c(-c5c(F)c(F)c(F)c(F)c5F)c5nc(c(-c6c(F)c(F)c(F)c(F)c6F)c6ccc3[nH]6)C=C5)C=C4)cc2)[C@@H]1C(=O)Nc1ccc(NC(=O)C2CCC2)cc1
REMARK SMILES IDX 9 1 8 2 7 3 5 4 6 5 4 6 1 7 2 8 3 9 79 10 80 11 81 12 82 13
REMARK SMILES IDX 83 15 84 16 95 17 85 18 94 19 86 20 87 21 88 22 89 24 90 25
REMARK SMILES IDX 91 26 93 27 92 28 10 29 11 30 12 31 13 32 14 33 15 34 16 35
REMARK SMILES IDX 17 36 78 37 18 38 77 39 19 40 20 41 21 42 71 43 22 44 76 45
REMARK SMILES IDX 70 46 72 47 23 48 75 49 69 50 68 51 24 53 56 54 36 55 55 56
REMARK SMILES IDX 37 57 40 58 54 59 73 60 38 61 39 62 53 64 74 65 41 66 25 67
REMARK SMILES IDX 26 68 34 69 27 70 28 71 32 72 35 73 29 74 30 75 33 76 31 77
REMARK SMILES IDX 57 78 58 79 66 80 59 81 60 82 64 83 67 84 61 85 62 86 65 87
REMARK SMILES IDX 63 88 42 89 43 90 51 91 44 92 45 93 49 94 52 95 46 96 47 97
REMARK SMILES IDX 50 98 48 99
REMARK H PARENT 82 14 87 23 72 52 40 63
REMARK Flexibility Score: inf
ROOT
ATOM      1  C   UNL A   1      34.601  32.228  28.142  1.00  0.00     0.202 C 
ENDROOT
BRANCH   1   2
ATOM      2  C   UNL A   1      34.049  30.853  27.715  1.00  0.00     0.261 C 
BRANCH   2   3
ATOM      3  O   UNL A   1      33.486  30.656  26.420  1.00  0.00    -0.463 OA
BRANCH   3   4
ATOM      4  C   UNL A   1      32.138  30.675  26.325  1.00  0.00     0.310 C 
ATOM      5  O   UNL A   1      31.415  31.484  26.867  1.00  0.00    -0.252 OA
BRANCH   4   6
ATOM      6  C   UNL A   1      31.584  29.730  25.328  1.00  0.00     0.118 C 
ATOM      7  C   UNL A   1      31.977  28.659  23.032  1.00  0.00     0.013 C 
ATOM      8  C   UNL A   1      32.357  28.730  24.492  1.00  0.00    -0.009 C 
ATOM      9  C   UNL A   1      33.841  28.514  24.709  1.00  0.00     0.013 C 
ATOM     10  C   UNL A   1      31.321  28.260  25.539  1.00  0.00     0.100 C 
BRANCH  10  11
ATOM     11  C   UNL A   1      31.770  27.358  26.626  1.00  0.00     0.228 C 
ATOM     12  O   UNL A   1      31.845  27.799  27.772  1.00  0.00    -0.274 OA
ATOM     13  N   UNL A   1      32.127  26.054  26.408  1.00  0.00    -0.326 N 
ATOM     14  H   UNL A   1      32.582  25.608  27.159  1.00  0.00     0.169 HD
BRANCH  13  15
ATOM     15  C   UNL A   1      31.936  25.271  25.272  1.00  0.00     0.041 A 
ATOM     16  C   UNL A   1      33.102  24.868  24.646  1.00  0.00     0.028 A 
ATOM     17  C   UNL A   1      30.710  24.805  24.809  1.00  0.00     0.028 A 
ATOM     18  C   UNL A   1      33.058  23.851  23.700  1.00  0.00     0.028 A 
ATOM     19  C   UNL A   1      30.681  23.852  23.770  1.00  0.00     0.028 A 
ATOM     20  C   UNL A   1      31.872  23.308  23.254  1.00  0.00     0.041 A 
BRANCH  20  21
ATOM     21  N   UNL A   1      31.781  22.207  22.389  1.00  0.00    -0.326 N 
ATOM     22  C   UNL A   1      32.149  20.877  22.398  1.00  0.00     0.227 C 
ATOM     23  H   UNL A   1      31.332  22.450  21.547  1.00  0.00     0.169 HD
ATOM     24  O   UNL A   1      31.792  20.267  21.368  1.00  0.00    -0.274 OA
BRANCH  22  25
ATOM     25  C   UNL A   1      32.870  20.078  23.506  1.00  0.00     0.079 C 
ATOM     26  C   UNL A   1      32.382  20.468  24.954  1.00  0.00     0.013 C 
ATOM     27  C   UNL A   1      32.613  18.624  23.979  1.00  0.00     0.013 C 
ATOM     28  C   UNL A   1      32.825  19.081  25.422  1.00  0.00     0.002 C 
ENDBRANCH  22  25
ENDBRANCH  20  21
ENDBRANCH  13  15
ENDBRANCH  10  11
ENDBRANCH   4   6
ENDBRANCH   3   4
ENDBRANCH   2   3
ENDBRANCH   1   2
BRANCH   1  29
ATOM     29  O   UNL A   1      33.930  33.161  28.968  1.00  0.00    -0.374 OA
BRANCH  29  30
ATOM     30  C   UNL A   1      34.594  34.192  29.666  1.00  0.00     0.202 C 
BRANCH  30  31
ATOM     31  C   UNL A   1      34.822  34.013  31.163  1.00  0.00     0.261 C 
BRANCH  31  32
ATOM     32  O   UNL A   1      36.154  33.601  31.489  1.00  0.00    -0.460 OA
BRANCH  32  33
ATOM     33  C   UNL A   1      36.224  32.384  32.079  1.00  0.00     0.338 C 
ATOM     34  O   UNL A   1      35.530  31.956  32.984  1.00  0.00    -0.246 OA
BRANCH  33  35
ATOM     35  C   UNL A   1      37.216  31.542  31.390  1.00  0.00     0.060 A 
ATOM     36  C   UNL A   1      38.205  30.942  32.178  1.00  0.00     0.016 A 
ATOM     37  C   UNL A   1      37.237  31.418  29.998  1.00  0.00     0.016 A 
ATOM     38  C   UNL A   1      39.267  30.280  31.573  1.00  0.00     0.010 A 
ATOM     39  C   UNL A   1      38.311  30.761  29.390  1.00  0.00     0.010 A 
ATOM     40  C   UNL A   1      39.354  30.238  30.175  1.00  0.00    -0.014 A 
BRANCH  40  41
ATOM     41  C   UNL A   1      40.640  29.843  29.556  1.00  0.00     0.031 A 
ATOM     42  C   UNL A   1      40.773  28.449  29.006  1.00  0.00     0.074 A 
ATOM     43  C   UNL A   1      41.644  30.725  29.422  1.00  0.00     0.049 A 
ATOM     44  N   UNL A   1      41.789  27.884  28.404  1.00  0.00    -0.248 NA
ATOM     45  C   UNL A   1      39.600  27.572  29.156  1.00  0.00     0.031 C 
ATOM     46  C   UNL A   1      41.614  32.114  29.875  1.00  0.00     0.029 A 
ATOM     47  N   UNL A   1      42.887  30.578  28.860  1.00  0.00    -0.354 N 
ATOM     48  C   UNL A   1      41.377  26.592  28.105  1.00  0.00     0.074 A 
ATOM     49  C   UNL A   1      40.035  26.441  28.622  1.00  0.00     0.031 C 
ATOM     50  C   UNL A   1      42.790  32.693  29.577  1.00  0.00     0.029 A 
ATOM     51  C   UNL A   1      43.661  31.708  28.938  1.00  0.00     0.049 A 
ATOM     52  H   UNL A   1      43.194  29.743  28.441  1.00  0.00     0.167 HD
ATOM     53  C   UNL A   1      42.053  25.622  27.445  1.00  0.00     0.037 A 
ATOM     54  C   UNL A   1      44.935  31.914  28.547  1.00  0.00     0.037 A 
ATOM     55  C   UNL A   1      43.386  25.776  26.929  1.00  0.00     0.049 A 
ATOM     56  C   UNL A   1      45.691  30.794  27.878  1.00  0.00     0.074 A 
ATOM     57  C   UNL A   1      44.154  24.859  26.231  1.00  0.00     0.029 A 
ATOM     58  N   UNL A   1      44.155  26.922  27.063  1.00  0.00    -0.354 N 
ATOM     59  N   UNL A   1      45.285  29.585  27.571  1.00  0.00    -0.248 NA
ATOM     60  C   UNL A   1      47.081  31.073  27.493  1.00  0.00     0.031 C 
ATOM     61  C   UNL A   1      45.406  25.433  25.989  1.00  0.00     0.029 A 
ATOM     62  C   UNL A   1      45.399  26.726  26.484  1.00  0.00     0.049 A 
ATOM     63  H   UNL A   1      43.861  27.752  27.503  1.00  0.00     0.167 HD
ATOM     64  C   UNL A   1      46.357  28.970  26.936  1.00  0.00     0.074 A 
ATOM     65  C   UNL A   1      47.424  29.947  26.885  1.00  0.00     0.031 C 
ATOM     66  C   UNL A   1      46.450  27.712  26.438  1.00  0.00     0.037 A 
BRANCH  53  67
ATOM     67  C   UNL A   1      41.367  24.298  27.269  1.00  0.00     0.064 A 
ATOM     68  C   UNL A   1      40.267  24.143  26.410  1.00  0.00     0.173 A 
ATOM     69  C   UNL A   1      41.834  23.163  27.947  1.00  0.00     0.173 A 
ATOM     70  F   UNL A   1      39.772  25.202  25.751  1.00  0.00    -0.203 F 
ATOM     71  C   UNL A   1      39.645  22.907  26.259  1.00  0.00     0.198 A 
ATOM     72  C   UNL A   1      41.228  21.922  27.771  1.00  0.00     0.198 A 
ATOM     73  F   UNL A   1      42.883  23.255  28.779  1.00  0.00    -0.203 F 
ATOM     74  F   UNL A   1      38.566  22.793  25.472  1.00  0.00    -0.200 F 
ATOM     75  C   UNL A   1      40.130  21.796  26.933  1.00  0.00     0.200 A 
ATOM     76  F   UNL A   1      41.704  20.847  28.414  1.00  0.00    -0.200 F 
ATOM     77  F   UNL A   1      39.534  20.606  26.782  1.00  0.00    -0.200 F 
ENDBRANCH  53  67
BRANCH  54  78
ATOM     78  C   UNL A   1      45.582  33.230  28.786  1.00  0.00     0.064 A 
ATOM     79  C   UNL A   1      46.318  33.474  29.954  1.00  0.00     0.173 A 
ATOM     80  C   UNL A   1      45.459  34.278  27.862  1.00  0.00     0.173 A 
ATOM     81  F   UNL A   1      46.445  32.511  30.879  1.00  0.00    -0.203 F 
ATOM     82  C   UNL A   1      46.886  34.723  30.199  1.00  0.00     0.198 A 
ATOM     83  C   UNL A   1      46.052  35.517  28.094  1.00  0.00     0.198 A 
ATOM     84  F   UNL A   1      44.765  34.096  26.729  1.00  0.00    -0.203 F 
ATOM     85  F   UNL A   1      47.542  34.945  31.346  1.00  0.00    -0.200 F 
ATOM     86  C   UNL A   1      46.757  35.742  29.267  1.00  0.00     0.200 A 
ATOM     87  F   UNL A   1      45.936  36.493  27.184  1.00  0.00    -0.200 F 
ATOM     88  F   UNL A   1      47.305  36.941  29.501  1.00  0.00    -0.200 F 
ENDBRANCH  54  78
BRANCH  66  89
ATOM     89  C   UNL A   1      47.736  27.330  25.765  1.00  0.00     0.064 A 
ATOM     90  C   UNL A   1      48.786  26.723  26.470  1.00  0.00     0.173 A 
ATOM     91  C   UNL A   1      47.906  27.539  24.387  1.00  0.00     0.173 A 
ATOM     92  F   UNL A   1      48.680  26.514  27.791  1.00  0.00    -0.203 F 
ATOM     93  C   UNL A   1      49.969  26.368  25.827  1.00  0.00     0.198 A 
ATOM     94  C   UNL A   1      49.077  27.152  23.741  1.00  0.00     0.198 A 
ATOM     95  F   UNL A   1      46.929  28.107  23.664  1.00  0.00    -0.203 F 
ATOM     96  F   UNL A   1      50.979  25.838  26.532  1.00  0.00    -0.200 F 
ATOM     97  C   UNL A   1      50.110  26.576  24.463  1.00  0.00     0.200 A 
ATOM     98  F   UNL A   1      49.206  27.339  22.420  1.00  0.00    -0.200 F 
ATOM     99  F   UNL A   1      51.248  26.228  23.846  1.00  0.00    -0.200 F 
ENDBRANCH  66  89
ENDBRANCH  40  41
ENDBRANCH  33  35
ENDBRANCH  32  33
ENDBRANCH  31  32
ENDBRANCH  30  31
ENDBRANCH  29  30
ENDBRANCH   1  29
TORSDOF 18
ENDMDL
MODEL 3
REMARK VINA RESULT:     -11.2      3.042      8.896
REMARK SMILES CC1(C)[C@H](C(=O)OCCOCCOC(=O)c2ccc(-c3c4nc(c(-c5c(F)c(F)c(F)c(F)c5F)c5ccc([nH]5)c(-c5c(F)c(F)c(F)c(F)c5F)c5nc(c(-c6c(F)c(F)c(F)c(F)c6F)c6ccc3[nH]6)C=C5)C=C4)cc2)[C@@H]1C(=O)Nc1ccc(NC(=O)C2CCC2)cc1
REMARK SMILES IDX 9 1 8 2 7 3 5 4 6 5 4 6 1 7 2 8 3 9 79 10 80 11 81 12 82 13
REMARK SMILES IDX 83 15 84 16 95 17 85 18 94 19 86 20 87 21 88 22 89 24 90 25
REMARK SMILES IDX 91 26 93 27 92 28 10 29 11 30 12 31 13 32 14 33 15 34 16 35
REMARK SMILES IDX 17 36 78 37 18 38 77 39 19 40 20 41 21 42 71 43 22 44 76 45
REMARK SMILES IDX 70 46 72 47 23 48 75 49 69 50 68 51 24 53 56 54 36 55 55 56
REMARK SMILES IDX 37 57 40 58 54 59 73 60 38 61 39 62 53 64 74 65 41 66 25 67
REMARK SMILES IDX 26 68 34 69 27 70 28 71 32 72 35 73 29 74 30 75 33 76 31 77
REMARK SMILES IDX 57 78 58 79 66 80 59 81 60 82 64 83 67 84 61 85 62 86 65 87
REMARK SMILES IDX 63 88 42 89 43 90 51 91 44 92 45 93 49 94 52 95 46 96 47 97
REMARK SMILES IDX 50 98 48 99
REMARK H PARENT 82 14 87 23 72 52 40 63
REMARK Flexibility Score: inf
ROOT
ATOM      1  C   UNL A   1      33.283  32.461  27.708  1.00  0.00     0.202 C 
ENDROOT
BRANCH   1   2
ATOM      2  C   UNL A   1      33.325  31.061  27.062  1.00  0.00     0.261 C 
BRANCH   2   3
ATOM      3  O   UNL A   1      32.154  30.253  26.982  1.00  0.00    -0.463 OA
BRANCH   3   4
ATOM      4  C   UNL A   1      31.832  29.750  25.770  1.00  0.00     0.310 C 
ATOM      5  O   UNL A   1      31.057  30.262  24.990  1.00  0.00    -0.252 OA
BRANCH   4   6
ATOM      6  C   UNL A   1      32.656  28.592  25.352  1.00  0.00     0.118 C 
ATOM      7  C   UNL A   1      33.366  26.208  25.975  1.00  0.00     0.013 C 
ATOM      8  C   UNL A   1      32.286  27.126  25.452  1.00  0.00    -0.009 C 
ATOM      9  C   UNL A   1      30.903  26.701  25.903  1.00  0.00     0.013 C 
ATOM     10  C   UNL A   1      32.504  27.800  24.077  1.00  0.00     0.100 C 
BRANCH  10  11
ATOM     11  C   UNL A   1      31.396  27.781  23.094  1.00  0.00     0.228 C 
ATOM     12  O   UNL A   1      30.901  28.848  22.734  1.00  0.00    -0.274 OA
ATOM     13  N   UNL A   1      30.880  26.621  22.579  1.00  0.00    -0.326 N 
ATOM     14  H   UNL A   1      30.034  26.715  22.085  1.00  0.00     0.169 HD
BRANCH  13  15
ATOM     15  C   UNL A   1      31.386  25.326  22.659  1.00  0.00     0.041 A 
ATOM     16  C   UNL A   1      32.695  25.190  22.231  1.00  0.00     0.028 A 
ATOM     17  C   UNL A   1      30.726  24.233  23.212  1.00  0.00     0.028 A 
ATOM     18  C   UNL A   1      33.403  24.034  22.540  1.00  0.00     0.028 A 
ATOM     19  C   UNL A   1      31.434  23.030  23.417  1.00  0.00     0.028 A 
ATOM     20  C   UNL A   1      32.812  22.947  23.146  1.00  0.00     0.041 A 
BRANCH  20  21
ATOM     21  N   UNL A   1      33.508  21.808  23.579  1.00  0.00    -0.326 N 
ATOM     22  C   UNL A   1      33.707  21.131  24.765  1.00  0.00     0.227 C 
ATOM     23  H   UNL A   1      33.981  21.374  22.833  1.00  0.00     0.169 HD
ATOM     24  O   UNL A   1      34.398  20.099  24.626  1.00  0.00    -0.274 OA
BRANCH  22  25
ATOM     25  C   UNL A   1      33.157  21.455  26.171  1.00  0.00     0.079 C 
ATOM     26  C   UNL A   1      34.296  21.787  27.210  1.00  0.00     0.013 C 
ATOM     27  C   UNL A   1      32.519  22.772  26.685  1.00  0.00     0.013 C 
ATOM     28  C   UNL A   1      33.267  22.591  28.007  1.00  0.00     0.002 C 
ENDBRANCH  22  25
ENDBRANCH  20  21
ENDBRANCH  13  15
ENDBRANCH  10  11
ENDBRANCH   4   6
ENDBRANCH   3   4
ENDBRANCH   2   3
ENDBRANCH   1   2
BRANCH   1  29
ATOM     29  O   UNL A   1      33.881  32.813  28.942  1.00  0.00    -0.374 OA
BRANCH  29  30
ATOM     30  C   UNL A   1      33.908  34.134  29.437  1.00  0.00     0.202 C 
BRANCH  30  31
ATOM     31  C   UNL A   1      34.511  34.370  30.817  1.00  0.00     0.261 C 
BRANCH  31  32
ATOM     32  O   UNL A   1      35.797  33.763  30.986  1.00  0.00    -0.460 OA
BRANCH  32  33
ATOM     33  C   UNL A   1      35.768  32.597  31.672  1.00  0.00     0.338 C 
ATOM     34  O   UNL A   1      35.020  32.289  32.584  1.00  0.00    -0.246 OA
BRANCH  33  35
ATOM     35  C   UNL A   1      36.720  31.639  31.087  1.00  0.00     0.060 A 
ATOM     36  C   UNL A   1      37.600  30.993  31.964  1.00  0.00     0.016 A 
ATOM     37  C   UNL A   1      36.818  31.447  29.706  1.00  0.00     0.016 A 
ATOM     38  C   UNL A   1      38.634  30.212  31.459  1.00  0.00     0.010 A 
ATOM     39  C   UNL A   1      37.864  30.670  29.199  1.00  0.00     0.010 A 
ATOM     40  C   UNL A   1      38.804  30.096  30.073  1.00  0.00    -0.014 A 
BRANCH  40  41
ATOM     41  C   UNL A   1      40.085  29.561  29.558  1.00  0.00     0.031 A 
ATOM     42  C   UNL A   1      41.293  30.458  29.571  1.00  0.00     0.074 A 
ATOM     43  C   UNL A   1      40.191  28.284  29.153  1.00  0.00     0.049 A 
ATOM     44  N   UNL A   1      42.521  30.208  29.192  1.00  0.00    -0.248 NA
ATOM     45  C   UNL A   1      41.088  31.824  30.080  1.00  0.00     0.031 C 
ATOM     46  C   UNL A   1      39.102  27.310  29.138  1.00  0.00     0.029 A 
ATOM     47  N   UNL A   1      41.274  27.590  28.678  1.00  0.00    -0.354 N 
ATOM     48  C   UNL A   1      43.230  31.381  29.418  1.00  0.00     0.074 A 
ATOM     49  C   UNL A   1      42.292  32.355  29.931  1.00  0.00     0.031 C 
ATOM     50  C   UNL A   1      39.572  26.141  28.670  1.00  0.00     0.029 A 
ATOM     51  C   UNL A   1      40.986  26.295  28.330  1.00  0.00     0.049 A 
ATOM     52  H   UNL A   1      42.172  27.983  28.595  1.00  0.00     0.167 HD
ATOM     53  C   UNL A   1      44.549  31.620  29.227  1.00  0.00     0.037 A 
ATOM     54  C   UNL A   1      41.776  25.348  27.785  1.00  0.00     0.037 A 
ATOM     55  C   UNL A   1      45.480  30.649  28.720  1.00  0.00     0.049 A 
ATOM     56  C   UNL A   1      43.226  25.663  27.516  1.00  0.00     0.074 A 
ATOM     57  C   UNL A   1      46.840  30.786  28.505  1.00  0.00     0.029 A 
ATOM     58  N   UNL A   1      45.143  29.358  28.339  1.00  0.00    -0.354 N 
ATOM     59  N   UNL A   1      43.895  26.763  27.760  1.00  0.00    -0.248 NA
ATOM     60  C   UNL A   1      44.030  24.597  26.903  1.00  0.00     0.031 C 
ATOM     61  C   UNL A   1      47.316  29.596  27.945  1.00  0.00     0.029 A 
ATOM     62  C   UNL A   1      46.265  28.698  27.865  1.00  0.00     0.049 A 
ATOM     63  H   UNL A   1      44.241  28.969  28.398  1.00  0.00     0.167 HD
ATOM     64  C   UNL A   1      45.202  26.514  27.357  1.00  0.00     0.074 A 
ATOM     65  C   UNL A   1      45.233  25.151  26.870  1.00  0.00     0.031 C 
ATOM     66  C   UNL A   1      46.279  27.338  27.388  1.00  0.00     0.037 A 
BRANCH  53  67
ATOM     67  C   UNL A   1      45.055  32.997  29.545  1.00  0.00     0.064 A 
ATOM     68  C   UNL A   1      45.447  33.359  30.843  1.00  0.00     0.173 A 
ATOM     69  C   UNL A   1      45.176  33.959  28.531  1.00  0.00     0.173 A 
ATOM     70  F   UNL A   1      45.336  32.481  31.852  1.00  0.00    -0.203 F 
ATOM     71  C   UNL A   1      45.916  34.642  31.119  1.00  0.00     0.198 A 
ATOM     72  C   UNL A   1      45.673  35.230  28.804  1.00  0.00     0.198 A 
ATOM     73  F   UNL A   1      44.817  33.664  27.273  1.00  0.00    -0.203 F 
ATOM     74  F   UNL A   1      46.238  34.980  32.375  1.00  0.00    -0.200 F 
ATOM     75  C   UNL A   1      46.036  35.573  30.098  1.00  0.00     0.200 A 
ATOM     76  F   UNL A   1      45.798  36.126  27.815  1.00  0.00    -0.200 F 
ATOM     77  F   UNL A   1      46.492  36.805  30.363  1.00  0.00    -0.200 F 
ENDBRANCH  53  67
BRANCH  54  78
ATOM     78  C   UNL A   1      41.213  24.015  27.447  1.00  0.00     0.064 A 
ATOM     79  C   UNL A   1      40.187  23.880  26.501  1.00  0.00     0.173 A 
ATOM     80  C   UNL A   1      41.673  22.851  28.081  1.00  0.00     0.173 A 
ATOM     81  F   UNL A   1      39.697  24.966  25.885  1.00  0.00    -0.203 F 
ATOM     82  C   UNL A   1      39.629  22.635  26.218  1.00  0.00     0.198 A 
ATOM     83  C   UNL A   1      41.134  21.603  27.775  1.00  0.00     0.198 A 
ATOM     84  F   UNL A   1      42.652  22.926  28.994  1.00  0.00    -0.203 F 
ATOM     85  F   UNL A   1      38.616  22.540  25.347  1.00  0.00    -0.200 F 
ATOM     86  C   UNL A   1      40.106  21.497  26.852  1.00  0.00     0.200 A 
ATOM     87  F   UNL A   1      41.608  20.506  28.381  1.00  0.00    -0.200 F 
ATOM     88  F   UNL A   1      39.570  20.300  26.578  1.00  0.00    -0.200 F 
ENDBRANCH  54  78
BRANCH  66  89
ATOM     89  C   UNL A   1      47.589  26.778  26.913  1.00  0.00     0.064 A 
ATOM     90  C   UNL A   1      48.428  26.043  27.762  1.00  0.00     0.173 A 
ATOM     91  C   UNL A   1      47.992  26.949  25.579  1.00  0.00     0.173 A 
ATOM     92  F   UNL A   1      48.096  25.864  29.050  1.00  0.00    -0.203 F 
ATOM     93  C   UNL A   1      49.636  25.525  27.303  1.00  0.00     0.198 A 
ATOM     94  C   UNL A   1      49.184  26.400  25.114  1.00  0.00     0.198 A 
ATOM     95  F   UNL A   1      47.222  27.636  24.722  1.00  0.00    -0.203 F 
ATOM     96  F   UNL A   1      50.447  24.871  28.147  1.00  0.00    -0.200 F 
ATOM     97  C   UNL A   1      50.009  25.697  25.978  1.00  0.00     0.200 A 
ATOM     98  F   UNL A   1      49.536  26.555  23.830  1.00  0.00    -0.200 F 
ATOM     99  F   UNL A   1      51.170  25.193  25.537  1.00  0.00    -0.200 F 
ENDBRANCH  66  89
ENDBRANCH  40  41
ENDBRANCH  33  35
ENDBRANCH  32  33
ENDBRANCH  31  32
ENDBRANCH  30  31
ENDBRANCH  29  30
ENDBRANCH   1  29
TORSDOF 18
ENDMDL
