MODEL 1
REMARK VINA RESULT:     -12.2      0.000      0.000
REMARK SMILES COc1ccc2c(c1)c(Cc1nc(-c3ccc(C(=O)OCCOCCOC(=O)c4ccc(-c5c6nc(c(-c7c(F)c(F)c(F)c(F)c7F)c7ccc([nH]7)c(-c7c(F)c(F)c(F)c(F)c7F)c7nc(c(-c8c(F)c(F)c(F)c(F)c8F)c8ccc5[nH]8)C=C7)C=C6)cc4)cc3)cs1)c(C)n2C(=O)c1ccc(Cl)cc1
REMARK SMILES IDX 21 1 20 2 18 3 19 4 17 5 14 6 15 7 93 8 16 9 92 10 13 11
REMARK SMILES IDX 11 12 12 13 95 14 94 15 10 16 9 17 3 18 4 19 8 20 5 21 7 22
REMARK SMILES IDX 6 23 98 24 96 25 97 26 2 27 1 28 99 29 100 30 101 31 102 32
REMARK SMILES IDX 107 33 103 34 106 35 104 36 105 37 22 38 23 39 24 40 25 41
REMARK SMILES IDX 26 42 27 43 28 44 29 45 30 46 91 47 31 48 90 49 32 50 33 51
REMARK SMILES IDX 34 52 84 53 35 54 89 55 83 56 85 57 36 58 88 59 82 60 81 61
REMARK SMILES IDX 37 63 69 64 49 65 68 66 50 67 53 68 67 69 86 70 51 71 52 72
REMARK SMILES IDX 66 74 87 75 54 76 38 77 39 78 47 79 40 80 41 81 45 82 48 83
REMARK SMILES IDX 42 84 43 85 46 86 44 87 70 88 71 89 79 90 72 91 73 92 77 93
REMARK SMILES IDX 80 94 74 95 75 96 78 97 76 98 55 99 56 100 64 101 57 102
REMARK SMILES IDX 58 103 62 104 65 105 59 106 60 107 63 108 61 109
REMARK H PARENT 85 62 53 73
REMARK Flexibility Score: inf
ROOT
ATOM      1  C   UNL A   1      33.952  33.911  28.320  1.00  0.00     0.261 C 
ENDROOT
BRANCH   1   2
ATOM      2  O   UNL A   1      33.298  32.712  27.892  1.00  0.00    -0.460 OA
BRANCH   2   3
ATOM      3  C   UNL A   1      34.078  31.608  27.987  1.00  0.00     0.338 C 
ATOM      4  O   UNL A   1      34.960  31.398  28.804  1.00  0.00    -0.246 OA
BRANCH   3   5
ATOM      5  C   UNL A   1      33.564  30.552  27.095  1.00  0.00     0.060 A 
ATOM      6  C   UNL A   1      32.763  28.468  25.411  1.00  0.00     0.001 A 
ATOM      7  C   UNL A   1      34.006  28.418  26.054  1.00  0.00     0.011 A 
ATOM      8  C   UNL A   1      31.916  29.565  25.631  1.00  0.00     0.011 A 
ATOM      9  C   UNL A   1      34.408  29.458  26.884  1.00  0.00     0.016 A 
ATOM     10  C   UNL A   1      32.305  30.603  26.490  1.00  0.00     0.016 A 
BRANCH   6  11
ATOM     11  C   UNL A   1      32.425  27.444  24.437  1.00  0.00     0.081 A 
ATOM     12  C   UNL A   1      32.810  25.566  23.338  1.00  0.00     0.098 A 
ATOM     13  N   UNL A   1      33.380  26.562  23.984  1.00  0.00    -0.241 NA
ATOM     14  S   UNL A   1      31.122  25.757  23.057  1.00  0.00    -0.126 S 
ATOM     15  C   UNL A   1      31.147  27.207  23.971  1.00  0.00     0.095 A 
BRANCH  12  16
ATOM     16  C   UNL A   1      33.541  24.355  22.831  1.00  0.00     0.105 C 
BRANCH  16  17
ATOM     17  C   UNL A   1      34.250  23.571  23.915  1.00  0.00    -0.012 A 
ATOM     18  C   UNL A   1      32.195  23.109  27.108  1.00  0.00     0.119 A 
ATOM     19  C   UNL A   1      33.218  22.575  27.870  1.00  0.00     0.048 A 
ATOM     20  C   UNL A   1      32.442  23.456  25.782  1.00  0.00     0.057 A 
ATOM     21  C   UNL A   1      34.490  22.377  27.319  1.00  0.00     0.031 A 
ATOM     22  C   UNL A   1      33.711  23.249  25.193  1.00  0.00     0.008 A 
ATOM     23  C   UNL A   1      34.727  22.665  25.956  1.00  0.00     0.057 A 
ATOM     24  N   UNL A   1      35.855  22.497  25.129  1.00  0.00    -0.280 N 
ATOM     25  C   UNL A   1      35.559  23.096  23.890  1.00  0.00     0.028 A 
ATOM     26  C   UNL A   1      36.501  23.213  22.730  1.00  0.00     0.065 C 
BRANCH  18  27
ATOM     27  O   UNL A   1      30.915  23.313  27.542  1.00  0.00    -0.497 OA
ATOM     28  C   UNL A   1      29.909  22.645  26.789  1.00  0.00     0.278 C 
ENDBRANCH  18  27
BRANCH  24  29
ATOM     29  C   UNL A   1      37.081  21.865  25.504  1.00  0.00     0.262 C 
ATOM     30  O   UNL A   1      37.212  20.654  25.331  1.00  0.00    -0.268 OA
BRANCH  29  31
ATOM     31  C   UNL A   1      38.266  22.548  26.057  1.00  0.00     0.040 A 
ATOM     32  C   UNL A   1      39.423  21.836  26.395  1.00  0.00     0.015 A 
ATOM     33  C   UNL A   1      38.195  23.931  26.262  1.00  0.00     0.015 A 
ATOM     34  C   UNL A   1      40.478  22.503  27.023  1.00  0.00     0.021 A 
ATOM     35  C   UNL A   1      39.256  24.594  26.882  1.00  0.00     0.021 A 
ATOM     36  C   UNL A   1      40.384  23.874  27.277  1.00  0.00     0.041 A 
ATOM     37  Cl  UNL A   1      41.658  24.679  28.105  1.00  0.00    -0.084 Cl
ENDBRANCH  29  31
ENDBRANCH  24  29
ENDBRANCH  16  17
ENDBRANCH  12  16
ENDBRANCH   6  11
ENDBRANCH   3   5
ENDBRANCH   2   3
ENDBRANCH   1   2
BRANCH   1  38
ATOM     38  C   UNL A   1      32.961  35.040  28.633  1.00  0.00     0.202 C 
BRANCH  38  39
ATOM     39  O   UNL A   1      33.341  36.033  29.581  1.00  0.00    -0.374 OA
BRANCH  39  40
ATOM     40  C   UNL A   1      32.781  35.952  30.899  1.00  0.00     0.202 C 
BRANCH  40  41
ATOM     41  C   UNL A   1      33.723  35.612  32.070  1.00  0.00     0.261 C 
BRANCH  41  42
ATOM     42  O   UNL A   1      34.554  34.492  31.735  1.00  0.00    -0.460 OA
BRANCH  42  43
ATOM     43  C   UNL A   1      34.477  33.433  32.583  1.00  0.00     0.338 C 
ATOM     44  O   UNL A   1      33.479  32.981  33.121  1.00  0.00    -0.246 OA
BRANCH  43  45
ATOM     45  C   UNL A   1      35.743  32.698  32.394  1.00  0.00     0.060 A 
ATOM     46  C   UNL A   1      36.348  32.058  33.478  1.00  0.00     0.016 A 
ATOM     47  C   UNL A   1      36.465  32.976  31.220  1.00  0.00     0.016 A 
ATOM     48  C   UNL A   1      37.706  31.783  33.414  1.00  0.00     0.010 A 
ATOM     49  C   UNL A   1      37.832  32.718  31.170  1.00  0.00     0.010 A 
ATOM     50  C   UNL A   1      38.460  32.155  32.282  1.00  0.00    -0.014 A 
BRANCH  50  51
ATOM     51  C   UNL A   1      39.861  31.729  32.261  1.00  0.00     0.031 A 
ATOM     52  C   UNL A   1      40.793  32.883  32.184  1.00  0.00     0.074 A 
ATOM     53  C   UNL A   1      40.358  30.480  32.381  1.00  0.00     0.049 A 
ATOM     54  N   UNL A   1      41.620  33.168  31.233  1.00  0.00    -0.248 NA
ATOM     55  C   UNL A   1      40.703  33.900  33.242  1.00  0.00     0.031 C 
ATOM     56  C   UNL A   1      39.651  29.264  32.779  1.00  0.00     0.029 A 
ATOM     57  N   UNL A   1      41.658  30.057  32.247  1.00  0.00    -0.354 N 
ATOM     58  C   UNL A   1      42.270  34.328  31.641  1.00  0.00     0.074 A 
ATOM     59  C   UNL A   1      41.583  34.804  32.814  1.00  0.00     0.031 C 
ATOM     60  C   UNL A   1      40.557  28.293  33.053  1.00  0.00     0.029 A 
ATOM     61  C   UNL A   1      41.891  28.772  32.721  1.00  0.00     0.049 A 
ATOM     62  H   UNL A   1      42.365  30.615  31.849  1.00  0.00     0.167 HD
ATOM     63  C   UNL A   1      43.471  34.681  31.119  1.00  0.00     0.037 A 
ATOM     64  C   UNL A   1      43.094  28.164  32.873  1.00  0.00     0.037 A 
ATOM     65  C   UNL A   1      43.775  33.963  29.915  1.00  0.00     0.049 A 
ATOM     66  C   UNL A   1      44.079  28.811  31.977  1.00  0.00     0.074 A 
ATOM     67  C   UNL A   1      43.502  34.078  28.571  1.00  0.00     0.029 A 
ATOM     68  N   UNL A   1      44.265  32.706  30.124  1.00  0.00    -0.354 N 
ATOM     69  N   UNL A   1      44.068  28.705  30.679  1.00  0.00    -0.248 NA
ATOM     70  C   UNL A   1      45.014  29.795  32.519  1.00  0.00     0.031 C 
ATOM     71  C   UNL A   1      43.743  32.794  27.995  1.00  0.00     0.029 A 
ATOM     72  C   UNL A   1      44.156  31.929  29.003  1.00  0.00     0.049 A 
ATOM     73  H   UNL A   1      44.648  32.396  30.977  1.00  0.00     0.167 HD
ATOM     74  C   UNL A   1      44.663  29.867  30.244  1.00  0.00     0.074 A 
ATOM     75  C   UNL A   1      45.392  30.392  31.387  1.00  0.00     0.031 C 
ATOM     76  C   UNL A   1      44.218  30.492  29.121  1.00  0.00     0.037 A 
BRANCH  63  77
ATOM     77  C   UNL A   1      44.565  35.339  31.920  1.00  0.00     0.064 A 
ATOM     78  C   UNL A   1      45.177  34.633  32.972  1.00  0.00     0.173 A 
ATOM     79  C   UNL A   1      44.807  36.730  31.890  1.00  0.00     0.173 A 
ATOM     80  F   UNL A   1      44.975  33.315  33.118  1.00  0.00    -0.203 F 
ATOM     81  C   UNL A   1      45.949  35.282  33.941  1.00  0.00     0.198 A 
ATOM     82  C   UNL A   1      45.620  37.365  32.826  1.00  0.00     0.198 A 
ATOM     83  F   UNL A   1      44.173  37.538  31.030  1.00  0.00    -0.203 F 
ATOM     84  F   UNL A   1      46.428  34.590  34.984  1.00  0.00    -0.200 F 
ATOM     85  C   UNL A   1      46.172  36.646  33.865  1.00  0.00     0.200 A 
ATOM     86  F   UNL A   1      45.799  38.691  32.753  1.00  0.00    -0.200 F 
ATOM     87  F   UNL A   1      46.874  37.275  34.817  1.00  0.00    -0.200 F 
ENDBRANCH  63  77
BRANCH  64  88
ATOM     88  C   UNL A   1      43.546  27.166  33.876  1.00  0.00     0.064 A 
ATOM     89  C   UNL A   1      43.332  27.384  35.251  1.00  0.00     0.173 A 
ATOM     90  C   UNL A   1      43.886  25.856  33.496  1.00  0.00     0.173 A 
ATOM     91  F   UNL A   1      42.981  28.598  35.699  1.00  0.00    -0.203 F 
ATOM     92  C   UNL A   1      43.380  26.339  36.177  1.00  0.00     0.198 A 
ATOM     93  C   UNL A   1      43.946  24.816  34.426  1.00  0.00     0.198 A 
ATOM     94  F   UNL A   1      44.059  25.538  32.206  1.00  0.00    -0.203 F 
ATOM     95  F   UNL A   1      43.073  26.570  37.461  1.00  0.00    -0.200 F 
ATOM     96  C   UNL A   1      43.669  25.052  35.761  1.00  0.00     0.200 A 
ATOM     97  F   UNL A   1      44.201  23.568  34.008  1.00  0.00    -0.200 F 
ATOM     98  F   UNL A   1      43.636  24.035  36.633  1.00  0.00    -0.200 F 
ENDBRANCH  64  88
BRANCH  76  99
ATOM     99  C   UNL A   1      43.585  29.644  28.068  1.00  0.00     0.064 A 
ATOM    100  C   UNL A   1      44.295  28.961  27.069  1.00  0.00     0.173 A 
ATOM    101  C   UNL A   1      42.193  29.491  28.104  1.00  0.00     0.173 A 
ATOM    102  F   UNL A   1      45.634  29.005  27.021  1.00  0.00    -0.203 F 
ATOM    103  C   UNL A   1      43.625  28.193  26.118  1.00  0.00     0.198 A 
ATOM    104  C   UNL A   1      41.532  28.694  27.177  1.00  0.00     0.198 A 
ATOM    105  F   UNL A   1      41.473  30.099  29.060  1.00  0.00    -0.203 F 
ATOM    106  F   UNL A   1      44.315  27.570  25.151  1.00  0.00    -0.200 F 
ATOM    107  C   UNL A   1      42.247  28.055  26.177  1.00  0.00     0.200 A 
ATOM    108  F   UNL A   1      40.204  28.535  27.262  1.00  0.00    -0.200 F 
ATOM    109  F   UNL A   1      41.606  27.291  25.282  1.00  0.00    -0.200 F 
ENDBRANCH  76  99
ENDBRANCH  50  51
ENDBRANCH  43  45
ENDBRANCH  42  43
ENDBRANCH  41  42
ENDBRANCH  40  41
ENDBRANCH  39  40
ENDBRANCH  38  39
ENDBRANCH   1  38
TORSDOF 20
ENDMDL
MODEL 2
REMARK VINA RESULT:     -12.0      2.257      4.283
REMARK SMILES COc1ccc2c(c1)c(Cc1nc(-c3ccc(C(=O)OCCOCCOC(=O)c4ccc(-c5c6nc(c(-c7c(F)c(F)c(F)c(F)c7F)c7ccc([nH]7)c(-c7c(F)c(F)c(F)c(F)c7F)c7nc(c(-c8c(F)c(F)c(F)c(F)c8F)c8ccc5[nH]8)C=C7)C=C6)cc4)cc3)cs1)c(C)n2C(=O)c1ccc(Cl)cc1
REMARK SMILES IDX 21 1 20 2 18 3 19 4 17 5 14 6 15 7 93 8 16 9 92 10 13 11
REMARK SMILES IDX 11 12 12 13 95 14 94 15 10 16 9 17 3 18 4 19 8 20 5 21 7 22
REMARK SMILES IDX 6 23 98 24 96 25 97 26 2 27 1 28 99 29 100 30 101 31 102 32
REMARK SMILES IDX 107 33 103 34 106 35 104 36 105 37 22 38 23 39 24 40 25 41
REMARK SMILES IDX 26 42 27 43 28 44 29 45 30 46 91 47 31 48 90 49 32 50 33 51
REMARK SMILES IDX 34 52 84 53 35 54 89 55 83 56 85 57 36 58 88 59 82 60 81 61
REMARK SMILES IDX 37 63 69 64 49 65 68 66 50 67 53 68 67 69 86 70 51 71 52 72
REMARK SMILES IDX 66 74 87 75 54 76 38 77 39 78 47 79 40 80 41 81 45 82 48 83
REMARK SMILES IDX 42 84 43 85 46 86 44 87 70 88 71 89 79 90 72 91 73 92 77 93
REMARK SMILES IDX 80 94 74 95 75 96 78 97 76 98 55 99 56 100 64 101 57 102
REMARK SMILES IDX 58 103 62 104 65 105 59 106 60 107 63 108 61 109
REMARK H PARENT 85 62 53 73
REMARK Flexibility Score: inf
ROOT
ATOM      1  C   UNL A   1      34.313  33.478  29.316  1.00  0.00     0.261 C 
ENDROOT
BRANCH   1   2
ATOM      2  O   UNL A   1      33.730  32.441  28.520  1.00  0.00    -0.460 OA
BRANCH   2   3
ATOM      3  C   UNL A   1      34.552  31.382  28.328  1.00  0.00     0.338 C 
ATOM      4  O   UNL A   1      35.532  31.080  28.990  1.00  0.00    -0.246 OA
BRANCH   3   5
ATOM      5  C   UNL A   1      33.971  30.471  27.324  1.00  0.00     0.060 A 
ATOM      6  C   UNL A   1      33.036  28.649  25.419  1.00  0.00     0.001 A 
ATOM      7  C   UNL A   1      34.264  28.435  26.058  1.00  0.00     0.011 A 
ATOM      8  C   UNL A   1      32.271  29.777  25.755  1.00  0.00     0.011 A 
ATOM      9  C   UNL A   1      34.733  29.346  26.998  1.00  0.00     0.016 A 
ATOM     10  C   UNL A   1      32.727  30.683  26.723  1.00  0.00     0.016 A 
BRANCH   6  11
ATOM     11  C   UNL A   1      32.633  27.765  24.339  1.00  0.00     0.081 A 
ATOM     12  C   UNL A   1      32.800  25.917  23.138  1.00  0.00     0.098 A 
ATOM     13  N   UNL A   1      33.462  26.750  23.915  1.00  0.00    -0.241 NA
ATOM     14  S   UNL A   1      31.216  26.435  22.705  1.00  0.00    -0.126 S 
ATOM     15  C   UNL A   1      31.395  27.798  23.729  1.00  0.00     0.095 A 
BRANCH  12  16
ATOM     16  C   UNL A   1      33.357  24.624  22.613  1.00  0.00     0.105 C 
BRANCH  16  17
ATOM     17  C   UNL A   1      33.904  23.712  23.691  1.00  0.00    -0.012 A 
ATOM     18  C   UNL A   1      31.634  23.373  26.751  1.00  0.00     0.119 A 
ATOM     19  C   UNL A   1      32.540  22.683  27.536  1.00  0.00     0.048 A 
ATOM     20  C   UNL A   1      31.994  23.743  25.457  1.00  0.00     0.057 A 
ATOM     21  C   UNL A   1      33.807  22.352  27.039  1.00  0.00     0.031 A 
ATOM     22  C   UNL A   1      33.260  23.405  24.923  1.00  0.00     0.008 A 
ATOM     23  C   UNL A   1      34.153  22.666  25.705  1.00  0.00     0.057 A 
ATOM     24  N   UNL A   1      35.296  22.395  24.927  1.00  0.00    -0.280 N 
ATOM     25  C   UNL A   1      35.143  23.079  23.706  1.00  0.00     0.028 A 
ATOM     26  C   UNL A   1      36.155  23.127  22.602  1.00  0.00     0.065 C 
BRANCH  18  27
ATOM     27  O   UNL A   1      30.367  23.716  27.131  1.00  0.00    -0.497 OA
ATOM     28  C   UNL A   1      29.494  22.619  27.381  1.00  0.00     0.278 C 
ENDBRANCH  18  27
BRANCH  24  29
ATOM     29  C   UNL A   1      36.412  21.599  25.331  1.00  0.00     0.262 C 
ATOM     30  O   UNL A   1      36.339  20.374  25.252  1.00  0.00    -0.268 OA
BRANCH  29  31
ATOM     31  C   UNL A   1      37.709  22.117  25.809  1.00  0.00     0.040 A 
ATOM     32  C   UNL A   1      38.843  21.298  25.860  1.00  0.00     0.015 A 
ATOM     33  C   UNL A   1      37.771  23.448  26.237  1.00  0.00     0.015 A 
ATOM     34  C   UNL A   1      40.020  21.795  26.428  1.00  0.00     0.021 A 
ATOM     35  C   UNL A   1      38.951  23.942  26.795  1.00  0.00     0.021 A 
ATOM     36  C   UNL A   1      40.064  23.107  26.906  1.00  0.00     0.041 A 
ATOM     37  Cl  UNL A   1      41.494  23.695  27.659  1.00  0.00    -0.084 Cl
ENDBRANCH  29  31
ENDBRANCH  24  29
ENDBRANCH  16  17
ENDBRANCH  12  16
ENDBRANCH   6  11
ENDBRANCH   3   5
ENDBRANCH   2   3
ENDBRANCH   1   2
BRANCH   1  38
ATOM     38  C   UNL A   1      33.466  34.758  29.324  1.00  0.00     0.202 C 
BRANCH  38  39
ATOM     39  O   UNL A   1      33.876  35.838  30.157  1.00  0.00    -0.374 OA
BRANCH  39  40
ATOM     40  C   UNL A   1      32.883  36.468  30.978  1.00  0.00     0.202 C 
BRANCH  40  41
ATOM     41  C   UNL A   1      32.765  36.023  32.448  1.00  0.00     0.261 C 
BRANCH  41  42
ATOM     42  O   UNL A   1      34.010  35.478  32.908  1.00  0.00    -0.460 OA
BRANCH  42  43
ATOM     43  C   UNL A   1      33.977  34.169  33.267  1.00  0.00     0.338 C 
ATOM     44  O   UNL A   1      33.031  33.400  33.198  1.00  0.00    -0.246 OA
BRANCH  43  45
ATOM     45  C   UNL A   1      35.393  33.761  33.357  1.00  0.00     0.060 A 
ATOM     46  C   UNL A   1      36.405  34.697  33.136  1.00  0.00     0.016 A 
ATOM     47  C   UNL A   1      35.656  32.381  33.305  1.00  0.00     0.016 A 
ATOM     48  C   UNL A   1      37.664  34.241  32.770  1.00  0.00     0.010 A 
ATOM     49  C   UNL A   1      36.914  31.930  32.915  1.00  0.00     0.010 A 
ATOM     50  C   UNL A   1      37.908  32.862  32.612  1.00  0.00    -0.014 A 
BRANCH  50  51
ATOM     51  C   UNL A   1      39.290  32.471  32.327  1.00  0.00     0.031 A 
ATOM     52  C   UNL A   1      40.194  32.742  33.473  1.00  0.00     0.074 A 
ATOM     53  C   UNL A   1      39.776  31.854  31.229  1.00  0.00     0.049 A 
ATOM     54  N   UNL A   1      41.197  33.556  33.514  1.00  0.00    -0.248 NA
ATOM     55  C   UNL A   1      39.862  32.115  34.762  1.00  0.00     0.031 C 
ATOM     56  C   UNL A   1      39.026  31.223  30.145  1.00  0.00     0.029 A 
ATOM     57  N   UNL A   1      41.084  31.588  30.901  1.00  0.00    -0.354 N 
ATOM     58  C   UNL A   1      41.722  33.434  34.796  1.00  0.00     0.074 A 
ATOM     59  C   UNL A   1      40.794  32.639  35.558  1.00  0.00     0.031 C 
ATOM     60  C   UNL A   1      39.873  30.476  29.395  1.00  0.00     0.029 A 
ATOM     61  C   UNL A   1      41.237  30.683  29.859  1.00  0.00     0.049 A 
ATOM     62  H   UNL A   1      41.847  32.003  31.364  1.00  0.00     0.167 HD
ATOM     63  C   UNL A   1      42.999  33.802  35.070  1.00  0.00     0.037 A 
ATOM     64  C   UNL A   1      42.393  30.111  29.439  1.00  0.00     0.037 A 
ATOM     65  C   UNL A   1      43.564  34.620  34.036  1.00  0.00     0.049 A 
ATOM     66  C   UNL A   1      43.531  30.962  29.853  1.00  0.00     0.074 A 
ATOM     67  C   UNL A   1      43.579  35.953  33.694  1.00  0.00     0.029 A 
ATOM     68  N   UNL A   1      44.025  33.919  32.958  1.00  0.00    -0.354 N 
ATOM     69  N   UNL A   1      43.797  32.129  29.339  1.00  0.00    -0.248 NA
ATOM     70  C   UNL A   1      44.311  30.605  31.036  1.00  0.00     0.031 C 
ATOM     71  C   UNL A   1      43.962  36.017  32.320  1.00  0.00     0.029 A 
ATOM     72  C   UNL A   1      44.171  34.722  31.860  1.00  0.00     0.049 A 
ATOM     73  H   UNL A   1      44.226  32.955  32.971  1.00  0.00     0.167 HD
ATOM     74  C   UNL A   1      44.446  32.799  30.351  1.00  0.00     0.074 A 
ATOM     75  C   UNL A   1      44.907  31.774  31.274  1.00  0.00     0.031 C 
ATOM     76  C   UNL A   1      44.236  34.129  30.546  1.00  0.00     0.037 A 
BRANCH  63  77
ATOM     77  C   UNL A   1      43.886  33.067  36.041  1.00  0.00     0.064 A 
ATOM     78  C   UNL A   1      44.456  33.761  37.125  1.00  0.00     0.173 A 
ATOM     79  C   UNL A   1      44.438  31.796  35.765  1.00  0.00     0.173 A 
ATOM     80  F   UNL A   1      44.036  34.994  37.442  1.00  0.00    -0.203 F 
ATOM     81  C   UNL A   1      45.524  33.231  37.856  1.00  0.00     0.198 A 
ATOM     82  C   UNL A   1      45.465  31.249  36.530  1.00  0.00     0.198 A 
ATOM     83  F   UNL A   1      44.087  31.095  34.680  1.00  0.00    -0.203 F 
ATOM     84  F   UNL A   1      46.106  33.967  38.812  1.00  0.00    -0.200 F 
ATOM     85  C   UNL A   1      46.025  31.975  37.561  1.00  0.00     0.200 A 
ATOM     86  F   UNL A   1      45.958  30.044  36.208  1.00  0.00    -0.200 F 
ATOM     87  F   UNL A   1      47.076  31.486  38.231  1.00  0.00    -0.200 F 
ENDBRANCH  63  77
BRANCH  64  88
ATOM     88  C   UNL A   1      42.644  28.769  28.854  1.00  0.00     0.064 A 
ATOM     89  C   UNL A   1      43.121  28.639  27.536  1.00  0.00     0.173 A 
ATOM     90  C   UNL A   1      42.740  27.627  29.669  1.00  0.00     0.173 A 
ATOM     91  F   UNL A   1      43.089  29.685  26.696  1.00  0.00    -0.203 F 
ATOM     92  C   UNL A   1      43.726  27.463  27.084  1.00  0.00     0.198 A 
ATOM     93  C   UNL A   1      43.333  26.448  29.211  1.00  0.00     0.198 A 
ATOM     94  F   UNL A   1      42.361  27.666  30.953  1.00  0.00    -0.203 F 
ATOM     95  F   UNL A   1      44.255  27.414  25.854  1.00  0.00    -0.200 F 
ATOM     96  C   UNL A   1      43.848  26.375  27.929  1.00  0.00     0.200 A 
ATOM     97  F   UNL A   1      43.471  25.409  30.046  1.00  0.00    -0.200 F 
ATOM     98  F   UNL A   1      44.499  25.275  27.527  1.00  0.00    -0.200 F 
ENDBRANCH  64  88
BRANCH  76  99
ATOM     99  C   UNL A   1      43.856  34.945  29.355  1.00  0.00     0.064 A 
ATOM    100  C   UNL A   1      44.774  35.590  28.513  1.00  0.00     0.173 A 
ATOM    101  C   UNL A   1      42.495  35.043  29.039  1.00  0.00     0.173 A 
ATOM    102  F   UNL A   1      46.095  35.478  28.715  1.00  0.00    -0.203 F 
ATOM    103  C   UNL A   1      44.335  36.340  27.422  1.00  0.00     0.198 A 
ATOM    104  C   UNL A   1      42.063  35.759  27.929  1.00  0.00     0.198 A 
ATOM    105  F   UNL A   1      41.581  34.417  29.797  1.00  0.00    -0.203 F 
ATOM    106  F   UNL A   1      45.222  36.975  26.643  1.00  0.00    -0.200 F 
ATOM    107  C   UNL A   1      42.982  36.418  27.128  1.00  0.00     0.200 A 
ATOM    108  F   UNL A   1      40.757  35.800  27.629  1.00  0.00    -0.200 F 
ATOM    109  F   UNL A   1      42.563  37.112  26.062  1.00  0.00    -0.200 F 
ENDBRANCH  76  99
ENDBRANCH  50  51
ENDBRANCH  43  45
ENDBRANCH  42  43
ENDBRANCH  41  42
ENDBRANCH  40  41
ENDBRANCH  39  40
ENDBRANCH  38  39
ENDBRANCH   1  38
TORSDOF 20
ENDMDL
MODEL 3
REMARK VINA RESULT:     -11.8      3.922      9.132
REMARK SMILES COc1ccc2c(c1)c(Cc1nc(-c3ccc(C(=O)OCCOCCOC(=O)c4ccc(-c5c6nc(c(-c7c(F)c(F)c(F)c(F)c7F)c7ccc([nH]7)c(-c7c(F)c(F)c(F)c(F)c7F)c7nc(c(-c8c(F)c(F)c(F)c(F)c8F)c8ccc5[nH]8)C=C7)C=C6)cc4)cc3)cs1)c(C)n2C(=O)c1ccc(Cl)cc1
REMARK SMILES IDX 21 1 20 2 18 3 19 4 17 5 14 6 15 7 93 8 16 9 92 10 13 11
REMARK SMILES IDX 11 12 12 13 95 14 94 15 10 16 9 17 3 18 4 19 8 20 5 21 7 22
REMARK SMILES IDX 6 23 98 24 96 25 97 26 2 27 1 28 99 29 100 30 101 31 102 32
REMARK SMILES IDX 107 33 103 34 106 35 104 36 105 37 22 38 23 39 24 40 25 41
REMARK SMILES IDX 26 42 27 43 28 44 29 45 30 46 91 47 31 48 90 49 32 50 33 51
REMARK SMILES IDX 34 52 84 53 35 54 89 55 83 56 85 57 36 58 88 59 82 60 81 61
REMARK SMILES IDX 37 63 69 64 49 65 68 66 50 67 53 68 67 69 86 70 51 71 52 72
REMARK SMILES IDX 66 74 87 75 54 76 38 77 39 78 47 79 40 80 41 81 45 82 48 83
REMARK SMILES IDX 42 84 43 85 46 86 44 87 70 88 71 89 79 90 72 91 73 92 77 93
REMARK SMILES IDX 80 94 74 95 75 96 78 97 76 98 55 99 56 100 64 101 57 102
REMARK SMILES IDX 58 103 62 104 65 105 59 106 60 107 63 108 61 109
REMARK H PARENT 85 62 53 73
REMARK Flexibility Score: inf
ROOT
ATOM      1  C   UNL A   1      41.992  22.925  26.584  1.00  0.00     0.261 C 
ENDROOT
BRANCH   1   2
ATOM      2  O   UNL A   1      40.656  22.689  26.129  1.00  0.00    -0.460 OA
BRANCH   2   3
ATOM      3  C   UNL A   1      40.162  21.484  26.504  1.00  0.00     0.338 C 
ATOM      4  O   UNL A   1      40.636  20.718  27.328  1.00  0.00    -0.246 OA
BRANCH   3   5
ATOM      5  C   UNL A   1      38.810  21.300  25.945  1.00  0.00     0.060 A 
ATOM      6  C   UNL A   1      36.201  21.128  24.951  1.00  0.00     0.001 A 
ATOM      7  C   UNL A   1      36.684  22.340  25.461  1.00  0.00     0.011 A 
ATOM      8  C   UNL A   1      37.043  20.004  24.929  1.00  0.00     0.011 A 
ATOM      9  C   UNL A   1      37.977  22.423  25.963  1.00  0.00     0.016 A 
ATOM     10  C   UNL A   1      38.358  20.092  25.408  1.00  0.00     0.016 A 
BRANCH   6  11
ATOM     11  C   UNL A   1      34.804  21.024  24.566  1.00  0.00     0.081 A 
ATOM     12  C   UNL A   1      33.010  21.690  23.461  1.00  0.00     0.098 A 
ATOM     13  N   UNL A   1      34.159  22.085  23.971  1.00  0.00    -0.241 NA
ATOM     14  S   UNL A   1      32.553  20.080  23.866  1.00  0.00    -0.126 S 
ATOM     15  C   UNL A   1      34.054  19.870  24.668  1.00  0.00     0.095 A 
BRANCH  12  16
ATOM     16  C   UNL A   1      32.114  22.555  22.620  1.00  0.00     0.105 C 
BRANCH  16  17
ATOM     17  C   UNL A   1      31.936  23.958  23.160  1.00  0.00    -0.012 A 
ATOM     18  C   UNL A   1      30.243  24.109  26.587  1.00  0.00     0.119 A 
ATOM     19  C   UNL A   1      30.079  25.482  26.615  1.00  0.00     0.048 A 
ATOM     20  C   UNL A   1      30.861  23.517  25.488  1.00  0.00     0.057 A 
ATOM     21  C   UNL A   1      30.533  26.276  25.554  1.00  0.00     0.031 A 
ATOM     22  C   UNL A   1      31.346  24.296  24.411  1.00  0.00     0.008 A 
ATOM     23  C   UNL A   1      31.220  25.687  24.468  1.00  0.00     0.057 A 
ATOM     24  N   UNL A   1      31.843  26.231  23.327  1.00  0.00    -0.280 N 
ATOM     25  C   UNL A   1      32.241  25.152  22.514  1.00  0.00     0.028 A 
ATOM     26  C   UNL A   1      32.885  25.269  21.166  1.00  0.00     0.065 C 
BRANCH  18  27
ATOM     27  O   UNL A   1      29.863  23.252  27.582  1.00  0.00    -0.497 OA
ATOM     28  C   UNL A   1      28.782  22.387  27.254  1.00  0.00     0.278 C 
ENDBRANCH  18  27
BRANCH  24  29
ATOM     29  C   UNL A   1      32.001  27.622  23.044  1.00  0.00     0.262 C 
ATOM     30  O   UNL A   1      33.093  28.039  22.661  1.00  0.00    -0.268 OA
BRANCH  29  31
ATOM     31  C   UNL A   1      30.938  28.642  23.124  1.00  0.00     0.040 A 
ATOM     32  C   UNL A   1      30.997  29.681  24.060  1.00  0.00     0.015 A 
ATOM     33  C   UNL A   1      29.848  28.530  22.252  1.00  0.00     0.015 A 
ATOM     34  C   UNL A   1      29.914  30.557  24.179  1.00  0.00     0.021 A 
ATOM     35  C   UNL A   1      28.773  29.412  22.370  1.00  0.00     0.021 A 
ATOM     36  C   UNL A   1      28.802  30.409  23.346  1.00  0.00     0.041 A 
ATOM     37  Cl  UNL A   1      27.446  31.450  23.536  1.00  0.00    -0.084 Cl
ENDBRANCH  29  31
ENDBRANCH  24  29
ENDBRANCH  16  17
ENDBRANCH  12  16
ENDBRANCH   6  11
ENDBRANCH   3   5
ENDBRANCH   2   3
ENDBRANCH   1   2
BRANCH   1  38
ATOM     38  C   UNL A   1      43.022  22.053  25.853  1.00  0.00     0.202 C 
BRANCH  38  39
ATOM     39  O   UNL A   1      43.402  22.418  24.529  1.00  0.00    -0.374 OA
BRANCH  39  40
ATOM     40  C   UNL A   1      44.799  22.410  24.205  1.00  0.00     0.202 C 
BRANCH  40  41
ATOM     41  C   UNL A   1      45.651  23.622  24.627  1.00  0.00     0.261 C 
BRANCH  41  42
ATOM     42  O   UNL A   1      44.935  24.434  25.568  1.00  0.00    -0.460 OA
BRANCH  42  43
ATOM     43  C   UNL A   1      45.679  24.947  26.583  1.00  0.00     0.338 C 
ATOM     44  O   UNL A   1      46.766  24.556  26.981  1.00  0.00    -0.246 OA
BRANCH  43  45
ATOM     45  C   UNL A   1      45.124  26.293  26.824  1.00  0.00     0.060 A 
ATOM     46  C   UNL A   1      45.656  27.097  27.833  1.00  0.00     0.016 A 
ATOM     47  C   UNL A   1      43.859  26.562  26.271  1.00  0.00     0.016 A 
ATOM     48  C   UNL A   1      44.872  28.118  28.352  1.00  0.00     0.010 A 
ATOM     49  C   UNL A   1      43.068  27.572  26.811  1.00  0.00     0.010 A 
ATOM     50  C   UNL A   1      43.561  28.327  27.876  1.00  0.00    -0.014 A 
BRANCH  50  51
ATOM     51  C   UNL A   1      42.851  29.491  28.409  1.00  0.00     0.031 A 
ATOM     52  C   UNL A   1      43.548  30.763  28.093  1.00  0.00     0.074 A 
ATOM     53  C   UNL A   1      41.661  29.527  29.045  1.00  0.00     0.049 A 
ATOM     54  N   UNL A   1      44.067  31.608  28.921  1.00  0.00    -0.248 NA
ATOM     55  C   UNL A   1      43.799  31.065  26.675  1.00  0.00     0.031 C 
ATOM     56  C   UNL A   1      40.676  28.454  29.173  1.00  0.00     0.029 A 
ATOM     57  N   UNL A   1      41.041  30.594  29.650  1.00  0.00    -0.354 N 
ATOM     58  C   UNL A   1      44.581  32.633  28.135  1.00  0.00     0.074 A 
ATOM     59  C   UNL A   1      44.506  32.192  26.766  1.00  0.00     0.031 C 
ATOM     60  C   UNL A   1      39.510  28.973  29.628  1.00  0.00     0.029 A 
ATOM     61  C   UNL A   1      39.702  30.380  29.951  1.00  0.00     0.049 A 
ATOM     62  H   UNL A   1      41.505  31.437  29.853  1.00  0.00     0.167 HD
ATOM     63  C   UNL A   1      44.816  33.865  28.651  1.00  0.00     0.037 A 
ATOM     64  C   UNL A   1      38.807  31.301  30.388  1.00  0.00     0.037 A 
ATOM     65  C   UNL A   1      44.822  33.863  30.086  1.00  0.00     0.049 A 
ATOM     66  C   UNL A   1      39.538  32.420  31.022  1.00  0.00     0.074 A 
ATOM     67  C   UNL A   1      45.723  33.606  31.095  1.00  0.00     0.029 A 
ATOM     68  N   UNL A   1      43.579  33.892  30.650  1.00  0.00    -0.354 N 
ATOM     69  N   UNL A   1      40.166  32.333  32.160  1.00  0.00    -0.248 NA
ATOM     70  C   UNL A   1      39.762  33.656  30.274  1.00  0.00     0.031 C 
ATOM     71  C   UNL A   1      44.957  33.367  32.275  1.00  0.00     0.029 A 
ATOM     72  C   UNL A   1      43.609  33.485  31.956  1.00  0.00     0.049 A 
ATOM     73  H   UNL A   1      42.763  34.170  30.175  1.00  0.00     0.167 HD
ATOM     74  C   UNL A   1      41.160  33.282  32.066  1.00  0.00     0.074 A 
ATOM     75  C   UNL A   1      40.749  34.183  31.001  1.00  0.00     0.031 C 
ATOM     76  C   UNL A   1      42.391  33.047  32.595  1.00  0.00     0.037 A 
BRANCH  63  77
ATOM     77  C   UNL A   1      44.597  35.144  27.885  1.00  0.00     0.064 A 
ATOM     78  C   UNL A   1      45.677  36.019  27.669  1.00  0.00     0.173 A 
ATOM     79  C   UNL A   1      43.313  35.677  27.634  1.00  0.00     0.173 A 
ATOM     80  F   UNL A   1      46.934  35.626  27.921  1.00  0.00    -0.203 F 
ATOM     81  C   UNL A   1      45.480  37.343  27.263  1.00  0.00     0.198 A 
ATOM     82  C   UNL A   1      43.124  36.979  27.178  1.00  0.00     0.198 A 
ATOM     83  F   UNL A   1      42.197  35.001  27.935  1.00  0.00    -0.203 F 
ATOM     84  F   UNL A   1      46.527  38.173  27.169  1.00  0.00    -0.200 F 
ATOM     85  C   UNL A   1      44.205  37.820  27.015  1.00  0.00     0.200 A 
ATOM     86  F   UNL A   1      41.879  37.433  26.973  1.00  0.00    -0.200 F 
ATOM     87  F   UNL A   1      44.012  39.100  26.668  1.00  0.00    -0.200 F 
ENDBRANCH  63  77
BRANCH  64  88
ATOM     88  C   UNL A   1      37.345  31.408  30.149  1.00  0.00     0.064 A 
ATOM     89  C   UNL A   1      36.485  31.870  31.165  1.00  0.00     0.173 A 
ATOM     90  C   UNL A   1      36.817  31.383  28.847  1.00  0.00     0.173 A 
ATOM     91  F   UNL A   1      36.914  31.949  32.433  1.00  0.00    -0.203 F 
ATOM     92  C   UNL A   1      35.203  32.347  30.882  1.00  0.00     0.198 A 
ATOM     93  C   UNL A   1      35.530  31.848  28.569  1.00  0.00     0.198 A 
ATOM     94  F   UNL A   1      37.574  31.009  27.806  1.00  0.00    -0.203 F 
ATOM     95  F   UNL A   1      34.453  32.869  31.863  1.00  0.00    -0.200 F 
ATOM     96  C   UNL A   1      34.734  32.353  29.581  1.00  0.00     0.200 A 
ATOM     97  F   UNL A   1      35.095  31.875  27.301  1.00  0.00    -0.200 F 
ATOM     98  F   UNL A   1      33.538  32.885  29.295  1.00  0.00    -0.200 F 
ENDBRANCH  64  88
BRANCH  76  99
ATOM     99  C   UNL A   1      42.470  32.127  33.767  1.00  0.00     0.064 A 
ATOM    100  C   UNL A   1      42.269  32.521  35.098  1.00  0.00     0.173 A 
ATOM    101  C   UNL A   1      42.727  30.772  33.516  1.00  0.00     0.173 A 
ATOM    102  F   UNL A   1      41.948  33.786  35.403  1.00  0.00    -0.203 F 
ATOM    103  C   UNL A   1      42.367  31.597  36.138  1.00  0.00     0.198 A 
ATOM    104  C   UNL A   1      42.786  29.846  34.551  1.00  0.00     0.198 A 
ATOM    105  F   UNL A   1      42.895  30.341  32.256  1.00  0.00    -0.203 F 
ATOM    106  F   UNL A   1      42.201  31.994  37.407  1.00  0.00    -0.200 F 
ATOM    107  C   UNL A   1      42.618  30.261  35.863  1.00  0.00     0.200 A 
ATOM    108  F   UNL A   1      42.993  28.551  34.276  1.00  0.00    -0.200 F 
ATOM    109  F   UNL A   1      42.681  29.367  36.859  1.00  0.00    -0.200 F 
ENDBRANCH  76  99
ENDBRANCH  50  51
ENDBRANCH  43  45
ENDBRANCH  42  43
ENDBRANCH  41  42
ENDBRANCH  40  41
ENDBRANCH  39  40
ENDBRANCH  38  39
ENDBRANCH   1  38
TORSDOF 20
ENDMDL
