MODEL 1
REMARK VINA RESULT:     -11.2      0.000      0.000
REMARK SMILES C[C@@H](CC(=O)OCCOCCOC(=O)c1ccc(-c2c3nc(c(-c4c(F)c(F)c(F)c(F)c4F)c4ccc([nH]4)c(-c4c(F)c(F)c(F)c(F)c4F)c4nc(c(-c5c(F)c(F)c(F)c(F)c5F)c5ccc2[nH]5)C=C4)C=C3)cc1)NC(=O)/C=C/c1cc(Cl)cc(Cl)c1
REMARK SMILES IDX 8 1 7 2 6 3 4 4 5 5 3 6 2 7 1 8 78 9 79 10 80 12 81 13 82 14
REMARK SMILES IDX 83 15 84 16 90 17 85 18 88 19 86 20 87 21 89 22 9 23 10 24
REMARK SMILES IDX 11 25 12 26 13 27 14 28 15 29 16 30 77 31 17 32 76 33 18 34
REMARK SMILES IDX 19 35 20 36 70 37 21 38 75 39 69 40 71 41 22 42 74 43 68 44
REMARK SMILES IDX 67 45 23 47 55 48 35 49 54 50 36 51 39 52 53 53 72 54 37 55
REMARK SMILES IDX 38 56 52 58 73 59 40 60 24 61 25 62 33 63 26 64 27 65 31 66
REMARK SMILES IDX 34 67 28 68 29 69 32 70 30 71 56 72 57 73 65 74 58 75 59 76
REMARK SMILES IDX 63 77 66 78 60 79 61 80 64 81 62 82 41 83 42 84 50 85 43 86
REMARK SMILES IDX 44 87 48 88 51 89 45 90 46 91 49 92 47 93
REMARK H PARENT 78 11 71 46 39 57
REMARK Flexibility Score: inf
ROOT
ATOM      1  C   UNL A   1      32.081  29.156  26.023  1.00  0.00     0.202 C 
ENDROOT
BRANCH   1   2
ATOM      2  C   UNL A   1      31.907  28.915  24.522  1.00  0.00     0.261 C 
BRANCH   2   3
ATOM      3  O   UNL A   1      30.518  28.757  24.174  1.00  0.00    -0.463 OA
BRANCH   3   4
ATOM      4  C   UNL A   1      30.233  27.727  23.343  1.00  0.00     0.307 C 
ATOM      5  O   UNL A   1      30.325  27.775  22.120  1.00  0.00    -0.252 OA
BRANCH   4   6
ATOM      6  C   UNL A   1      29.764  26.468  24.033  1.00  0.00     0.147 C 
BRANCH   6   7
ATOM      7  C   UNL A   1      30.717  25.304  24.334  1.00  0.00     0.090 C 
ATOM      8  C   UNL A   1      30.988  24.362  23.165  1.00  0.00     0.031 C 
BRANCH   7   9
ATOM      9  N   UNL A   1      30.310  24.554  25.520  1.00  0.00    -0.350 N 
ATOM     10  C   UNL A   1      31.033  23.901  26.470  1.00  0.00     0.244 C 
ATOM     11  H   UNL A   1      29.336  24.516  25.658  1.00  0.00     0.164 HD
ATOM     12  O   UNL A   1      30.448  23.337  27.392  1.00  0.00    -0.270 OA
BRANCH  10  13
ATOM     13  C   UNL A   1      32.500  23.736  26.331  1.00  0.00     0.072 C 
ATOM     14  C   UNL A   1      33.106  22.754  25.644  1.00  0.00     0.014 C 
BRANCH  14  15
ATOM     15  C   UNL A   1      34.561  22.515  25.576  1.00  0.00    -0.023 A 
ATOM     16  C   UNL A   1      35.006  21.228  25.232  1.00  0.00     0.028 A 
ATOM     17  C   UNL A   1      35.524  23.484  25.890  1.00  0.00     0.028 A 
ATOM     18  C   UNL A   1      36.371  20.921  25.224  1.00  0.00     0.043 A 
ATOM     19  C   UNL A   1      36.886  23.167  25.876  1.00  0.00     0.043 A 
ATOM     20  Cl  UNL A   1      36.882  19.327  24.828  1.00  0.00    -0.084 Cl
ATOM     21  C   UNL A   1      37.317  21.886  25.549  1.00  0.00     0.041 A 
ATOM     22  Cl  UNL A   1      38.043  24.372  26.291  1.00  0.00    -0.084 Cl
ENDBRANCH  14  15
ENDBRANCH  10  13
ENDBRANCH   7   9
ENDBRANCH   6   7
ENDBRANCH   4   6
ENDBRANCH   3   4
ENDBRANCH   2   3
ENDBRANCH   1   2
BRANCH   1  23
ATOM     23  O   UNL A   1      32.424  30.493  26.382  1.00  0.00    -0.374 OA
BRANCH  23  24
ATOM     24  C   UNL A   1      31.383  31.472  26.348  1.00  0.00     0.202 C 
BRANCH  24  25
ATOM     25  C   UNL A   1      31.689  32.763  27.117  1.00  0.00     0.261 C 
BRANCH  25  26
ATOM     26  O   UNL A   1      33.053  33.189  26.908  1.00  0.00    -0.460 OA
BRANCH  26  27
ATOM     27  C   UNL A   1      33.656  33.686  28.015  1.00  0.00     0.338 C 
ATOM     28  O   UNL A   1      33.217  34.531  28.783  1.00  0.00    -0.246 OA
BRANCH  27  29
ATOM     29  C   UNL A   1      34.894  32.946  28.316  1.00  0.00     0.060 A 
ATOM     30  C   UNL A   1      34.771  31.601  28.686  1.00  0.00     0.016 A 
ATOM     31  C   UNL A   1      36.131  33.587  28.383  1.00  0.00     0.016 A 
ATOM     32  C   UNL A   1      35.879  30.903  29.168  1.00  0.00     0.010 A 
ATOM     33  C   UNL A   1      37.241  32.886  28.874  1.00  0.00     0.010 A 
ATOM     34  C   UNL A   1      37.113  31.552  29.304  1.00  0.00    -0.014 A 
BRANCH  34  35
ATOM     35  C   UNL A   1      38.219  30.874  30.029  1.00  0.00     0.031 A 
ATOM     36  C   UNL A   1      38.471  31.211  31.474  1.00  0.00     0.074 A 
ATOM     37  C   UNL A   1      38.970  29.934  29.426  1.00  0.00     0.049 A 
ATOM     38  N   UNL A   1      39.389  30.752  32.288  1.00  0.00    -0.248 NA
ATOM     39  C   UNL A   1      37.562  32.192  32.086  1.00  0.00     0.031 C 
ATOM     40  C   UNL A   1      38.802  29.478  28.048  1.00  0.00     0.029 A 
ATOM     41  N   UNL A   1      40.027  29.197  29.901  1.00  0.00    -0.354 N 
ATOM     42  C   UNL A   1      39.170  31.388  33.503  1.00  0.00     0.074 A 
ATOM     43  C   UNL A   1      38.049  32.284  33.316  1.00  0.00     0.031 C 
ATOM     44  C   UNL A   1      39.732  28.544  27.784  1.00  0.00     0.029 A 
ATOM     45  C   UNL A   1      40.576  28.357  28.963  1.00  0.00     0.049 A 
ATOM     46  H   UNL A   1      40.358  29.263  30.824  1.00  0.00     0.167 HD
ATOM     47  C   UNL A   1      39.837  31.234  34.673  1.00  0.00     0.037 A 
ATOM     48  C   UNL A   1      41.651  27.547  29.041  1.00  0.00     0.037 A 
ATOM     49  C   UNL A   1      40.949  30.342  34.870  1.00  0.00     0.049 A 
ATOM     50  C   UNL A   1      42.424  27.453  30.331  1.00  0.00     0.074 A 
ATOM     51  C   UNL A   1      41.670  30.105  36.028  1.00  0.00     0.029 A 
ATOM     52  N   UNL A   1      41.504  29.543  33.883  1.00  0.00    -0.354 N 
ATOM     53  N   UNL A   1      42.197  28.043  31.478  1.00  0.00    -0.248 NA
ATOM     54  C   UNL A   1      43.608  26.578  30.333  1.00  0.00     0.031 C 
ATOM     55  C   UNL A   1      42.691  29.197  35.730  1.00  0.00     0.029 A 
ATOM     56  C   UNL A   1      42.577  28.833  34.398  1.00  0.00     0.049 A 
ATOM     57  H   UNL A   1      41.184  29.487  32.954  1.00  0.00     0.167 HD
ATOM     58  C   UNL A   1      43.186  27.593  32.343  1.00  0.00     0.074 A 
ATOM     59  C   UNL A   1      44.014  26.674  31.592  1.00  0.00     0.031 C 
ATOM     60  C   UNL A   1      43.390  27.914  33.645  1.00  0.00     0.037 A 
BRANCH  47  61
ATOM     61  C   UNL A   1      39.393  32.068  35.837  1.00  0.00     0.064 A 
ATOM     62  C   UNL A   1      38.407  31.621  36.727  1.00  0.00     0.173 A 
ATOM     63  C   UNL A   1      39.997  33.309  36.090  1.00  0.00     0.173 A 
ATOM     64  F   UNL A   1      37.793  30.446  36.522  1.00  0.00    -0.203 F 
ATOM     65  C   UNL A   1      38.027  32.396  37.820  1.00  0.00     0.198 A 
ATOM     66  C   UNL A   1      39.630  34.071  37.196  1.00  0.00     0.198 A 
ATOM     67  F   UNL A   1      40.949  33.777  35.270  1.00  0.00    -0.203 F 
ATOM     68  F   UNL A   1      37.057  31.966  38.640  1.00  0.00    -0.200 F 
ATOM     69  C   UNL A   1      38.643  33.616  38.057  1.00  0.00     0.200 A 
ATOM     70  F   UNL A   1      40.235  35.243  37.430  1.00  0.00    -0.200 F 
ATOM     71  F   UNL A   1      38.281  34.357  39.114  1.00  0.00    -0.200 F 
ENDBRANCH  47  61
BRANCH  48  72
ATOM     72  C   UNL A   1      42.077  26.767  27.851  1.00  0.00     0.064 A 
ATOM     73  C   UNL A   1      43.025  27.275  26.953  1.00  0.00     0.173 A 
ATOM     74  C   UNL A   1      41.528  25.506  27.578  1.00  0.00     0.173 A 
ATOM     75  F   UNL A   1      43.558  28.489  27.158  1.00  0.00    -0.203 F 
ATOM     76  C   UNL A   1      43.395  26.558  25.817  1.00  0.00     0.198 A 
ATOM     77  C   UNL A   1      41.917  24.780  26.456  1.00  0.00     0.198 A 
ATOM     78  F   UNL A   1      40.613  24.979  28.406  1.00  0.00    -0.203 F 
ATOM     79  F   UNL A   1      44.272  27.085  24.951  1.00  0.00    -0.200 F 
ATOM     80  C   UNL A   1      42.845  25.308  25.573  1.00  0.00     0.200 A 
ATOM     81  F   UNL A   1      41.390  23.568  26.229  1.00  0.00    -0.200 F 
ATOM     82  F   UNL A   1      43.203  24.618  24.481  1.00  0.00    -0.200 F 
ENDBRANCH  48  72
BRANCH  60  83
ATOM     83  C   UNL A   1      44.531  27.246  34.354  1.00  0.00     0.064 A 
ATOM     84  C   UNL A   1      45.794  27.847  34.442  1.00  0.00     0.173 A 
ATOM     85  C   UNL A   1      44.344  26.012  34.997  1.00  0.00     0.173 A 
ATOM     86  F   UNL A   1      46.027  29.020  33.832  1.00  0.00    -0.203 F 
ATOM     87  C   UNL A   1      46.834  27.230  35.133  1.00  0.00     0.198 A 
ATOM     88  C   UNL A   1      45.378  25.410  35.707  1.00  0.00     0.198 A 
ATOM     89  F   UNL A   1      43.153  25.398  34.947  1.00  0.00    -0.203 F 
ATOM     90  F   UNL A   1      48.044  27.806  35.173  1.00  0.00    -0.200 F 
ATOM     91  C   UNL A   1      46.623  26.017  35.771  1.00  0.00     0.200 A 
ATOM     92  F   UNL A   1      45.170  24.243  36.333  1.00  0.00    -0.200 F 
ATOM     93  F   UNL A   1      47.624  25.429  36.443  1.00  0.00    -0.200 F 
ENDBRANCH  60  83
ENDBRANCH  34  35
ENDBRANCH  27  29
ENDBRANCH  26  27
ENDBRANCH  25  26
ENDBRANCH  24  25
ENDBRANCH  23  24
ENDBRANCH   1  23
TORSDOF 18
ENDMDL
MODEL 2
REMARK VINA RESULT:     -11.0      1.365      7.542
REMARK SMILES C[C@@H](CC(=O)OCCOCCOC(=O)c1ccc(-c2c3nc(c(-c4c(F)c(F)c(F)c(F)c4F)c4ccc([nH]4)c(-c4c(F)c(F)c(F)c(F)c4F)c4nc(c(-c5c(F)c(F)c(F)c(F)c5F)c5ccc2[nH]5)C=C4)C=C3)cc1)NC(=O)/C=C/c1cc(Cl)cc(Cl)c1
REMARK SMILES IDX 8 1 7 2 6 3 4 4 5 5 3 6 2 7 1 8 78 9 79 10 80 12 81 13 82 14
REMARK SMILES IDX 83 15 84 16 90 17 85 18 88 19 86 20 87 21 89 22 9 23 10 24
REMARK SMILES IDX 11 25 12 26 13 27 14 28 15 29 16 30 77 31 17 32 76 33 18 34
REMARK SMILES IDX 19 35 20 36 70 37 21 38 75 39 69 40 71 41 22 42 74 43 68 44
REMARK SMILES IDX 67 45 23 47 55 48 35 49 54 50 36 51 39 52 53 53 72 54 37 55
REMARK SMILES IDX 38 56 52 58 73 59 40 60 24 61 25 62 33 63 26 64 27 65 31 66
REMARK SMILES IDX 34 67 28 68 29 69 32 70 30 71 56 72 57 73 65 74 58 75 59 76
REMARK SMILES IDX 63 77 66 78 60 79 61 80 64 81 62 82 41 83 42 84 50 85 43 86
REMARK SMILES IDX 44 87 48 88 51 89 45 90 46 91 49 92 47 93
REMARK H PARENT 78 11 71 46 39 57
REMARK Flexibility Score: inf
ROOT
ATOM      1  C   UNL A   1      33.211  26.777  26.193  1.00  0.00     0.202 C 
ENDROOT
BRANCH   1   2
ATOM      2  C   UNL A   1      32.608  25.422  25.819  1.00  0.00     0.261 C 
BRANCH   2   3
ATOM      3  O   UNL A   1      31.774  24.907  26.876  1.00  0.00    -0.463 OA
BRANCH   3   4
ATOM      4  C   UNL A   1      31.545  23.574  26.847  1.00  0.00     0.307 C 
ATOM      5  O   UNL A   1      30.636  23.013  27.452  1.00  0.00    -0.252 OA
BRANCH   4   6
ATOM      6  C   UNL A   1      32.518  22.781  26.006  1.00  0.00     0.147 C 
BRANCH   6   7
ATOM      7  C   UNL A   1      32.049  21.885  24.852  1.00  0.00     0.090 C 
ATOM      8  C   UNL A   1      32.600  20.462  24.864  1.00  0.00     0.031 C 
BRANCH   7   9
ATOM      9  N   UNL A   1      32.264  22.513  23.550  1.00  0.00    -0.350 N 
ATOM     10  C   UNL A   1      33.380  23.026  22.965  1.00  0.00     0.244 C 
ATOM     11  H   UNL A   1      31.453  22.575  22.994  1.00  0.00     0.164 HD
ATOM     12  O   UNL A   1      33.305  23.505  21.836  1.00  0.00    -0.270 OA
BRANCH  10  13
ATOM     13  C   UNL A   1      34.649  23.145  23.723  1.00  0.00     0.072 C 
ATOM     14  C   UNL A   1      35.606  22.206  23.782  1.00  0.00     0.014 C 
BRANCH  14  15
ATOM     15  C   UNL A   1      36.828  22.263  24.609  1.00  0.00    -0.023 A 
ATOM     16  C   UNL A   1      37.590  21.092  24.748  1.00  0.00     0.028 A 
ATOM     17  C   UNL A   1      37.240  23.406  25.309  1.00  0.00     0.028 A 
ATOM     18  C   UNL A   1      38.715  21.066  25.579  1.00  0.00     0.043 A 
ATOM     19  C   UNL A   1      38.368  23.369  26.135  1.00  0.00     0.043 A 
ATOM     20  Cl  UNL A   1      39.610  19.606  25.752  1.00  0.00    -0.084 Cl
ATOM     21  C   UNL A   1      39.108  22.200  26.278  1.00  0.00     0.041 A 
ATOM     22  Cl  UNL A   1      38.833  24.781  27.001  1.00  0.00    -0.084 Cl
ENDBRANCH  14  15
ENDBRANCH  10  13
ENDBRANCH   7   9
ENDBRANCH   6   7
ENDBRANCH   4   6
ENDBRANCH   3   4
ENDBRANCH   2   3
ENDBRANCH   1   2
BRANCH   1  23
ATOM     23  O   UNL A   1      32.423  27.908  25.827  1.00  0.00    -0.374 OA
BRANCH  23  24
ATOM     24  C   UNL A   1      31.780  28.631  26.880  1.00  0.00     0.202 C 
BRANCH  24  25
ATOM     25  C   UNL A   1      31.781  30.155  26.707  1.00  0.00     0.261 C 
BRANCH  25  26
ATOM     26  O   UNL A   1      33.096  30.643  26.359  1.00  0.00    -0.460 OA
BRANCH  26  27
ATOM     27  C   UNL A   1      33.579  31.587  27.204  1.00  0.00     0.338 C 
ATOM     28  O   UNL A   1      32.984  32.558  27.651  1.00  0.00    -0.246 OA
BRANCH  27  29
ATOM     29  C   UNL A   1      34.918  31.217  27.693  1.00  0.00     0.060 A 
ATOM     30  C   UNL A   1      35.152  29.867  27.985  1.00  0.00     0.016 A 
ATOM     31  C   UNL A   1      35.877  32.183  28.002  1.00  0.00     0.016 A 
ATOM     32  C   UNL A   1      36.328  29.483  28.631  1.00  0.00     0.010 A 
ATOM     33  C   UNL A   1      37.054  31.796  28.657  1.00  0.00     0.010 A 
ATOM     34  C   UNL A   1      37.269  30.450  29.008  1.00  0.00    -0.014 A 
BRANCH  34  35
ATOM     35  C   UNL A   1      38.399  30.063  29.892  1.00  0.00     0.031 A 
ATOM     36  C   UNL A   1      39.447  29.113  29.378  1.00  0.00     0.074 A 
ATOM     37  C   UNL A   1      38.523  30.582  31.128  1.00  0.00     0.049 A 
ATOM     38  N   UNL A   1      40.504  28.631  29.984  1.00  0.00    -0.248 NA
ATOM     39  C   UNL A   1      39.285  28.647  27.992  1.00  0.00     0.031 C 
ATOM     40  C   UNL A   1      37.608  31.548  31.731  1.00  0.00     0.029 A 
ATOM     41  N   UNL A   1      39.472  30.363  32.096  1.00  0.00    -0.354 N 
ATOM     42  C   UNL A   1      41.130  27.808  29.058  1.00  0.00     0.074 A 
ATOM     43  C   UNL A   1      40.322  27.832  27.856  1.00  0.00     0.031 C 
ATOM     44  C   UNL A   1      38.035  31.833  32.974  1.00  0.00     0.029 A 
ATOM     45  C   UNL A   1      39.234  31.048  33.263  1.00  0.00     0.049 A 
ATOM     46  H   UNL A   1      40.247  29.772  31.967  1.00  0.00     0.167 HD
ATOM     47  C   UNL A   1      42.278  27.100  29.191  1.00  0.00     0.037 A 
ATOM     48  C   UNL A   1      39.898  31.028  34.436  1.00  0.00     0.037 A 
ATOM     49  C   UNL A   1      43.090  27.074  30.379  1.00  0.00     0.049 A 
ATOM     50  C   UNL A   1      41.129  30.172  34.585  1.00  0.00     0.074 A 
ATOM     51  C   UNL A   1      44.282  26.402  30.595  1.00  0.00     0.029 A 
ATOM     52  N   UNL A   1      42.791  27.745  31.554  1.00  0.00    -0.354 N 
ATOM     53  N   UNL A   1      41.722  29.412  33.697  1.00  0.00    -0.248 NA
ATOM     54  C   UNL A   1      41.781  30.169  35.904  1.00  0.00     0.031 C 
ATOM     55  C   UNL A   1      44.679  26.631  31.917  1.00  0.00     0.029 A 
ATOM     56  C   UNL A   1      43.760  27.482  32.509  1.00  0.00     0.049 A 
ATOM     57  H   UNL A   1      42.007  28.325  31.691  1.00  0.00     0.167 HD
ATOM     58  C   UNL A   1      42.827  28.866  34.337  1.00  0.00     0.074 A 
ATOM     59  C   UNL A   1      42.828  29.385  35.689  1.00  0.00     0.031 C 
ATOM     60  C   UNL A   1      43.758  28.010  33.848  1.00  0.00     0.037 A 
BRANCH  47  61
ATOM     61  C   UNL A   1      42.721  26.272  28.022  1.00  0.00     0.064 A 
ATOM     62  C   UNL A   1      42.271  24.956  27.842  1.00  0.00     0.173 A 
ATOM     63  C   UNL A   1      43.567  26.820  27.047  1.00  0.00     0.173 A 
ATOM     64  F   UNL A   1      41.469  24.386  28.753  1.00  0.00    -0.203 F 
ATOM     65  C   UNL A   1      42.669  24.211  26.735  1.00  0.00     0.198 A 
ATOM     66  C   UNL A   1      43.945  26.079  25.930  1.00  0.00     0.198 A 
ATOM     67  F   UNL A   1      44.019  28.076  27.172  1.00  0.00    -0.203 F 
ATOM     68  F   UNL A   1      42.257  22.943  26.599  1.00  0.00    -0.200 F 
ATOM     69  C   UNL A   1      43.499  24.775  25.777  1.00  0.00     0.200 A 
ATOM     70  F   UNL A   1      44.737  26.629  25.000  1.00  0.00    -0.200 F 
ATOM     71  F   UNL A   1      43.876  24.058  24.709  1.00  0.00    -0.200 F 
ENDBRANCH  47  61
BRANCH  48  72
ATOM     72  C   UNL A   1      39.402  31.835  35.580  1.00  0.00     0.064 A 
ATOM     73  C   UNL A   1      39.881  33.131  35.815  1.00  0.00     0.173 A 
ATOM     74  C   UNL A   1      38.455  31.316  36.474  1.00  0.00     0.173 A 
ATOM     75  F   UNL A   1      40.808  33.659  35.003  1.00  0.00    -0.203 F 
ATOM     76  C   UNL A   1      39.442  33.872  36.911  1.00  0.00     0.198 A 
ATOM     77  C   UNL A   1      37.999  32.067  37.555  1.00  0.00     0.198 A 
ATOM     78  F   UNL A   1      37.970  30.078  36.295  1.00  0.00    -0.203 F 
ATOM     79  F   UNL A   1      39.948  35.092  37.137  1.00  0.00    -0.200 F 
ATOM     80  C   UNL A   1      38.497  33.341  37.776  1.00  0.00     0.200 A 
ATOM     81  F   UNL A   1      37.078  31.553  38.383  1.00  0.00    -0.200 F 
ATOM     82  F   UNL A   1      38.074  34.055  38.829  1.00  0.00    -0.200 F 
ENDBRANCH  48  72
BRANCH  60  83
ATOM     83  C   UNL A   1      44.875  27.602  34.762  1.00  0.00     0.064 A 
ATOM     84  C   UNL A   1      44.804  26.433  35.534  1.00  0.00     0.173 A 
ATOM     85  C   UNL A   1      46.052  28.364  34.831  1.00  0.00     0.173 A 
ATOM     86  F   UNL A   1      43.694  25.679  35.514  1.00  0.00    -0.203 F 
ATOM     87  C   UNL A   1      45.863  26.051  36.353  1.00  0.00     0.198 A 
ATOM     88  C   UNL A   1      47.119  27.965  35.631  1.00  0.00     0.198 A 
ATOM     89  F   UNL A   1      46.172  29.487  34.109  1.00  0.00    -0.203 F 
ATOM     90  F   UNL A   1      45.759  24.949  37.109  1.00  0.00    -0.200 F 
ATOM     91  C   UNL A   1      47.022  26.812  36.395  1.00  0.00     0.200 A 
ATOM     92  F   UNL A   1      48.242  28.695  35.662  1.00  0.00    -0.200 F 
ATOM     93  F   UNL A   1      48.044  26.437  37.177  1.00  0.00    -0.200 F 
ENDBRANCH  60  83
ENDBRANCH  34  35
ENDBRANCH  27  29
ENDBRANCH  26  27
ENDBRANCH  25  26
ENDBRANCH  24  25
ENDBRANCH  23  24
ENDBRANCH   1  23
TORSDOF 18
ENDMDL
MODEL 3
REMARK VINA RESULT:     -11.0      1.379      2.545
REMARK SMILES C[C@@H](CC(=O)OCCOCCOC(=O)c1ccc(-c2c3nc(c(-c4c(F)c(F)c(F)c(F)c4F)c4ccc([nH]4)c(-c4c(F)c(F)c(F)c(F)c4F)c4nc(c(-c5c(F)c(F)c(F)c(F)c5F)c5ccc2[nH]5)C=C4)C=C3)cc1)NC(=O)/C=C/c1cc(Cl)cc(Cl)c1
REMARK SMILES IDX 8 1 7 2 6 3 4 4 5 5 3 6 2 7 1 8 78 9 79 10 80 12 81 13 82 14
REMARK SMILES IDX 83 15 84 16 90 17 85 18 88 19 86 20 87 21 89 22 9 23 10 24
REMARK SMILES IDX 11 25 12 26 13 27 14 28 15 29 16 30 77 31 17 32 76 33 18 34
REMARK SMILES IDX 19 35 20 36 70 37 21 38 75 39 69 40 71 41 22 42 74 43 68 44
REMARK SMILES IDX 67 45 23 47 55 48 35 49 54 50 36 51 39 52 53 53 72 54 37 55
REMARK SMILES IDX 38 56 52 58 73 59 40 60 24 61 25 62 33 63 26 64 27 65 31 66
REMARK SMILES IDX 34 67 28 68 29 69 32 70 30 71 56 72 57 73 65 74 58 75 59 76
REMARK SMILES IDX 63 77 66 78 60 79 61 80 64 81 62 82 41 83 42 84 50 85 43 86
REMARK SMILES IDX 44 87 48 88 51 89 45 90 46 91 49 92 47 93
REMARK H PARENT 78 11 71 46 39 57
REMARK Flexibility Score: inf
ROOT
ATOM      1  C   UNL A   1      33.186  27.440  26.466  1.00  0.00     0.202 C 
ENDROOT
BRANCH   1   2
ATOM      2  C   UNL A   1      32.655  26.091  25.977  1.00  0.00     0.261 C 
BRANCH   2   3
ATOM      3  O   UNL A   1      31.724  25.521  26.918  1.00  0.00    -0.463 OA
BRANCH   3   4
ATOM      4  C   UNL A   1      31.491  24.194  26.784  1.00  0.00     0.307 C 
ATOM      5  O   UNL A   1      30.518  23.610  27.251  1.00  0.00    -0.252 OA
BRANCH   4   6
ATOM      6  C   UNL A   1      32.545  23.441  26.006  1.00  0.00     0.147 C 
BRANCH   6   7
ATOM      7  C   UNL A   1      32.178  22.426  24.915  1.00  0.00     0.090 C 
ATOM      8  C   UNL A   1      32.743  21.022  25.111  1.00  0.00     0.031 C 
BRANCH   7   9
ATOM      9  N   UNL A   1      32.484  22.926  23.577  1.00  0.00    -0.350 N 
ATOM     10  C   UNL A   1      33.657  23.302  22.997  1.00  0.00     0.244 C 
ATOM     11  H   UNL A   1      31.700  23.004  22.986  1.00  0.00     0.164 HD
ATOM     12  O   UNL A   1      33.657  23.691  21.832  1.00  0.00    -0.270 OA
BRANCH  10  13
ATOM     13  C   UNL A   1      34.905  23.386  23.792  1.00  0.00     0.072 C 
ATOM     14  C   UNL A   1      35.816  22.407  23.907  1.00  0.00     0.014 C 
BRANCH  14  15
ATOM     15  C   UNL A   1      37.013  22.433  24.772  1.00  0.00    -0.023 A 
ATOM     16  C   UNL A   1      37.791  21.268  24.863  1.00  0.00     0.028 A 
ATOM     17  C   UNL A   1      37.385  23.538  25.552  1.00  0.00     0.028 A 
ATOM     18  C   UNL A   1      38.893  21.209  25.723  1.00  0.00     0.043 A 
ATOM     19  C   UNL A   1      38.490  23.468  26.406  1.00  0.00     0.043 A 
ATOM     20  Cl  UNL A   1      39.808  19.756  25.834  1.00  0.00    -0.084 Cl
ATOM     21  C   UNL A   1      39.246  22.305  26.501  1.00  0.00     0.041 A 
ATOM     22  Cl  UNL A   1      38.906  24.832  27.369  1.00  0.00    -0.084 Cl
ENDBRANCH  14  15
ENDBRANCH  10  13
ENDBRANCH   7   9
ENDBRANCH   6   7
ENDBRANCH   4   6
ENDBRANCH   3   4
ENDBRANCH   2   3
ENDBRANCH   1   2
BRANCH   1  23
ATOM     23  O   UNL A   1      32.431  28.573  26.042  1.00  0.00    -0.374 OA
BRANCH  23  24
ATOM     24  C   UNL A   1      31.742  29.320  27.048  1.00  0.00     0.202 C 
BRANCH  24  25
ATOM     25  C   UNL A   1      31.795  30.842  26.869  1.00  0.00     0.261 C 
BRANCH  25  26
ATOM     26  O   UNL A   1      33.126  31.283  26.519  1.00  0.00    -0.460 OA
BRANCH  26  27
ATOM     27  C   UNL A   1      33.697  32.103  27.435  1.00  0.00     0.338 C 
ATOM     28  O   UNL A   1      33.180  33.052  28.007  1.00  0.00    -0.246 OA
BRANCH  27  29
ATOM     29  C   UNL A   1      35.031  31.610  27.820  1.00  0.00     0.060 A 
ATOM     30  C   UNL A   1      35.180  30.231  28.018  1.00  0.00     0.016 A 
ATOM     31  C   UNL A   1      36.073  32.485  28.129  1.00  0.00     0.016 A 
ATOM     32  C   UNL A   1      36.358  29.726  28.569  1.00  0.00     0.010 A 
ATOM     33  C   UNL A   1      37.253  31.976  28.689  1.00  0.00     0.010 A 
ATOM     34  C   UNL A   1      37.388  30.599  28.946  1.00  0.00    -0.014 A 
BRANCH  34  35
ATOM     35  C   UNL A   1      38.533  30.078  29.737  1.00  0.00     0.031 A 
ATOM     36  C   UNL A   1      38.723  30.544  31.156  1.00  0.00     0.074 A 
ATOM     37  C   UNL A   1      39.377  29.166  29.219  1.00  0.00     0.049 A 
ATOM     38  N   UNL A   1      39.660  30.232  32.016  1.00  0.00    -0.248 NA
ATOM     39  C   UNL A   1      37.718  31.483  31.677  1.00  0.00     0.031 C 
ATOM     40  C   UNL A   1      39.280  28.594  27.879  1.00  0.00     0.029 A 
ATOM     41  N   UNL A   1      40.483  28.564  29.766  1.00  0.00    -0.354 N 
ATOM     42  C   UNL A   1      39.360  30.935  33.175  1.00  0.00     0.074 A 
ATOM     43  C   UNL A   1      38.168  31.711  32.903  1.00  0.00     0.031 C 
ATOM     44  C   UNL A   1      40.293  27.730  27.702  1.00  0.00     0.029 A 
ATOM     45  C   UNL A   1      41.125  27.709  28.903  1.00  0.00     0.049 A 
ATOM     46  H   UNL A   1      40.787  28.729  30.686  1.00  0.00     0.167 HD
ATOM     47  C   UNL A   1      40.011  30.930  34.363  1.00  0.00     0.037 A 
ATOM     48  C   UNL A   1      42.265  27.006  29.061  1.00  0.00     0.037 A 
ATOM     49  C   UNL A   1      41.193  30.157  34.645  1.00  0.00     0.049 A 
ATOM     50  C   UNL A   1      43.014  27.078  30.365  1.00  0.00     0.074 A 
ATOM     51  C   UNL A   1      41.907  30.074  35.829  1.00  0.00     0.029 A 
ATOM     52  N   UNL A   1      41.837  29.339  33.732  1.00  0.00    -0.354 N 
ATOM     53  N   UNL A   1      42.712  27.730  31.460  1.00  0.00    -0.248 NA
ATOM     54  C   UNL A   1      44.270  26.315  30.453  1.00  0.00     0.031 C 
ATOM     55  C   UNL A   1      43.010  29.240  35.617  1.00  0.00     0.029 A 
ATOM     56  C   UNL A   1      42.957  28.769  34.316  1.00  0.00     0.049 A 
ATOM     57  H   UNL A   1      41.543  29.185  32.805  1.00  0.00     0.167 HD
ATOM     58  C   UNL A   1      43.717  27.437  32.372  1.00  0.00     0.074 A 
ATOM     59  C   UNL A   1      44.639  26.541  31.706  1.00  0.00     0.031 C 
ATOM     60  C   UNL A   1      43.864  27.872  33.648  1.00  0.00     0.037 A 
BRANCH  47  61
ATOM     61  C   UNL A   1      39.471  31.807  35.453  1.00  0.00     0.064 A 
ATOM     62  C   UNL A   1      38.538  31.329  36.385  1.00  0.00     0.173 A 
ATOM     63  C   UNL A   1      39.928  33.125  35.593  1.00  0.00     0.173 A 
ATOM     64  F   UNL A   1      38.064  30.078  36.286  1.00  0.00    -0.203 F 
ATOM     65  C   UNL A   1      38.068  32.148  37.409  1.00  0.00     0.198 A 
ATOM     66  C   UNL A   1      39.472  33.934  36.631  1.00  0.00     0.198 A 
ATOM     67  F   UNL A   1      40.824  33.625  34.730  1.00  0.00    -0.203 F 
ATOM     68  F   UNL A   1      37.151  31.684  38.269  1.00  0.00    -0.200 F 
ATOM     69  C   UNL A   1      38.541  33.446  37.535  1.00  0.00     0.200 A 
ATOM     70  F   UNL A   1      39.939  35.183  36.758  1.00  0.00    -0.200 F 
ATOM     71  F   UNL A   1      38.092  34.231  38.525  1.00  0.00    -0.200 F 
ENDBRANCH  47  61
BRANCH  48  72
ATOM     72  C   UNL A   1      42.784  26.179  27.941  1.00  0.00     0.064 A 
ATOM     73  C   UNL A   1      42.459  24.821  27.831  1.00  0.00     0.173 A 
ATOM     74  C   UNL A   1      43.634  26.729  26.970  1.00  0.00     0.173 A 
ATOM     75  F   UNL A   1      41.671  24.245  28.751  1.00  0.00    -0.203 F 
ATOM     76  C   UNL A   1      42.977  24.038  26.801  1.00  0.00     0.198 A 
ATOM     77  C   UNL A   1      44.131  25.952  25.927  1.00  0.00     0.198 A 
ATOM     78  F   UNL A   1      43.978  28.024  27.034  1.00  0.00    -0.203 F 
ATOM     79  F   UNL A   1      42.686  22.732  26.743  1.00  0.00    -0.200 F 
ATOM     80  C   UNL A   1      43.809  24.607  25.846  1.00  0.00     0.200 A 
ATOM     81  F   UNL A   1      44.927  26.508  25.002  1.00  0.00    -0.200 F 
ATOM     82  F   UNL A   1      44.305  23.854  24.855  1.00  0.00    -0.200 F 
ENDBRANCH  48  72
BRANCH  60  83
ATOM     83  C   UNL A   1      45.043  27.364  34.423  1.00  0.00     0.064 A 
ATOM     84  C   UNL A   1      44.988  26.158  35.138  1.00  0.00     0.173 A 
ATOM     85  C   UNL A   1      46.258  28.066  34.412  1.00  0.00     0.173 A 
ATOM     86  F   UNL A   1      43.844  25.458  35.191  1.00  0.00    -0.203 F 
ATOM     87  C   UNL A   1      46.101  25.683  35.826  1.00  0.00     0.198 A 
ATOM     88  C   UNL A   1      47.376  27.575  35.080  1.00  0.00     0.198 A 
ATOM     89  F   UNL A   1      46.365  29.221  33.739  1.00  0.00    -0.203 F 
ATOM     90  F   UNL A   1      46.015  24.547  36.532  1.00  0.00    -0.200 F 
ATOM     91  C   UNL A   1      47.296  26.387  35.790  1.00  0.00     0.200 A 
ATOM     92  F   UNL A   1      48.532  28.251  35.036  1.00  0.00    -0.200 F 
ATOM     93  F   UNL A   1      48.369  25.923  36.447  1.00  0.00    -0.200 F 
ENDBRANCH  60  83
ENDBRANCH  34  35
ENDBRANCH  27  29
ENDBRANCH  26  27
ENDBRANCH  25  26
ENDBRANCH  24  25
ENDBRANCH  23  24
ENDBRANCH   1  23
TORSDOF 18
ENDMDL
