MODEL 1
REMARK VINA RESULT:      -9.8      0.000      0.000
REMARK SMILES CC(=O)Oc1ccccc1SCCCCCC(=O)OCCOCCOC(=O)c1ccc(-c2c3nc(c(-c4c(F)c(F)c(F)c(F)c4F)c4ccc([nH]4)c(-c4c(F)c(F)c(F)c(F)c4F)c4nc(c(-c5c(F)c(F)c(F)c(F)c5F)c5ccc2[nH]5)C=C4)C=C3)cc1
REMARK SMILES IDX 19 1 17 2 18 3 16 4 15 5 14 6 13 7 12 8 11 9 10 10 5 11 6 12
REMARK SMILES IDX 7 13 9 14 8 15 4 16 2 17 1 18 3 19 20 20 21 21 22 22 23 23
REMARK SMILES IDX 24 24 25 25 26 26 27 27 28 28 29 29 90 30 30 31 89 32 31 33
REMARK SMILES IDX 32 34 33 35 83 36 34 37 88 38 82 39 84 40 35 41 87 42 81 43
REMARK SMILES IDX 80 44 36 46 68 47 48 48 67 49 49 50 52 51 66 52 85 53 50 54
REMARK SMILES IDX 51 55 65 57 86 58 53 59 37 60 38 61 46 62 39 63 40 64 44 65
REMARK SMILES IDX 47 66 41 67 42 68 45 69 43 70 69 71 70 72 78 73 71 74 72 75
REMARK SMILES IDX 76 76 79 77 73 78 74 79 77 80 75 81 54 82 55 83 63 84 56 85
REMARK SMILES IDX 57 86 61 87 64 88 58 89 59 90 62 91 60 92
REMARK H PARENT 84 45 52 56
REMARK Flexibility Score: inf
ROOT
ATOM      1  O   UNL A   1      33.754  18.498  23.683  1.00  0.00    -0.463 OA
ENDROOT
BRANCH   1   2
ATOM      2  C   UNL A   1      32.679  18.946  24.373  1.00  0.00     0.305 C 
ATOM      3  O   UNL A   1      32.003  18.280  25.144  1.00  0.00    -0.252 OA
BRANCH   2   4
ATOM      4  C   UNL A   1      32.479  20.426  24.117  1.00  0.00     0.123 C 
BRANCH   4   5
ATOM      5  C   UNL A   1      31.687  21.108  25.251  1.00  0.00     0.012 C 
BRANCH   5   6
ATOM      6  C   UNL A   1      31.619  22.642  25.387  1.00  0.00     0.001 C 
BRANCH   6   7
ATOM      7  C   UNL A   1      32.424  23.499  26.374  1.00  0.00     0.011 C 
BRANCH   7   8
ATOM      8  C   UNL A   1      33.815  24.134  26.153  1.00  0.00     0.075 C 
BRANCH   8   9
ATOM      9  S   UNL A   1      34.190  25.720  25.292  1.00  0.00    -0.122 SA
BRANCH   9  10
ATOM     10  C   UNL A   1      32.697  26.324  24.533  1.00  0.00     0.050 A 
ATOM     11  C   UNL A   1      32.383  26.413  23.169  1.00  0.00     0.144 A 
ATOM     12  C   UNL A   1      31.084  26.760  22.755  1.00  0.00     0.048 A 
ATOM     13  C   UNL A   1      30.124  27.132  23.699  1.00  0.00     0.004 A 
ATOM     14  C   UNL A   1      31.759  26.845  25.443  1.00  0.00     0.019 A 
ATOM     15  C   UNL A   1      30.484  27.244  25.036  1.00  0.00     0.001 A 
BRANCH  11  16
ATOM     16  O   UNL A   1      33.374  26.300  22.174  1.00  0.00    -0.426 OA
BRANCH  16  17
ATOM     17  C   UNL A   1      33.120  25.228  21.370  1.00  0.00     0.308 C 
ATOM     18  C   UNL A   1      32.968  23.929  22.070  1.00  0.00     0.139 C 
ATOM     19  O   UNL A   1      32.994  25.283  20.158  1.00  0.00    -0.252 OA
ENDBRANCH  16  17
ENDBRANCH  11  16
ENDBRANCH   9  10
ENDBRANCH   8   9
ENDBRANCH   7   8
ENDBRANCH   6   7
ENDBRANCH   5   6
ENDBRANCH   4   5
ENDBRANCH   2   4
ENDBRANCH   1   2
BRANCH   1  20
ATOM     20  C   UNL A   1      34.677  17.665  24.406  1.00  0.00     0.261 C 
BRANCH  20  21
ATOM     21  C   UNL A   1      35.957  18.467  24.669  1.00  0.00     0.202 C 
BRANCH  21  22
ATOM     22  O   UNL A   1      35.781  19.845  25.000  1.00  0.00    -0.374 OA
BRANCH  22  23
ATOM     23  C   UNL A   1      36.940  20.674  25.064  1.00  0.00     0.202 C 
BRANCH  23  24
ATOM     24  C   UNL A   1      38.284  19.977  25.380  1.00  0.00     0.261 C 
BRANCH  24  25
ATOM     25  O   UNL A   1      39.411  20.875  25.454  1.00  0.00    -0.460 OA
BRANCH  25  26
ATOM     26  C   UNL A   1      40.181  20.732  26.558  1.00  0.00     0.338 C 
ATOM     27  O   UNL A   1      40.715  19.711  26.957  1.00  0.00    -0.246 OA
BRANCH  26  28
ATOM     28  C   UNL A   1      40.474  22.048  27.165  1.00  0.00     0.060 A 
ATOM     29  C   UNL A   1      39.808  23.156  26.624  1.00  0.00     0.016 A 
ATOM     30  C   UNL A   1      41.449  22.225  28.148  1.00  0.00     0.016 A 
ATOM     31  C   UNL A   1      40.157  24.446  27.014  1.00  0.00     0.010 A 
ATOM     32  C   UNL A   1      41.806  23.527  28.533  1.00  0.00     0.010 A 
ATOM     33  C   UNL A   1      41.193  24.645  27.935  1.00  0.00    -0.014 A 
BRANCH  33  34
ATOM     34  C   UNL A   1      41.726  26.020  28.129  1.00  0.00     0.031 A 
ATOM     35  C   UNL A   1      43.080  26.367  27.567  1.00  0.00     0.074 A 
ATOM     36  C   UNL A   1      40.985  26.973  28.722  1.00  0.00     0.049 A 
ATOM     37  N   UNL A   1      43.735  27.501  27.610  1.00  0.00    -0.248 NA
ATOM     38  C   UNL A   1      43.789  25.293  26.852  1.00  0.00     0.031 C 
ATOM     39  C   UNL A   1      39.638  26.783  29.256  1.00  0.00     0.029 A 
ATOM     40  N   UNL A   1      41.262  28.295  28.970  1.00  0.00    -0.354 N 
ATOM     41  C   UNL A   1      44.929  27.275  26.935  1.00  0.00     0.074 A 
ATOM     42  C   UNL A   1      44.925  25.889  26.521  1.00  0.00     0.031 C 
ATOM     43  C   UNL A   1      39.207  27.947  29.775  1.00  0.00     0.029 A 
ATOM     44  C   UNL A   1      40.260  28.953  29.641  1.00  0.00     0.049 A 
ATOM     45  H   UNL A   1      42.099  28.732  28.692  1.00  0.00     0.167 HD
ATOM     46  C   UNL A   1      45.933  28.147  26.675  1.00  0.00     0.037 A 
ATOM     47  C   UNL A   1      40.208  30.214  30.114  1.00  0.00     0.037 A 
ATOM     48  C   UNL A   1      45.935  29.528  27.081  1.00  0.00     0.049 A 
ATOM     49  C   UNL A   1      41.376  31.139  29.883  1.00  0.00     0.074 A 
ATOM     50  C   UNL A   1      46.905  30.492  26.855  1.00  0.00     0.029 A 
ATOM     51  N   UNL A   1      44.922  30.143  27.800  1.00  0.00    -0.354 N 
ATOM     52  N   UNL A   1      42.493  30.922  29.231  1.00  0.00    -0.248 NA
ATOM     53  C   UNL A   1      41.274  32.491  30.454  1.00  0.00     0.031 C 
ATOM     54  C   UNL A   1      46.503  31.673  27.487  1.00  0.00     0.029 A 
ATOM     55  C   UNL A   1      45.255  31.465  28.051  1.00  0.00     0.049 A 
ATOM     56  H   UNL A   1      44.089  29.705  28.090  1.00  0.00     0.167 HD
ATOM     57  C   UNL A   1      43.207  32.113  29.283  1.00  0.00     0.074 A 
ATOM     58  C   UNL A   1      42.391  33.056  30.017  1.00  0.00     0.031 C 
ATOM     59  C   UNL A   1      44.427  32.400  28.769  1.00  0.00     0.037 A 
BRANCH  46  60
ATOM     60  C   UNL A   1      47.130  27.631  25.930  1.00  0.00     0.064 A 
ATOM     61  C   UNL A   1      47.210  27.687  24.530  1.00  0.00     0.173 A 
ATOM     62  C   UNL A   1      48.239  27.129  26.630  1.00  0.00     0.173 A 
ATOM     63  F   UNL A   1      46.174  28.148  23.813  1.00  0.00    -0.203 F 
ATOM     64  C   UNL A   1      48.346  27.241  23.859  1.00  0.00     0.198 A 
ATOM     65  C   UNL A   1      49.384  26.713  25.958  1.00  0.00     0.198 A 
ATOM     66  F   UNL A   1      48.218  27.061  27.970  1.00  0.00    -0.203 F 
ATOM     67  F   UNL A   1      48.385  27.268  22.519  1.00  0.00    -0.200 F 
ATOM     68  C   UNL A   1      49.435  26.764  24.573  1.00  0.00     0.200 A 
ATOM     69  F   UNL A   1      50.441  26.267  26.651  1.00  0.00    -0.200 F 
ATOM     70  F   UNL A   1      50.533  26.349  23.927  1.00  0.00    -0.200 F 
ENDBRANCH  46  60
BRANCH  47  71
ATOM     71  C   UNL A   1      39.019  30.679  30.878  1.00  0.00     0.064 A 
ATOM     72  C   UNL A   1      38.959  30.561  32.274  1.00  0.00     0.173 A 
ATOM     73  C   UNL A   1      37.897  31.208  30.223  1.00  0.00     0.173 A 
ATOM     74  F   UNL A   1      39.993  30.035  32.947  1.00  0.00    -0.203 F 
ATOM     75  C   UNL A   1      37.814  30.927  32.980  1.00  0.00     0.198 A 
ATOM     76  C   UNL A   1      36.766  31.605  30.932  1.00  0.00     0.198 A 
ATOM     77  F   UNL A   1      37.899  31.339  28.887  1.00  0.00    -0.203 F 
ATOM     78  F   UNL A   1      37.760  30.744  34.307  1.00  0.00    -0.200 F 
ATOM     79  C   UNL A   1      36.721  31.453  32.309  1.00  0.00     0.200 A 
ATOM     80  F   UNL A   1      35.717  32.125  30.280  1.00  0.00    -0.200 F 
ATOM     81  F   UNL A   1      35.618  31.801  32.986  1.00  0.00    -0.200 F 
ENDBRANCH  47  71
BRANCH  59  82
ATOM     82  C   UNL A   1      44.940  33.802  28.938  1.00  0.00     0.064 A 
ATOM     83  C   UNL A   1      45.765  34.165  30.014  1.00  0.00     0.173 A 
ATOM     84  C   UNL A   1      44.637  34.787  27.985  1.00  0.00     0.173 A 
ATOM     85  F   UNL A   1      46.075  33.265  30.960  1.00  0.00    -0.203 F 
ATOM     86  C   UNL A   1      46.239  35.468  30.146  1.00  0.00     0.198 A 
ATOM     87  C   UNL A   1      45.141  36.080  28.101  1.00  0.00     0.198 A 
ATOM     88  F   UNL A   1      43.861  34.493  26.931  1.00  0.00    -0.203 F 
ATOM     89  F   UNL A   1      46.981  35.804  31.210  1.00  0.00    -0.200 F 
ATOM     90  C   UNL A   1      45.934  36.422  29.186  1.00  0.00     0.200 A 
ATOM     91  F   UNL A   1      44.858  36.996  27.164  1.00  0.00    -0.200 F 
ATOM     92  F   UNL A   1      46.399  37.672  29.311  1.00  0.00    -0.200 F 
ENDBRANCH  59  82
ENDBRANCH  33  34
ENDBRANCH  26  28
ENDBRANCH  25  26
ENDBRANCH  24  25
ENDBRANCH  23  24
ENDBRANCH  22  23
ENDBRANCH  21  22
ENDBRANCH  20  21
ENDBRANCH   1  20
TORSDOF 22
ENDMDL
MODEL 2
REMARK VINA RESULT:      -9.8      4.282      7.333
REMARK SMILES CC(=O)Oc1ccccc1SCCCCCC(=O)OCCOCCOC(=O)c1ccc(-c2c3nc(c(-c4c(F)c(F)c(F)c(F)c4F)c4ccc([nH]4)c(-c4c(F)c(F)c(F)c(F)c4F)c4nc(c(-c5c(F)c(F)c(F)c(F)c5F)c5ccc2[nH]5)C=C4)C=C3)cc1
REMARK SMILES IDX 19 1 17 2 18 3 16 4 15 5 14 6 13 7 12 8 11 9 10 10 5 11 6 12
REMARK SMILES IDX 7 13 9 14 8 15 4 16 2 17 1 18 3 19 20 20 21 21 22 22 23 23
REMARK SMILES IDX 24 24 25 25 26 26 27 27 28 28 29 29 90 30 30 31 89 32 31 33
REMARK SMILES IDX 32 34 33 35 83 36 34 37 88 38 82 39 84 40 35 41 87 42 81 43
REMARK SMILES IDX 80 44 36 46 68 47 48 48 67 49 49 50 52 51 66 52 85 53 50 54
REMARK SMILES IDX 51 55 65 57 86 58 53 59 37 60 38 61 46 62 39 63 40 64 44 65
REMARK SMILES IDX 47 66 41 67 42 68 45 69 43 70 69 71 70 72 78 73 71 74 72 75
REMARK SMILES IDX 76 76 79 77 73 78 74 79 77 80 75 81 54 82 55 83 63 84 56 85
REMARK SMILES IDX 57 86 61 87 64 88 58 89 59 90 62 91 60 92
REMARK H PARENT 84 45 52 56
REMARK Flexibility Score: inf
ROOT
ATOM      1  O   UNL A   1      35.324  24.916  25.444  1.00  0.00    -0.463 OA
ENDROOT
BRANCH   1   2
ATOM      2  C   UNL A   1      35.589  23.789  24.742  1.00  0.00     0.305 C 
ATOM      3  O   UNL A   1      35.290  23.595  23.573  1.00  0.00    -0.252 OA
BRANCH   2   4
ATOM      4  C   UNL A   1      36.390  22.825  25.593  1.00  0.00     0.123 C 
BRANCH   4   5
ATOM      5  C   UNL A   1      35.732  21.432  25.665  1.00  0.00     0.012 C 
BRANCH   5   6
ATOM      6  C   UNL A   1      36.355  20.200  24.978  1.00  0.00     0.001 C 
BRANCH   6   7
ATOM      7  C   UNL A   1      35.621  18.904  24.607  1.00  0.00     0.011 C 
BRANCH   7   8
ATOM      8  C   UNL A   1      34.095  18.669  24.551  1.00  0.00     0.075 C 
BRANCH   8   9
ATOM      9  S   UNL A   1      32.795  19.567  25.501  1.00  0.00    -0.122 SA
BRANCH   9  10
ATOM     10  C   UNL A   1      32.301  21.004  24.573  1.00  0.00     0.050 A 
ATOM     11  C   UNL A   1      31.594  22.131  25.016  1.00  0.00     0.144 A 
ATOM     12  C   UNL A   1      31.438  23.252  24.180  1.00  0.00     0.048 A 
ATOM     13  C   UNL A   1      31.888  23.209  22.859  1.00  0.00     0.004 A 
ATOM     14  C   UNL A   1      32.607  20.936  23.201  1.00  0.00     0.019 A 
ATOM     15  C   UNL A   1      32.407  22.025  22.350  1.00  0.00     0.001 A 
BRANCH  11  16
ATOM     16  O   UNL A   1      30.900  22.133  26.242  1.00  0.00    -0.426 OA
BRANCH  16  17
ATOM     17  C   UNL A   1      31.461  23.028  27.105  1.00  0.00     0.308 C 
ATOM     18  C   UNL A   1      32.727  22.591  27.740  1.00  0.00     0.139 C 
ATOM     19  O   UNL A   1      31.006  24.132  27.354  1.00  0.00    -0.252 OA
ENDBRANCH  16  17
ENDBRANCH  11  16
ENDBRANCH   9  10
ENDBRANCH   8   9
ENDBRANCH   7   8
ENDBRANCH   6   7
ENDBRANCH   5   6
ENDBRANCH   4   5
ENDBRANCH   2   4
ENDBRANCH   1   2
BRANCH   1  20
ATOM     20  C   UNL A   1      33.937  25.224  25.660  1.00  0.00     0.261 C 
BRANCH  20  21
ATOM     21  C   UNL A   1      33.606  26.531  24.929  1.00  0.00     0.202 C 
BRANCH  21  22
ATOM     22  O   UNL A   1      33.151  27.611  25.745  1.00  0.00    -0.374 OA
BRANCH  22  23
ATOM     23  C   UNL A   1      32.143  28.472  25.218  1.00  0.00     0.202 C 
BRANCH  23  24
ATOM     24  C   UNL A   1      32.293  29.985  25.502  1.00  0.00     0.261 C 
BRANCH  24  25
ATOM     25  O   UNL A   1      32.360  30.318  26.903  1.00  0.00    -0.460 OA
BRANCH  25  26
ATOM     26  C   UNL A   1      33.027  31.461  27.186  1.00  0.00     0.338 C 
ATOM     27  O   UNL A   1      32.569  32.591  27.229  1.00  0.00    -0.246 OA
BRANCH  26  28
ATOM     28  C   UNL A   1      34.404  31.166  27.637  1.00  0.00     0.060 A 
ATOM     29  C   UNL A   1      34.707  29.825  27.906  1.00  0.00     0.016 A 
ATOM     30  C   UNL A   1      35.341  32.166  27.905  1.00  0.00     0.016 A 
ATOM     31  C   UNL A   1      35.917  29.483  28.503  1.00  0.00     0.010 A 
ATOM     32  C   UNL A   1      36.557  31.820  28.515  1.00  0.00     0.010 A 
ATOM     33  C   UNL A   1      36.832  30.481  28.858  1.00  0.00    -0.014 A 
BRANCH  33  34
ATOM     34  C   UNL A   1      37.983  30.124  29.729  1.00  0.00     0.031 A 
ATOM     35  C   UNL A   1      39.042  29.192  29.198  1.00  0.00     0.074 A 
ATOM     36  C   UNL A   1      38.133  30.683  30.943  1.00  0.00     0.049 A 
ATOM     37  N   UNL A   1      40.132  28.752  29.777  1.00  0.00    -0.248 NA
ATOM     38  C   UNL A   1      38.851  28.695  27.826  1.00  0.00     0.031 C 
ATOM     39  C   UNL A   1      37.213  31.642  31.549  1.00  0.00     0.029 A 
ATOM     40  N   UNL A   1      39.122  30.525  31.883  1.00  0.00    -0.354 N 
ATOM     41  C   UNL A   1      40.750  27.928  28.844  1.00  0.00     0.074 A 
ATOM     42  C   UNL A   1      39.900  27.901  27.674  1.00  0.00     0.031 C 
ATOM     43  C   UNL A   1      37.677  31.984  32.764  1.00  0.00     0.029 A 
ATOM     44  C   UNL A   1      38.908  31.242  33.035  1.00  0.00     0.049 A 
ATOM     45  H   UNL A   1      39.911  29.952  31.745  1.00  0.00     0.167 HD
ATOM     46  C   UNL A   1      41.926  27.263  28.950  1.00  0.00     0.037 A 
ATOM     47  C   UNL A   1      39.611  31.277  34.184  1.00  0.00     0.037 A 
ATOM     48  C   UNL A   1      42.776  27.294  30.111  1.00  0.00     0.049 A 
ATOM     49  C   UNL A   1      40.873  30.459  34.305  1.00  0.00     0.074 A 
ATOM     50  C   UNL A   1      43.992  26.659  30.308  1.00  0.00     0.029 A 
ATOM     51  N   UNL A   1      42.500  27.995  31.275  1.00  0.00    -0.354 N 
ATOM     52  N   UNL A   1      41.457  29.696  33.413  1.00  0.00    -0.248 NA
ATOM     53  C   UNL A   1      41.576  30.512  35.596  1.00  0.00     0.031 C 
ATOM     54  C   UNL A   1      44.422  26.930  31.610  1.00  0.00     0.029 A 
ATOM     55  C   UNL A   1      43.508  27.786  32.204  1.00  0.00     0.049 A 
ATOM     56  H   UNL A   1      41.705  28.558  31.420  1.00  0.00     0.167 HD
ATOM     57  C   UNL A   1      42.608  29.208  34.021  1.00  0.00     0.074 A 
ATOM     58  C   UNL A   1      42.650  29.774  35.351  1.00  0.00     0.031 C 
ATOM     59  C   UNL A   1      43.546  28.368  33.521  1.00  0.00     0.037 A 
BRANCH  46  60
ATOM     60  C   UNL A   1      42.360  26.421  27.784  1.00  0.00     0.064 A 
ATOM     61  C   UNL A   1      43.289  26.888  26.842  1.00  0.00     0.173 A 
ATOM     62  C   UNL A   1      41.884  25.109  27.641  1.00  0.00     0.173 A 
ATOM     63  F   UNL A   1      43.766  28.138  26.926  1.00  0.00    -0.203 F 
ATOM     64  C   UNL A   1      43.710  26.077  25.789  1.00  0.00     0.198 A 
ATOM     65  C   UNL A   1      42.330  24.292  26.606  1.00  0.00     0.198 A 
ATOM     66  F   UNL A   1      40.999  24.611  28.518  1.00  0.00    -0.203 F 
ATOM     67  F   UNL A   1      44.569  26.557  24.879  1.00  0.00    -0.200 F 
ATOM     68  C   UNL A   1      43.238  24.779  25.678  1.00  0.00     0.200 A 
ATOM     69  F   UNL A   1      41.884  23.032  26.510  1.00  0.00    -0.200 F 
ATOM     70  F   UNL A   1      43.655  23.995  24.674  1.00  0.00    -0.200 F 
ENDBRANCH  46  60
BRANCH  47  71
ATOM     71  C   UNL A   1      39.132  32.095  35.331  1.00  0.00     0.064 A 
ATOM     72  C   UNL A   1      39.408  33.467  35.414  1.00  0.00     0.173 A 
ATOM     73  C   UNL A   1      38.427  31.509  36.394  1.00  0.00     0.173 A 
ATOM     74  F   UNL A   1      40.104  34.070  34.439  1.00  0.00    -0.203 F 
ATOM     75  C   UNL A   1      39.025  34.213  36.527  1.00  0.00     0.198 A 
ATOM     76  C   UNL A   1      38.014  32.263  37.489  1.00  0.00     0.198 A 
ATOM     77  F   UNL A   1      38.139  30.199  36.368  1.00  0.00    -0.203 F 
ATOM     78  F   UNL A   1      39.358  35.509  36.609  1.00  0.00    -0.200 F 
ATOM     79  C   UNL A   1      38.324  33.612  37.561  1.00  0.00     0.200 A 
ATOM     80  F   UNL A   1      37.326  31.680  38.480  1.00  0.00    -0.200 F 
ATOM     81  F   UNL A   1      37.957  34.329  38.633  1.00  0.00    -0.200 F 
ENDBRANCH  47  71
BRANCH  59  82
ATOM     82  C   UNL A   1      44.725  28.043  34.395  1.00  0.00     0.064 A 
ATOM     83  C   UNL A   1      45.876  28.844  34.413  1.00  0.00     0.173 A 
ATOM     84  C   UNL A   1      44.683  26.936  35.258  1.00  0.00     0.173 A 
ATOM     85  F   UNL A   1      45.973  29.906  33.599  1.00  0.00    -0.203 F 
ATOM     86  C   UNL A   1      46.954  28.531  35.240  1.00  0.00     0.198 A 
ATOM     87  C   UNL A   1      45.748  26.646  36.108  1.00  0.00     0.198 A 
ATOM     88  F   UNL A   1      43.603  26.141  35.288  1.00  0.00    -0.203 F 
ATOM     89  F   UNL A   1      48.063  29.281  35.201  1.00  0.00    -0.200 F 
ATOM     90  C   UNL A   1      46.885  27.439  36.092  1.00  0.00     0.200 A 
ATOM     91  F   UNL A   1      45.673  25.600  36.942  1.00  0.00    -0.200 F 
ATOM     92  F   UNL A   1      47.919  27.146  36.892  1.00  0.00    -0.200 F 
ENDBRANCH  59  82
ENDBRANCH  33  34
ENDBRANCH  26  28
ENDBRANCH  25  26
ENDBRANCH  24  25
ENDBRANCH  23  24
ENDBRANCH  22  23
ENDBRANCH  21  22
ENDBRANCH  20  21
ENDBRANCH   1  20
TORSDOF 22
ENDMDL
MODEL 3
REMARK VINA RESULT:      -9.6      4.401      7.210
REMARK SMILES CC(=O)Oc1ccccc1SCCCCCC(=O)OCCOCCOC(=O)c1ccc(-c2c3nc(c(-c4c(F)c(F)c(F)c(F)c4F)c4ccc([nH]4)c(-c4c(F)c(F)c(F)c(F)c4F)c4nc(c(-c5c(F)c(F)c(F)c(F)c5F)c5ccc2[nH]5)C=C4)C=C3)cc1
REMARK SMILES IDX 19 1 17 2 18 3 16 4 15 5 14 6 13 7 12 8 11 9 10 10 5 11 6 12
REMARK SMILES IDX 7 13 9 14 8 15 4 16 2 17 1 18 3 19 20 20 21 21 22 22 23 23
REMARK SMILES IDX 24 24 25 25 26 26 27 27 28 28 29 29 90 30 30 31 89 32 31 33
REMARK SMILES IDX 32 34 33 35 83 36 34 37 88 38 82 39 84 40 35 41 87 42 81 43
REMARK SMILES IDX 80 44 36 46 68 47 48 48 67 49 49 50 52 51 66 52 85 53 50 54
REMARK SMILES IDX 51 55 65 57 86 58 53 59 37 60 38 61 46 62 39 63 40 64 44 65
REMARK SMILES IDX 47 66 41 67 42 68 45 69 43 70 69 71 70 72 78 73 71 74 72 75
REMARK SMILES IDX 76 76 79 77 73 78 74 79 77 80 75 81 54 82 55 83 63 84 56 85
REMARK SMILES IDX 57 86 61 87 64 88 58 89 59 90 62 91 60 92
REMARK H PARENT 84 45 52 56
REMARK Flexibility Score: inf
ROOT
ATOM      1  O   UNL A   1      34.498  24.822  26.192  1.00  0.00    -0.463 OA
ENDROOT
BRANCH   1   2
ATOM      2  C   UNL A   1      34.747  23.999  25.145  1.00  0.00     0.305 C 
ATOM      3  O   UNL A   1      34.976  24.358  23.999  1.00  0.00    -0.252 OA
BRANCH   2   4
ATOM      4  C   UNL A   1      34.784  22.560  25.616  1.00  0.00     0.123 C 
BRANCH   4   5
ATOM      5  C   UNL A   1      33.450  21.831  25.358  1.00  0.00     0.012 C 
BRANCH   5   6
ATOM      6  C   UNL A   1      33.038  21.359  23.950  1.00  0.00     0.001 C 
BRANCH   6   7
ATOM      7  C   UNL A   1      32.514  22.248  22.814  1.00  0.00     0.011 C 
BRANCH   7   8
ATOM      8  C   UNL A   1      31.267  23.162  22.833  1.00  0.00     0.075 C 
BRANCH   8   9
ATOM      9  S   UNL A   1      30.655  24.179  24.243  1.00  0.00    -0.122 SA
BRANCH   9  10
ATOM     10  C   UNL A   1      30.396  25.847  23.672  1.00  0.00     0.050 A 
ATOM     11  C   UNL A   1      31.321  26.727  23.094  1.00  0.00     0.144 A 
ATOM     12  C   UNL A   1      30.897  27.952  22.546  1.00  0.00     0.048 A 
ATOM     13  C   UNL A   1      29.566  28.355  22.677  1.00  0.00     0.004 A 
ATOM     14  C   UNL A   1      29.103  26.344  23.919  1.00  0.00     0.019 A 
ATOM     15  C   UNL A   1      28.687  27.583  23.427  1.00  0.00     0.001 A 
BRANCH  11  16
ATOM     16  O   UNL A   1      32.708  26.491  23.162  1.00  0.00    -0.426 OA
BRANCH  16  17
ATOM     17  C   UNL A   1      33.305  26.815  21.979  1.00  0.00     0.308 C 
ATOM     18  C   UNL A   1      34.001  28.124  21.956  1.00  0.00     0.139 C 
ATOM     19  O   UNL A   1      33.315  26.104  20.988  1.00  0.00    -0.252 OA
ENDBRANCH  16  17
ENDBRANCH  11  16
ENDBRANCH   9  10
ENDBRANCH   8   9
ENDBRANCH   7   8
ENDBRANCH   6   7
ENDBRANCH   5   6
ENDBRANCH   4   5
ENDBRANCH   2   4
ENDBRANCH   1   2
BRANCH   1  20
ATOM     20  C   UNL A   1      33.329  25.651  26.088  1.00  0.00     0.261 C 
BRANCH  20  21
ATOM     21  C   UNL A   1      33.762  27.121  26.165  1.00  0.00     0.202 C 
BRANCH  21  22
ATOM     22  O   UNL A   1      32.714  28.079  26.313  1.00  0.00    -0.374 OA
BRANCH  22  23
ATOM     23  C   UNL A   1      32.706  29.206  25.439  1.00  0.00     0.202 C 
BRANCH  23  24
ATOM     24  C   UNL A   1      32.184  30.542  26.018  1.00  0.00     0.261 C 
BRANCH  24  25
ATOM     25  O   UNL A   1      32.626  30.813  27.364  1.00  0.00    -0.460 OA
BRANCH  25  26
ATOM     26  C   UNL A   1      33.448  31.881  27.490  1.00  0.00     0.338 C 
ATOM     27  O   UNL A   1      33.141  33.059  27.424  1.00  0.00    -0.246 OA
BRANCH  26  28
ATOM     28  C   UNL A   1      34.797  31.454  27.917  1.00  0.00     0.060 A 
ATOM     29  C   UNL A   1      34.951  30.108  28.274  1.00  0.00     0.016 A 
ATOM     30  C   UNL A   1      35.855  32.351  28.081  1.00  0.00     0.016 A 
ATOM     31  C   UNL A   1      36.136  29.665  28.855  1.00  0.00     0.010 A 
ATOM     32  C   UNL A   1      37.046  31.904  28.676  1.00  0.00     0.010 A 
ATOM     33  C   UNL A   1      37.176  30.569  29.106  1.00  0.00    -0.014 A 
BRANCH  33  34
ATOM     34  C   UNL A   1      38.311  30.137  29.964  1.00  0.00     0.031 A 
ATOM     35  C   UNL A   1      39.320  29.164  29.409  1.00  0.00     0.074 A 
ATOM     36  C   UNL A   1      38.494  30.663  31.189  1.00  0.00     0.049 A 
ATOM     37  N   UNL A   1      40.388  28.659  29.973  1.00  0.00    -0.248 NA
ATOM     38  C   UNL A   1      39.098  28.705  28.028  1.00  0.00     0.031 C 
ATOM     39  C   UNL A   1      37.626  31.655  31.818  1.00  0.00     0.029 A 
ATOM     40  N   UNL A   1      39.478  30.437  32.120  1.00  0.00    -0.354 N 
ATOM     41  C   UNL A   1      40.961  27.823  29.022  1.00  0.00     0.074 A 
ATOM     42  C   UNL A   1      40.105  27.862  27.855  1.00  0.00     0.031 C 
ATOM     43  C   UNL A   1      38.112  31.949  33.037  1.00  0.00     0.029 A 
ATOM     44  C   UNL A   1      39.304  31.140  33.287  1.00  0.00     0.049 A 
ATOM     45  H   UNL A   1      40.236  29.828  31.966  1.00  0.00     0.167 HD
ATOM     46  C   UNL A   1      42.102  27.098  29.108  1.00  0.00     0.037 A 
ATOM     47  C   UNL A   1      40.014  31.118  34.433  1.00  0.00     0.037 A 
ATOM     48  C   UNL A   1      42.958  27.064  30.265  1.00  0.00     0.049 A 
ATOM     49  C   UNL A   1      41.234  30.235  34.531  1.00  0.00     0.074 A 
ATOM     50  C   UNL A   1      44.141  26.365  30.442  1.00  0.00     0.029 A 
ATOM     51  N   UNL A   1      42.722  27.754  31.444  1.00  0.00    -0.354 N 
ATOM     52  N   UNL A   1      41.775  29.462  33.621  1.00  0.00    -0.248 NA
ATOM     53  C   UNL A   1      41.944  30.227  35.819  1.00  0.00     0.031 C 
ATOM     54  C   UNL A   1      44.589  26.588  31.748  1.00  0.00     0.029 A 
ATOM     55  C   UNL A   1      43.722  27.476  32.363  1.00  0.00     0.049 A 
ATOM     56  H   UNL A   1      41.957  28.353  31.604  1.00  0.00     0.167 HD
ATOM     57  C   UNL A   1      42.903  28.905  34.213  1.00  0.00     0.074 A 
ATOM     58  C   UNL A   1      42.978  29.441  35.554  1.00  0.00     0.031 C 
ATOM     59  C   UNL A   1      43.795  28.029  33.691  1.00  0.00     0.037 A 
BRANCH  46  60
ATOM     60  C   UNL A   1      42.488  26.260  27.923  1.00  0.00     0.064 A 
ATOM     61  C   UNL A   1      41.947  24.982  27.715  1.00  0.00     0.173 A 
ATOM     62  C   UNL A   1      43.367  26.766  26.953  1.00  0.00     0.173 A 
ATOM     63  F   UNL A   1      41.111  24.447  28.617  1.00  0.00    -0.203 F 
ATOM     64  C   UNL A   1      42.287  24.235  26.588  1.00  0.00     0.198 A 
ATOM     65  C   UNL A   1      43.680  26.030  25.814  1.00  0.00     0.198 A 
ATOM     66  F   UNL A   1      43.907  27.985  27.100  1.00  0.00    -0.203 F 
ATOM     67  F   UNL A   1      41.788  23.002  26.429  1.00  0.00    -0.200 F 
ATOM     68  C   UNL A   1      43.145  24.763  25.636  1.00  0.00     0.200 A 
ATOM     69  F   UNL A   1      44.498  26.548  24.887  1.00  0.00    -0.200 F 
ATOM     70  F   UNL A   1      43.460  24.050  24.545  1.00  0.00    -0.200 F 
ENDBRANCH  46  60
BRANCH  47  71
ATOM     71  C   UNL A   1      39.581  31.935  35.598  1.00  0.00     0.064 A 
ATOM     72  C   UNL A   1      38.609  31.468  36.495  1.00  0.00     0.173 A 
ATOM     73  C   UNL A   1      40.097  33.222  35.813  1.00  0.00     0.173 A 
ATOM     74  F   UNL A   1      38.062  30.256  36.318  1.00  0.00    -0.203 F 
ATOM     75  C   UNL A   1      38.150  32.268  37.541  1.00  0.00     0.198 A 
ATOM     76  C   UNL A   1      39.663  34.006  36.878  1.00  0.00     0.198 A 
ATOM     77  F   UNL A   1      41.027  33.720  34.983  1.00  0.00    -0.203 F 
ATOM     78  F   UNL A   1      37.174  31.821  38.344  1.00  0.00    -0.200 F 
ATOM     79  C   UNL A   1      38.681  33.533  37.734  1.00  0.00     0.200 A 
ATOM     80  F   UNL A   1      40.189  35.224  37.069  1.00  0.00    -0.200 F 
ATOM     81  F   UNL A   1      38.237  34.303  38.738  1.00  0.00    -0.200 F 
ENDBRANCH  47  71
BRANCH  59  82
ATOM     82  C   UNL A   1      44.960  27.627  34.552  1.00  0.00     0.064 A 
ATOM     83  C   UNL A   1      46.137  28.389  34.608  1.00  0.00     0.173 A 
ATOM     84  C   UNL A   1      44.879  26.486  35.366  1.00  0.00     0.173 A 
ATOM     85  F   UNL A   1      46.270  29.482  33.842  1.00  0.00    -0.203 F 
ATOM     86  C   UNL A   1      47.200  28.006  35.422  1.00  0.00     0.198 A 
ATOM     87  C   UNL A   1      45.931  26.125  36.204  1.00  0.00     0.198 A 
ATOM     88  F   UNL A   1      43.774  25.727  35.359  1.00  0.00    -0.203 F 
ATOM     89  F   UNL A   1      48.334  28.720  35.418  1.00  0.00    -0.200 F 
ATOM     90  C   UNL A   1      47.094  26.880  36.225  1.00  0.00     0.200 A 
ATOM     91  F   UNL A   1      45.820  25.046  36.991  1.00  0.00    -0.200 F 
ATOM     92  F   UNL A   1      48.115  26.519  37.013  1.00  0.00    -0.200 F 
ENDBRANCH  59  82
ENDBRANCH  33  34
ENDBRANCH  26  28
ENDBRANCH  25  26
ENDBRANCH  24  25
ENDBRANCH  23  24
ENDBRANCH  22  23
ENDBRANCH  21  22
ENDBRANCH  20  21
ENDBRANCH   1  20
TORSDOF 22
ENDMDL
