MODEL 1
REMARK VINA RESULT:     -10.3      0.000      0.000
REMARK SMILES CC(=O)N[C@@H](CCS[C@@H](C)[C@@H](C)O)C(=O)OCCOCCOC(=O)c1ccc(-c2c3nc(c(-c4c(F)c(F)c(F)c(F)c4F)c4ccc([nH]4)c(-c4c(F)c(F)c(F)c(F)c4F)c4nc(c(-c5c(F)c(F)c(F)c(F)c5F)c5ccc2[nH]5)C=C4)C=C3)cc1
REMARK SMILES IDX 17 1 16 2 14 3 15 4 5 5 4 6 1 7 2 8 3 9 6 11 7 12 8 13 9 14
REMARK SMILES IDX 10 15 11 16 12 17 13 18 18 20 19 21 20 22 21 23 22 24 23 25
REMARK SMILES IDX 24 26 25 27 26 28 87 29 27 30 86 31 28 32 29 33 30 34 80 35
REMARK SMILES IDX 31 36 85 37 79 38 81 39 32 40 84 41 78 42 77 43 33 45 65 46
REMARK SMILES IDX 45 47 64 48 46 49 49 50 63 51 82 52 47 53 48 54 62 56 83 57
REMARK SMILES IDX 50 58 34 59 35 60 43 61 36 62 37 63 41 64 44 65 38 66 39 67
REMARK SMILES IDX 42 68 40 69 66 70 67 71 75 72 68 73 69 74 73 75 76 76 70 77
REMARK SMILES IDX 71 78 74 79 72 80 51 81 52 82 60 83 53 84 54 85 58 86 61 87
REMARK SMILES IDX 55 88 56 89 59 90 57 91
REMARK H PARENT 4 10 13 19 81 44 49 55
REMARK Flexibility Score: inf
ROOT
ATOM      1  C   UNL A   1      32.923  27.775  22.517  1.00  0.00     0.261 C 
ENDROOT
BRANCH   1   2
ATOM      2  O   UNL A   1      33.718  26.700  23.162  1.00  0.00    -0.462 OA
BRANCH   2   3
ATOM      3  C   UNL A   1      33.205  25.488  23.584  1.00  0.00     0.328 C 
ATOM      4  O   UNL A   1      32.783  24.645  22.796  1.00  0.00    -0.250 OA
BRANCH   3   5
ATOM      5  C   UNL A   1      33.165  25.211  25.260  1.00  0.00     0.193 C 
BRANCH   5   6
ATOM      6  N   UNL A   1      32.150  24.491  26.117  1.00  0.00    -0.343 N 
ATOM      7  C   UNL A   1      29.915  25.559  25.780  1.00  0.00     0.114 C 
ATOM      8  C   UNL A   1      30.837  24.582  26.437  1.00  0.00     0.217 C 
ATOM      9  O   UNL A   1      30.405  23.734  27.224  1.00  0.00    -0.275 OA
ATOM     10  H   UNL A   1      32.568  23.729  26.581  1.00  0.00     0.164 HD
ENDBRANCH   5   6
BRANCH   5  11
ATOM     11  C   UNL A   1      34.469  24.505  25.676  1.00  0.00     0.048 C 
BRANCH  11  12
ATOM     12  C   UNL A   1      34.248  23.145  26.369  1.00  0.00     0.072 C 
BRANCH  12  13
ATOM     13  S   UNL A   1      34.744  21.760  25.317  1.00  0.00    -0.156 SA
BRANCH  13  14
ATOM     14  C   UNL A   1      33.419  20.453  25.478  1.00  0.00     0.072 C 
ATOM     15  C   UNL A   1      32.044  21.121  25.286  1.00  0.00     0.022 C 
BRANCH  14  16
ATOM     16  C   UNL A   1      33.192  18.908  25.116  1.00  0.00     0.124 C 
ATOM     17  C   UNL A   1      33.964  17.710  24.456  1.00  0.00     0.039 C 
BRANCH  16  18
ATOM     18  O   UNL A   1      32.826  18.479  26.416  1.00  0.00    -0.392 OA
ATOM     19  H   UNL A   1      32.053  17.897  26.358  1.00  0.00     0.210 HD
ENDBRANCH  16  18
ENDBRANCH  14  16
ENDBRANCH  13  14
ENDBRANCH  12  13
ENDBRANCH  11  12
ENDBRANCH   5  11
ENDBRANCH   3   5
ENDBRANCH   2   3
ENDBRANCH   1   2
BRANCH   1  20
ATOM     20  C   UNL A   1      31.328  27.731  22.810  1.00  0.00     0.202 C 
BRANCH  20  21
ATOM     21  O   UNL A   1      30.968  28.673  23.839  1.00  0.00    -0.374 OA
BRANCH  21  22
ATOM     22  C   UNL A   1      31.541  28.869  25.166  1.00  0.00     0.202 C 
BRANCH  22  23
ATOM     23  C   UNL A   1      31.797  30.348  25.751  1.00  0.00     0.261 C 
BRANCH  23  24
ATOM     24  O   UNL A   1      32.381  30.515  27.069  1.00  0.00    -0.460 OA
BRANCH  24  25
ATOM     25  C   UNL A   1      33.131  31.605  27.278  1.00  0.00     0.338 C 
ATOM     26  O   UNL A   1      32.695  32.752  27.255  1.00  0.00    -0.246 OA
BRANCH  25  27
ATOM     27  C   UNL A   1      34.518  31.294  27.743  1.00  0.00     0.060 A 
ATOM     28  C   UNL A   1      34.769  29.939  27.988  1.00  0.00     0.016 A 
ATOM     29  C   UNL A   1      35.545  32.220  27.975  1.00  0.00     0.016 A 
ATOM     30  C   UNL A   1      35.963  29.517  28.573  1.00  0.00     0.010 A 
ATOM     31  C   UNL A   1      36.766  31.790  28.548  1.00  0.00     0.010 A 
ATOM     32  C   UNL A   1      36.956  30.442  28.917  1.00  0.00    -0.014 A 
BRANCH  32  33
ATOM     33  C   UNL A   1      38.046  29.992  29.840  1.00  0.00     0.031 A 
ATOM     34  C   UNL A   1      39.104  29.046  29.319  1.00  0.00     0.074 A 
ATOM     35  C   UNL A   1      38.204  30.514  31.074  1.00  0.00     0.049 A 
ATOM     36  N   UNL A   1      40.201  28.612  29.895  1.00  0.00    -0.248 NA
ATOM     37  C   UNL A   1      38.900  28.522  27.960  1.00  0.00     0.031 C 
ATOM     38  C   UNL A   1      37.305  31.474  31.709  1.00  0.00     0.029 A 
ATOM     39  N   UNL A   1      39.200  30.322  32.007  1.00  0.00    -0.354 N 
ATOM     40  C   UNL A   1      40.810  27.771  28.973  1.00  0.00     0.074 A 
ATOM     41  C   UNL A   1      39.939  27.713  27.819  1.00  0.00     0.031 C 
ATOM     42  C   UNL A   1      37.794  31.796  32.921  1.00  0.00     0.029 A 
ATOM     43  C   UNL A   1      39.030  31.050  33.161  1.00  0.00     0.049 A 
ATOM     44  H   UNL A   1      39.964  29.718  31.861  1.00  0.00     0.167 HD
ATOM     45  C   UNL A   1      41.995  27.118  29.056  1.00  0.00     0.037 A 
ATOM     46  C   UNL A   1      39.776  31.106  34.285  1.00  0.00     0.037 A 
ATOM     47  C   UNL A   1      42.884  27.168  30.188  1.00  0.00     0.049 A 
ATOM     48  C   UNL A   1      41.056  30.309  34.386  1.00  0.00     0.074 A 
ATOM     49  C   UNL A   1      44.113  26.548  30.347  1.00  0.00     0.029 A 
ATOM     50  N   UNL A   1      42.641  27.871  31.357  1.00  0.00    -0.354 N 
ATOM     51  N   UNL A   1      41.635  29.546  33.493  1.00  0.00    -0.248 NA
ATOM     52  C   UNL A   1      41.793  30.396  35.659  1.00  0.00     0.031 C 
ATOM     53  C   UNL A   1      44.584  26.825  31.634  1.00  0.00     0.029 A 
ATOM     54  C   UNL A   1      43.683  27.676  32.252  1.00  0.00     0.049 A 
ATOM     55  H   UNL A   1      41.846  28.426  31.528  1.00  0.00     0.167 HD
ATOM     56  C   UNL A   1      42.814  29.095  34.078  1.00  0.00     0.074 A 
ATOM     57  C   UNL A   1      42.878  29.682  35.398  1.00  0.00     0.031 C 
ATOM     58  C   UNL A   1      43.760  28.269  33.562  1.00  0.00     0.037 A 
BRANCH  45  59
ATOM     59  C   UNL A   1      42.397  26.264  27.888  1.00  0.00     0.064 A 
ATOM     60  C   UNL A   1      41.916  24.955  27.726  1.00  0.00     0.173 A 
ATOM     61  C   UNL A   1      43.249  26.775  26.897  1.00  0.00     0.173 A 
ATOM     62  F   UNL A   1      41.107  24.415  28.650  1.00  0.00    -0.203 F 
ATOM     63  C   UNL A   1      42.298  24.180  26.634  1.00  0.00     0.198 A 
ATOM     64  C   UNL A   1      43.602  26.010  25.789  1.00  0.00     0.198 A 
ATOM     65  F   UNL A   1      43.732  28.023  26.997  1.00  0.00    -0.203 F 
ATOM     66  F   UNL A   1      41.870  22.916  26.530  1.00  0.00    -0.200 F 
ATOM     67  C   UNL A   1      43.134  24.711  25.663  1.00  0.00     0.200 A 
ATOM     68  F   UNL A   1      44.397  26.530  24.843  1.00  0.00    -0.200 F 
ATOM     69  F   UNL A   1      43.495  23.967  24.609  1.00  0.00    -0.200 F 
ENDBRANCH  45  59
BRANCH  46  70
ATOM     70  C   UNL A   1      39.338  31.948  35.433  1.00  0.00     0.064 A 
ATOM     71  C   UNL A   1      38.516  31.431  36.446  1.00  0.00     0.173 A 
ATOM     72  C   UNL A   1      39.682  33.306  35.507  1.00  0.00     0.173 A 
ATOM     73  F   UNL A   1      38.127  30.147  36.403  1.00  0.00    -0.203 F 
ATOM     74  C   UNL A   1      38.036  32.243  37.472  1.00  0.00     0.198 A 
ATOM     75  C   UNL A   1      39.229  34.110  36.552  1.00  0.00     0.198 A 
ATOM     76  F   UNL A   1      40.454  33.855  34.559  1.00  0.00    -0.203 F 
ATOM     77  F   UNL A   1      37.199  31.739  38.389  1.00  0.00    -0.200 F 
ATOM     78  C   UNL A   1      38.397  33.582  37.527  1.00  0.00     0.200 A 
ATOM     79  F   UNL A   1      39.585  35.400  36.603  1.00  0.00    -0.200 F 
ATOM     80  F   UNL A   1      37.931  34.364  38.509  1.00  0.00    -0.200 F 
ENDBRANCH  46  70
BRANCH  58  81
ATOM     81  C   UNL A   1      44.979  27.989  34.398  1.00  0.00     0.064 A 
ATOM     82  C   UNL A   1      46.121  28.800  34.346  1.00  0.00     0.173 A 
ATOM     83  C   UNL A   1      44.990  26.905  35.293  1.00  0.00     0.173 A 
ATOM     84  F   UNL A   1      46.171  29.844  33.505  1.00  0.00    -0.203 F 
ATOM     85  C   UNL A   1      47.241  28.518  35.128  1.00  0.00     0.198 A 
ATOM     86  C   UNL A   1      46.097  26.646  36.098  1.00  0.00     0.198 A 
ATOM     87  F   UNL A   1      43.921  26.101  35.395  1.00  0.00    -0.203 F 
ATOM     88  F   UNL A   1      48.342  29.273  35.016  1.00  0.00    -0.200 F 
ATOM     89  C   UNL A   1      47.225  27.445  36.007  1.00  0.00     0.200 A 
ATOM     90  F   UNL A   1      46.072  25.621  36.960  1.00  0.00    -0.200 F 
ATOM     91  F   UNL A   1      48.301  27.177  36.759  1.00  0.00    -0.200 F 
ENDBRANCH  58  81
ENDBRANCH  32  33
ENDBRANCH  25  27
ENDBRANCH  24  25
ENDBRANCH  23  24
ENDBRANCH  22  23
ENDBRANCH  21  22
ENDBRANCH  20  21
ENDBRANCH   1  20
TORSDOF 21
ENDMDL
MODEL 2
REMARK VINA RESULT:     -10.1      1.438      7.633
REMARK SMILES CC(=O)N[C@@H](CCS[C@@H](C)[C@@H](C)O)C(=O)OCCOCCOC(=O)c1ccc(-c2c3nc(c(-c4c(F)c(F)c(F)c(F)c4F)c4ccc([nH]4)c(-c4c(F)c(F)c(F)c(F)c4F)c4nc(c(-c5c(F)c(F)c(F)c(F)c5F)c5ccc2[nH]5)C=C4)C=C3)cc1
REMARK SMILES IDX 17 1 16 2 14 3 15 4 5 5 4 6 1 7 2 8 3 9 6 11 7 12 8 13 9 14
REMARK SMILES IDX 10 15 11 16 12 17 13 18 18 20 19 21 20 22 21 23 22 24 23 25
REMARK SMILES IDX 24 26 25 27 26 28 87 29 27 30 86 31 28 32 29 33 30 34 80 35
REMARK SMILES IDX 31 36 85 37 79 38 81 39 32 40 84 41 78 42 77 43 33 45 65 46
REMARK SMILES IDX 45 47 64 48 46 49 49 50 63 51 82 52 47 53 48 54 62 56 83 57
REMARK SMILES IDX 50 58 34 59 35 60 43 61 36 62 37 63 41 64 44 65 38 66 39 67
REMARK SMILES IDX 42 68 40 69 66 70 67 71 75 72 68 73 69 74 73 75 76 76 70 77
REMARK SMILES IDX 71 78 74 79 72 80 51 81 52 82 60 83 53 84 54 85 58 86 61 87
REMARK SMILES IDX 55 88 56 89 59 90 57 91
REMARK H PARENT 4 10 13 19 81 44 49 55
REMARK Flexibility Score: inf
ROOT
ATOM      1  C   UNL A   1      29.880  27.887  22.809  1.00  0.00     0.261 C 
ENDROOT
BRANCH   1   2
ATOM      2  O   UNL A   1      29.630  27.058  24.014  1.00  0.00    -0.462 OA
BRANCH   2   3
ATOM      3  C   UNL A   1      30.538  26.170  24.561  1.00  0.00     0.328 C 
ATOM      4  O   UNL A   1      31.108  26.389  25.627  1.00  0.00    -0.250 OA
BRANCH   3   5
ATOM      5  C   UNL A   1      30.851  24.750  23.681  1.00  0.00     0.193 C 
BRANCH   5   6
ATOM      6  N   UNL A   1      31.780  24.495  22.517  1.00  0.00    -0.343 N 
ATOM      7  C   UNL A   1      33.305  26.460  22.263  1.00  0.00     0.114 C 
ATOM      8  C   UNL A   1      32.762  25.134  21.837  1.00  0.00     0.217 C 
ATOM      9  O   UNL A   1      33.274  24.512  20.901  1.00  0.00    -0.275 OA
ATOM     10  H   UNL A   1      31.627  23.597  22.143  1.00  0.00     0.164 HD
ENDBRANCH   5   6
BRANCH   5  11
ATOM     11  C   UNL A   1      31.284  23.645  24.662  1.00  0.00     0.048 C 
BRANCH  11  12
ATOM     12  C   UNL A   1      32.812  23.480  24.781  1.00  0.00     0.072 C 
BRANCH  12  13
ATOM     13  S   UNL A   1      33.339  21.782  24.448  1.00  0.00    -0.156 SA
BRANCH  13  14
ATOM     14  C   UNL A   1      35.206  21.789  24.410  1.00  0.00     0.072 C 
ATOM     15  C   UNL A   1      35.675  22.971  23.541  1.00  0.00     0.022 C 
BRANCH  14  16
ATOM     16  C   UNL A   1      36.438  21.464  25.382  1.00  0.00     0.124 C 
ATOM     17  C   UNL A   1      38.009  21.493  25.371  1.00  0.00     0.039 C 
BRANCH  16  18
ATOM     18  O   UNL A   1      36.031  22.290  26.458  1.00  0.00    -0.392 OA
ATOM     19  H   UNL A   1      36.815  22.636  26.913  1.00  0.00     0.210 HD
ENDBRANCH  16  18
ENDBRANCH  14  16
ENDBRANCH  13  14
ENDBRANCH  12  13
ENDBRANCH  11  12
ENDBRANCH   5  11
ENDBRANCH   3   5
ENDBRANCH   2   3
ENDBRANCH   1   2
BRANCH   1  20
ATOM     20  C   UNL A   1      30.738  29.241  23.061  1.00  0.00     0.202 C 
BRANCH  20  21
ATOM     21  O   UNL A   1      30.708  29.616  24.452  1.00  0.00    -0.374 OA
BRANCH  21  22
ATOM     22  C   UNL A   1      31.809  29.894  25.367  1.00  0.00     0.202 C 
BRANCH  22  23
ATOM     23  C   UNL A   1      31.780  31.179  26.338  1.00  0.00     0.261 C 
BRANCH  23  24
ATOM     24  O   UNL A   1      32.639  31.225  27.506  1.00  0.00    -0.460 OA
BRANCH  24  25
ATOM     25  C   UNL A   1      33.430  32.297  27.649  1.00  0.00     0.338 C 
ATOM     26  O   UNL A   1      33.015  33.450  27.722  1.00  0.00    -0.246 OA
BRANCH  25  27
ATOM     27  C   UNL A   1      34.861  31.951  27.915  1.00  0.00     0.060 A 
ATOM     28  C   UNL A   1      35.139  30.580  27.956  1.00  0.00     0.016 A 
ATOM     29  C   UNL A   1      35.905  32.856  28.150  1.00  0.00     0.016 A 
ATOM     30  C   UNL A   1      36.391  30.106  28.347  1.00  0.00     0.010 A 
ATOM     31  C   UNL A   1      37.183  32.376  28.526  1.00  0.00     0.010 A 
ATOM     32  C   UNL A   1      37.415  30.996  28.696  1.00  0.00    -0.014 A 
BRANCH  32  33
ATOM     33  C   UNL A   1      38.601  30.448  29.428  1.00  0.00     0.031 A 
ATOM     34  C   UNL A   1      38.808  30.828  30.877  1.00  0.00     0.074 A 
ATOM     35  C   UNL A   1      39.409  29.512  28.889  1.00  0.00     0.049 A 
ATOM     36  N   UNL A   1      39.693  30.390  31.742  1.00  0.00    -0.248 NA
ATOM     37  C   UNL A   1      37.887  31.834  31.427  1.00  0.00     0.031 C 
ATOM     38  C   UNL A   1      39.319  28.999  27.525  1.00  0.00     0.029 A 
ATOM     39  N   UNL A   1      40.459  28.809  29.440  1.00  0.00    -0.354 N 
ATOM     40  C   UNL A   1      39.433  31.066  32.928  1.00  0.00     0.074 A 
ATOM     41  C   UNL A   1      38.343  31.979  32.661  1.00  0.00     0.031 C 
ATOM     42  C   UNL A   1      40.263  28.056  27.348  1.00  0.00     0.029 A 
ATOM     43  C   UNL A   1      41.042  27.912  28.578  1.00  0.00     0.049 A 
ATOM     44  H   UNL A   1      40.763  28.938  30.368  1.00  0.00     0.167 HD
ATOM     45  C   UNL A   1      40.025  30.932  34.141  1.00  0.00     0.037 A 
ATOM     46  C   UNL A   1      42.087  27.074  28.753  1.00  0.00     0.037 A 
ATOM     47  C   UNL A   1      41.103  30.024  34.435  1.00  0.00     0.049 A 
ATOM     48  C   UNL A   1      42.782  26.998  30.092  1.00  0.00     0.074 A 
ATOM     49  C   UNL A   1      41.749  29.815  35.642  1.00  0.00     0.029 A 
ATOM     50  N   UNL A   1      41.700  29.178  33.514  1.00  0.00    -0.354 N 
ATOM     51  N   UNL A   1      42.504  27.618  31.212  1.00  0.00    -0.248 NA
ATOM     52  C   UNL A   1      43.936  26.087  30.190  1.00  0.00     0.031 C 
ATOM     53  C   UNL A   1      42.776  28.889  35.439  1.00  0.00     0.029 A 
ATOM     54  C   UNL A   1      42.726  28.467  34.121  1.00  0.00     0.049 A 
ATOM     55  H   UNL A   1      41.437  29.093  32.569  1.00  0.00     0.167 HD
ATOM     56  C   UNL A   1      43.418  27.147  32.150  1.00  0.00     0.074 A 
ATOM     57  C   UNL A   1      44.251  26.179  31.474  1.00  0.00     0.031 C 
ATOM     58  C   UNL A   1      43.549  27.490  33.456  1.00  0.00     0.037 A 
BRANCH  45  59
ATOM     59  C   UNL A   1      39.530  31.814  35.252  1.00  0.00     0.064 A 
ATOM     60  C   UNL A   1      39.956  33.145  35.387  1.00  0.00     0.173 A 
ATOM     61  C   UNL A   1      38.590  31.330  36.174  1.00  0.00     0.173 A 
ATOM     62  F   UNL A   1      40.862  33.653  34.538  1.00  0.00    -0.203 F 
ATOM     63  C   UNL A   1      39.483  33.947  36.423  1.00  0.00     0.198 A 
ATOM     64  C   UNL A   1      38.093  32.145  37.188  1.00  0.00     0.198 A 
ATOM     65  F   UNL A   1      38.142  30.068  36.086  1.00  0.00    -0.203 F 
ATOM     66  F   UNL A   1      39.945  35.196  36.564  1.00  0.00    -0.200 F 
ATOM     67  C   UNL A   1      38.547  33.449  37.317  1.00  0.00     0.200 A 
ATOM     68  F   UNL A   1      37.176  31.668  38.040  1.00  0.00    -0.200 F 
ATOM     69  F   UNL A   1      38.087  34.224  38.308  1.00  0.00    -0.200 F 
ENDBRANCH  45  59
BRANCH  46  70
ATOM     70  C   UNL A   1      42.566  26.229  27.623  1.00  0.00     0.064 A 
ATOM     71  C   UNL A   1      42.048  24.944  27.402  1.00  0.00     0.173 A 
ATOM     72  C   UNL A   1      43.597  26.667  26.778  1.00  0.00     0.173 A 
ATOM     73  F   UNL A   1      41.087  24.462  28.205  1.00  0.00    -0.203 F 
ATOM     74  C   UNL A   1      42.560  24.122  26.400  1.00  0.00     0.198 A 
ATOM     75  C   UNL A   1      44.084  25.857  25.755  1.00  0.00     0.198 A 
ATOM     76  F   UNL A   1      44.137  27.881  26.953  1.00  0.00    -0.203 F 
ATOM     77  F   UNL A   1      42.092  22.874  26.254  1.00  0.00    -0.200 F 
ATOM     78  C   UNL A   1      43.574  24.581  25.573  1.00  0.00     0.200 A 
ATOM     79  F   UNL A   1      45.060  26.307  24.955  1.00  0.00    -0.200 F 
ATOM     80  F   UNL A   1      44.070  23.789  24.613  1.00  0.00    -0.200 F 
ENDBRANCH  46  70
BRANCH  58  81
ATOM     81  C   UNL A   1      44.597  26.776  34.267  1.00  0.00     0.064 A 
ATOM     82  C   UNL A   1      45.874  27.317  34.477  1.00  0.00     0.173 A 
ATOM     83  C   UNL A   1      44.307  25.541  34.871  1.00  0.00     0.173 A 
ATOM     84  F   UNL A   1      46.211  28.489  33.918  1.00  0.00    -0.203 F 
ATOM     85  C   UNL A   1      46.831  26.635  35.228  1.00  0.00     0.198 A 
ATOM     86  C   UNL A   1      45.253  24.879  35.650  1.00  0.00     0.198 A 
ATOM     87  F   UNL A   1      43.099  24.980  34.715  1.00  0.00    -0.203 F 
ATOM     88  F   UNL A   1      48.062  27.146  35.364  1.00  0.00    -0.200 F 
ATOM     89  C   UNL A   1      46.517  25.420  35.818  1.00  0.00     0.200 A 
ATOM     90  F   UNL A   1      44.941  23.714  36.234  1.00  0.00    -0.200 F 
ATOM     91  F   UNL A   1      47.437  24.768  36.542  1.00  0.00    -0.200 F 
ENDBRANCH  58  81
ENDBRANCH  32  33
ENDBRANCH  25  27
ENDBRANCH  24  25
ENDBRANCH  23  24
ENDBRANCH  22  23
ENDBRANCH  21  22
ENDBRANCH  20  21
ENDBRANCH   1  20
TORSDOF 21
ENDMDL
MODEL 3
REMARK VINA RESULT:     -10.0      1.271      7.745
REMARK SMILES CC(=O)N[C@@H](CCS[C@@H](C)[C@@H](C)O)C(=O)OCCOCCOC(=O)c1ccc(-c2c3nc(c(-c4c(F)c(F)c(F)c(F)c4F)c4ccc([nH]4)c(-c4c(F)c(F)c(F)c(F)c4F)c4nc(c(-c5c(F)c(F)c(F)c(F)c5F)c5ccc2[nH]5)C=C4)C=C3)cc1
REMARK SMILES IDX 17 1 16 2 14 3 15 4 5 5 4 6 1 7 2 8 3 9 6 11 7 12 8 13 9 14
REMARK SMILES IDX 10 15 11 16 12 17 13 18 18 20 19 21 20 22 21 23 22 24 23 25
REMARK SMILES IDX 24 26 25 27 26 28 87 29 27 30 86 31 28 32 29 33 30 34 80 35
REMARK SMILES IDX 31 36 85 37 79 38 81 39 32 40 84 41 78 42 77 43 33 45 65 46
REMARK SMILES IDX 45 47 64 48 46 49 49 50 63 51 82 52 47 53 48 54 62 56 83 57
REMARK SMILES IDX 50 58 34 59 35 60 43 61 36 62 37 63 41 64 44 65 38 66 39 67
REMARK SMILES IDX 42 68 40 69 66 70 67 71 75 72 68 73 69 74 73 75 76 76 70 77
REMARK SMILES IDX 71 78 74 79 72 80 51 81 52 82 60 83 53 84 54 85 58 86 61 87
REMARK SMILES IDX 55 88 56 89 59 90 57 91
REMARK H PARENT 4 10 13 19 81 44 49 55
REMARK Flexibility Score: inf
ROOT
ATOM      1  C   UNL A   1      30.051  27.693  22.893  1.00  0.00     0.261 C 
ENDROOT
BRANCH   1   2
ATOM      2  O   UNL A   1      30.069  26.776  24.059  1.00  0.00    -0.462 OA
BRANCH   2   3
ATOM      3  C   UNL A   1      31.143  25.983  24.419  1.00  0.00     0.328 C 
ATOM      4  O   UNL A   1      31.708  26.098  25.505  1.00  0.00    -0.250 OA
BRANCH   3   5
ATOM      5  C   UNL A   1      31.670  24.837  23.280  1.00  0.00     0.193 C 
BRANCH   5   6
ATOM      6  N   UNL A   1      32.119  25.004  21.848  1.00  0.00    -0.343 N 
ATOM      7  C   UNL A   1      33.616  27.001  21.704  1.00  0.00     0.114 C 
ATOM      8  C   UNL A   1      32.854  25.864  21.103  1.00  0.00     0.217 C 
ATOM      9  O   UNL A   1      32.962  25.595  19.902  1.00  0.00    -0.275 OA
ATOM     10  H   UNL A   1      31.775  24.269  21.289  1.00  0.00     0.164 HD
ENDBRANCH   5   6
BRANCH   5  11
ATOM     11  C   UNL A   1      32.852  24.052  23.879  1.00  0.00     0.048 C 
BRANCH  11  12
ATOM     12  C   UNL A   1      33.352  22.900  22.985  1.00  0.00     0.072 C 
BRANCH  12  13
ATOM     13  S   UNL A   1      32.255  21.463  23.055  1.00  0.00    -0.156 SA
BRANCH  13  14
ATOM     14  C   UNL A   1      32.867  20.378  24.447  1.00  0.00     0.072 C 
ATOM     15  C   UNL A   1      32.453  21.018  25.785  1.00  0.00     0.022 C 
BRANCH  14  16
ATOM     16  C   UNL A   1      33.072  18.822  24.767  1.00  0.00     0.124 C 
ATOM     17  C   UNL A   1      34.124  17.680  24.523  1.00  0.00     0.039 C 
BRANCH  16  18
ATOM     18  O   UNL A   1      32.898  18.910  26.171  1.00  0.00    -0.392 OA
ATOM     19  H   UNL A   1      31.988  19.181  26.366  1.00  0.00     0.210 HD
ENDBRANCH  16  18
ENDBRANCH  14  16
ENDBRANCH  13  14
ENDBRANCH  12  13
ENDBRANCH  11  12
ENDBRANCH   5  11
ENDBRANCH   3   5
ENDBRANCH   2   3
ENDBRANCH   1   2
BRANCH   1  20
ATOM     20  C   UNL A   1      30.403  29.243  23.221  1.00  0.00     0.202 C 
BRANCH  20  21
ATOM     21  O   UNL A   1      30.628  29.431  24.632  1.00  0.00    -0.374 OA
BRANCH  21  22
ATOM     22  C   UNL A   1      31.842  29.824  25.338  1.00  0.00     0.202 C 
BRANCH  22  23
ATOM     23  C   UNL A   1      31.826  31.018  26.419  1.00  0.00     0.261 C 
BRANCH  23  24
ATOM     24  O   UNL A   1      32.786  31.025  27.507  1.00  0.00    -0.460 OA
BRANCH  24  25
ATOM     25  C   UNL A   1      33.542  32.122  27.655  1.00  0.00     0.338 C 
ATOM     26  O   UNL A   1      33.091  33.261  27.730  1.00  0.00    -0.246 OA
BRANCH  25  27
ATOM     27  C   UNL A   1      34.982  31.821  27.927  1.00  0.00     0.060 A 
ATOM     28  C   UNL A   1      35.306  30.459  27.949  1.00  0.00     0.016 A 
ATOM     29  C   UNL A   1      35.993  32.757  28.183  1.00  0.00     0.016 A 
ATOM     30  C   UNL A   1      36.571  30.022  28.341  1.00  0.00     0.010 A 
ATOM     31  C   UNL A   1      37.284  32.314  28.561  1.00  0.00     0.010 A 
ATOM     32  C   UNL A   1      37.562  30.940  28.712  1.00  0.00    -0.014 A 
BRANCH  32  33
ATOM     33  C   UNL A   1      38.761  30.422  29.444  1.00  0.00     0.031 A 
ATOM     34  C   UNL A   1      38.961  30.811  30.891  1.00  0.00     0.074 A 
ATOM     35  C   UNL A   1      39.589  29.503  28.907  1.00  0.00     0.049 A 
ATOM     36  N   UNL A   1      39.856  30.397  31.757  1.00  0.00    -0.248 NA
ATOM     37  C   UNL A   1      38.018  31.798  31.439  1.00  0.00     0.031 C 
ATOM     38  C   UNL A   1      39.509  28.983  27.545  1.00  0.00     0.029 A 
ATOM     39  N   UNL A   1      40.655  28.826  29.459  1.00  0.00    -0.354 N 
ATOM     40  C   UNL A   1      39.583  31.070  32.941  1.00  0.00     0.074 A 
ATOM     41  C   UNL A   1      38.472  31.957  32.672  1.00  0.00     0.031 C 
ATOM     42  C   UNL A   1      40.473  28.060  27.369  1.00  0.00     0.029 A 
ATOM     43  C   UNL A   1      41.257  27.938  28.599  1.00  0.00     0.049 A 
ATOM     44  H   UNL A   1      40.958  28.964  30.386  1.00  0.00     0.167 HD
ATOM     45  C   UNL A   1      40.180  30.954  34.153  1.00  0.00     0.037 A 
ATOM     46  C   UNL A   1      42.321  27.125  28.775  1.00  0.00     0.037 A 
ATOM     47  C   UNL A   1      41.278  30.071  34.449  1.00  0.00     0.049 A 
ATOM     48  C   UNL A   1      43.019  27.069  30.114  1.00  0.00     0.074 A 
ATOM     49  C   UNL A   1      41.930  29.881  35.656  1.00  0.00     0.029 A 
ATOM     50  N   UNL A   1      41.893  29.235  33.530  1.00  0.00    -0.354 N 
ATOM     51  N   UNL A   1      42.729  27.686  31.232  1.00  0.00    -0.248 NA
ATOM     52  C   UNL A   1      44.194  26.185  30.213  1.00  0.00     0.031 C 
ATOM     53  C   UNL A   1      42.978  28.977  35.454  1.00  0.00     0.029 A 
ATOM     54  C   UNL A   1      42.936  28.550  34.137  1.00  0.00     0.049 A 
ATOM     55  H   UNL A   1      41.630  29.142  32.586  1.00  0.00     0.167 HD
ATOM     56  C   UNL A   1      43.654  27.239  32.170  1.00  0.00     0.074 A 
ATOM     57  C   UNL A   1      44.508  26.288  31.496  1.00  0.00     0.031 C 
ATOM     58  C   UNL A   1      43.780  27.589  33.475  1.00  0.00     0.037 A 
BRANCH  45  59
ATOM     59  C   UNL A   1      39.666  31.828  35.262  1.00  0.00     0.064 A 
ATOM     60  C   UNL A   1      40.105  33.151  35.425  1.00  0.00     0.173 A 
ATOM     61  C   UNL A   1      38.696  31.344  36.153  1.00  0.00     0.173 A 
ATOM     62  F   UNL A   1      41.040  33.659  34.607  1.00  0.00    -0.203 F 
ATOM     63  C   UNL A   1      39.615  33.946  36.458  1.00  0.00     0.198 A 
ATOM     64  C   UNL A   1      38.183  32.153  37.163  1.00  0.00     0.198 A 
ATOM     65  F   UNL A   1      38.235  30.089  36.037  1.00  0.00    -0.203 F 
ATOM     66  F   UNL A   1      40.088  35.187  36.628  1.00  0.00    -0.200 F 
ATOM     67  C   UNL A   1      38.649  33.449  37.321  1.00  0.00     0.200 A 
ATOM     68  F   UNL A   1      37.237  31.677  37.985  1.00  0.00    -0.200 F 
ATOM     69  F   UNL A   1      38.172  34.218  38.309  1.00  0.00    -0.200 F 
ENDBRANCH  45  59
BRANCH  46  70
ATOM     70  C   UNL A   1      42.817  26.287  27.648  1.00  0.00     0.064 A 
ATOM     71  C   UNL A   1      43.806  26.755  26.769  1.00  0.00     0.173 A 
ATOM     72  C   UNL A   1      42.266  25.023  27.390  1.00  0.00     0.173 A 
ATOM     73  F   UNL A   1      44.340  27.972  26.948  1.00  0.00    -0.203 F 
ATOM     74  C   UNL A   1      44.204  26.004  25.664  1.00  0.00     0.198 A 
ATOM     75  C   UNL A   1      42.688  24.258  26.304  1.00  0.00     0.198 A 
ATOM     76  F   UNL A   1      41.308  24.533  28.190  1.00  0.00    -0.203 F 
ATOM     77  F   UNL A   1      45.102  26.503  24.804  1.00  0.00    -0.200 F 
ATOM     78  C   UNL A   1      43.648  24.753  25.435  1.00  0.00     0.200 A 
ATOM     79  F   UNL A   1      42.153  23.049  26.091  1.00  0.00    -0.200 F 
ATOM     80  F   UNL A   1      44.027  24.034  24.371  1.00  0.00    -0.200 F 
ENDBRANCH  46  70
BRANCH  58  81
ATOM     81  C   UNL A   1      44.845  26.902  34.286  1.00  0.00     0.064 A 
ATOM     82  C   UNL A   1      44.611  25.685  34.944  1.00  0.00     0.173 A 
ATOM     83  C   UNL A   1      46.132  27.456  34.380  1.00  0.00     0.173 A 
ATOM     84  F   UNL A   1      43.399  25.113  34.897  1.00  0.00    -0.203 F 
ATOM     85  C   UNL A   1      45.612  25.069  35.694  1.00  0.00     0.198 A 
ATOM     86  C   UNL A   1      47.140  26.820  35.101  1.00  0.00     0.198 A 
ATOM     87  F   UNL A   1      46.418  28.612  33.763  1.00  0.00    -0.203 F 
ATOM     88  F   UNL A   1      45.347  23.937  36.362  1.00  0.00    -0.200 F 
ATOM     89  C   UNL A   1      46.877  25.634  35.767  1.00  0.00     0.200 A 
ATOM     90  F   UNL A   1      48.367  27.358  35.154  1.00  0.00    -0.200 F 
ATOM     91  F   UNL A   1      47.839  25.038  36.485  1.00  0.00    -0.200 F 
ENDBRANCH  58  81
ENDBRANCH  32  33
ENDBRANCH  25  27
ENDBRANCH  24  25
ENDBRANCH  23  24
ENDBRANCH  22  23
ENDBRANCH  21  22
ENDBRANCH  20  21
ENDBRANCH   1  20
TORSDOF 21
ENDMDL
