MODEL 1
REMARK VINA RESULT:     -11.4      0.000      0.000
REMARK SMILES COc1ccccc1[C@@H]1CN(C(=O)Cc2csc(C)n2)C[C@H]1C(=O)OCCOCCOC(=O)c1ccc(-c2c3nc(c(-c4c(F)c(F)c(F)c(F)c4F)c4ccc([nH]4)c(-c4c(F)c(F)c(F)c(F)c4F)c4nc(c(-c5c(F)c(F)c(F)c(F)c5F)c5ccc2[nH]5)C=C4)C=C3)cc1
REMARK SMILES IDX 27 1 26 2 25 3 23 4 24 5 22 6 9 7 10 8 11 9 21 10 8 11 3 12
REMARK SMILES IDX 4 13 5 14 7 15 6 16 2 17 1 18 12 19 13 20 14 21 15 22 16 23
REMARK SMILES IDX 20 24 17 25 18 26 19 27 28 28 29 29 30 30 31 31 32 32 33 33
REMARK SMILES IDX 34 34 35 35 96 36 36 37 95 38 37 39 38 40 39 41 89 42 40 43
REMARK SMILES IDX 94 44 88 45 90 46 41 47 93 48 87 49 86 50 42 52 74 53 54 54
REMARK SMILES IDX 73 55 55 56 58 57 72 58 91 59 56 60 57 61 71 63 92 64 59 65
REMARK SMILES IDX 43 66 44 67 52 68 45 69 46 70 50 71 53 72 47 73 48 74 51 75
REMARK SMILES IDX 49 76 75 77 76 78 84 79 77 80 78 81 82 82 85 83 79 84 80 85
REMARK SMILES IDX 83 86 81 87 60 88 61 89 69 90 62 91 63 92 67 93 70 94 64 95
REMARK SMILES IDX 65 96 68 97 66 98
REMARK H PARENT 90 51 58 62
REMARK Flexibility Score: inf
ROOT
ATOM      1  C   UNL A   1      32.115  30.335  25.938  1.00  0.00     0.202 C 
ENDROOT
BRANCH   1   2
ATOM      2  C   UNL A   1      32.323  29.655  27.296  1.00  0.00     0.261 C 
BRANCH   2   3
ATOM      3  O   UNL A   1      32.548  28.237  27.221  1.00  0.00    -0.463 OA
BRANCH   3   4
ATOM      4  C   UNL A   1      33.721  27.880  26.635  1.00  0.00     0.311 C 
ATOM      5  O   UNL A   1      34.819  28.339  26.935  1.00  0.00    -0.252 OA
BRANCH   4   6
ATOM      6  C   UNL A   1      33.570  26.914  25.486  1.00  0.00     0.128 C 
ATOM      7  C   UNL A   1      32.619  25.707  25.618  1.00  0.00     0.058 C 
ATOM      8  C   UNL A   1      32.108  25.502  24.187  1.00  0.00     0.129 C 
ATOM      9  N   UNL A   1      32.163  26.808  23.569  1.00  0.00    -0.341 N 
ATOM     10  C   UNL A   1      33.026  27.710  24.304  1.00  0.00     0.135 C 
BRANCH   7  11
ATOM     11  C   UNL A   1      33.197  24.411  26.166  1.00  0.00    -0.000 A 
ATOM     12  C   UNL A   1      32.459  23.494  26.941  1.00  0.00     0.122 A 
ATOM     13  C   UNL A   1      33.054  22.336  27.451  1.00  0.00     0.047 A 
ATOM     14  C   UNL A   1      34.404  22.082  27.211  1.00  0.00     0.004 A 
ATOM     15  C   UNL A   1      34.563  24.145  25.963  1.00  0.00     0.008 A 
ATOM     16  C   UNL A   1      35.161  22.993  26.481  1.00  0.00     0.001 A 
BRANCH  12  17
ATOM     17  O   UNL A   1      31.201  23.845  27.350  1.00  0.00    -0.496 OA
ATOM     18  C   UNL A   1      30.169  23.015  26.827  1.00  0.00     0.278 C 
ENDBRANCH  12  17
ENDBRANCH   7  11
BRANCH   9  19
ATOM     19  C   UNL A   1      31.613  27.185  22.361  1.00  0.00     0.228 C 
ATOM     20  O   UNL A   1      31.241  26.339  21.544  1.00  0.00    -0.274 OA
BRANCH  19  21
ATOM     21  C   UNL A   1      31.555  28.669  22.036  1.00  0.00     0.157 C 
BRANCH  21  22
ATOM     22  C   UNL A   1      30.173  29.229  22.146  1.00  0.00     0.061 A 
ATOM     23  C   UNL A   1      29.184  28.814  23.021  1.00  0.00     0.091 A 
ATOM     24  N   UNL A   1      29.796  30.269  21.312  1.00  0.00    -0.246 NA
ATOM     25  S   UNL A   1      27.748  29.710  22.762  1.00  0.00    -0.127 S 
ATOM     26  C   UNL A   1      28.543  30.603  21.530  1.00  0.00     0.090 A 
ATOM     27  C   UNL A   1      27.818  31.671  20.794  1.00  0.00     0.079 C 
ENDBRANCH  21  22
ENDBRANCH  19  21
ENDBRANCH   9  19
ENDBRANCH   4   6
ENDBRANCH   3   4
ENDBRANCH   2   3
ENDBRANCH   1   2
BRANCH   1  28
ATOM     28  O   UNL A   1      31.329  31.521  25.929  1.00  0.00    -0.374 OA
BRANCH  28  29
ATOM     29  C   UNL A   1      31.344  32.334  27.106  1.00  0.00     0.202 C 
BRANCH  29  30
ATOM     30  C   UNL A   1      32.403  33.438  27.131  1.00  0.00     0.261 C 
BRANCH  30  31
ATOM     31  O   UNL A   1      32.329  34.181  28.367  1.00  0.00    -0.460 OA
BRANCH  31  32
ATOM     32  C   UNL A   1      33.426  34.926  28.623  1.00  0.00     0.338 C 
ATOM     33  O   UNL A   1      33.489  36.143  28.717  1.00  0.00    -0.246 OA
BRANCH  32  34
ATOM     34  C   UNL A   1      34.559  34.051  28.958  1.00  0.00     0.060 A 
ATOM     35  C   UNL A   1      34.295  32.902  29.714  1.00  0.00     0.016 A 
ATOM     36  C   UNL A   1      35.872  34.429  28.671  1.00  0.00     0.016 A 
ATOM     37  C   UNL A   1      35.351  32.158  30.239  1.00  0.00     0.010 A 
ATOM     38  C   UNL A   1      36.930  33.681  29.202  1.00  0.00     0.010 A 
ATOM     39  C   UNL A   1      36.675  32.569  30.027  1.00  0.00    -0.014 A 
BRANCH  39  40
ATOM     40  C   UNL A   1      37.768  31.931  30.804  1.00  0.00     0.031 A 
ATOM     41  C   UNL A   1      38.599  30.857  30.154  1.00  0.00     0.074 A 
ATOM     42  C   UNL A   1      38.055  32.334  32.053  1.00  0.00     0.049 A 
ATOM     43  N   UNL A   1      39.613  30.183  30.635  1.00  0.00    -0.248 NA
ATOM     44  C   UNL A   1      38.240  30.497  28.773  1.00  0.00     0.031 C 
ATOM     45  C   UNL A   1      37.356  33.389  32.781  1.00  0.00     0.029 A 
ATOM     46  N   UNL A   1      39.020  31.901  32.929  1.00  0.00    -0.354 N 
ATOM     47  C   UNL A   1      40.011  29.322  29.621  1.00  0.00     0.074 A 
ATOM     48  C   UNL A   1      39.112  29.536  28.508  1.00  0.00     0.031 C 
ATOM     49  C   UNL A   1      37.915  33.524  33.996  1.00  0.00     0.029 A 
ATOM     50  C   UNL A   1      38.995  32.548  34.140  1.00  0.00     0.049 A 
ATOM     51  H   UNL A   1      39.667  31.192  32.710  1.00  0.00     0.167 HD
ATOM     52  C   UNL A   1      41.040  28.440  29.613  1.00  0.00     0.037 A 
ATOM     53  C   UNL A   1      39.751  32.365  35.239  1.00  0.00     0.037 A 
ATOM     54  C   UNL A   1      41.941  28.228  30.714  1.00  0.00     0.049 A 
ATOM     55  C   UNL A   1      40.840  31.324  35.231  1.00  0.00     0.074 A 
ATOM     56  C   UNL A   1      43.033  27.379  30.786  1.00  0.00     0.029 A 
ATOM     57  N   UNL A   1      41.848  28.865  31.942  1.00  0.00    -0.354 N 
ATOM     58  N   UNL A   1      41.231  30.541  34.255  1.00  0.00    -0.248 NA
ATOM     59  C   UNL A   1      41.593  31.143  36.482  1.00  0.00     0.031 C 
ATOM     60  C   UNL A   1      43.573  27.469  32.074  1.00  0.00     0.029 A 
ATOM     61  C   UNL A   1      42.845  28.406  32.789  1.00  0.00     0.049 A 
ATOM     62  H   UNL A   1      41.176  29.543  32.177  1.00  0.00     0.167 HD
ATOM     63  C   UNL A   1      42.290  29.798  34.762  1.00  0.00     0.074 A 
ATOM     64  C   UNL A   1      42.486  30.229  36.131  1.00  0.00     0.031 C 
ATOM     65  C   UNL A   1      43.034  28.847  34.148  1.00  0.00     0.037 A 
BRANCH  52  66
ATOM     66  C   UNL A   1      41.233  27.617  28.373  1.00  0.00     0.064 A 
ATOM     67  C   UNL A   1      40.558  26.403  28.184  1.00  0.00     0.173 A 
ATOM     68  C   UNL A   1      42.082  28.064  27.351  1.00  0.00     0.173 A 
ATOM     69  F   UNL A   1      39.745  25.926  29.139  1.00  0.00    -0.203 F 
ATOM     70  C   UNL A   1      40.746  25.654  27.025  1.00  0.00     0.198 A 
ATOM     71  C   UNL A   1      42.248  27.326  26.183  1.00  0.00     0.198 A 
ATOM     72  F   UNL A   1      42.747  29.222  27.483  1.00  0.00    -0.203 F 
ATOM     73  F   UNL A   1      40.123  24.475  26.882  1.00  0.00    -0.200 F 
ATOM     74  C   UNL A   1      41.586  26.119  26.023  1.00  0.00     0.200 A 
ATOM     75  F   UNL A   1      43.055  27.780  25.213  1.00  0.00    -0.200 F 
ATOM     76  F   UNL A   1      41.763  25.398  24.908  1.00  0.00    -0.200 F 
ENDBRANCH  52  66
BRANCH  53  77
ATOM     77  C   UNL A   1      39.508  33.190  36.451  1.00  0.00     0.064 A 
ATOM     78  C   UNL A   1      40.208  34.384  36.662  1.00  0.00     0.173 A 
ATOM     79  C   UNL A   1      38.585  32.789  37.428  1.00  0.00     0.173 A 
ATOM     80  F   UNL A   1      41.121  34.793  35.768  1.00  0.00    -0.203 F 
ATOM     81  C   UNL A   1      40.004  35.144  37.813  1.00  0.00     0.198 A 
ATOM     82  C   UNL A   1      38.365  33.560  38.566  1.00  0.00     0.198 A 
ATOM     83  F   UNL A   1      37.897  31.649  37.273  1.00  0.00    -0.203 F 
ATOM     84  F   UNL A   1      40.715  36.261  38.011  1.00  0.00    -0.200 F 
ATOM     85  C   UNL A   1      39.077  34.734  38.761  1.00  0.00     0.200 A 
ATOM     86  F   UNL A   1      37.466  33.164  39.478  1.00  0.00    -0.200 F 
ATOM     87  F   UNL A   1      38.882  35.464  39.867  1.00  0.00    -0.200 F 
ENDBRANCH  53  77
BRANCH  65  88
ATOM     88  C   UNL A   1      44.151  28.227  34.935  1.00  0.00     0.064 A 
ATOM     89  C   UNL A   1      43.967  27.040  35.661  1.00  0.00     0.173 A 
ATOM     90  C   UNL A   1      45.430  28.804  34.930  1.00  0.00     0.173 A 
ATOM     91  F   UNL A   1      42.759  26.459  35.709  1.00  0.00    -0.203 F 
ATOM     92  C   UNL A   1      45.018  26.467  36.371  1.00  0.00     0.198 A 
ATOM     93  C   UNL A   1      46.484  28.213  35.621  1.00  0.00     0.198 A 
ATOM     94  F   UNL A   1      45.659  29.934  34.247  1.00  0.00    -0.203 F 
ATOM     95  F   UNL A   1      44.811  25.356  37.092  1.00  0.00    -0.200 F 
ATOM     96  C   UNL A   1      46.277  27.049  36.346  1.00  0.00     0.200 A 
ATOM     97  F   UNL A   1      47.703  28.771  35.586  1.00  0.00    -0.200 F 
ATOM     98  F   UNL A   1      47.289  26.492  37.025  1.00  0.00    -0.200 F 
ENDBRANCH  65  88
ENDBRANCH  39  40
ENDBRANCH  32  34
ENDBRANCH  31  32
ENDBRANCH  30  31
ENDBRANCH  29  30
ENDBRANCH  28  29
ENDBRANCH   1  28
TORSDOF 19
ENDMDL
MODEL 2
REMARK VINA RESULT:     -11.3      1.819      8.126
REMARK SMILES COc1ccccc1[C@@H]1CN(C(=O)Cc2csc(C)n2)C[C@H]1C(=O)OCCOCCOC(=O)c1ccc(-c2c3nc(c(-c4c(F)c(F)c(F)c(F)c4F)c4ccc([nH]4)c(-c4c(F)c(F)c(F)c(F)c4F)c4nc(c(-c5c(F)c(F)c(F)c(F)c5F)c5ccc2[nH]5)C=C4)C=C3)cc1
REMARK SMILES IDX 27 1 26 2 25 3 23 4 24 5 22 6 9 7 10 8 11 9 21 10 8 11 3 12
REMARK SMILES IDX 4 13 5 14 7 15 6 16 2 17 1 18 12 19 13 20 14 21 15 22 16 23
REMARK SMILES IDX 20 24 17 25 18 26 19 27 28 28 29 29 30 30 31 31 32 32 33 33
REMARK SMILES IDX 34 34 35 35 96 36 36 37 95 38 37 39 38 40 39 41 89 42 40 43
REMARK SMILES IDX 94 44 88 45 90 46 41 47 93 48 87 49 86 50 42 52 74 53 54 54
REMARK SMILES IDX 73 55 55 56 58 57 72 58 91 59 56 60 57 61 71 63 92 64 59 65
REMARK SMILES IDX 43 66 44 67 52 68 45 69 46 70 50 71 53 72 47 73 48 74 51 75
REMARK SMILES IDX 49 76 75 77 76 78 84 79 77 80 78 81 82 82 85 83 79 84 80 85
REMARK SMILES IDX 83 86 81 87 60 88 61 89 69 90 62 91 63 92 67 93 70 94 64 95
REMARK SMILES IDX 65 96 68 97 66 98
REMARK H PARENT 90 51 58 62
REMARK Flexibility Score: inf
ROOT
ATOM      1  C   UNL A   1      34.147  29.952  26.801  1.00  0.00     0.202 C 
ENDROOT
BRANCH   1   2
ATOM      2  C   UNL A   1      33.842  28.561  27.367  1.00  0.00     0.261 C 
BRANCH   2   3
ATOM      3  O   UNL A   1      32.696  27.921  26.782  1.00  0.00    -0.463 OA
BRANCH   3   4
ATOM      4  C   UNL A   1      32.968  26.761  26.126  1.00  0.00     0.311 C 
ATOM      5  O   UNL A   1      34.095  26.370  25.842  1.00  0.00    -0.252 OA
BRANCH   4   6
ATOM      6  C   UNL A   1      31.744  26.005  25.673  1.00  0.00     0.128 C 
ATOM      7  C   UNL A   1      31.434  25.877  24.168  1.00  0.00     0.058 C 
ATOM      8  C   UNL A   1      30.751  24.508  24.062  1.00  0.00     0.129 C 
ATOM      9  N   UNL A   1      31.288  23.727  25.156  1.00  0.00    -0.341 N 
ATOM     10  C   UNL A   1      31.904  24.568  26.160  1.00  0.00     0.135 C 
BRANCH   7  11
ATOM     11  C   UNL A   1      30.566  26.952  23.533  1.00  0.00    -0.000 A 
ATOM     12  C   UNL A   1      31.072  27.980  22.713  1.00  0.00     0.122 A 
ATOM     13  C   UNL A   1      30.231  28.966  22.187  1.00  0.00     0.047 A 
ATOM     14  C   UNL A   1      28.870  28.954  22.488  1.00  0.00     0.004 A 
ATOM     15  C   UNL A   1      29.195  26.980  23.843  1.00  0.00     0.008 A 
ATOM     16  C   UNL A   1      28.356  27.970  23.327  1.00  0.00     0.001 A 
BRANCH  12  17
ATOM     17  O   UNL A   1      32.429  28.113  22.591  1.00  0.00    -0.496 OA
ATOM     18  C   UNL A   1      32.989  29.127  23.420  1.00  0.00     0.278 C 
ENDBRANCH  12  17
ENDBRANCH   7  11
BRANCH   9  19
ATOM     19  C   UNL A   1      31.147  22.370  25.360  1.00  0.00     0.228 C 
ATOM     20  O   UNL A   1      30.412  21.937  26.252  1.00  0.00    -0.274 OA
BRANCH  19  21
ATOM     21  C   UNL A   1      31.986  21.429  24.511  1.00  0.00     0.157 C 
BRANCH  21  22
ATOM     22  C   UNL A   1      33.454  21.590  24.751  1.00  0.00     0.061 A 
ATOM     23  C   UNL A   1      34.154  21.176  25.870  1.00  0.00     0.091 A 
ATOM     24  N   UNL A   1      34.234  22.207  23.787  1.00  0.00    -0.246 NA
ATOM     25  S   UNL A   1      35.806  21.608  25.731  1.00  0.00    -0.127 S 
ATOM     26  C   UNL A   1      35.483  22.288  24.188  1.00  0.00     0.090 A 
ATOM     27  C   UNL A   1      36.580  22.910  23.401  1.00  0.00     0.079 C 
ENDBRANCH  21  22
ENDBRANCH  19  21
ENDBRANCH   9  19
ENDBRANCH   4   6
ENDBRANCH   3   4
ENDBRANCH   2   3
ENDBRANCH   1   2
BRANCH   1  28
ATOM     28  O   UNL A   1      33.545  31.059  27.461  1.00  0.00    -0.374 OA
BRANCH  28  29
ATOM     29  C   UNL A   1      32.267  31.496  26.991  1.00  0.00     0.202 C 
BRANCH  29  30
ATOM     30  C   UNL A   1      31.961  32.981  27.200  1.00  0.00     0.261 C 
BRANCH  30  31
ATOM     31  O   UNL A   1      33.187  33.734  27.333  1.00  0.00    -0.460 OA
BRANCH  31  32
ATOM     32  C   UNL A   1      33.222  34.531  28.422  1.00  0.00     0.338 C 
ATOM     33  O   UNL A   1      32.386  35.353  28.766  1.00  0.00    -0.246 OA
BRANCH  32  34
ATOM     34  C   UNL A   1      34.359  34.160  29.279  1.00  0.00     0.060 A 
ATOM     35  C   UNL A   1      35.648  34.439  28.808  1.00  0.00     0.016 A 
ATOM     36  C   UNL A   1      34.172  33.414  30.443  1.00  0.00     0.016 A 
ATOM     37  C   UNL A   1      36.759  33.919  29.473  1.00  0.00     0.010 A 
ATOM     38  C   UNL A   1      35.289  32.891  31.107  1.00  0.00     0.010 A 
ATOM     39  C   UNL A   1      36.584  33.102  30.598  1.00  0.00    -0.014 A 
BRANCH  39  40
ATOM     40  C   UNL A   1      37.744  32.344  31.133  1.00  0.00     0.031 A 
ATOM     41  C   UNL A   1      38.242  32.649  32.521  1.00  0.00     0.074 A 
ATOM     42  C   UNL A   1      38.317  31.361  30.418  1.00  0.00     0.049 A 
ATOM     43  N   UNL A   1      39.221  32.098  33.195  1.00  0.00    -0.248 NA
ATOM     44  C   UNL A   1      37.539  33.716  33.250  1.00  0.00     0.031 C 
ATOM     45  C   UNL A   1      37.906  30.940  29.082  1.00  0.00     0.029 A 
ATOM     46  N   UNL A   1      39.371  30.535  30.725  1.00  0.00    -0.354 N 
ATOM     47  C   UNL A   1      39.251  32.750  34.420  1.00  0.00     0.074 A 
ATOM     48  C   UNL A   1      38.215  33.758  34.389  1.00  0.00     0.031 C 
ATOM     49  C   UNL A   1      38.699  29.931  28.681  1.00  0.00     0.029 A 
ATOM     50  C   UNL A   1      39.687  29.652  29.722  1.00  0.00     0.049 A 
ATOM     51  H   UNL A   1      39.854  30.573  31.581  1.00  0.00     0.167 HD
ATOM     52  C   UNL A   1      40.064  32.523  35.480  1.00  0.00     0.037 A 
ATOM     53  C   UNL A   1      40.670  28.734  29.650  1.00  0.00     0.037 A 
ATOM     54  C   UNL A   1      41.092  31.518  35.521  1.00  0.00     0.049 A 
ATOM     55  C   UNL A   1      41.608  28.553  30.814  1.00  0.00     0.074 A 
ATOM     56  C   UNL A   1      41.943  31.192  36.563  1.00  0.00     0.029 A 
ATOM     57  N   UNL A   1      41.418  30.681  34.464  1.00  0.00    -0.354 N 
ATOM     58  N   UNL A   1      41.606  29.149  31.982  1.00  0.00    -0.248 NA
ATOM     59  C   UNL A   1      42.689  27.568  30.648  1.00  0.00     0.031 C 
ATOM     60  C   UNL A   1      42.813  30.189  36.122  1.00  0.00     0.029 A 
ATOM     61  C   UNL A   1      42.476  29.860  34.819  1.00  0.00     0.049 A 
ATOM     62  H   UNL A   1      40.963  30.671  33.591  1.00  0.00     0.167 HD
ATOM     63  C   UNL A   1      42.660  28.594  32.697  1.00  0.00     0.074 A 
ATOM     64  C   UNL A   1      43.276  27.607  31.836  1.00  0.00     0.031 C 
ATOM     65  C   UNL A   1      43.077  28.876  33.955  1.00  0.00     0.037 A 
BRANCH  52  66
ATOM     66  C   UNL A   1      39.885  33.398  36.686  1.00  0.00     0.064 A 
ATOM     67  C   UNL A   1      40.617  34.583  36.851  1.00  0.00     0.173 A 
ATOM     68  C   UNL A   1      38.947  33.062  37.673  1.00  0.00     0.173 A 
ATOM     69  F   UNL A   1      41.536  34.941  35.941  1.00  0.00    -0.203 F 
ATOM     70  C   UNL A   1      40.435  35.385  37.974  1.00  0.00     0.198 A 
ATOM     71  C   UNL A   1      38.750  33.879  38.782  1.00  0.00     0.198 A 
ATOM     72  F   UNL A   1      38.218  31.941  37.559  1.00  0.00    -0.203 F 
ATOM     73  F   UNL A   1      41.176  36.491  38.133  1.00  0.00    -0.200 F 
ATOM     74  C   UNL A   1      39.498  35.036  38.935  1.00  0.00     0.200 A 
ATOM     75  F   UNL A   1      37.838  33.544  39.706  1.00  0.00    -0.200 F 
ATOM     76  F   UNL A   1      39.322  35.812  40.014  1.00  0.00    -0.200 F 
ENDBRANCH  52  66
BRANCH  53  77
ATOM     77  C   UNL A   1      40.821  27.905  28.426  1.00  0.00     0.064 A 
ATOM     78  C   UNL A   1      40.207  26.650  28.325  1.00  0.00     0.173 A 
ATOM     79  C   UNL A   1      41.598  28.344  27.344  1.00  0.00     0.173 A 
ATOM     80  F   UNL A   1      39.478  26.177  29.347  1.00  0.00    -0.203 F 
ATOM     81  C   UNL A   1      40.373  25.858  27.190  1.00  0.00     0.198 A 
ATOM     82  C   UNL A   1      41.744  27.562  26.201  1.00  0.00     0.198 A 
ATOM     83  F   UNL A   1      42.211  29.535  27.398  1.00  0.00    -0.203 F 
ATOM     84  F   UNL A   1      39.809  24.644  27.134  1.00  0.00    -0.200 F 
ATOM     85  C   UNL A   1      41.136  26.318  26.127  1.00  0.00     0.200 A 
ATOM     86  F   UNL A   1      42.478  28.011  25.174  1.00  0.00    -0.200 F 
ATOM     87  F   UNL A   1      41.295  25.556  25.037  1.00  0.00    -0.200 F 
ENDBRANCH  53  77
BRANCH  65  88
ATOM     88  C   UNL A   1      44.235  28.087  34.493  1.00  0.00     0.064 A 
ATOM     89  C   UNL A   1      45.552  28.558  34.397  1.00  0.00     0.173 A 
ATOM     90  C   UNL A   1      44.019  26.864  35.147  1.00  0.00     0.173 A 
ATOM     91  F   UNL A   1      45.811  29.714  33.768  1.00  0.00    -0.203 F 
ATOM     92  C   UNL A   1      46.614  27.823  34.918  1.00  0.00     0.198 A 
ATOM     93  C   UNL A   1      45.080  26.145  35.689  1.00  0.00     0.198 A 
ATOM     94  F   UNL A   1      42.777  26.373  35.270  1.00  0.00    -0.203 F 
ATOM     95  F   UNL A   1      47.869  28.272  34.780  1.00  0.00    -0.200 F 
ATOM     96  C   UNL A   1      46.377  26.621  35.569  1.00  0.00     0.200 A 
ATOM     97  F   UNL A   1      44.848  24.989  36.327  1.00  0.00    -0.200 F 
ATOM     98  F   UNL A   1      47.400  25.918  36.075  1.00  0.00    -0.200 F 
ENDBRANCH  65  88
ENDBRANCH  39  40
ENDBRANCH  32  34
ENDBRANCH  31  32
ENDBRANCH  30  31
ENDBRANCH  29  30
ENDBRANCH  28  29
ENDBRANCH   1  28
TORSDOF 19
ENDMDL
MODEL 3
REMARK VINA RESULT:     -11.3      1.840      7.985
REMARK SMILES COc1ccccc1[C@@H]1CN(C(=O)Cc2csc(C)n2)C[C@H]1C(=O)OCCOCCOC(=O)c1ccc(-c2c3nc(c(-c4c(F)c(F)c(F)c(F)c4F)c4ccc([nH]4)c(-c4c(F)c(F)c(F)c(F)c4F)c4nc(c(-c5c(F)c(F)c(F)c(F)c5F)c5ccc2[nH]5)C=C4)C=C3)cc1
REMARK SMILES IDX 27 1 26 2 25 3 23 4 24 5 22 6 9 7 10 8 11 9 21 10 8 11 3 12
REMARK SMILES IDX 4 13 5 14 7 15 6 16 2 17 1 18 12 19 13 20 14 21 15 22 16 23
REMARK SMILES IDX 20 24 17 25 18 26 19 27 28 28 29 29 30 30 31 31 32 32 33 33
REMARK SMILES IDX 34 34 35 35 96 36 36 37 95 38 37 39 38 40 39 41 89 42 40 43
REMARK SMILES IDX 94 44 88 45 90 46 41 47 93 48 87 49 86 50 42 52 74 53 54 54
REMARK SMILES IDX 73 55 55 56 58 57 72 58 91 59 56 60 57 61 71 63 92 64 59 65
REMARK SMILES IDX 43 66 44 67 52 68 45 69 46 70 50 71 53 72 47 73 48 74 51 75
REMARK SMILES IDX 49 76 75 77 76 78 84 79 77 80 78 81 82 82 85 83 79 84 80 85
REMARK SMILES IDX 83 86 81 87 60 88 61 89 69 90 62 91 63 92 67 93 70 94 64 95
REMARK SMILES IDX 65 96 68 97 66 98
REMARK H PARENT 90 51 58 62
REMARK Flexibility Score: inf
ROOT
ATOM      1  C   UNL A   1      34.094  29.896  26.766  1.00  0.00     0.202 C 
ENDROOT
BRANCH   1   2
ATOM      2  C   UNL A   1      33.745  28.512  27.327  1.00  0.00     0.261 C 
BRANCH   2   3
ATOM      3  O   UNL A   1      32.616  27.884  26.696  1.00  0.00    -0.463 OA
BRANCH   3   4
ATOM      4  C   UNL A   1      32.896  26.704  26.080  1.00  0.00     0.311 C 
ATOM      5  O   UNL A   1      34.027  26.308  25.814  1.00  0.00    -0.252 OA
BRANCH   4   6
ATOM      6  C   UNL A   1      31.678  25.927  25.649  1.00  0.00     0.128 C 
ATOM      7  C   UNL A   1      31.337  25.803  24.150  1.00  0.00     0.058 C 
ATOM      8  C   UNL A   1      30.678  24.422  24.049  1.00  0.00     0.129 C 
ATOM      9  N   UNL A   1      31.254  23.644  25.125  1.00  0.00    -0.341 N 
ATOM     10  C   UNL A   1      31.876  24.491  26.122  1.00  0.00     0.135 C 
BRANCH   7  11
ATOM     11  C   UNL A   1      30.435  26.866  23.542  1.00  0.00    -0.000 A 
ATOM     12  C   UNL A   1      30.906  27.921  22.735  1.00  0.00     0.122 A 
ATOM     13  C   UNL A   1      30.034  28.894  22.235  1.00  0.00     0.047 A 
ATOM     14  C   UNL A   1      28.676  28.839  22.547  1.00  0.00     0.004 A 
ATOM     15  C   UNL A   1      29.067  26.851  23.865  1.00  0.00     0.008 A 
ATOM     16  C   UNL A   1      28.196  27.828  23.374  1.00  0.00     0.001 A 
BRANCH  12  17
ATOM     17  O   UNL A   1      32.258  28.093  22.603  1.00  0.00    -0.496 OA
ATOM     18  C   UNL A   1      32.779  29.186  23.353  1.00  0.00     0.278 C 
ENDBRANCH  12  17
ENDBRANCH   7  11
BRANCH   9  19
ATOM     19  C   UNL A   1      31.144  22.283  25.323  1.00  0.00     0.228 C 
ATOM     20  O   UNL A   1      30.429  21.830  26.220  1.00  0.00    -0.274 OA
BRANCH  19  21
ATOM     21  C   UNL A   1      31.993  21.366  24.457  1.00  0.00     0.157 C 
BRANCH  21  22
ATOM     22  C   UNL A   1      33.458  21.534  24.704  1.00  0.00     0.061 A 
ATOM     23  C   UNL A   1      34.161  21.101  25.814  1.00  0.00     0.091 A 
ATOM     24  N   UNL A   1      34.234  22.179  23.755  1.00  0.00    -0.246 NA
ATOM     25  S   UNL A   1      35.808  21.551  25.688  1.00  0.00    -0.127 S 
ATOM     26  C   UNL A   1      35.482  22.262  24.159  1.00  0.00     0.090 A 
ATOM     27  C   UNL A   1      36.574  22.911  23.387  1.00  0.00     0.079 C 
ENDBRANCH  21  22
ENDBRANCH  19  21
ENDBRANCH   9  19
ENDBRANCH   4   6
ENDBRANCH   3   4
ENDBRANCH   2   3
ENDBRANCH   1   2
BRANCH   1  28
ATOM     28  O   UNL A   1      33.531  31.018  27.436  1.00  0.00    -0.374 OA
BRANCH  28  29
ATOM     29  C   UNL A   1      32.258  31.490  26.984  1.00  0.00     0.202 C 
BRANCH  29  30
ATOM     30  C   UNL A   1      31.973  32.970  27.249  1.00  0.00     0.261 C 
BRANCH  30  31
ATOM     31  O   UNL A   1      33.209  33.705  27.378  1.00  0.00    -0.460 OA
BRANCH  31  32
ATOM     32  C   UNL A   1      33.255  34.512  28.461  1.00  0.00     0.338 C 
ATOM     33  O   UNL A   1      32.433  35.353  28.793  1.00  0.00    -0.246 OA
BRANCH  32  34
ATOM     34  C   UNL A   1      34.379  34.126  29.326  1.00  0.00     0.060 A 
ATOM     35  C   UNL A   1      35.674  34.431  28.887  1.00  0.00     0.016 A 
ATOM     36  C   UNL A   1      34.179  33.346  30.466  1.00  0.00     0.016 A 
ATOM     37  C   UNL A   1      36.778  33.902  29.556  1.00  0.00     0.010 A 
ATOM     38  C   UNL A   1      35.290  32.815  31.134  1.00  0.00     0.010 A 
ATOM     39  C   UNL A   1      36.592  33.052  30.655  1.00  0.00    -0.014 A 
BRANCH  39  40
ATOM     40  C   UNL A   1      37.749  32.289  31.189  1.00  0.00     0.031 A 
ATOM     41  C   UNL A   1      38.253  32.596  32.574  1.00  0.00     0.074 A 
ATOM     42  C   UNL A   1      38.315  31.301  30.475  1.00  0.00     0.049 A 
ATOM     43  N   UNL A   1      39.231  32.043  33.246  1.00  0.00    -0.248 NA
ATOM     44  C   UNL A   1      37.558  33.670  33.301  1.00  0.00     0.031 C 
ATOM     45  C   UNL A   1      37.897  30.877  29.142  1.00  0.00     0.029 A 
ATOM     46  N   UNL A   1      39.365  30.471  30.781  1.00  0.00    -0.354 N 
ATOM     47  C   UNL A   1      39.269  32.699  34.469  1.00  0.00     0.074 A 
ATOM     48  C   UNL A   1      38.237  33.712  34.438  1.00  0.00     0.031 C 
ATOM     49  C   UNL A   1      38.683  29.863  28.742  1.00  0.00     0.029 A 
ATOM     50  C   UNL A   1      39.673  29.582  29.781  1.00  0.00     0.049 A 
ATOM     51  H   UNL A   1      39.850  30.509  31.636  1.00  0.00     0.167 HD
ATOM     52  C   UNL A   1      40.083  32.471  35.528  1.00  0.00     0.037 A 
ATOM     53  C   UNL A   1      40.650  28.659  29.708  1.00  0.00     0.037 A 
ATOM     54  C   UNL A   1      41.107  31.461  35.568  1.00  0.00     0.049 A 
ATOM     55  C   UNL A   1      41.592  28.476  30.871  1.00  0.00     0.074 A 
ATOM     56  C   UNL A   1      41.959  31.134  36.609  1.00  0.00     0.029 A 
ATOM     57  N   UNL A   1      41.424  30.618  34.513  1.00  0.00    -0.354 N 
ATOM     58  N   UNL A   1      41.596  29.077  32.036  1.00  0.00    -0.248 NA
ATOM     59  C   UNL A   1      42.666  27.485  30.704  1.00  0.00     0.031 C 
ATOM     60  C   UNL A   1      42.822  30.125  36.169  1.00  0.00     0.029 A 
ATOM     61  C   UNL A   1      42.479  29.793  34.868  1.00  0.00     0.049 A 
ATOM     62  H   UNL A   1      40.967  30.607  33.642  1.00  0.00     0.167 HD
ATOM     63  C   UNL A   1      42.649  28.519  32.750  1.00  0.00     0.074 A 
ATOM     64  C   UNL A   1      43.258  27.526  31.890  1.00  0.00     0.031 C 
ATOM     65  C   UNL A   1      43.072  28.803  34.006  1.00  0.00     0.037 A 
BRANCH  52  66
ATOM     66  C   UNL A   1      39.913  33.351  36.731  1.00  0.00     0.064 A 
ATOM     67  C   UNL A   1      38.982  33.052  37.736  1.00  0.00     0.173 A 
ATOM     68  C   UNL A   1      40.712  34.493  36.893  1.00  0.00     0.173 A 
ATOM     69  F   UNL A   1      38.185  31.979  37.621  1.00  0.00    -0.203 F 
ATOM     70  C   UNL A   1      38.841  33.878  38.848  1.00  0.00     0.198 A 
ATOM     71  C   UNL A   1      40.585  35.302  38.017  1.00  0.00     0.198 A 
ATOM     72  F   UNL A   1      41.620  34.819  35.961  1.00  0.00    -0.203 F 
ATOM     73  F   UNL A   1      37.916  33.597  39.777  1.00  0.00    -0.200 F 
ATOM     74  C   UNL A   1      39.646  34.999  38.991  1.00  0.00     0.200 A 
ATOM     75  F   UNL A   1      41.370  36.380  38.157  1.00  0.00    -0.200 F 
ATOM     76  F   UNL A   1      39.510  35.791  40.063  1.00  0.00    -0.200 F 
ENDBRANCH  52  66
BRANCH  53  77
ATOM     77  C   UNL A   1      40.793  27.825  28.487  1.00  0.00     0.064 A 
ATOM     78  C   UNL A   1      41.553  28.268  27.397  1.00  0.00     0.173 A 
ATOM     79  C   UNL A   1      40.158  26.580  28.381  1.00  0.00     0.173 A 
ATOM     80  F   UNL A   1      42.156  29.465  27.443  1.00  0.00    -0.203 F 
ATOM     81  C   UNL A   1      41.663  27.501  26.238  1.00  0.00     0.198 A 
ATOM     82  C   UNL A   1      40.287  25.804  27.231  1.00  0.00     0.198 A 
ATOM     83  F   UNL A   1      39.413  26.118  29.395  1.00  0.00    -0.203 F 
ATOM     84  F   UNL A   1      42.362  27.965  25.194  1.00  0.00    -0.200 F 
ATOM     85  C   UNL A   1      41.035  26.266  26.159  1.00  0.00     0.200 A 
ATOM     86  F   UNL A   1      39.683  24.610  27.161  1.00  0.00    -0.200 F 
ATOM     87  F   UNL A   1      41.141  25.530  25.046  1.00  0.00    -0.200 F 
ENDBRANCH  53  77
BRANCH  65  88
ATOM     88  C   UNL A   1      44.227  28.009  34.543  1.00  0.00     0.064 A 
ATOM     89  C   UNL A   1      45.548  28.470  34.435  1.00  0.00     0.173 A 
ATOM     90  C   UNL A   1      44.007  26.793  35.207  1.00  0.00     0.173 A 
ATOM     91  F   UNL A   1      45.811  29.620  33.796  1.00  0.00    -0.203 F 
ATOM     92  C   UNL A   1      46.607  27.731  34.956  1.00  0.00     0.198 A 
ATOM     93  C   UNL A   1      45.066  26.070  35.748  1.00  0.00     0.198 A 
ATOM     94  F   UNL A   1      42.762  26.312  35.341  1.00  0.00    -0.203 F 
ATOM     95  F   UNL A   1      47.865  28.170  34.806  1.00  0.00    -0.200 F 
ATOM     96  C   UNL A   1      46.366  26.536  35.617  1.00  0.00     0.200 A 
ATOM     97  F   UNL A   1      44.829  24.921  36.397  1.00  0.00    -0.200 F 
ATOM     98  F   UNL A   1      47.386  25.829  36.122  1.00  0.00    -0.200 F 
ENDBRANCH  65  88
ENDBRANCH  39  40
ENDBRANCH  32  34
ENDBRANCH  31  32
ENDBRANCH  30  31
ENDBRANCH  29  30
ENDBRANCH  28  29
ENDBRANCH   1  28
TORSDOF 19
ENDMDL
