MODEL 1
REMARK VINA RESULT:     -10.7      0.000      0.000
REMARK SMILES CC[C@H]1CC[C@](CC(C)(C)O)(C(=O)OCCOCCOC(=O)c2ccc(-c3c4nc(c(-c5c(F)c(F)c(F)c(F)c5F)c5ccc([nH]5)c(-c5c(F)c(F)c(F)c(F)c5F)c5nc(c(-c6c(F)c(F)c(F)c(F)c6F)c6ccc3[nH]6)C=C5)C=C4)cc2)C1
REMARK SMILES IDX 16 1 15 2 14 3 12 4 13 5 6 6 3 7 4 8 86 9 5 10 2 11 1 12
REMARK SMILES IDX 7 13 8 14 9 15 10 16 11 17 17 19 18 20 19 21 20 22 21 23
REMARK SMILES IDX 22 24 23 25 24 26 85 27 25 28 84 29 26 30 27 31 28 32 78 33
REMARK SMILES IDX 29 34 83 35 77 36 79 37 30 38 82 39 76 40 75 41 31 43 63 44
REMARK SMILES IDX 43 45 62 46 44 47 47 48 61 49 80 50 45 51 46 52 60 54 81 55
REMARK SMILES IDX 48 56 32 57 33 58 41 59 34 60 35 61 39 62 42 63 36 64 37 65
REMARK SMILES IDX 40 66 38 67 64 68 65 69 73 70 66 71 67 72 71 73 74 74 68 75
REMARK SMILES IDX 69 76 72 77 70 78 49 79 50 80 58 81 51 82 52 83 56 84 59 85
REMARK SMILES IDX 53 86 54 87 57 88 55 89
REMARK H PARENT 11 18 79 42 47 53
REMARK Flexibility Score: inf
ROOT
ATOM      1  C   UNL A   1      33.322  28.665  23.743  1.00  0.00     0.202 C 
ENDROOT
BRANCH   1   2
ATOM      2  C   UNL A   1      32.887  27.205  23.599  1.00  0.00     0.261 C 
BRANCH   2   3
ATOM      3  O   UNL A   1      33.948  26.274  23.897  1.00  0.00    -0.463 OA
BRANCH   3   4
ATOM      4  C   UNL A   1      33.936  25.137  23.141  1.00  0.00     0.312 C 
ATOM      5  O   UNL A   1      33.662  25.120  21.946  1.00  0.00    -0.252 OA
BRANCH   4   6
ATOM      6  C   UNL A   1      34.274  23.872  23.956  1.00  0.00     0.071 C 
ATOM      7  C   UNL A   1      35.742  23.048  25.775  1.00  0.00    -0.010 C 
ATOM      8  C   UNL A   1      36.457  22.767  24.459  1.00  0.00     0.005 C 
ATOM      9  C   UNL A   1      34.733  24.160  25.411  1.00  0.00     0.022 C 
ATOM     10  C   UNL A   1      35.576  23.310  23.342  1.00  0.00     0.019 C 
BRANCH   7  11
ATOM     11  C   UNL A   1      35.104  21.825  26.460  1.00  0.00     0.000 C 
ATOM     12  C   UNL A   1      34.150  22.144  27.605  1.00  0.00     0.004 C 
ENDBRANCH   7  11
BRANCH   6  13
ATOM     13  C   UNL A   1      32.979  22.998  23.983  1.00  0.00     0.053 C 
BRANCH  13  14
ATOM     14  C   UNL A   1      31.682  23.529  24.625  1.00  0.00     0.060 C 
ATOM     15  C   UNL A   1      30.655  24.025  23.603  1.00  0.00     0.042 C 
ATOM     16  C   UNL A   1      31.030  22.397  25.437  1.00  0.00     0.042 C 
BRANCH  14  17
ATOM     17  O   UNL A   1      32.014  24.572  25.529  1.00  0.00    -0.390 OA
ATOM     18  H   UNL A   1      31.733  24.327  26.424  1.00  0.00     0.211 HD
ENDBRANCH  14  17
ENDBRANCH  13  14
ENDBRANCH   6  13
ENDBRANCH   4   6
ENDBRANCH   3   4
ENDBRANCH   2   3
ENDBRANCH   1   2
BRANCH   1  19
ATOM     19  O   UNL A   1      32.313  29.616  24.081  1.00  0.00    -0.374 OA
BRANCH  19  20
ATOM     20  C   UNL A   1      31.748  29.540  25.386  1.00  0.00     0.202 C 
BRANCH  20  21
ATOM     21  C   UNL A   1      31.779  30.827  26.223  1.00  0.00     0.261 C 
BRANCH  21  22
ATOM     22  O   UNL A   1      32.654  30.742  27.363  1.00  0.00    -0.460 OA
BRANCH  22  23
ATOM     23  C   UNL A   1      33.435  31.832  27.552  1.00  0.00     0.338 C 
ATOM     24  O   UNL A   1      33.076  33.000  27.626  1.00  0.00    -0.246 OA
BRANCH  23  25
ATOM     25  C   UNL A   1      34.829  31.442  27.829  1.00  0.00     0.060 A 
ATOM     26  C   UNL A   1      35.092  30.075  27.992  1.00  0.00     0.016 A 
ATOM     27  C   UNL A   1      35.829  32.389  28.061  1.00  0.00     0.016 A 
ATOM     28  C   UNL A   1      36.337  29.653  28.449  1.00  0.00     0.010 A 
ATOM     29  C   UNL A   1      37.080  31.961  28.529  1.00  0.00     0.010 A 
ATOM     30  C   UNL A   1      37.323  30.596  28.768  1.00  0.00    -0.014 A 
BRANCH  30  31
ATOM     31  C   UNL A   1      38.523  30.141  29.514  1.00  0.00     0.031 A 
ATOM     32  C   UNL A   1      38.724  30.608  30.931  1.00  0.00     0.074 A 
ATOM     33  C   UNL A   1      39.378  29.256  28.971  1.00  0.00     0.049 A 
ATOM     34  N   UNL A   1      39.652  30.276  31.793  1.00  0.00    -0.248 NA
ATOM     35  C   UNL A   1      37.743  31.575  31.447  1.00  0.00     0.031 C 
ATOM     36  C   UNL A   1      39.277  28.703  27.623  1.00  0.00     0.029 A 
ATOM     37  N   UNL A   1      40.495  28.658  29.499  1.00  0.00    -0.354 N 
ATOM     38  C   UNL A   1      39.362  30.986  32.952  1.00  0.00     0.074 A 
ATOM     39  C   UNL A   1      38.195  31.795  32.672  1.00  0.00     0.031 C 
ATOM     40  C   UNL A   1      40.289  27.842  27.429  1.00  0.00     0.029 A 
ATOM     41  C   UNL A   1      41.118  27.795  28.633  1.00  0.00     0.049 A 
ATOM     42  H   UNL A   1      40.819  28.831  30.413  1.00  0.00     0.167 HD
ATOM     43  C   UNL A   1      40.000  30.954  34.147  1.00  0.00     0.037 A 
ATOM     44  C   UNL A   1      42.232  27.053  28.794  1.00  0.00     0.037 A 
ATOM     45  C   UNL A   1      41.158  30.149  34.429  1.00  0.00     0.049 A 
ATOM     46  C   UNL A   1      42.955  27.079  30.115  1.00  0.00     0.074 A 
ATOM     47  C   UNL A   1      41.862  30.036  35.616  1.00  0.00     0.029 A 
ATOM     48  N   UNL A   1      41.787  29.323  33.511  1.00  0.00    -0.354 N 
ATOM     49  N   UNL A   1      42.653  27.726  31.215  1.00  0.00    -0.248 NA
ATOM     50  C   UNL A   1      44.174  26.262  30.218  1.00  0.00     0.031 C 
ATOM     51  C   UNL A   1      42.944  29.174  35.402  1.00  0.00     0.029 A 
ATOM     52  C   UNL A   1      42.887  28.716  34.096  1.00  0.00     0.049 A 
ATOM     53  H   UNL A   1      41.495  29.188  32.581  1.00  0.00     0.167 HD
ATOM     54  C   UNL A   1      43.626  27.380  32.143  1.00  0.00     0.074 A 
ATOM     55  C   UNL A   1      44.520  26.451  31.485  1.00  0.00     0.031 C 
ATOM     56  C   UNL A   1      43.769  27.796  33.426  1.00  0.00     0.037 A 
BRANCH  43  57
ATOM     57  C   UNL A   1      39.464  31.834  35.236  1.00  0.00     0.064 A 
ATOM     58  C   UNL A   1      38.575  31.346  36.206  1.00  0.00     0.173 A 
ATOM     59  C   UNL A   1      39.868  33.174  35.330  1.00  0.00     0.173 A 
ATOM     60  F   UNL A   1      38.149  30.075  36.151  1.00  0.00    -0.203 F 
ATOM     61  C   UNL A   1      38.092  32.174  37.216  1.00  0.00     0.198 A 
ATOM     62  C   UNL A   1      39.402  33.993  36.356  1.00  0.00     0.198 A 
ATOM     63  F   UNL A   1      40.719  33.689  34.430  1.00  0.00    -0.203 F 
ATOM     64  F   UNL A   1      37.211  31.698  38.107  1.00  0.00    -0.200 F 
ATOM     65  C   UNL A   1      38.510  33.494  37.293  1.00  0.00     0.200 A 
ATOM     66  F   UNL A   1      39.814  35.265  36.435  1.00  0.00    -0.200 F 
ATOM     67  F   UNL A   1      38.047  34.289  38.269  1.00  0.00    -0.200 F 
ENDBRANCH  43  57
BRANCH  44  68
ATOM     68  C   UNL A   1      42.735  26.219  27.674  1.00  0.00     0.064 A 
ATOM     69  C   UNL A   1      42.272  24.910  27.479  1.00  0.00     0.173 A 
ATOM     70  C   UNL A   1      43.705  26.707  26.786  1.00  0.00     0.173 A 
ATOM     71  F   UNL A   1      41.365  24.389  28.318  1.00  0.00    -0.203 F 
ATOM     72  C   UNL A   1      42.774  24.116  26.449  1.00  0.00     0.198 A 
ATOM     73  C   UNL A   1      44.187  25.922  25.743  1.00  0.00     0.198 A 
ATOM     74  F   UNL A   1      44.183  27.952  26.934  1.00  0.00    -0.203 F 
ATOM     75  F   UNL A   1      42.348  22.852  26.313  1.00  0.00    -0.200 F 
ATOM     76  C   UNL A   1      43.727  24.624  25.579  1.00  0.00     0.200 A 
ATOM     77  F   UNL A   1      45.101  26.420  24.899  1.00  0.00    -0.200 F 
ATOM     78  F   UNL A   1      44.208  23.861  24.589  1.00  0.00    -0.200 F 
ENDBRANCH  44  68
BRANCH  56  79
ATOM     79  C   UNL A   1      44.924  27.235  34.205  1.00  0.00     0.064 A 
ATOM     80  C   UNL A   1      46.162  27.894  34.255  1.00  0.00     0.173 A 
ATOM     81  C   UNL A   1      44.784  26.043  34.929  1.00  0.00     0.173 A 
ATOM     82  F   UNL A   1      46.351  29.030  33.567  1.00  0.00    -0.203 F 
ATOM     83  C   UNL A   1      47.226  27.363  34.981  1.00  0.00     0.198 A 
ATOM     84  C   UNL A   1      45.841  25.530  35.677  1.00  0.00     0.198 A 
ATOM     85  F   UNL A   1      43.618  25.379  34.921  1.00  0.00    -0.203 F 
ATOM     86  F   UNL A   1      48.413  27.982  34.975  1.00  0.00    -0.200 F 
ATOM     87  C   UNL A   1      47.062  26.185  35.695  1.00  0.00     0.200 A 
ATOM     88  F   UNL A   1      45.679  24.398  36.375  1.00  0.00    -0.200 F 
ATOM     89  F   UNL A   1      48.086  25.676  36.393  1.00  0.00    -0.200 F 
ENDBRANCH  56  79
ENDBRANCH  30  31
ENDBRANCH  23  25
ENDBRANCH  22  23
ENDBRANCH  21  22
ENDBRANCH  20  21
ENDBRANCH  19  20
ENDBRANCH   1  19
TORSDOF 18
ENDMDL
MODEL 2
REMARK VINA RESULT:     -10.6      1.119      2.368
REMARK SMILES CC[C@H]1CC[C@](CC(C)(C)O)(C(=O)OCCOCCOC(=O)c2ccc(-c3c4nc(c(-c5c(F)c(F)c(F)c(F)c5F)c5ccc([nH]5)c(-c5c(F)c(F)c(F)c(F)c5F)c5nc(c(-c6c(F)c(F)c(F)c(F)c6F)c6ccc3[nH]6)C=C5)C=C4)cc2)C1
REMARK SMILES IDX 16 1 15 2 14 3 12 4 13 5 6 6 3 7 4 8 86 9 5 10 2 11 1 12
REMARK SMILES IDX 7 13 8 14 9 15 10 16 11 17 17 19 18 20 19 21 20 22 21 23
REMARK SMILES IDX 22 24 23 25 24 26 85 27 25 28 84 29 26 30 27 31 28 32 78 33
REMARK SMILES IDX 29 34 83 35 77 36 79 37 30 38 82 39 76 40 75 41 31 43 63 44
REMARK SMILES IDX 43 45 62 46 44 47 47 48 61 49 80 50 45 51 46 52 60 54 81 55
REMARK SMILES IDX 48 56 32 57 33 58 41 59 34 60 35 61 39 62 42 63 36 64 37 65
REMARK SMILES IDX 40 66 38 67 64 68 65 69 73 70 66 71 67 72 71 73 74 74 68 75
REMARK SMILES IDX 69 76 72 77 70 78 49 79 50 80 58 81 51 82 52 83 56 84 59 85
REMARK SMILES IDX 53 86 54 87 57 88 55 89
REMARK H PARENT 11 18 79 42 47 53
REMARK Flexibility Score: inf
ROOT
ATOM      1  C   UNL A   1      32.078  29.182  26.763  1.00  0.00     0.202 C 
ENDROOT
BRANCH   1   2
ATOM      2  C   UNL A   1      31.291  28.217  25.873  1.00  0.00     0.261 C 
BRANCH   2   3
ATOM      3  O   UNL A   1      32.106  27.146  25.354  1.00  0.00    -0.463 OA
BRANCH   3   4
ATOM      4  C   UNL A   1      31.723  25.896  25.750  1.00  0.00     0.312 C 
ATOM      5  O   UNL A   1      30.811  25.686  26.541  1.00  0.00    -0.252 OA
BRANCH   4   6
ATOM      6  C   UNL A   1      32.580  24.780  25.120  1.00  0.00     0.071 C 
ATOM      7  C   UNL A   1      33.887  24.223  23.088  1.00  0.00    -0.010 C 
ATOM      8  C   UNL A   1      32.475  23.687  22.875  1.00  0.00     0.005 C 
ATOM      9  C   UNL A   1      33.706  25.296  24.184  1.00  0.00     0.022 C 
ATOM     10  C   UNL A   1      31.659  24.065  24.104  1.00  0.00     0.019 C 
BRANCH   7  11
ATOM     11  C   UNL A   1      34.956  23.166  23.418  1.00  0.00     0.000 C 
ATOM     12  C   UNL A   1      36.098  23.649  24.305  1.00  0.00     0.004 C 
ENDBRANCH   7  11
BRANCH   6  13
ATOM     13  C   UNL A   1      33.212  23.979  26.302  1.00  0.00     0.053 C 
BRANCH  13  14
ATOM     14  C   UNL A   1      32.603  22.640  26.764  1.00  0.00     0.060 C 
ATOM     15  C   UNL A   1      32.565  21.576  25.663  1.00  0.00     0.042 C 
ATOM     16  C   UNL A   1      33.443  22.086  27.926  1.00  0.00     0.042 C 
BRANCH  14  17
ATOM     17  O   UNL A   1      31.292  22.881  27.255  1.00  0.00    -0.390 OA
ATOM     18  H   UNL A   1      30.786  22.054  27.245  1.00  0.00     0.211 HD
ENDBRANCH  14  17
ENDBRANCH  13  14
ENDBRANCH   6  13
ENDBRANCH   4   6
ENDBRANCH   3   4
ENDBRANCH   2   3
ENDBRANCH   1   2
BRANCH   1  19
ATOM     19  O   UNL A   1      32.401  30.459  26.216  1.00  0.00    -0.374 OA
BRANCH  19  20
ATOM     20  C   UNL A   1      31.450  31.506  26.386  1.00  0.00     0.202 C 
BRANCH  20  21
ATOM     21  C   UNL A   1      31.979  32.824  26.971  1.00  0.00     0.261 C 
BRANCH  21  22
ATOM     22  O   UNL A   1      32.977  32.632  27.992  1.00  0.00    -0.460 OA
BRANCH  22  23
ATOM     23  C   UNL A   1      34.007  33.509  27.941  1.00  0.00     0.338 C 
ATOM     24  O   UNL A   1      33.941  34.727  27.831  1.00  0.00    -0.246 OA
BRANCH  23  25
ATOM     25  C   UNL A   1      35.291  32.834  28.198  1.00  0.00     0.060 A 
ATOM     26  C   UNL A   1      35.248  31.459  28.467  1.00  0.00     0.016 A 
ATOM     27  C   UNL A   1      36.489  33.542  28.310  1.00  0.00     0.016 A 
ATOM     28  C   UNL A   1      36.391  30.800  28.912  1.00  0.00     0.010 A 
ATOM     29  C   UNL A   1      37.636  32.877  28.766  1.00  0.00     0.010 A 
ATOM     30  C   UNL A   1      37.580  31.514  29.112  1.00  0.00    -0.014 A 
BRANCH  30  31
ATOM     31  C   UNL A   1      38.687  30.854  29.849  1.00  0.00     0.031 A 
ATOM     32  C   UNL A   1      38.890  31.177  31.304  1.00  0.00     0.074 A 
ATOM     33  C   UNL A   1      39.447  29.916  29.256  1.00  0.00     0.049 A 
ATOM     34  N   UNL A   1      39.739  30.664  32.160  1.00  0.00    -0.248 NA
ATOM     35  C   UNL A   1      38.016  32.214  31.874  1.00  0.00     0.031 C 
ATOM     36  C   UNL A   1      39.329  29.491  27.864  1.00  0.00     0.029 A 
ATOM     37  N   UNL A   1      40.462  29.143  29.762  1.00  0.00    -0.354 N 
ATOM     38  C   UNL A   1      39.494  31.309  33.367  1.00  0.00     0.074 A 
ATOM     39  C   UNL A   1      38.447  32.277  33.125  1.00  0.00     0.031 C 
ATOM     40  C   UNL A   1      40.236  28.528  27.625  1.00  0.00     0.029 A 
ATOM     41  C   UNL A   1      41.008  28.282  28.843  1.00  0.00     0.049 A 
ATOM     42  H   UNL A   1      40.771  29.201  30.695  1.00  0.00     0.167 HD
ATOM     43  C   UNL A   1      40.079  31.102  34.571  1.00  0.00     0.037 A 
ATOM     44  C   UNL A   1      42.015  27.397  28.971  1.00  0.00     0.037 A 
ATOM     45  C   UNL A   1      41.119  30.139  34.816  1.00  0.00     0.049 A 
ATOM     46  C   UNL A   1      42.687  27.226  30.308  1.00  0.00     0.074 A 
ATOM     47  C   UNL A   1      41.760  29.844  36.007  1.00  0.00     0.029 A 
ATOM     48  N   UNL A   1      41.677  29.317  33.849  1.00  0.00    -0.354 N 
ATOM     49  N   UNL A   1      42.426  27.815  31.451  1.00  0.00    -0.248 NA
ATOM     50  C   UNL A   1      43.792  26.258  30.375  1.00  0.00     0.031 C 
ATOM     51  C   UNL A   1      42.736  28.874  35.751  1.00  0.00     0.029 A 
ATOM     52  C   UNL A   1      42.672  28.533  34.410  1.00  0.00     0.049 A 
ATOM     53  H   UNL A   1      41.405  29.295  32.903  1.00  0.00     0.167 HD
ATOM     54  C   UNL A   1      43.314  27.277  32.371  1.00  0.00     0.074 A 
ATOM     55  C   UNL A   1      44.112  26.299  31.661  1.00  0.00     0.031 C 
ATOM     56  C   UNL A   1      43.459  27.567  33.688  1.00  0.00     0.037 A 
BRANCH  43  57
ATOM     57  C   UNL A   1      39.615  31.951  35.717  1.00  0.00     0.064 A 
ATOM     58  C   UNL A   1      40.213  33.188  36.005  1.00  0.00     0.173 A 
ATOM     59  C   UNL A   1      38.540  31.538  36.517  1.00  0.00     0.173 A 
ATOM     60  F   UNL A   1      41.253  33.620  35.277  1.00  0.00    -0.203 F 
ATOM     61  C   UNL A   1      39.765  33.969  37.068  1.00  0.00     0.198 A 
ATOM     62  C   UNL A   1      38.079  32.333  37.564  1.00  0.00     0.198 A 
ATOM     63  F   UNL A   1      37.932  30.366  36.282  1.00  0.00    -0.203 F 
ATOM     64  F   UNL A   1      40.377  35.126  37.352  1.00  0.00    -0.200 F 
ATOM     65  C   UNL A   1      38.696  33.543  37.842  1.00  0.00     0.200 A 
ATOM     66  F   UNL A   1      37.040  31.925  38.305  1.00  0.00    -0.200 F 
ATOM     67  F   UNL A   1      38.264  34.298  38.863  1.00  0.00    -0.200 F 
ENDBRANCH  43  57
BRANCH  44  68
ATOM     68  C   UNL A   1      42.454  26.599  27.798  1.00  0.00     0.064 A 
ATOM     69  C   UNL A   1      43.438  27.077  26.922  1.00  0.00     0.173 A 
ATOM     70  C   UNL A   1      41.882  25.349  27.518  1.00  0.00     0.173 A 
ATOM     71  F   UNL A   1      43.994  28.279  27.131  1.00  0.00    -0.203 F 
ATOM     72  C   UNL A   1      43.820  26.343  25.800  1.00  0.00     0.198 A 
ATOM     73  C   UNL A   1      42.283  24.605  26.413  1.00  0.00     0.198 A 
ATOM     74  F   UNL A   1      40.933  24.850  28.324  1.00  0.00    -0.203 F 
ATOM     75  F   UNL A   1      44.730  26.843  24.953  1.00  0.00    -0.200 F 
ATOM     76  C   UNL A   1      43.247  25.105  25.549  1.00  0.00     0.200 A 
ATOM     77  F   UNL A   1      41.732  23.405  26.179  1.00  0.00    -0.200 F 
ATOM     78  F   UNL A   1      43.615  24.399  24.472  1.00  0.00    -0.200 F 
ENDBRANCH  44  68
BRANCH  56  79
ATOM     79  C   UNL A   1      44.508  26.806  34.448  1.00  0.00     0.064 A 
ATOM     80  C   UNL A   1      45.812  27.302  34.592  1.00  0.00     0.173 A 
ATOM     81  C   UNL A   1      44.198  25.583  35.060  1.00  0.00     0.173 A 
ATOM     82  F   UNL A   1      46.162  28.461  34.014  1.00  0.00    -0.203 F 
ATOM     83  C   UNL A   1      46.775  26.586  35.299  1.00  0.00     0.198 A 
ATOM     84  C   UNL A   1      45.156  24.883  35.789  1.00  0.00     0.198 A 
ATOM     85  F   UNL A   1      42.962  25.069  34.959  1.00  0.00    -0.203 F 
ATOM     86  F   UNL A   1      48.028  27.055  35.382  1.00  0.00    -0.200 F 
ATOM     87  C   UNL A   1      46.445  25.381  35.901  1.00  0.00     0.200 A 
ATOM     88  F   UNL A   1      44.833  23.725  36.380  1.00  0.00    -0.200 F 
ATOM     89  F   UNL A   1      47.373  24.694  36.581  1.00  0.00    -0.200 F 
ENDBRANCH  56  79
ENDBRANCH  30  31
ENDBRANCH  23  25
ENDBRANCH  22  23
ENDBRANCH  21  22
ENDBRANCH  20  21
ENDBRANCH  19  20
ENDBRANCH   1  19
TORSDOF 18
ENDMDL
MODEL 3
REMARK VINA RESULT:     -10.6      0.967      1.653
REMARK SMILES CC[C@H]1CC[C@](CC(C)(C)O)(C(=O)OCCOCCOC(=O)c2ccc(-c3c4nc(c(-c5c(F)c(F)c(F)c(F)c5F)c5ccc([nH]5)c(-c5c(F)c(F)c(F)c(F)c5F)c5nc(c(-c6c(F)c(F)c(F)c(F)c6F)c6ccc3[nH]6)C=C5)C=C4)cc2)C1
REMARK SMILES IDX 16 1 15 2 14 3 12 4 13 5 6 6 3 7 4 8 86 9 5 10 2 11 1 12
REMARK SMILES IDX 7 13 8 14 9 15 10 16 11 17 17 19 18 20 19 21 20 22 21 23
REMARK SMILES IDX 22 24 23 25 24 26 85 27 25 28 84 29 26 30 27 31 28 32 78 33
REMARK SMILES IDX 29 34 83 35 77 36 79 37 30 38 82 39 76 40 75 41 31 43 63 44
REMARK SMILES IDX 43 45 62 46 44 47 47 48 61 49 80 50 45 51 46 52 60 54 81 55
REMARK SMILES IDX 48 56 32 57 33 58 41 59 34 60 35 61 39 62 42 63 36 64 37 65
REMARK SMILES IDX 40 66 38 67 64 68 65 69 73 70 66 71 67 72 71 73 74 74 68 75
REMARK SMILES IDX 69 76 72 77 70 78 49 79 50 80 58 81 51 82 52 83 56 84 59 85
REMARK SMILES IDX 53 86 54 87 57 88 55 89
REMARK H PARENT 11 18 79 42 47 53
REMARK Flexibility Score: inf
ROOT
ATOM      1  C   UNL A   1      33.029  28.460  26.281  1.00  0.00     0.202 C 
ENDROOT
BRANCH   1   2
ATOM      2  C   UNL A   1      31.823  27.879  27.021  1.00  0.00     0.261 C 
BRANCH   2   3
ATOM      3  O   UNL A   1      31.628  26.474  26.756  1.00  0.00    -0.463 OA
BRANCH   3   4
ATOM      4  C   UNL A   1      31.313  26.179  25.460  1.00  0.00     0.312 C 
ATOM      5  O   UNL A   1      30.488  26.803  24.803  1.00  0.00    -0.252 OA
BRANCH   4   6
ATOM      6  C   UNL A   1      32.084  24.957  24.922  1.00  0.00     0.071 C 
ATOM      7  C   UNL A   1      32.842  22.683  25.555  1.00  0.00    -0.010 C 
ATOM      8  C   UNL A   1      33.978  23.643  25.887  1.00  0.00     0.005 C 
ATOM      9  C   UNL A   1      31.599  23.598  25.494  1.00  0.00     0.022 C 
ATOM     10  C   UNL A   1      33.499  25.047  25.538  1.00  0.00     0.019 C 
BRANCH   7  11
ATOM     11  C   UNL A   1      33.046  21.821  24.296  1.00  0.00     0.000 C 
ATOM     12  C   UNL A   1      32.539  20.388  24.398  1.00  0.00     0.004 C 
ENDBRANCH   7  11
BRANCH   6  13
ATOM     13  C   UNL A   1      31.904  24.961  23.370  1.00  0.00     0.053 C 
BRANCH  13  14
ATOM     14  C   UNL A   1      33.025  25.479  22.447  1.00  0.00     0.060 C 
ATOM     15  C   UNL A   1      32.582  25.657  20.991  1.00  0.00     0.042 C 
ATOM     16  C   UNL A   1      33.503  26.846  22.964  1.00  0.00     0.042 C 
BRANCH  14  17
ATOM     17  O   UNL A   1      34.123  24.582  22.516  1.00  0.00    -0.390 OA
ATOM     18  H   UNL A   1      34.737  24.766  21.788  1.00  0.00     0.211 HD
ENDBRANCH  14  17
ENDBRANCH  13  14
ENDBRANCH   6  13
ENDBRANCH   4   6
ENDBRANCH   3   4
ENDBRANCH   2   3
ENDBRANCH   1   2
BRANCH   1  19
ATOM     19  O   UNL A   1      32.858  29.726  25.645  1.00  0.00    -0.374 OA
BRANCH  19  20
ATOM     20  C   UNL A   1      31.634  30.417  25.876  1.00  0.00     0.202 C 
BRANCH  20  21
ATOM     21  C   UNL A   1      31.742  31.805  26.523  1.00  0.00     0.261 C 
BRANCH  21  22
ATOM     22  O   UNL A   1      32.555  31.816  27.712  1.00  0.00    -0.460 OA
BRANCH  22  23
ATOM     23  C   UNL A   1      33.484  32.800  27.747  1.00  0.00     0.338 C 
ATOM     24  O   UNL A   1      33.289  34.008  27.710  1.00  0.00    -0.246 OA
BRANCH  23  25
ATOM     25  C   UNL A   1      34.828  32.251  28.002  1.00  0.00     0.060 A 
ATOM     26  C   UNL A   1      34.916  30.882  28.288  1.00  0.00     0.016 A 
ATOM     27  C   UNL A   1      35.955  33.069  28.095  1.00  0.00     0.016 A 
ATOM     28  C   UNL A   1      36.119  30.338  28.731  1.00  0.00     0.010 A 
ATOM     29  C   UNL A   1      37.163  32.520  28.550  1.00  0.00     0.010 A 
ATOM     30  C   UNL A   1      37.237  31.163  28.913  1.00  0.00    -0.014 A 
BRANCH  30  31
ATOM     31  C   UNL A   1      38.406  30.619  29.648  1.00  0.00     0.031 A 
ATOM     32  C   UNL A   1      38.607  31.005  31.089  1.00  0.00     0.074 A 
ATOM     33  C   UNL A   1      39.229  29.725  29.071  1.00  0.00     0.049 A 
ATOM     34  N   UNL A   1      39.509  30.591  31.943  1.00  0.00    -0.248 NA
ATOM     35  C   UNL A   1      37.662  31.988  31.642  1.00  0.00     0.031 C 
ATOM     36  C   UNL A   1      39.122  29.246  27.696  1.00  0.00     0.029 A 
ATOM     37  N   UNL A   1      40.312  29.054  29.581  1.00  0.00    -0.354 N 
ATOM     38  C   UNL A   1      39.234  31.254  33.133  1.00  0.00     0.074 A 
ATOM     39  C   UNL A   1      38.108  32.127  32.882  1.00  0.00     0.031 C 
ATOM     40  C   UNL A   1      40.099  28.351  27.470  1.00  0.00     0.029 A 
ATOM     41  C   UNL A   1      40.909  28.208  28.679  1.00  0.00     0.049 A 
ATOM     42  H   UNL A   1      40.631  29.167  30.506  1.00  0.00     0.167 HD
ATOM     43  C   UNL A   1      39.854  31.135  34.332  1.00  0.00     0.037 A 
ATOM     44  C   UNL A   1      41.987  27.412  28.816  1.00  0.00     0.037 A 
ATOM     45  C   UNL A   1      40.973  30.267  34.587  1.00  0.00     0.049 A 
ATOM     46  C   UNL A   1      42.693  27.340  30.144  1.00  0.00     0.074 A 
ATOM     47  C   UNL A   1      41.655  30.064  35.774  1.00  0.00     0.029 A 
ATOM     48  N   UNL A   1      41.578  29.461  33.635  1.00  0.00    -0.354 N 
ATOM     49  N   UNL A   1      42.405  27.944  31.272  1.00  0.00    -0.248 NA
ATOM     50  C   UNL A   1      43.874  26.467  30.220  1.00  0.00     0.031 C 
ATOM     51  C   UNL A   1      42.702  29.168  35.530  1.00  0.00     0.029 A 
ATOM     52  C   UNL A   1      42.643  28.778  34.201  1.00  0.00     0.049 A 
ATOM     53  H   UNL A   1      41.293  29.386  32.696  1.00  0.00     0.167 HD
ATOM     54  C   UNL A   1      43.349  27.510  32.192  1.00  0.00     0.074 A 
ATOM     55  C   UNL A   1      44.211  26.576  31.498  1.00  0.00     0.031 C 
ATOM     56  C   UNL A   1      43.493  27.855  33.496  1.00  0.00     0.037 A 
BRANCH  43  57
ATOM     57  C   UNL A   1      39.342  31.982  35.459  1.00  0.00     0.064 A 
ATOM     58  C   UNL A   1      38.473  31.465  36.432  1.00  0.00     0.173 A 
ATOM     59  C   UNL A   1      39.749  33.319  35.584  1.00  0.00     0.173 A 
ATOM     60  F   UNL A   1      38.045  30.197  36.348  1.00  0.00    -0.203 F 
ATOM     61  C   UNL A   1      38.013  32.263  37.476  1.00  0.00     0.198 A 
ATOM     62  C   UNL A   1      39.306  34.106  36.644  1.00  0.00     0.198 A 
ATOM     63  F   UNL A   1      40.581  33.860  34.681  1.00  0.00    -0.203 F 
ATOM     64  F   UNL A   1      37.150  31.761  38.371  1.00  0.00    -0.200 F 
ATOM     65  C   UNL A   1      38.433  33.580  37.584  1.00  0.00     0.200 A 
ATOM     66  F   UNL A   1      39.720  35.376  36.751  1.00  0.00    -0.200 F 
ATOM     67  F   UNL A   1      37.991  34.346  38.592  1.00  0.00    -0.200 F 
ENDBRANCH  43  57
BRANCH  44  68
ATOM     68  C   UNL A   1      42.469  26.613  27.660  1.00  0.00     0.064 A 
ATOM     69  C   UNL A   1      41.973  25.326  27.411  1.00  0.00     0.173 A 
ATOM     70  C   UNL A   1      43.451  27.114  26.793  1.00  0.00     0.173 A 
ATOM     71  F   UNL A   1      41.053  24.792  28.228  1.00  0.00    -0.203 F 
ATOM     72  C   UNL A   1      42.455  24.563  26.348  1.00  0.00     0.198 A 
ATOM     73  C   UNL A   1      43.912  26.361  25.717  1.00  0.00     0.198 A 
ATOM     74  F   UNL A   1      43.960  28.338  26.992  1.00  0.00    -0.203 F 
ATOM     75  F   UNL A   1      41.997  23.317  26.159  1.00  0.00    -0.200 F 
ATOM     76  C   UNL A   1      43.419  25.083  25.499  1.00  0.00     0.200 A 
ATOM     77  F   UNL A   1      44.839  26.871  24.893  1.00  0.00    -0.200 F 
ATOM     78  F   UNL A   1      43.881  24.351  24.477  1.00  0.00    -0.200 F 
ENDBRANCH  44  68
BRANCH  56  79
ATOM     79  C   UNL A   1      44.612  27.206  34.258  1.00  0.00     0.064 A 
ATOM     80  C   UNL A   1      45.873  27.811  34.364  1.00  0.00     0.173 A 
ATOM     81  C   UNL A   1      44.413  25.982  34.913  1.00  0.00     0.173 A 
ATOM     82  F   UNL A   1      46.118  28.975  33.744  1.00  0.00    -0.203 F 
ATOM     83  C   UNL A   1      46.904  27.198  35.073  1.00  0.00     0.198 A 
ATOM     84  C   UNL A   1      45.437  25.386  35.645  1.00  0.00     0.198 A 
ATOM     85  F   UNL A   1      43.223  25.366  34.850  1.00  0.00    -0.203 F 
ATOM     86  F   UNL A   1      48.114  27.770  35.120  1.00  0.00    -0.200 F 
ATOM     87  C   UNL A   1      46.683  25.990  35.717  1.00  0.00     0.200 A 
ATOM     88  F   UNL A   1      45.220  24.224  36.276  1.00  0.00    -0.200 F 
ATOM     89  F   UNL A   1      47.674  25.402  36.401  1.00  0.00    -0.200 F 
ENDBRANCH  56  79
ENDBRANCH  30  31
ENDBRANCH  23  25
ENDBRANCH  22  23
ENDBRANCH  21  22
ENDBRANCH  20  21
ENDBRANCH  19  20
ENDBRANCH   1  19
TORSDOF 18
ENDMDL
