MODEL 1
REMARK VINA RESULT:     -10.5      0.000      0.000
REMARK SMILES C=CC[N@H+](CC(=O)OCCOCCOC(=O)c1ccc(-c2c3nc(c(-c4c(F)c(F)c(F)c(F)c4F)c4ccc([nH]4)c(-c4c(F)c(F)c(F)c(F)c4F)c4nc(c(-c5c(F)c(F)c(F)c(F)c5F)c5ccc2[nH]5)C=C4)C=C3)cc1)[C@@H]1CCCC[C@@H]1C
REMARK SMILES IDX 10 1 9 2 8 3 6 4 7 5 5 6 4 7 3 9 2 10 1 11 80 12 81 13 85 14
REMARK SMILES IDX 82 15 84 16 86 17 83 18 11 19 12 20 13 21 14 22 15 23 16 24
REMARK SMILES IDX 17 25 18 26 79 27 19 28 78 29 20 30 21 31 22 32 72 33 23 34
REMARK SMILES IDX 77 35 71 36 73 37 24 38 76 39 70 40 69 41 25 43 57 44 37 45
REMARK SMILES IDX 56 46 38 47 41 48 55 49 74 50 39 51 40 52 54 54 75 55 42 56
REMARK SMILES IDX 26 57 27 58 35 59 28 60 29 61 33 62 36 63 30 64 31 65 34 66
REMARK SMILES IDX 32 67 58 68 59 69 67 70 60 71 61 72 65 73 68 74 62 75 63 76
REMARK SMILES IDX 66 77 64 78 43 79 44 80 52 81 45 82 46 83 50 84 53 85 47 86
REMARK SMILES IDX 48 87 51 88 49 89
REMARK H PARENT 4 8 73 42 41 53
REMARK Flexibility Score: inf
ROOT
ATOM      1  C   UNL A   1      30.321  29.565  23.309  1.00  0.00     0.202 C 
ENDROOT
BRANCH   1   2
ATOM      2  C   UNL A   1      31.450  28.581  23.016  1.00  0.00     0.261 C 
BRANCH   2   3
ATOM      3  O   UNL A   1      30.973  27.566  22.120  1.00  0.00    -0.459 OA
BRANCH   3   4
ATOM      4  C   UNL A   1      31.804  26.511  21.957  1.00  0.00     0.361 C 
ATOM      5  O   UNL A   1      31.830  25.815  20.944  1.00  0.00    -0.245 OA
BRANCH   4   6
ATOM      6  C   UNL A   1      32.849  26.351  23.057  1.00  0.00     0.387 C 
BRANCH   6   7
ATOM      7  N   UNL A   1      32.937  25.094  23.872  1.00  0.00    -0.320 N 
ATOM      8  H   UNL A   1      32.076  24.549  23.825  1.00  0.00     0.349 HD
BRANCH   7   9
ATOM      9  C   UNL A   1      34.044  24.275  23.314  1.00  0.00     0.291 C 
BRANCH   9  10
ATOM     10  C   UNL A   1      33.700  23.006  22.591  1.00  0.00     0.025 C 
ATOM     11  C   UNL A   1      32.529  22.362  22.683  1.00  0.00     0.010 C 
ENDBRANCH   9  10
ENDBRANCH   7   9
BRANCH   7  12
ATOM     12  C   UNL A   1      33.141  25.446  25.334  1.00  0.00     0.187 C 
ATOM     13  C   UNL A   1      34.094  24.456  26.077  1.00  0.00     0.065 C 
ATOM     14  C   UNL A   1      31.888  25.502  26.302  1.00  0.00     0.044 C 
ATOM     15  C   UNL A   1      33.499  23.056  26.231  1.00  0.00     0.006 C 
ATOM     16  C   UNL A   1      31.212  24.126  26.436  1.00  0.00     0.009 C 
ATOM     17  C   UNL A   1      30.866  26.622  26.089  1.00  0.00     0.014 C 
ATOM     18  C   UNL A   1      32.183  23.091  27.001  1.00  0.00     0.001 C 
ENDBRANCH   7  12
ENDBRANCH   6   7
ENDBRANCH   4   6
ENDBRANCH   3   4
ENDBRANCH   2   3
ENDBRANCH   1   2
BRANCH   1  19
ATOM     19  O   UNL A   1      30.335  30.145  24.615  1.00  0.00    -0.374 OA
BRANCH  19  20
ATOM     20  C   UNL A   1      31.569  30.128  25.339  1.00  0.00     0.202 C 
BRANCH  20  21
ATOM     21  C   UNL A   1      31.736  31.197  26.425  1.00  0.00     0.261 C 
BRANCH  21  22
ATOM     22  O   UNL A   1      32.814  30.906  27.334  1.00  0.00    -0.460 OA
BRANCH  22  23
ATOM     23  C   UNL A   1      33.596  31.964  27.650  1.00  0.00     0.338 C 
ATOM     24  O   UNL A   1      33.240  33.113  27.875  1.00  0.00    -0.246 OA
BRANCH  23  25
ATOM     25  C   UNL A   1      34.987  31.525  27.858  1.00  0.00     0.060 A 
ATOM     26  C   UNL A   1      35.226  30.149  27.946  1.00  0.00     0.016 A 
ATOM     27  C   UNL A   1      36.019  32.437  28.082  1.00  0.00     0.016 A 
ATOM     28  C   UNL A   1      36.478  29.683  28.335  1.00  0.00     0.010 A 
ATOM     29  C   UNL A   1      37.284  31.970  28.453  1.00  0.00     0.010 A 
ATOM     30  C   UNL A   1      37.498  30.594  28.644  1.00  0.00    -0.014 A 
BRANCH  30  31
ATOM     31  C   UNL A   1      38.680  30.114  29.403  1.00  0.00     0.031 A 
ATOM     32  C   UNL A   1      38.854  30.578  30.826  1.00  0.00     0.074 A 
ATOM     33  C   UNL A   1      39.543  29.229  28.870  1.00  0.00     0.049 A 
ATOM     34  N   UNL A   1      39.784  30.276  31.696  1.00  0.00    -0.248 NA
ATOM     35  C   UNL A   1      37.843  31.520  31.335  1.00  0.00     0.031 C 
ATOM     36  C   UNL A   1      39.469  28.687  27.516  1.00  0.00     0.029 A 
ATOM     37  N   UNL A   1      40.647  28.627  29.417  1.00  0.00    -0.354 N 
ATOM     38  C   UNL A   1      39.476  30.997  32.843  1.00  0.00     0.074 A 
ATOM     39  C   UNL A   1      38.301  31.785  32.548  1.00  0.00     0.031 C 
ATOM     40  C   UNL A   1      40.483  27.822  27.339  1.00  0.00     0.029 A 
ATOM     41  C   UNL A   1      41.284  27.765  28.560  1.00  0.00     0.049 A 
ATOM     42  H   UNL A   1      40.954  28.797  30.337  1.00  0.00     0.167 HD
ATOM     43  C   UNL A   1      40.102  30.989  34.044  1.00  0.00     0.037 A 
ATOM     44  C   UNL A   1      42.388  27.015  28.747  1.00  0.00     0.037 A 
ATOM     45  C   UNL A   1      41.254  30.185  34.348  1.00  0.00     0.049 A 
ATOM     46  C   UNL A   1      43.076  27.033  30.089  1.00  0.00     0.074 A 
ATOM     47  C   UNL A   1      41.954  30.093  35.538  1.00  0.00     0.029 A 
ATOM     48  N   UNL A   1      41.869  29.325  33.451  1.00  0.00    -0.354 N 
ATOM     49  N   UNL A   1      42.764  27.700  31.173  1.00  0.00    -0.248 NA
ATOM     50  C   UNL A   1      44.265  26.181  30.234  1.00  0.00     0.031 C 
ATOM     51  C   UNL A   1      43.016  29.200  35.350  1.00  0.00     0.029 A 
ATOM     52  C   UNL A   1      42.947  28.703  34.058  1.00  0.00     0.049 A 
ATOM     53  H   UNL A   1      41.582  29.178  32.521  1.00  0.00     0.167 HD
ATOM     54  C   UNL A   1      43.689  27.321  32.137  1.00  0.00     0.074 A 
ATOM     55  C   UNL A   1      44.573  26.360  31.511  1.00  0.00     0.031 C 
ATOM     56  C   UNL A   1      43.799  27.730  33.425  1.00  0.00     0.037 A 
BRANCH  43  57
ATOM     57  C   UNL A   1      39.554  31.889  35.111  1.00  0.00     0.064 A 
ATOM     58  C   UNL A   1      39.904  33.246  35.183  1.00  0.00     0.173 A 
ATOM     59  C   UNL A   1      38.660  31.390  36.070  1.00  0.00     0.173 A 
ATOM     60  F   UNL A   1      40.770  33.767  34.301  1.00  0.00    -0.203 F 
ATOM     61  C   UNL A   1      39.401  34.064  36.192  1.00  0.00     0.198 A 
ATOM     62  C   UNL A   1      38.136  32.217  37.060  1.00  0.00     0.198 A 
ATOM     63  F   UNL A   1      38.292  30.100  36.046  1.00  0.00    -0.203 F 
ATOM     64  F   UNL A   1      39.790  35.343  36.272  1.00  0.00    -0.200 F 
ATOM     65  C   UNL A   1      38.514  33.550  37.126  1.00  0.00     0.200 A 
ATOM     66  F   UNL A   1      37.271  31.722  37.956  1.00  0.00    -0.200 F 
ATOM     67  F   UNL A   1      38.029  34.338  38.095  1.00  0.00    -0.200 F 
ENDBRANCH  43  57
BRANCH  44  68
ATOM     68  C   UNL A   1      42.904  26.163  27.644  1.00  0.00     0.064 A 
ATOM     69  C   UNL A   1      43.852  26.651  26.735  1.00  0.00     0.173 A 
ATOM     70  C   UNL A   1      42.442  24.851  27.465  1.00  0.00     0.173 A 
ATOM     71  F   UNL A   1      44.305  27.907  26.851  1.00  0.00    -0.203 F 
ATOM     72  C   UNL A   1      44.303  25.867  25.676  1.00  0.00     0.198 A 
ATOM     73  C   UNL A   1      42.914  24.059  26.420  1.00  0.00     0.198 A 
ATOM     74  F   UNL A   1      41.533  24.338  28.308  1.00  0.00    -0.203 F 
ATOM     75  F   UNL A   1      45.174  26.375  24.793  1.00  0.00    -0.200 F 
ATOM     76  C   UNL A   1      43.837  24.570  25.521  1.00  0.00     0.200 A 
ATOM     77  F   UNL A   1      42.467  22.803  26.280  1.00  0.00    -0.200 F 
ATOM     78  F   UNL A   1      44.271  23.817  24.501  1.00  0.00    -0.200 F 
ENDBRANCH  44  68
BRANCH  56  79
ATOM     79  C   UNL A   1      44.875  27.102  34.260  1.00  0.00     0.064 A 
ATOM     80  C   UNL A   1      44.668  25.901  34.952  1.00  0.00     0.173 A 
ATOM     81  C   UNL A   1      46.146  27.694  34.333  1.00  0.00     0.173 A 
ATOM     82  F   UNL A   1      43.467  25.303  34.922  1.00  0.00    -0.203 F 
ATOM     83  C   UNL A   1      45.686  25.326  35.708  1.00  0.00     0.198 A 
ATOM     84  C   UNL A   1      47.170  27.103  35.068  1.00  0.00     0.198 A 
ATOM     85  F   UNL A   1      46.398  28.840  33.683  1.00  0.00    -0.203 F 
ATOM     86  F   UNL A   1      45.453  24.202  36.398  1.00  0.00    -0.200 F 
ATOM     87  C   UNL A   1      46.937  25.924  35.761  1.00  0.00     0.200 A 
ATOM     88  F   UNL A   1      48.382  27.674  35.108  1.00  0.00    -0.200 F 
ATOM     89  F   UNL A   1      47.916  25.368  36.486  1.00  0.00    -0.200 F 
ENDBRANCH  56  79
ENDBRANCH  30  31
ENDBRANCH  23  25
ENDBRANCH  22  23
ENDBRANCH  21  22
ENDBRANCH  20  21
ENDBRANCH  19  20
ENDBRANCH   1  19
TORSDOF 18
ENDMDL
MODEL 2
REMARK VINA RESULT:     -10.4      0.903      7.687
REMARK SMILES C=CC[N@H+](CC(=O)OCCOCCOC(=O)c1ccc(-c2c3nc(c(-c4c(F)c(F)c(F)c(F)c4F)c4ccc([nH]4)c(-c4c(F)c(F)c(F)c(F)c4F)c4nc(c(-c5c(F)c(F)c(F)c(F)c5F)c5ccc2[nH]5)C=C4)C=C3)cc1)[C@@H]1CCCC[C@@H]1C
REMARK SMILES IDX 10 1 9 2 8 3 6 4 7 5 5 6 4 7 3 9 2 10 1 11 80 12 81 13 85 14
REMARK SMILES IDX 82 15 84 16 86 17 83 18 11 19 12 20 13 21 14 22 15 23 16 24
REMARK SMILES IDX 17 25 18 26 79 27 19 28 78 29 20 30 21 31 22 32 72 33 23 34
REMARK SMILES IDX 77 35 71 36 73 37 24 38 76 39 70 40 69 41 25 43 57 44 37 45
REMARK SMILES IDX 56 46 38 47 41 48 55 49 74 50 39 51 40 52 54 54 75 55 42 56
REMARK SMILES IDX 26 57 27 58 35 59 28 60 29 61 33 62 36 63 30 64 31 65 34 66
REMARK SMILES IDX 32 67 58 68 59 69 67 70 60 71 61 72 65 73 68 74 62 75 63 76
REMARK SMILES IDX 66 77 64 78 43 79 44 80 52 81 45 82 46 83 50 84 53 85 47 86
REMARK SMILES IDX 48 87 51 88 49 89
REMARK H PARENT 4 8 73 42 41 53
REMARK Flexibility Score: inf
ROOT
ATOM      1  C   UNL A   1      30.487  28.633  23.014  1.00  0.00     0.202 C 
ENDROOT
BRANCH   1   2
ATOM      2  C   UNL A   1      30.662  27.216  22.474  1.00  0.00     0.261 C 
BRANCH   2   3
ATOM      3  O   UNL A   1      32.062  26.937  22.324  1.00  0.00    -0.459 OA
BRANCH   3   4
ATOM      4  C   UNL A   1      32.367  25.633  22.130  1.00  0.00     0.361 C 
ATOM      5  O   UNL A   1      33.298  25.250  21.424  1.00  0.00    -0.245 OA
BRANCH   4   6
ATOM      6  C   UNL A   1      31.580  24.661  23.004  1.00  0.00     0.387 C 
BRANCH   6   7
ATOM      7  N   UNL A   1      32.089  24.236  24.350  1.00  0.00    -0.320 N 
ATOM      8  H   UNL A   1      33.108  24.190  24.375  1.00  0.00     0.349 HD
BRANCH   7   9
ATOM      9  C   UNL A   1      31.640  25.249  25.340  1.00  0.00     0.291 C 
BRANCH   9  10
ATOM     10  C   UNL A   1      32.669  26.141  25.969  1.00  0.00     0.025 C 
ATOM     11  C   UNL A   1      33.987  26.080  25.731  1.00  0.00     0.010 C 
ENDBRANCH   9  10
ENDBRANCH   7   9
BRANCH   7  12
ATOM     12  C   UNL A   1      31.591  22.839  24.667  1.00  0.00     0.187 C 
ATOM     13  C   UNL A   1      31.680  22.484  26.186  1.00  0.00     0.065 C 
ATOM     14  C   UNL A   1      32.292  21.591  23.986  1.00  0.00     0.044 C 
ATOM     15  C   UNL A   1      33.118  22.364  26.688  1.00  0.00     0.006 C 
ATOM     16  C   UNL A   1      33.766  21.466  24.410  1.00  0.00     0.009 C 
ATOM     17  C   UNL A   1      32.113  21.403  22.477  1.00  0.00     0.014 C 
ATOM     18  C   UNL A   1      33.889  21.293  25.922  1.00  0.00     0.001 C 
ENDBRANCH   7  12
ENDBRANCH   6   7
ENDBRANCH   4   6
ENDBRANCH   3   4
ENDBRANCH   2   3
ENDBRANCH   1   2
BRANCH   1  19
ATOM     19  O   UNL A   1      30.719  28.789  24.416  1.00  0.00    -0.374 OA
BRANCH  19  20
ATOM     20  C   UNL A   1      31.859  29.551  24.823  1.00  0.00     0.202 C 
BRANCH  20  21
ATOM     21  C   UNL A   1      31.631  30.572  25.943  1.00  0.00     0.261 C 
BRANCH  21  22
ATOM     22  O   UNL A   1      32.554  30.417  27.037  1.00  0.00    -0.460 OA
BRANCH  22  23
ATOM     23  C   UNL A   1      33.273  31.522  27.338  1.00  0.00     0.338 C 
ATOM     24  O   UNL A   1      32.868  32.673  27.433  1.00  0.00    -0.246 OA
BRANCH  23  25
ATOM     25  C   UNL A   1      34.649  31.149  27.712  1.00  0.00     0.060 A 
ATOM     26  C   UNL A   1      34.925  29.788  27.890  1.00  0.00     0.016 A 
ATOM     27  C   UNL A   1      35.618  32.110  28.002  1.00  0.00     0.016 A 
ATOM     28  C   UNL A   1      36.144  29.389  28.430  1.00  0.00     0.010 A 
ATOM     29  C   UNL A   1      36.851  31.710  28.526  1.00  0.00     0.010 A 
ATOM     30  C   UNL A   1      37.092  30.353  28.803  1.00  0.00    -0.014 A 
BRANCH  30  31
ATOM     31  C   UNL A   1      38.201  29.953  29.705  1.00  0.00     0.031 A 
ATOM     32  C   UNL A   1      39.238  28.994  29.181  1.00  0.00     0.074 A 
ATOM     33  C   UNL A   1      38.329  30.482  30.935  1.00  0.00     0.049 A 
ATOM     34  N   UNL A   1      40.311  28.522  29.765  1.00  0.00    -0.248 NA
ATOM     35  C   UNL A   1      39.035  28.493  27.812  1.00  0.00     0.031 C 
ATOM     36  C   UNL A   1      37.407  31.436  31.546  1.00  0.00     0.029 A 
ATOM     37  N   UNL A   1      39.299  30.293  31.887  1.00  0.00    -0.354 N 
ATOM     38  C   UNL A   1      40.896  27.665  28.842  1.00  0.00     0.074 A 
ATOM     39  C   UNL A   1      40.041  27.644  27.677  1.00  0.00     0.031 C 
ATOM     40  C   UNL A   1      37.861  31.758  32.770  1.00  0.00     0.029 A 
ATOM     41  C   UNL A   1      39.094  31.018  33.033  1.00  0.00     0.049 A 
ATOM     42  H   UNL A   1      40.069  29.693  31.759  1.00  0.00     0.167 HD
ATOM     43  C   UNL A   1      42.054  26.970  28.945  1.00  0.00     0.037 A 
ATOM     44  C   UNL A   1      39.824  31.075  34.164  1.00  0.00     0.037 A 
ATOM     45  C   UNL A   1      42.920  27.010  30.091  1.00  0.00     0.049 A 
ATOM     46  C   UNL A   1      41.103  30.282  34.261  1.00  0.00     0.074 A 
ATOM     47  C   UNL A   1      44.122  26.355  30.290  1.00  0.00     0.029 A 
ATOM     48  N   UNL A   1      42.675  27.757  31.234  1.00  0.00    -0.354 N 
ATOM     49  N   UNL A   1      41.659  29.493  33.374  1.00  0.00    -0.248 NA
ATOM     50  C   UNL A   1      41.862  30.401  35.514  1.00  0.00     0.031 C 
ATOM     51  C   UNL A   1      44.590  26.681  31.569  1.00  0.00     0.029 A 
ATOM     52  C   UNL A   1      43.701  27.574  32.145  1.00  0.00     0.049 A 
ATOM     53  H   UNL A   1      41.889  28.332  31.375  1.00  0.00     0.167 HD
ATOM     54  C   UNL A   1      42.847  29.053  33.944  1.00  0.00     0.074 A 
ATOM     55  C   UNL A   1      42.935  29.669  35.252  1.00  0.00     0.031 C 
ATOM     56  C   UNL A   1      43.782  28.215  33.432  1.00  0.00     0.037 A 
BRANCH  43  57
ATOM     57  C   UNL A   1      42.439  26.099  27.786  1.00  0.00     0.064 A 
ATOM     58  C   UNL A   1      43.357  26.528  26.815  1.00  0.00     0.173 A 
ATOM     59  C   UNL A   1      41.890  24.815  27.649  1.00  0.00     0.173 A 
ATOM     60  F   UNL A   1      43.895  27.754  26.890  1.00  0.00    -0.203 F 
ATOM     61  C   UNL A   1      43.688  25.715  25.733  1.00  0.00     0.198 A 
ATOM     62  C   UNL A   1      42.247  23.994  26.583  1.00  0.00     0.198 A 
ATOM     63  F   UNL A   1      41.009  24.357  28.551  1.00  0.00    -0.203 F 
ATOM     64  F   UNL A   1      44.527  26.166  24.791  1.00  0.00    -0.200 F 
ATOM     65  C   UNL A   1      43.138  24.447  25.622  1.00  0.00     0.200 A 
ATOM     66  F   UNL A   1      41.721  22.765  26.482  1.00  0.00    -0.200 F 
ATOM     67  F   UNL A   1      43.459  23.665  24.583  1.00  0.00    -0.200 F 
ENDBRANCH  43  57
BRANCH  44  68
ATOM     68  C   UNL A   1      39.379  31.933  35.294  1.00  0.00     0.064 A 
ATOM     69  C   UNL A   1      38.529  31.434  36.290  1.00  0.00     0.173 A 
ATOM     70  C   UNL A   1      39.777  33.274  35.386  1.00  0.00     0.173 A 
ATOM     71  F   UNL A   1      38.102  30.165  36.232  1.00  0.00    -0.203 F 
ATOM     72  C   UNL A   1      38.078  32.250  37.325  1.00  0.00     0.198 A 
ATOM     73  C   UNL A   1      39.345  34.082  36.436  1.00  0.00     0.198 A 
ATOM     74  F   UNL A   1      40.589  33.800  34.457  1.00  0.00    -0.203 F 
ATOM     75  F   UNL A   1      37.227  31.761  38.239  1.00  0.00    -0.200 F 
ATOM     76  C   UNL A   1      38.489  33.572  37.400  1.00  0.00     0.200 A 
ATOM     77  F   UNL A   1      39.753  35.357  36.510  1.00  0.00    -0.200 F 
ATOM     78  F   UNL A   1      38.053  34.357  38.396  1.00  0.00    -0.200 F 
ENDBRANCH  44  68
BRANCH  56  79
ATOM     79  C   UNL A   1      45.007  27.958  34.259  1.00  0.00     0.064 A 
ATOM     80  C   UNL A   1      46.141  28.777  34.175  1.00  0.00     0.173 A 
ATOM     81  C   UNL A   1      45.025  26.899  35.180  1.00  0.00     0.173 A 
ATOM     82  F   UNL A   1      46.176  29.795  33.302  1.00  0.00    -0.203 F 
ATOM     83  C   UNL A   1      47.261  28.530  34.965  1.00  0.00     0.198 A 
ATOM     84  C   UNL A   1      46.136  26.671  35.987  1.00  0.00     0.198 A 
ATOM     85  F   UNL A   1      43.961  26.091  35.304  1.00  0.00    -0.203 F 
ATOM     86  F   UNL A   1      48.351  29.297  34.836  1.00  0.00    -0.200 F 
ATOM     87  C   UNL A   1      47.256  27.482  35.873  1.00  0.00     0.200 A 
ATOM     88  F   UNL A   1      46.125  25.666  36.874  1.00  0.00    -0.200 F 
ATOM     89  F   UNL A   1      48.333  27.248  36.635  1.00  0.00    -0.200 F 
ENDBRANCH  56  79
ENDBRANCH  30  31
ENDBRANCH  23  25
ENDBRANCH  22  23
ENDBRANCH  21  22
ENDBRANCH  20  21
ENDBRANCH  19  20
ENDBRANCH   1  19
TORSDOF 18
ENDMDL
MODEL 3
REMARK VINA RESULT:     -10.2      1.133      7.728
REMARK SMILES C=CC[N@H+](CC(=O)OCCOCCOC(=O)c1ccc(-c2c3nc(c(-c4c(F)c(F)c(F)c(F)c4F)c4ccc([nH]4)c(-c4c(F)c(F)c(F)c(F)c4F)c4nc(c(-c5c(F)c(F)c(F)c(F)c5F)c5ccc2[nH]5)C=C4)C=C3)cc1)[C@@H]1CCCC[C@@H]1C
REMARK SMILES IDX 10 1 9 2 8 3 6 4 7 5 5 6 4 7 3 9 2 10 1 11 80 12 81 13 85 14
REMARK SMILES IDX 82 15 84 16 86 17 83 18 11 19 12 20 13 21 14 22 15 23 16 24
REMARK SMILES IDX 17 25 18 26 79 27 19 28 78 29 20 30 21 31 22 32 72 33 23 34
REMARK SMILES IDX 77 35 71 36 73 37 24 38 76 39 70 40 69 41 25 43 57 44 37 45
REMARK SMILES IDX 56 46 38 47 41 48 55 49 74 50 39 51 40 52 54 54 75 55 42 56
REMARK SMILES IDX 26 57 27 58 35 59 28 60 29 61 33 62 36 63 30 64 31 65 34 66
REMARK SMILES IDX 32 67 58 68 59 69 67 70 60 71 61 72 65 73 68 74 62 75 63 76
REMARK SMILES IDX 66 77 64 78 43 79 44 80 52 81 45 82 46 83 50 84 53 85 47 86
REMARK SMILES IDX 48 87 51 88 49 89
REMARK H PARENT 4 8 73 42 41 53
REMARK Flexibility Score: inf
ROOT
ATOM      1  C   UNL A   1      32.674  29.177  24.523  1.00  0.00     0.202 C 
ENDROOT
BRANCH   1   2
ATOM      2  C   UNL A   1      32.959  27.678  24.460  1.00  0.00     0.261 C 
BRANCH   2   3
ATOM      3  O   UNL A   1      32.622  27.186  23.155  1.00  0.00    -0.459 OA
BRANCH   3   4
ATOM      4  C   UNL A   1      33.344  26.120  22.741  1.00  0.00     0.361 C 
ATOM      5  O   UNL A   1      33.653  25.920  21.569  1.00  0.00    -0.245 OA
BRANCH   4   6
ATOM      6  C   UNL A   1      33.914  25.265  23.870  1.00  0.00     0.387 C 
BRANCH   6   7
ATOM      7  N   UNL A   1      33.293  23.951  24.243  1.00  0.00    -0.320 N 
ATOM      8  H   UNL A   1      33.528  23.677  25.197  1.00  0.00     0.349 HD
BRANCH   7   9
ATOM      9  C   UNL A   1      31.819  24.108  24.147  1.00  0.00     0.291 C 
BRANCH   9  10
ATOM     10  C   UNL A   1      31.037  24.302  25.412  1.00  0.00     0.025 C 
ATOM     11  C   UNL A   1      31.450  23.943  26.635  1.00  0.00     0.010 C 
ENDBRANCH   9  10
ENDBRANCH   7   9
BRANCH   7  12
ATOM     12  C   UNL A   1      33.832  22.857  23.340  1.00  0.00     0.187 C 
ATOM     13  C   UNL A   1      32.883  21.620  23.240  1.00  0.00     0.065 C 
ATOM     14  C   UNL A   1      35.228  22.187  23.678  1.00  0.00     0.044 C 
ATOM     15  C   UNL A   1      32.777  20.841  24.551  1.00  0.00     0.006 C 
ATOM     16  C   UNL A   1      35.191  21.445  25.026  1.00  0.00     0.009 C 
ATOM     17  C   UNL A   1      36.488  23.044  23.531  1.00  0.00     0.014 C 
ATOM     18  C   UNL A   1      34.140  20.337  25.012  1.00  0.00     0.001 C 
ENDBRANCH   7  12
ENDBRANCH   6   7
ENDBRANCH   4   6
ENDBRANCH   3   4
ENDBRANCH   2   3
ENDBRANCH   1   2
BRANCH   1  19
ATOM     19  O   UNL A   1      31.984  29.623  25.692  1.00  0.00    -0.374 OA
BRANCH  19  20
ATOM     20  C   UNL A   1      31.150  30.779  25.573  1.00  0.00     0.202 C 
BRANCH  20  21
ATOM     21  C   UNL A   1      31.478  31.953  26.504  1.00  0.00     0.261 C 
BRANCH  21  22
ATOM     22  O   UNL A   1      32.521  31.644  27.446  1.00  0.00    -0.460 OA
BRANCH  22  23
ATOM     23  C   UNL A   1      33.432  32.626  27.631  1.00  0.00     0.338 C 
ATOM     24  O   UNL A   1      33.236  33.834  27.635  1.00  0.00    -0.246 OA
BRANCH  23  25
ATOM     25  C   UNL A   1      34.736  32.049  28.005  1.00  0.00     0.060 A 
ATOM     26  C   UNL A   1      34.786  30.673  28.258  1.00  0.00     0.016 A 
ATOM     27  C   UNL A   1      35.859  32.849  28.220  1.00  0.00     0.016 A 
ATOM     28  C   UNL A   1      35.935  30.107  28.801  1.00  0.00     0.010 A 
ATOM     29  C   UNL A   1      37.021  32.278  28.747  1.00  0.00     0.010 A 
ATOM     30  C   UNL A   1      37.040  30.917  29.100  1.00  0.00    -0.014 A 
BRANCH  30  31
ATOM     31  C   UNL A   1      38.091  30.388  30.006  1.00  0.00     0.031 A 
ATOM     32  C   UNL A   1      39.097  29.418  29.443  1.00  0.00     0.074 A 
ATOM     33  C   UNL A   1      38.197  30.812  31.278  1.00  0.00     0.049 A 
ATOM     34  N   UNL A   1      40.120  28.843  30.025  1.00  0.00    -0.248 NA
ATOM     35  C   UNL A   1      38.922  29.037  28.032  1.00  0.00     0.031 C 
ATOM     36  C   UNL A   1      37.302  31.764  31.930  1.00  0.00     0.029 A 
ATOM     37  N   UNL A   1      39.117  30.495  32.245  1.00  0.00    -0.354 N 
ATOM     38  C   UNL A   1      40.696  28.031  29.058  1.00  0.00     0.074 A 
ATOM     39  C   UNL A   1      39.888  28.149  27.865  1.00  0.00     0.031 C 
ATOM     40  C   UNL A   1      37.723  31.963  33.191  1.00  0.00     0.029 A 
ATOM     41  C   UNL A   1      38.905  31.138  33.438  1.00  0.00     0.049 A 
ATOM     42  H   UNL A   1      39.860  29.866  32.096  1.00  0.00     0.167 HD
ATOM     43  C   UNL A   1      41.812  27.268  29.145  1.00  0.00     0.037 A 
ATOM     44  C   UNL A   1      39.591  31.067  34.595  1.00  0.00     0.037 A 
ATOM     45  C   UNL A   1      42.633  27.171  30.321  1.00  0.00     0.049 A 
ATOM     46  C   UNL A   1      40.823  30.200  34.673  1.00  0.00     0.074 A 
ATOM     47  C   UNL A   1      43.791  26.438  30.508  1.00  0.00     0.029 A 
ATOM     48  N   UNL A   1      42.382  27.838  31.510  1.00  0.00    -0.354 N 
ATOM     49  N   UNL A   1      41.372  29.454  33.746  1.00  0.00    -0.248 NA
ATOM     50  C   UNL A   1      41.537  30.179  35.958  1.00  0.00     0.031 C 
ATOM     51  C   UNL A   1      44.224  26.636  31.825  1.00  0.00     0.029 A 
ATOM     52  C   UNL A   1      43.360  27.529  32.440  1.00  0.00     0.049 A 
ATOM     53  H   UNL A   1      41.621  28.442  31.669  1.00  0.00     0.167 HD
ATOM     54  C   UNL A   1      42.513  28.906  34.320  1.00  0.00     0.074 A 
ATOM     55  C   UNL A   1      42.581  29.412  35.675  1.00  0.00     0.031 C 
ATOM     56  C   UNL A   1      43.423  28.062  33.776  1.00  0.00     0.037 A 
BRANCH  43  57
ATOM     57  C   UNL A   1      42.198  26.471  27.934  1.00  0.00     0.064 A 
ATOM     58  C   UNL A   1      41.643  25.209  27.674  1.00  0.00     0.173 A 
ATOM     59  C   UNL A   1      43.128  26.982  27.015  1.00  0.00     0.173 A 
ATOM     60  F   UNL A   1      40.765  24.668  28.532  1.00  0.00    -0.203 F 
ATOM     61  C   UNL A   1      42.028  24.474  26.555  1.00  0.00     0.198 A 
ATOM     62  C   UNL A   1      43.486  26.258  25.882  1.00  0.00     0.198 A 
ATOM     63  F   UNL A   1      43.685  28.185  27.216  1.00  0.00    -0.203 F 
ATOM     64  F   UNL A   1      41.525  23.249  26.355  1.00  0.00    -0.200 F 
ATOM     65  C   UNL A   1      42.944  25.002  25.657  1.00  0.00     0.200 A 
ATOM     66  F   UNL A   1      44.365  26.773  25.010  1.00  0.00    -0.200 F 
ATOM     67  F   UNL A   1      43.311  24.295  24.580  1.00  0.00    -0.200 F 
ENDBRANCH  43  57
BRANCH  44  68
ATOM     68  C   UNL A   1      39.147  31.857  35.774  1.00  0.00     0.064 A 
ATOM     69  C   UNL A   1      39.620  33.158  35.993  1.00  0.00     0.173 A 
ATOM     70  C   UNL A   1      38.258  31.318  36.715  1.00  0.00     0.173 A 
ATOM     71  F   UNL A   1      40.490  33.708  35.133  1.00  0.00    -0.203 F 
ATOM     72  C   UNL A   1      39.237  33.882  37.119  1.00  0.00     0.198 A 
ATOM     73  C   UNL A   1      37.857  32.053  37.828  1.00  0.00     0.198 A 
ATOM     74  F   UNL A   1      37.779  30.076  36.551  1.00  0.00    -0.203 F 
ATOM     75  F   UNL A   1      39.742  35.106  37.330  1.00  0.00    -0.200 F 
ATOM     76  C   UNL A   1      38.353  33.331  38.034  1.00  0.00     0.200 A 
ATOM     77  F   UNL A   1      36.994  31.520  38.705  1.00  0.00    -0.200 F 
ATOM     78  F   UNL A   1      37.986  34.028  39.119  1.00  0.00    -0.200 F 
ENDBRANCH  44  68
BRANCH  56  79
ATOM     79  C   UNL A   1      44.599  27.674  34.623  1.00  0.00     0.064 A 
ATOM     80  C   UNL A   1      45.776  28.436  34.646  1.00  0.00     0.173 A 
ATOM     81  C   UNL A   1      44.527  26.545  35.454  1.00  0.00     0.173 A 
ATOM     82  F   UNL A   1      45.897  29.516  33.861  1.00  0.00    -0.203 F 
ATOM     83  C   UNL A   1      46.850  28.066  35.453  1.00  0.00     0.198 A 
ATOM     84  C   UNL A   1      45.592  26.194  36.278  1.00  0.00     0.198 A 
ATOM     85  F   UNL A   1      43.420  25.788  35.473  1.00  0.00    -0.203 F 
ATOM     86  F   UNL A   1      47.981  28.782  35.426  1.00  0.00    -0.200 F 
ATOM     87  C   UNL A   1      46.755  26.951  36.271  1.00  0.00     0.200 A 
ATOM     88  F   UNL A   1      45.494  25.124  37.080  1.00  0.00    -0.200 F 
ATOM     89  F   UNL A   1      47.788  26.600  37.050  1.00  0.00    -0.200 F 
ENDBRANCH  56  79
ENDBRANCH  30  31
ENDBRANCH  23  25
ENDBRANCH  22  23
ENDBRANCH  21  22
ENDBRANCH  20  21
ENDBRANCH  19  20
ENDBRANCH   1  19
TORSDOF 18
ENDMDL
