MODEL 1
REMARK VINA RESULT:     -11.9      0.000      0.000
REMARK SMILES O=C(OCCOCCOC(=O)c1ccc2nc(C3CCCCC3)[nH]c2c1)c1ccc(-c2c3nc(c(-c4c(F)c(F)c(F)c(F)c4F)c4ccc([nH]4)c(-c4c(F)c(F)c(F)c(F)c4F)c4nc(c(-c5c(F)c(F)c(F)c(F)c5F)c5ccc2[nH]5)C=C4)C=C3)cc1
REMARK SMILES IDX 5 1 4 2 3 3 2 4 1 5 27 6 28 7 89 8 29 9 88 10 30 11 31 12
REMARK SMILES IDX 32 13 82 14 33 15 87 16 81 17 83 18 34 19 86 20 80 21 79 22
REMARK SMILES IDX 35 24 67 25 47 26 66 27 48 28 51 29 65 30 84 31 49 32 50 33
REMARK SMILES IDX 64 35 85 36 52 37 36 38 37 39 45 40 38 41 39 42 43 43 46 44
REMARK SMILES IDX 40 45 41 46 44 47 42 48 68 49 69 50 77 51 70 52 71 53 75 54
REMARK SMILES IDX 78 55 72 56 73 57 76 58 74 59 53 60 54 61 62 62 55 63 56 64
REMARK SMILES IDX 60 65 63 66 57 67 58 68 61 69 59 70 6 71 7 72 8 73 9 74
REMARK SMILES IDX 10 75 11 76 12 77 13 78 26 79 14 80 25 81 15 82 24 83 16 84
REMARK SMILES IDX 17 85 18 87 19 88 23 89 20 90 22 91 21 92
REMARK H PARENT 83 23 51 34 24 86
REMARK Flexibility Score: inf
ROOT
ATOM      1  C   UNL A   1      31.309  31.902  26.755  1.00  0.00     0.202 C 
ENDROOT
BRANCH   1   2
ATOM      2  C   UNL A   1      32.481  32.883  26.877  1.00  0.00     0.261 C 
BRANCH   2   3
ATOM      3  O   UNL A   1      32.163  33.957  27.781  1.00  0.00    -0.460 OA
BRANCH   3   4
ATOM      4  C   UNL A   1      32.980  34.601  28.649  1.00  0.00     0.338 C 
ATOM      5  O   UNL A   1      32.685  35.739  29.005  1.00  0.00    -0.246 OA
BRANCH   4   6
ATOM      6  C   UNL A   1      34.230  34.000  29.206  1.00  0.00     0.060 A 
ATOM      7  C   UNL A   1      34.260  32.929  30.095  1.00  0.00     0.016 A 
ATOM      8  C   UNL A   1      35.461  34.490  28.731  1.00  0.00     0.016 A 
ATOM      9  C   UNL A   1      35.449  32.411  30.570  1.00  0.00     0.010 A 
ATOM     10  C   UNL A   1      36.673  33.929  29.154  1.00  0.00     0.010 A 
ATOM     11  C   UNL A   1      36.664  32.891  30.091  1.00  0.00    -0.014 A 
BRANCH  11  12
ATOM     12  C   UNL A   1      37.881  32.299  30.674  1.00  0.00     0.031 A 
ATOM     13  C   UNL A   1      38.265  32.677  32.069  1.00  0.00     0.074 A 
ATOM     14  C   UNL A   1      38.484  31.288  30.020  1.00  0.00     0.049 A 
ATOM     15  N   UNL A   1      39.244  32.226  32.807  1.00  0.00    -0.248 NA
ATOM     16  C   UNL A   1      37.418  33.678  32.736  1.00  0.00     0.031 C 
ATOM     17  C   UNL A   1      38.080  30.781  28.704  1.00  0.00     0.029 A 
ATOM     18  N   UNL A   1      39.513  30.466  30.390  1.00  0.00    -0.354 N 
ATOM     19  C   UNL A   1      39.135  32.893  34.018  1.00  0.00     0.074 A 
ATOM     20  C   UNL A   1      38.008  33.792  33.916  1.00  0.00     0.031 C 
ATOM     21  C   UNL A   1      38.826  29.710  28.397  1.00  0.00     0.029 A 
ATOM     22  C   UNL A   1      39.806  29.501  29.456  1.00  0.00     0.049 A 
ATOM     23  H   UNL A   1      39.997  30.557  31.243  1.00  0.00     0.167 HD
ATOM     24  C   UNL A   1      39.914  32.756  35.116  1.00  0.00     0.037 A 
ATOM     25  C   UNL A   1      40.782  28.576  29.451  1.00  0.00     0.037 A 
ATOM     26  C   UNL A   1      41.036  31.859  35.180  1.00  0.00     0.049 A 
ATOM     27  C   UNL A   1      41.697  28.520  30.645  1.00  0.00     0.074 A 
ATOM     28  C   UNL A   1      41.967  31.702  36.189  1.00  0.00     0.029 A 
ATOM     29  N   UNL A   1      41.374  30.959  34.176  1.00  0.00    -0.354 N 
ATOM     30  N   UNL A   1      41.645  29.215  31.759  1.00  0.00    -0.248 NA
ATOM     31  C   UNL A   1      42.810  27.567  30.583  1.00  0.00     0.031 C 
ATOM     32  C   UNL A   1      42.889  30.732  35.779  1.00  0.00     0.029 A 
ATOM     33  C   UNL A   1      42.505  30.248  34.538  1.00  0.00     0.049 A 
ATOM     34  H   UNL A   1      40.880  30.843  33.332  1.00  0.00     0.167 HD
ATOM     35  C   UNL A   1      42.711  28.780  32.531  1.00  0.00     0.074 A 
ATOM     36  C   UNL A   1      43.369  27.734  31.772  1.00  0.00     0.031 C 
ATOM     37  C   UNL A   1      43.124  29.212  33.749  1.00  0.00     0.037 A 
BRANCH  24  38
ATOM     38  C   UNL A   1      39.605  33.641  36.286  1.00  0.00     0.064 A 
ATOM     39  C   UNL A   1      40.117  34.943  36.386  1.00  0.00     0.173 A 
ATOM     40  C   UNL A   1      38.810  33.167  37.340  1.00  0.00     0.173 A 
ATOM     41  F   UNL A   1      40.910  35.433  35.421  1.00  0.00    -0.203 F 
ATOM     42  C   UNL A   1      39.867  35.727  37.511  1.00  0.00     0.198 A 
ATOM     43  C   UNL A   1      38.540  33.962  38.450  1.00  0.00     0.198 A 
ATOM     44  F   UNL A   1      38.303  31.925  37.299  1.00  0.00    -0.203 F 
ATOM     45  F   UNL A   1      40.416  36.946  37.611  1.00  0.00    -0.200 F 
ATOM     46  C   UNL A   1      39.077  35.237  38.539  1.00  0.00     0.200 A 
ATOM     47  F   UNL A   1      37.775  33.487  39.443  1.00  0.00    -0.200 F 
ATOM     48  F   UNL A   1      38.844  35.989  39.624  1.00  0.00    -0.200 F 
ENDBRANCH  24  38
BRANCH  25  49
ATOM     49  C   UNL A   1      40.986  27.694  28.269  1.00  0.00     0.064 A 
ATOM     50  C   UNL A   1      41.795  28.077  27.191  1.00  0.00     0.173 A 
ATOM     51  C   UNL A   1      40.336  26.450  28.180  1.00  0.00     0.173 A 
ATOM     52  F   UNL A   1      42.421  29.263  27.212  1.00  0.00    -0.203 F 
ATOM     53  C   UNL A   1      41.924  27.267  26.062  1.00  0.00     0.198 A 
ATOM     54  C   UNL A   1      40.496  25.626  27.068  1.00  0.00     0.198 A 
ATOM     55  F   UNL A   1      39.545  26.031  29.179  1.00  0.00    -0.203 F 
ATOM     56  F   UNL A   1      42.654  27.687  25.019  1.00  0.00    -0.200 F 
ATOM     57  C   UNL A   1      41.280  26.041  26.003  1.00  0.00     0.200 A 
ATOM     58  F   UNL A   1      39.882  24.436  27.026  1.00  0.00    -0.200 F 
ATOM     59  F   UNL A   1      41.401  25.266  24.917  1.00  0.00    -0.200 F 
ENDBRANCH  25  49
BRANCH  37  60
ATOM     60  C   UNL A   1      44.326  28.530  34.328  1.00  0.00     0.064 A 
ATOM     61  C   UNL A   1      45.621  29.032  34.130  1.00  0.00     0.173 A 
ATOM     62  C   UNL A   1      44.177  27.376  35.110  1.00  0.00     0.173 A 
ATOM     63  F   UNL A   1      45.813  30.125  33.375  1.00  0.00    -0.203 F 
ATOM     64  C   UNL A   1      46.727  28.381  34.667  1.00  0.00     0.198 A 
ATOM     65  C   UNL A   1      45.282  26.747  35.674  1.00  0.00     0.198 A 
ATOM     66  F   UNL A   1      42.957  26.863  35.334  1.00  0.00    -0.203 F 
ATOM     67  F   UNL A   1      47.959  28.844  34.417  1.00  0.00    -0.200 F 
ATOM     68  C   UNL A   1      46.557  27.244  35.443  1.00  0.00     0.200 A 
ATOM     69  F   UNL A   1      45.116  25.658  36.435  1.00  0.00    -0.200 F 
ATOM     70  F   UNL A   1      47.622  26.622  35.963  1.00  0.00    -0.200 F 
ENDBRANCH  37  60
ENDBRANCH  11  12
ENDBRANCH   4   6
ENDBRANCH   3   4
ENDBRANCH   2   3
ENDBRANCH   1   2
BRANCH   1  71
ATOM     71  O   UNL A   1      31.673  30.527  26.906  1.00  0.00    -0.374 OA
BRANCH  71  72
ATOM     72  C   UNL A   1      32.320  29.937  25.771  1.00  0.00     0.202 C 
BRANCH  72  73
ATOM     73  C   UNL A   1      31.563  28.679  25.339  1.00  0.00     0.261 C 
BRANCH  73  74
ATOM     74  O   UNL A   1      32.406  27.541  25.571  1.00  0.00    -0.460 OA
BRANCH  74  75
ATOM     75  C   UNL A   1      31.773  26.476  26.125  1.00  0.00     0.338 C 
ATOM     76  O   UNL A   1      30.657  26.449  26.616  1.00  0.00    -0.246 OA
BRANCH  75  77
ATOM     77  C   UNL A   1      32.572  25.266  25.833  1.00  0.00     0.062 A 
ATOM     78  C   UNL A   1      33.971  25.312  25.773  1.00  0.00     0.018 A 
ATOM     79  C   UNL A   1      31.865  24.083  25.554  1.00  0.00     0.044 A 
ATOM     80  C   UNL A   1      34.707  24.167  25.444  1.00  0.00     0.031 A 
ATOM     81  C   UNL A   1      32.629  22.967  25.215  1.00  0.00     0.066 A 
ATOM     82  C   UNL A   1      34.017  22.977  25.170  1.00  0.00     0.089 A 
ATOM     83  N   UNL A   1      32.289  21.682  24.880  1.00  0.00    -0.342 N 
ATOM     84  N   UNL A   1      34.503  21.731  24.875  1.00  0.00    -0.233 NA
ATOM     85  C   UNL A   1      33.447  20.948  24.776  1.00  0.00     0.110 A 
ATOM     86  H   UNL A   1      31.375  21.344  24.737  1.00  0.00     0.168 HD
BRANCH  85  87
ATOM     87  C   UNL A   1      33.474  19.455  24.650  1.00  0.00     0.055 C 
ATOM     88  C   UNL A   1      32.614  18.964  23.475  1.00  0.00     0.011 C 
ATOM     89  C   UNL A   1      34.903  18.910  24.550  1.00  0.00     0.011 C 
ATOM     90  C   UNL A   1      32.611  17.442  23.384  1.00  0.00     0.001 C 
ATOM     91  C   UNL A   1      34.899  17.384  24.460  1.00  0.00     0.001 C 
ATOM     92  C   UNL A   1      34.030  16.884  23.308  1.00  0.00     0.000 C 
ENDBRANCH  85  87
ENDBRANCH  75  77
ENDBRANCH  74  75
ENDBRANCH  73  74
ENDBRANCH  72  73
ENDBRANCH  71  72
ENDBRANCH   1  71
TORSDOF 15
ENDMDL
MODEL 2
REMARK VINA RESULT:     -11.9      1.718      2.787
REMARK SMILES O=C(OCCOCCOC(=O)c1ccc2nc(C3CCCCC3)[nH]c2c1)c1ccc(-c2c3nc(c(-c4c(F)c(F)c(F)c(F)c4F)c4ccc([nH]4)c(-c4c(F)c(F)c(F)c(F)c4F)c4nc(c(-c5c(F)c(F)c(F)c(F)c5F)c5ccc2[nH]5)C=C4)C=C3)cc1
REMARK SMILES IDX 5 1 4 2 3 3 2 4 1 5 27 6 28 7 89 8 29 9 88 10 30 11 31 12
REMARK SMILES IDX 32 13 82 14 33 15 87 16 81 17 83 18 34 19 86 20 80 21 79 22
REMARK SMILES IDX 35 24 67 25 47 26 66 27 48 28 51 29 65 30 84 31 49 32 50 33
REMARK SMILES IDX 64 35 85 36 52 37 36 38 37 39 45 40 38 41 39 42 43 43 46 44
REMARK SMILES IDX 40 45 41 46 44 47 42 48 68 49 69 50 77 51 70 52 71 53 75 54
REMARK SMILES IDX 78 55 72 56 73 57 76 58 74 59 53 60 54 61 62 62 55 63 56 64
REMARK SMILES IDX 60 65 63 66 57 67 58 68 61 69 59 70 6 71 7 72 8 73 9 74
REMARK SMILES IDX 10 75 11 76 12 77 13 78 26 79 14 80 25 81 15 82 24 83 16 84
REMARK SMILES IDX 17 85 18 87 19 88 23 89 20 90 22 91 21 92
REMARK H PARENT 83 23 51 34 24 86
REMARK Flexibility Score: inf
ROOT
ATOM      1  C   UNL A   1      31.541  29.362  24.207  1.00  0.00     0.202 C 
ENDROOT
BRANCH   1   2
ATOM      2  C   UNL A   1      31.619  30.021  25.590  1.00  0.00     0.261 C 
BRANCH   2   3
ATOM      3  O   UNL A   1      32.982  30.331  25.937  1.00  0.00    -0.460 OA
BRANCH   3   4
ATOM      4  C   UNL A   1      33.443  31.064  26.978  1.00  0.00     0.338 C 
ATOM      5  O   UNL A   1      32.780  32.025  27.364  1.00  0.00    -0.246 OA
BRANCH   4   6
ATOM      6  C   UNL A   1      34.722  30.770  27.693  1.00  0.00     0.060 A 
ATOM      7  C   UNL A   1      35.112  29.503  28.119  1.00  0.00     0.016 A 
ATOM      8  C   UNL A   1      35.634  31.828  27.867  1.00  0.00     0.016 A 
ATOM      9  C   UNL A   1      36.312  29.291  28.769  1.00  0.00     0.010 A 
ATOM     10  C   UNL A   1      36.883  31.613  28.465  1.00  0.00     0.010 A 
ATOM     11  C   UNL A   1      37.216  30.337  28.931  1.00  0.00    -0.014 A 
BRANCH  11  12
ATOM     12  C   UNL A   1      38.458  30.027  29.659  1.00  0.00     0.031 A 
ATOM     13  C   UNL A   1      38.628  30.558  31.047  1.00  0.00     0.074 A 
ATOM     14  C   UNL A   1      39.297  29.109  29.143  1.00  0.00     0.049 A 
ATOM     15  N   UNL A   1      39.595  30.351  31.899  1.00  0.00    -0.248 NA
ATOM     16  C   UNL A   1      37.549  31.421  31.557  1.00  0.00     0.031 C 
ATOM     17  C   UNL A   1      39.125  28.452  27.843  1.00  0.00     0.029 A 
ATOM     18  N   UNL A   1      40.419  28.524  29.663  1.00  0.00    -0.354 N 
ATOM     19  C   UNL A   1      39.248  31.060  33.038  1.00  0.00     0.074 A 
ATOM     20  C   UNL A   1      37.990  31.720  32.769  1.00  0.00     0.031 C 
ATOM     21  C   UNL A   1      40.082  27.525  27.688  1.00  0.00     0.029 A 
ATOM     22  C   UNL A   1      40.975  27.575  28.839  1.00  0.00     0.049 A 
ATOM     23  H   UNL A   1      40.792  28.760  30.544  1.00  0.00     0.167 HD
ATOM     24  C   UNL A   1      39.927  31.145  34.205  1.00  0.00     0.037 A 
ATOM     25  C   UNL A   1      42.100  26.855  28.991  1.00  0.00     0.037 A 
ATOM     26  C   UNL A   1      41.183  30.485  34.436  1.00  0.00     0.049 A 
ATOM     27  C   UNL A   1      42.888  27.051  30.259  1.00  0.00     0.074 A 
ATOM     28  C   UNL A   1      42.023  30.572  35.530  1.00  0.00     0.029 A 
ATOM     29  N   UNL A   1      41.778  29.603  33.540  1.00  0.00    -0.354 N 
ATOM     30  N   UNL A   1      42.601  27.793  31.304  1.00  0.00    -0.248 NA
ATOM     31  C   UNL A   1      44.158  26.325  30.368  1.00  0.00     0.031 C 
ATOM     32  C   UNL A   1      43.144  29.772  35.279  1.00  0.00     0.029 A 
ATOM     33  C   UNL A   1      42.979  29.145  34.053  1.00  0.00     0.049 A 
ATOM     34  H   UNL A   1      41.399  29.342  32.670  1.00  0.00     0.167 HD
ATOM     35  C   UNL A   1      43.648  27.620  32.196  1.00  0.00     0.074 A 
ATOM     36  C   UNL A   1      44.559  26.671  31.583  1.00  0.00     0.031 C 
ATOM     37  C   UNL A   1      43.853  28.199  33.405  1.00  0.00     0.037 A 
BRANCH  24  38
ATOM     38  C   UNL A   1      39.347  32.028  35.269  1.00  0.00     0.064 A 
ATOM     39  C   UNL A   1      39.596  33.408  35.304  1.00  0.00     0.173 A 
ATOM     40  C   UNL A   1      38.557  31.478  36.290  1.00  0.00     0.173 A 
ATOM     41  F   UNL A   1      40.372  33.978  34.370  1.00  0.00    -0.203 F 
ATOM     42  C   UNL A   1      39.097  34.200  36.337  1.00  0.00     0.198 A 
ATOM     43  C   UNL A   1      38.038  32.276  37.305  1.00  0.00     0.198 A 
ATOM     44  F   UNL A   1      38.297  30.162  36.309  1.00  0.00    -0.203 F 
ATOM     45  F   UNL A   1      39.396  35.506  36.382  1.00  0.00    -0.200 F 
ATOM     46  C   UNL A   1      38.316  33.634  37.333  1.00  0.00     0.200 A 
ATOM     47  F   UNL A   1      37.283  31.728  38.267  1.00  0.00    -0.200 F 
ATOM     48  F   UNL A   1      37.844  34.396  38.330  1.00  0.00    -0.200 F 
ENDBRANCH  24  38
BRANCH  25  49
ATOM     49  C   UNL A   1      42.578  25.954  27.906  1.00  0.00     0.064 A 
ATOM     50  C   UNL A   1      42.177  24.614  27.828  1.00  0.00     0.173 A 
ATOM     51  C   UNL A   1      43.484  26.415  26.936  1.00  0.00     0.173 A 
ATOM     52  F   UNL A   1      41.331  24.113  28.740  1.00  0.00    -0.203 F 
ATOM     53  C   UNL A   1      42.683  23.765  26.843  1.00  0.00     0.198 A 
ATOM     54  C   UNL A   1      43.960  25.577  25.930  1.00  0.00     0.198 A 
ATOM     55  F   UNL A   1      43.907  27.687  26.961  1.00  0.00    -0.203 F 
ATOM     56  F   UNL A   1      42.331  22.472  26.830  1.00  0.00    -0.200 F 
ATOM     57  C   UNL A   1      43.570  24.248  25.892  1.00  0.00     0.200 A 
ATOM     58  F   UNL A   1      44.804  26.055  25.006  1.00  0.00    -0.200 F 
ATOM     59  F   UNL A   1      44.058  23.431  24.949  1.00  0.00    -0.200 F 
ENDBRANCH  25  49
BRANCH  37  60
ATOM     60  C   UNL A   1      45.097  27.797  34.137  1.00  0.00     0.064 A 
ATOM     61  C   UNL A   1      45.137  26.644  34.936  1.00  0.00     0.173 A 
ATOM     62  C   UNL A   1      46.267  28.560  34.018  1.00  0.00     0.173 A 
ATOM     63  F   UNL A   1      44.037  25.892  35.092  1.00  0.00    -0.203 F 
ATOM     64  C   UNL A   1      46.298  26.289  35.616  1.00  0.00     0.198 A 
ATOM     65  C   UNL A   1      47.435  28.184  34.673  1.00  0.00     0.198 A 
ATOM     66  F   UNL A   1      46.279  29.667  33.260  1.00  0.00    -0.203 F 
ATOM     67  F   UNL A   1      46.299  25.217  36.419  1.00  0.00    -0.200 F 
ATOM     68  C   UNL A   1      47.447  27.055  35.479  1.00  0.00     0.200 A 
ATOM     69  F   UNL A   1      48.548  28.915  34.528  1.00  0.00    -0.200 F 
ATOM     70  F   UNL A   1      48.564  26.709  36.131  1.00  0.00    -0.200 F 
ENDBRANCH  37  60
ENDBRANCH  11  12
ENDBRANCH   4   6
ENDBRANCH   3   4
ENDBRANCH   2   3
ENDBRANCH   1   2
BRANCH   1  71
ATOM     71  O   UNL A   1      30.215  29.024  23.790  1.00  0.00    -0.374 OA
BRANCH  71  72
ATOM     72  C   UNL A   1      30.097  27.800  23.056  1.00  0.00     0.202 C 
BRANCH  72  73
ATOM     73  C   UNL A   1      29.791  26.647  24.015  1.00  0.00     0.261 C 
BRANCH  73  74
ATOM     74  O   UNL A   1      31.014  25.948  24.287  1.00  0.00    -0.460 OA
BRANCH  74  75
ATOM     75  C   UNL A   1      31.220  25.664  25.599  1.00  0.00     0.338 C 
ATOM     76  O   UNL A   1      30.732  26.226  26.564  1.00  0.00    -0.246 OA
BRANCH  75  77
ATOM     77  C   UNL A   1      31.967  24.390  25.679  1.00  0.00     0.062 A 
ATOM     78  C   UNL A   1      33.148  24.283  26.424  1.00  0.00     0.018 A 
ATOM     79  C   UNL A   1      31.474  23.309  24.926  1.00  0.00     0.044 A 
ATOM     80  C   UNL A   1      33.868  23.082  26.447  1.00  0.00     0.031 A 
ATOM     81  C   UNL A   1      32.225  22.134  24.959  1.00  0.00     0.066 A 
ATOM     82  C   UNL A   1      33.387  21.992  25.706  1.00  0.00     0.089 A 
ATOM     83  N   UNL A   1      32.060  20.915  24.355  1.00  0.00    -0.342 N 
ATOM     84  N   UNL A   1      33.877  20.717  25.604  1.00  0.00    -0.233 NA
ATOM     85  C   UNL A   1      33.021  20.063  24.844  1.00  0.00     0.110 A 
ATOM     86  H   UNL A   1      31.372  20.690  23.687  1.00  0.00     0.168 HD
BRANCH  85  87
ATOM     87  C   UNL A   1      33.024  18.585  24.596  1.00  0.00     0.055 C 
ATOM     88  C   UNL A   1      34.401  18.086  24.131  1.00  0.00     0.011 C 
ATOM     89  C   UNL A   1      32.535  17.794  25.814  1.00  0.00     0.011 C 
ATOM     90  C   UNL A   1      34.381  16.590  23.837  1.00  0.00     0.001 C 
ATOM     91  C   UNL A   1      32.514  16.295  25.517  1.00  0.00     0.001 C 
ATOM     92  C   UNL A   1      33.872  15.792  25.034  1.00  0.00     0.000 C 
ENDBRANCH  85  87
ENDBRANCH  75  77
ENDBRANCH  74  75
ENDBRANCH  73  74
ENDBRANCH  72  73
ENDBRANCH  71  72
ENDBRANCH   1  71
TORSDOF 15
ENDMDL
MODEL 3
REMARK VINA RESULT:     -11.8      1.814      2.422
REMARK SMILES O=C(OCCOCCOC(=O)c1ccc2nc(C3CCCCC3)[nH]c2c1)c1ccc(-c2c3nc(c(-c4c(F)c(F)c(F)c(F)c4F)c4ccc([nH]4)c(-c4c(F)c(F)c(F)c(F)c4F)c4nc(c(-c5c(F)c(F)c(F)c(F)c5F)c5ccc2[nH]5)C=C4)C=C3)cc1
REMARK SMILES IDX 5 1 4 2 3 3 2 4 1 5 27 6 28 7 89 8 29 9 88 10 30 11 31 12
REMARK SMILES IDX 32 13 82 14 33 15 87 16 81 17 83 18 34 19 86 20 80 21 79 22
REMARK SMILES IDX 35 24 67 25 47 26 66 27 48 28 51 29 65 30 84 31 49 32 50 33
REMARK SMILES IDX 64 35 85 36 52 37 36 38 37 39 45 40 38 41 39 42 43 43 46 44
REMARK SMILES IDX 40 45 41 46 44 47 42 48 68 49 69 50 77 51 70 52 71 53 75 54
REMARK SMILES IDX 78 55 72 56 73 57 76 58 74 59 53 60 54 61 62 62 55 63 56 64
REMARK SMILES IDX 60 65 63 66 57 67 58 68 61 69 59 70 6 71 7 72 8 73 9 74
REMARK SMILES IDX 10 75 11 76 12 77 13 78 26 79 14 80 25 81 15 82 24 83 16 84
REMARK SMILES IDX 17 85 18 87 19 88 23 89 20 90 22 91 21 92
REMARK H PARENT 83 23 51 34 24 86
REMARK Flexibility Score: inf
ROOT
ATOM      1  C   UNL A   1      31.877  29.083  24.807  1.00  0.00     0.202 C 
ENDROOT
BRANCH   1   2
ATOM      2  C   UNL A   1      31.987  29.800  26.159  1.00  0.00     0.261 C 
BRANCH   2   3
ATOM      3  O   UNL A   1      33.023  30.799  26.130  1.00  0.00    -0.460 OA
BRANCH   3   4
ATOM      4  C   UNL A   1      33.537  31.514  27.159  1.00  0.00     0.338 C 
ATOM      5  O   UNL A   1      32.928  32.506  27.553  1.00  0.00    -0.246 OA
BRANCH   4   6
ATOM      6  C   UNL A   1      34.814  31.162  27.852  1.00  0.00     0.060 A 
ATOM      7  C   UNL A   1      35.125  29.892  28.330  1.00  0.00     0.016 A 
ATOM      8  C   UNL A   1      35.803  32.158  27.950  1.00  0.00     0.016 A 
ATOM      9  C   UNL A   1      36.327  29.625  28.957  1.00  0.00     0.010 A 
ATOM     10  C   UNL A   1      37.051  31.882  28.523  1.00  0.00     0.010 A 
ATOM     11  C   UNL A   1      37.307  30.609  29.042  1.00  0.00    -0.014 A 
BRANCH  11  12
ATOM     12  C   UNL A   1      38.546  30.245  29.752  1.00  0.00     0.031 A 
ATOM     13  C   UNL A   1      38.732  30.716  31.158  1.00  0.00     0.074 A 
ATOM     14  C   UNL A   1      39.363  29.332  29.194  1.00  0.00     0.049 A 
ATOM     15  N   UNL A   1      39.699  30.455  31.996  1.00  0.00    -0.248 NA
ATOM     16  C   UNL A   1      37.673  31.579  31.708  1.00  0.00     0.031 C 
ATOM     17  C   UNL A   1      39.172  28.730  27.870  1.00  0.00     0.029 A 
ATOM     18  N   UNL A   1      40.475  28.703  29.685  1.00  0.00    -0.354 N 
ATOM     19  C   UNL A   1      39.371  31.125  33.165  1.00  0.00     0.074 A 
ATOM     20  C   UNL A   1      38.126  31.820  32.929  1.00  0.00     0.031 C 
ATOM     21  C   UNL A   1      40.109  27.792  27.673  1.00  0.00     0.029 A 
ATOM     22  C   UNL A   1      41.008  27.777  28.821  1.00  0.00     0.049 A 
ATOM     23  H   UNL A   1      40.857  28.895  30.572  1.00  0.00     0.167 HD
ATOM     24  C   UNL A   1      40.057  31.149  34.331  1.00  0.00     0.037 A 
ATOM     25  C   UNL A   1      42.119  27.028  28.938  1.00  0.00     0.037 A 
ATOM     26  C   UNL A   1      41.300  30.455  34.529  1.00  0.00     0.049 A 
ATOM     27  C   UNL A   1      42.916  27.158  30.208  1.00  0.00     0.074 A 
ATOM     28  C   UNL A   1      42.147  30.481  35.621  1.00  0.00     0.029 A 
ATOM     29  N   UNL A   1      41.872  29.597  33.595  1.00  0.00    -0.354 N 
ATOM     30  N   UNL A   1      42.648  27.863  31.284  1.00  0.00    -0.248 NA
ATOM     31  C   UNL A   1      44.171  26.402  30.281  1.00  0.00     0.031 C 
ATOM     32  C   UNL A   1      43.250  29.669  35.332  1.00  0.00     0.029 A 
ATOM     33  C   UNL A   1      43.066  29.095  34.083  1.00  0.00     0.049 A 
ATOM     34  H   UNL A   1      41.484  29.379  32.717  1.00  0.00     0.167 HD
ATOM     35  C   UNL A   1      43.696  27.632  32.163  1.00  0.00     0.074 A 
ATOM     36  C   UNL A   1      44.584  26.691  31.507  1.00  0.00     0.031 C 
ATOM     37  C   UNL A   1      43.918  28.158  33.393  1.00  0.00     0.037 A 
BRANCH  24  38
ATOM     38  C   UNL A   1      39.500  32.000  35.433  1.00  0.00     0.064 A 
ATOM     39  C   UNL A   1      39.893  33.335  35.609  1.00  0.00     0.173 A 
ATOM     40  C   UNL A   1      38.583  31.460  36.347  1.00  0.00     0.173 A 
ATOM     41  F   UNL A   1      40.792  33.889  34.782  1.00  0.00    -0.203 F 
ATOM     42  C   UNL A   1      39.409  34.089  36.676  1.00  0.00     0.198 A 
ATOM     43  C   UNL A   1      38.081  32.224  37.396  1.00  0.00     0.198 A 
ATOM     44  F   UNL A   1      38.182  30.185  36.230  1.00  0.00    -0.203 F 
ATOM     45  F   UNL A   1      39.843  35.344  36.859  1.00  0.00    -0.200 F 
ATOM     46  C   UNL A   1      38.501  33.535  37.566  1.00  0.00     0.200 A 
ATOM     47  F   UNL A   1      37.203  31.687  38.255  1.00  0.00    -0.200 F 
ATOM     48  F   UNL A   1      38.043  34.259  38.596  1.00  0.00    -0.200 F 
ENDBRANCH  24  38
BRANCH  25  49
ATOM     49  C   UNL A   1      42.573  26.163  27.815  1.00  0.00     0.064 A 
ATOM     50  C   UNL A   1      43.477  26.620  26.847  1.00  0.00     0.173 A 
ATOM     51  C   UNL A   1      42.075  24.856  27.668  1.00  0.00     0.173 A 
ATOM     52  F   UNL A   1      43.967  27.866  26.924  1.00  0.00    -0.203 F 
ATOM     53  C   UNL A   1      43.843  25.819  25.765  1.00  0.00     0.198 A 
ATOM     54  C   UNL A   1      42.470  24.044  26.608  1.00  0.00     0.198 A 
ATOM     55  F   UNL A   1      41.204  24.364  28.561  1.00  0.00    -0.203 F 
ATOM     56  F   UNL A   1      44.660  26.305  24.820  1.00  0.00    -0.200 F 
ATOM     57  C   UNL A   1      43.344  24.530  25.649  1.00  0.00     0.200 A 
ATOM     58  F   UNL A   1      41.996  22.795  26.511  1.00  0.00    -0.200 F 
ATOM     59  F   UNL A   1      43.693  23.764  24.607  1.00  0.00    -0.200 F 
ENDBRANCH  25  49
BRANCH  37  60
ATOM     60  C   UNL A   1      45.157  27.701  34.102  1.00  0.00     0.064 A 
ATOM     61  C   UNL A   1      46.367  28.401  33.987  1.00  0.00     0.173 A 
ATOM     62  C   UNL A   1      45.125  26.566  34.924  1.00  0.00     0.173 A 
ATOM     63  F   UNL A   1      46.449  29.485  33.199  1.00  0.00    -0.203 F 
ATOM     64  C   UNL A   1      47.511  27.959  34.645  1.00  0.00     0.198 A 
ATOM     65  C   UNL A   1      46.262  26.146  35.606  1.00  0.00     0.198 A 
ATOM     66  F   UNL A   1      43.988  25.868  35.070  1.00  0.00    -0.203 F 
ATOM     67  F   UNL A   1      48.671  28.609  34.475  1.00  0.00    -0.200 F 
ATOM     68  C   UNL A   1      47.456  26.837  35.458  1.00  0.00     0.200 A 
ATOM     69  F   UNL A   1      46.204  25.071  36.402  1.00  0.00    -0.200 F 
ATOM     70  F   UNL A   1      48.557  26.415  36.093  1.00  0.00    -0.200 F 
ENDBRANCH  37  60
ENDBRANCH  11  12
ENDBRANCH   4   6
ENDBRANCH   3   4
ENDBRANCH   2   3
ENDBRANCH   1   2
BRANCH   1  71
ATOM     71  O   UNL A   1      30.573  28.575  24.515  1.00  0.00    -0.374 OA
BRANCH  71  72
ATOM     72  C   UNL A   1      30.371  28.148  23.162  1.00  0.00     0.202 C 
BRANCH  72  73
ATOM     73  C   UNL A   1      31.670  27.560  22.604  1.00  0.00     0.261 C 
BRANCH  73  74
ATOM     74  O   UNL A   1      31.406  26.219  22.163  1.00  0.00    -0.460 OA
BRANCH  74  75
ATOM     75  C   UNL A   1      32.505  25.426  22.090  1.00  0.00     0.338 C 
ATOM     76  O   UNL A   1      33.590  25.705  21.607  1.00  0.00    -0.246 OA
BRANCH  75  77
ATOM     77  C   UNL A   1      32.255  24.220  22.909  1.00  0.00     0.062 A 
ATOM     78  C   UNL A   1      31.465  24.275  24.065  1.00  0.00     0.018 A 
ATOM     79  C   UNL A   1      32.894  23.032  22.513  1.00  0.00     0.044 A 
ATOM     80  C   UNL A   1      31.281  23.134  24.855  1.00  0.00     0.031 A 
ATOM     81  C   UNL A   1      32.702  21.920  23.331  1.00  0.00     0.066 A 
ATOM     82  C   UNL A   1      31.906  21.939  24.470  1.00  0.00     0.089 A 
ATOM     83  N   UNL A   1      33.166  20.632  23.264  1.00  0.00    -0.342 N 
ATOM     84  N   UNL A   1      31.845  20.695  25.040  1.00  0.00    -0.233 NA
ATOM     85  C   UNL A   1      32.552  19.905  24.256  1.00  0.00     0.110 A 
ATOM     86  H   UNL A   1      33.825  20.288  22.619  1.00  0.00     0.168 HD
BRANCH  85  87
ATOM     87  C   UNL A   1      32.628  18.411  24.358  1.00  0.00     0.055 C 
ATOM     88  C   UNL A   1      33.831  17.846  23.588  1.00  0.00     0.011 C 
ATOM     89  C   UNL A   1      32.632  17.932  25.814  1.00  0.00     0.011 C 
ATOM     90  C   UNL A   1      33.872  16.323  23.659  1.00  0.00     0.001 C 
ATOM     91  C   UNL A   1      32.673  16.405  25.884  1.00  0.00     0.001 C 
ATOM     92  C   UNL A   1      33.853  15.831  25.103  1.00  0.00     0.000 C 
ENDBRANCH  85  87
ENDBRANCH  75  77
ENDBRANCH  74  75
ENDBRANCH  73  74
ENDBRANCH  72  73
ENDBRANCH  71  72
ENDBRANCH   1  71
TORSDOF 15
ENDMDL
