MODEL 1
REMARK VINA RESULT:     -12.5      0.000      0.000
REMARK SMILES O=C(COc1ccccc1[C@@H]1[NH2+]CCc2cc(O)c(O)cc21)OCCOCCOC(=O)c1ccc(-c2c3nc(c(-c4c(F)c(F)c(F)c(F)c4F)c4ccc([nH]4)c(-c4c(F)c(F)c(F)c(F)c4F)c4nc(c(-c5c(F)c(F)c(F)c(F)c5F)c5ccc2[nH]5)C=C4)C=C3)cc1
REMARK SMILES IDX 25 1 24 2 23 3 2 4 1 5 3 6 4 7 5 8 6 9 10 10 7 11 9 12 8 13
REMARK SMILES IDX 11 14 12 15 22 16 13 17 15 20 21 21 14 22 16 23 19 24 17 25
REMARK SMILES IDX 20 26 18 28 26 30 27 31 28 32 29 33 30 34 31 35 32 36 33 37
REMARK SMILES IDX 94 38 34 39 93 40 35 41 36 42 37 43 87 44 38 45 92 46 86 47
REMARK SMILES IDX 88 48 39 49 91 50 85 51 84 52 40 54 72 55 52 56 71 57 53 58
REMARK SMILES IDX 56 59 70 60 89 61 54 62 55 63 69 65 90 66 57 67 41 68 42 69
REMARK SMILES IDX 50 70 43 71 44 72 48 73 51 74 45 75 46 76 49 77 47 78 73 79
REMARK SMILES IDX 74 80 82 81 75 82 76 83 80 84 83 85 77 86 78 87 81 88 79 89
REMARK SMILES IDX 58 90 59 91 67 92 60 93 61 94 65 95 68 96 62 97 63 98 66 99
REMARK SMILES IDX 64 100
REMARK H PARENT 12 18 12 19 20 27 18 29 88 53 56 64
REMARK Flexibility Score: inf
ROOT
ATOM      1  C   UNL A   1      33.902  20.262  25.448  1.00  0.00     0.202 C 
ENDROOT
BRANCH   1   2
ATOM      2  C   UNL A   1      33.870  21.298  26.587  1.00  0.00     0.261 C 
BRANCH   2   3
ATOM      3  O   UNL A   1      32.555  21.843  26.768  1.00  0.00    -0.461 OA
BRANCH   3   4
ATOM      4  C   UNL A   1      32.528  23.184  26.951  1.00  0.00     0.344 C 
ATOM      5  O   UNL A   1      31.511  23.734  27.367  1.00  0.00    -0.248 OA
BRANCH   4   6
ATOM      6  C   UNL A   1      33.827  23.898  26.547  1.00  0.00     0.351 C 
BRANCH   6   7
ATOM      7  O   UNL A   1      33.822  25.008  25.690  1.00  0.00    -0.481 OA
BRANCH   7   8
ATOM      8  C   UNL A   1      33.409  24.978  24.392  1.00  0.00     0.129 A 
ATOM      9  C   UNL A   1      33.889  23.786  23.806  1.00  0.00     0.047 A 
ATOM     10  C   UNL A   1      32.605  25.859  23.633  1.00  0.00     0.056 A 
ATOM     11  C   UNL A   1      33.650  23.466  22.477  1.00  0.00     0.004 A 
ATOM     12  C   UNL A   1      32.419  25.523  22.265  1.00  0.00     0.014 A 
ATOM     13  C   UNL A   1      32.924  24.347  21.699  1.00  0.00     0.001 A 
BRANCH  10  14
ATOM     14  C   UNL A   1      31.982  27.173  24.119  1.00  0.00     0.249 C 
ATOM     15  N   UNL A   1      31.514  27.149  25.514  1.00  0.00    -0.336 N 
ATOM     16  C   UNL A   1      30.824  27.802  23.332  1.00  0.00     0.021 A 
ATOM     17  C   UNL A   1      30.313  26.334  25.731  1.00  0.00     0.266 C 
ATOM     18  H   UNL A   1      31.307  28.106  25.799  1.00  0.00     0.347 HD
ATOM     19  H   UNL A   1      32.260  26.726  26.066  1.00  0.00     0.347 HD
ATOM     20  C   UNL A   1      29.522  27.310  23.594  1.00  0.00    -0.029 A 
ATOM     21  C   UNL A   1      30.994  28.978  22.586  1.00  0.00     0.060 A 
ATOM     22  C   UNL A   1      29.418  26.115  24.503  1.00  0.00     0.097 C 
ATOM     23  C   UNL A   1      28.401  27.997  23.133  1.00  0.00     0.054 A 
ATOM     24  C   UNL A   1      29.865  29.670  22.164  1.00  0.00     0.157 A 
ATOM     25  C   UNL A   1      28.585  29.187  22.446  1.00  0.00     0.157 A 
BRANCH  24  26
ATOM     26  O   UNL A   1      29.957  30.873  21.519  1.00  0.00    -0.504 OA
ATOM     27  H   UNL A   1      29.352  31.085  20.835  1.00  0.00     0.293 HD
ENDBRANCH  24  26
BRANCH  25  28
ATOM     28  O   UNL A   1      27.490  29.924  22.096  1.00  0.00    -0.504 OA
ATOM     29  H   UNL A   1      27.530  30.500  21.358  1.00  0.00     0.293 HD
ENDBRANCH  25  28
ENDBRANCH  10  14
ENDBRANCH   7   8
ENDBRANCH   6   7
ENDBRANCH   4   6
ENDBRANCH   3   4
ENDBRANCH   2   3
ENDBRANCH   1   2
BRANCH   1  30
ATOM     30  O   UNL A   1      35.167  20.029  24.829  1.00  0.00    -0.374 OA
BRANCH  30  31
ATOM     31  C   UNL A   1      36.214  21.001  24.909  1.00  0.00     0.202 C 
BRANCH  31  32
ATOM     32  C   UNL A   1      37.703  20.613  24.976  1.00  0.00     0.261 C 
BRANCH  32  33
ATOM     33  O   UNL A   1      38.597  21.682  25.270  1.00  0.00    -0.460 OA
BRANCH  33  34
ATOM     34  C   UNL A   1      39.572  21.342  26.138  1.00  0.00     0.338 C 
ATOM     35  O   UNL A   1      40.174  20.275  26.205  1.00  0.00    -0.246 OA
BRANCH  34  36
ATOM     36  C   UNL A   1      39.976  22.536  26.885  1.00  0.00     0.060 A 
ATOM     37  C   UNL A   1      39.271  23.715  26.625  1.00  0.00     0.016 A 
ATOM     38  C   UNL A   1      41.033  22.513  27.800  1.00  0.00     0.016 A 
ATOM     39  C   UNL A   1      39.650  24.895  27.242  1.00  0.00     0.010 A 
ATOM     40  C   UNL A   1      41.438  23.708  28.396  1.00  0.00     0.010 A 
ATOM     41  C   UNL A   1      40.772  24.904  28.077  1.00  0.00    -0.014 A 
BRANCH  41  42
ATOM     42  C   UNL A   1      41.369  26.217  28.392  1.00  0.00     0.031 A 
ATOM     43  C   UNL A   1      42.761  26.488  27.896  1.00  0.00     0.074 A 
ATOM     44  C   UNL A   1      40.640  27.172  28.989  1.00  0.00     0.049 A 
ATOM     45  N   UNL A   1      43.463  27.588  27.951  1.00  0.00    -0.248 NA
ATOM     46  C   UNL A   1      43.451  25.366  27.235  1.00  0.00     0.031 C 
ATOM     47  C   UNL A   1      39.267  27.012  29.462  1.00  0.00     0.029 A 
ATOM     48  N   UNL A   1      40.954  28.472  29.283  1.00  0.00    -0.354 N 
ATOM     49  C   UNL A   1      44.664  27.296  27.317  1.00  0.00     0.074 A 
ATOM     50  C   UNL A   1      44.619  25.907  26.925  1.00  0.00     0.031 C 
ATOM     51  C   UNL A   1      38.854  28.175  29.996  1.00  0.00     0.029 A 
ATOM     52  C   UNL A   1      39.941  29.149  29.912  1.00  0.00     0.049 A 
ATOM     53  H   UNL A   1      41.822  28.880  29.063  1.00  0.00     0.167 HD
ATOM     54  C   UNL A   1      45.705  28.124  27.070  1.00  0.00     0.037 A 
ATOM     55  C   UNL A   1      39.909  30.414  30.370  1.00  0.00     0.037 A 
ATOM     56  C   UNL A   1      45.745  29.501  27.484  1.00  0.00     0.049 A 
ATOM     57  C   UNL A   1      41.107  31.297  30.138  1.00  0.00     0.074 A 
ATOM     58  C   UNL A   1      46.758  30.426  27.318  1.00  0.00     0.029 A 
ATOM     59  N   UNL A   1      44.716  30.146  28.156  1.00  0.00    -0.354 N 
ATOM     60  N   UNL A   1      42.238  31.020  29.531  1.00  0.00    -0.248 NA
ATOM     61  C   UNL A   1      41.021  32.675  30.641  1.00  0.00     0.031 C 
ATOM     62  C   UNL A   1      46.358  31.622  27.927  1.00  0.00     0.029 A 
ATOM     63  C   UNL A   1      45.075  31.455  28.426  1.00  0.00     0.049 A 
ATOM     64  H   UNL A   1      43.858  29.733  28.405  1.00  0.00     0.167 HD
ATOM     65  C   UNL A   1      42.987  32.188  29.562  1.00  0.00     0.074 A 
ATOM     66  C   UNL A   1      42.170  33.186  30.224  1.00  0.00     0.031 C 
ATOM     67  C   UNL A   1      44.239  32.420  29.093  1.00  0.00     0.037 A 
BRANCH  54  68
ATOM     68  C   UNL A   1      46.884  27.551  26.341  1.00  0.00     0.064 A 
ATOM     69  C   UNL A   1      46.999  27.645  24.945  1.00  0.00     0.173 A 
ATOM     70  C   UNL A   1      47.915  26.913  27.043  1.00  0.00     0.173 A 
ATOM     71  F   UNL A   1      46.028  28.225  24.223  1.00  0.00    -0.203 F 
ATOM     72  C   UNL A   1      48.096  27.101  24.278  1.00  0.00     0.198 A 
ATOM     73  C   UNL A   1      49.023  26.394  26.377  1.00  0.00     0.198 A 
ATOM     74  F   UNL A   1      47.850  26.792  28.377  1.00  0.00    -0.203 F 
ATOM     75  F   UNL A   1      48.163  27.161  22.941  1.00  0.00    -0.200 F 
ATOM     76  C   UNL A   1      49.109  26.484  24.996  1.00  0.00     0.200 A 
ATOM     77  F   UNL A   1      50.005  25.804  27.071  1.00  0.00    -0.200 F 
ATOM     78  F   UNL A   1      50.167  25.966  24.354  1.00  0.00    -0.200 F 
ENDBRANCH  54  68
BRANCH  55  79
ATOM     79  C   UNL A   1      38.713  30.911  31.098  1.00  0.00     0.064 A 
ATOM     80  C   UNL A   1      38.617  30.827  32.493  1.00  0.00     0.173 A 
ATOM     81  C   UNL A   1      37.629  31.471  30.403  1.00  0.00     0.173 A 
ATOM     82  F   UNL A   1      39.616  30.282  33.203  1.00  0.00    -0.203 F 
ATOM     83  C   UNL A   1      37.475  31.263  33.163  1.00  0.00     0.198 A 
ATOM     84  C   UNL A   1      36.502  31.933  31.075  1.00  0.00     0.198 A 
ATOM     85  F   UNL A   1      37.671  31.574  29.067  1.00  0.00    -0.203 F 
ATOM     86  F   UNL A   1      37.389  31.127  34.494  1.00  0.00    -0.200 F 
ATOM     87  C   UNL A   1      36.421  31.821  32.455  1.00  0.00     0.200 A 
ATOM     88  F   UNL A   1      35.492  32.483  30.387  1.00  0.00    -0.200 F 
ATOM     89  F   UNL A   1      35.325  32.241  33.099  1.00  0.00    -0.200 F 
ENDBRANCH  55  79
BRANCH  67  90
ATOM     90  C   UNL A   1      44.782  33.809  29.268  1.00  0.00     0.064 A 
ATOM     91  C   UNL A   1      45.530  34.167  30.400  1.00  0.00     0.173 A 
ATOM     92  C   UNL A   1      44.565  34.785  28.284  1.00  0.00     0.173 A 
ATOM     93  F   UNL A   1      45.752  33.272  31.374  1.00  0.00    -0.203 F 
ATOM     94  C   UNL A   1      46.007  35.465  30.558  1.00  0.00     0.198 A 
ATOM     95  C   UNL A   1      45.073  36.072  28.432  1.00  0.00     0.198 A 
ATOM     96  F   UNL A   1      43.866  34.489  27.179  1.00  0.00    -0.203 F 
ATOM     97  F   UNL A   1      46.665  35.801  31.676  1.00  0.00    -0.200 F 
ATOM     98  C   UNL A   1      45.783  36.415  29.573  1.00  0.00     0.200 A 
ATOM     99  F   UNL A   1      44.868  36.985  27.472  1.00  0.00    -0.200 F 
ATOM    100  F   UNL A   1      46.242  37.664  29.729  1.00  0.00    -0.200 F 
ENDBRANCH  67  90
ENDBRANCH  41  42
ENDBRANCH  34  36
ENDBRANCH  33  34
ENDBRANCH  32  33
ENDBRANCH  31  32
ENDBRANCH  30  31
ENDBRANCH   1  30
TORSDOF 19
ENDMDL
MODEL 2
REMARK VINA RESULT:     -12.2      3.987      9.965
REMARK SMILES O=C(COc1ccccc1[C@@H]1[NH2+]CCc2cc(O)c(O)cc21)OCCOCCOC(=O)c1ccc(-c2c3nc(c(-c4c(F)c(F)c(F)c(F)c4F)c4ccc([nH]4)c(-c4c(F)c(F)c(F)c(F)c4F)c4nc(c(-c5c(F)c(F)c(F)c(F)c5F)c5ccc2[nH]5)C=C4)C=C3)cc1
REMARK SMILES IDX 25 1 24 2 23 3 2 4 1 5 3 6 4 7 5 8 6 9 10 10 7 11 9 12 8 13
REMARK SMILES IDX 11 14 12 15 22 16 13 17 15 20 21 21 14 22 16 23 19 24 17 25
REMARK SMILES IDX 20 26 18 28 26 30 27 31 28 32 29 33 30 34 31 35 32 36 33 37
REMARK SMILES IDX 94 38 34 39 93 40 35 41 36 42 37 43 87 44 38 45 92 46 86 47
REMARK SMILES IDX 88 48 39 49 91 50 85 51 84 52 40 54 72 55 52 56 71 57 53 58
REMARK SMILES IDX 56 59 70 60 89 61 54 62 55 63 69 65 90 66 57 67 41 68 42 69
REMARK SMILES IDX 50 70 43 71 44 72 48 73 51 74 45 75 46 76 49 77 47 78 73 79
REMARK SMILES IDX 74 80 82 81 75 82 76 83 80 84 83 85 77 86 78 87 81 88 79 89
REMARK SMILES IDX 58 90 59 91 67 92 60 93 61 94 65 95 68 96 62 97 63 98 66 99
REMARK SMILES IDX 64 100
REMARK H PARENT 12 18 12 19 20 27 18 29 88 53 56 64
REMARK Flexibility Score: inf
ROOT
ATOM      1  C   UNL A   1      33.039  28.273  24.787  1.00  0.00     0.202 C 
ENDROOT
BRANCH   1   2
ATOM      2  C   UNL A   1      33.394  28.015  23.311  1.00  0.00     0.261 C 
BRANCH   2   3
ATOM      3  O   UNL A   1      32.408  28.568  22.427  1.00  0.00    -0.461 OA
BRANCH   3   4
ATOM      4  C   UNL A   1      31.260  27.856  22.356  1.00  0.00     0.344 C 
ATOM      5  O   UNL A   1      30.185  28.377  22.643  1.00  0.00    -0.248 OA
BRANCH   4   6
ATOM      6  C   UNL A   1      31.458  26.388  21.949  1.00  0.00     0.351 C 
BRANCH   6   7
ATOM      7  O   UNL A   1      30.970  25.333  22.733  1.00  0.00    -0.481 OA
BRANCH   7   8
ATOM      8  C   UNL A   1      31.385  25.058  24.001  1.00  0.00     0.129 A 
ATOM      9  C   UNL A   1      30.438  25.597  24.900  1.00  0.00     0.047 A 
ATOM     10  C   UNL A   1      32.496  24.338  24.500  1.00  0.00     0.056 A 
ATOM     11  C   UNL A   1      30.583  25.498  26.276  1.00  0.00     0.004 A 
ATOM     12  C   UNL A   1      32.637  24.296  25.913  1.00  0.00     0.014 A 
ATOM     13  C   UNL A   1      31.697  24.858  26.785  1.00  0.00     0.001 A 
BRANCH  10  14
ATOM     14  C   UNL A   1      33.596  23.668  23.669  1.00  0.00     0.249 C 
ATOM     15  N   UNL A   1      33.113  22.951  22.478  1.00  0.00    -0.336 N 
ATOM     16  C   UNL A   1      34.568  22.691  24.343  1.00  0.00     0.021 A 
ATOM     17  C   UNL A   1      32.385  21.712  22.777  1.00  0.00     0.266 C 
ATOM     18  H   UNL A   1      33.917  22.719  21.895  1.00  0.00     0.347 HD
ATOM     19  H   UNL A   1      32.453  23.573  22.009  1.00  0.00     0.347 HD
ATOM     20  C   UNL A   1      34.135  21.351  24.497  1.00  0.00    -0.029 A 
ATOM     21  C   UNL A   1      35.914  23.024  24.560  1.00  0.00     0.060 A 
ATOM     22  C   UNL A   1      32.707  21.053  24.126  1.00  0.00     0.097 C 
ATOM     23  C   UNL A   1      35.040  20.351  24.845  1.00  0.00     0.054 A 
ATOM     24  C   UNL A   1      36.811  22.008  24.872  1.00  0.00     0.157 A 
ATOM     25  C   UNL A   1      36.375  20.687  25.001  1.00  0.00     0.157 A 
BRANCH  24  26
ATOM     26  O   UNL A   1      38.152  22.246  25.001  1.00  0.00    -0.504 OA
ATOM     27  H   UNL A   1      38.743  21.971  24.328  1.00  0.00     0.293 HD
ENDBRANCH  24  26
BRANCH  25  28
ATOM     28  O   UNL A   1      37.285  19.693  25.225  1.00  0.00    -0.504 OA
ATOM     29  H   UNL A   1      38.191  19.836  25.034  1.00  0.00     0.293 HD
ENDBRANCH  25  28
ENDBRANCH  10  14
ENDBRANCH   7   8
ENDBRANCH   6   7
ENDBRANCH   4   6
ENDBRANCH   3   4
ENDBRANCH   2   3
ENDBRANCH   1   2
BRANCH   1  30
ATOM     30  O   UNL A   1      33.038  29.635  25.217  1.00  0.00    -0.374 OA
BRANCH  30  31
ATOM     31  C   UNL A   1      31.833  30.263  25.663  1.00  0.00     0.202 C 
BRANCH  31  32
ATOM     32  C   UNL A   1      31.833  31.494  26.588  1.00  0.00     0.261 C 
BRANCH  32  33
ATOM     33  O   UNL A   1      32.766  31.447  27.664  1.00  0.00    -0.460 OA
BRANCH  33  34
ATOM     34  C   UNL A   1      33.606  32.502  27.691  1.00  0.00     0.338 C 
ATOM     35  O   UNL A   1      33.313  33.692  27.658  1.00  0.00    -0.246 OA
BRANCH  34  36
ATOM     36  C   UNL A   1      34.958  32.019  27.988  1.00  0.00     0.060 A 
ATOM     37  C   UNL A   1      35.120  30.638  28.132  1.00  0.00     0.016 A 
ATOM     38  C   UNL A   1      36.036  32.895  28.146  1.00  0.00     0.016 A 
ATOM     39  C   UNL A   1      36.356  30.123  28.486  1.00  0.00     0.010 A 
ATOM     40  C   UNL A   1      37.273  32.380  28.537  1.00  0.00     0.010 A 
ATOM     41  C   UNL A   1      37.415  30.998  28.750  1.00  0.00    -0.014 A 
BRANCH  41  42
ATOM     42  C   UNL A   1      38.571  30.456  29.490  1.00  0.00     0.031 A 
ATOM     43  C   UNL A   1      38.740  30.870  30.924  1.00  0.00     0.074 A 
ATOM     44  C   UNL A   1      39.363  29.528  28.932  1.00  0.00     0.049 A 
ATOM     45  N   UNL A   1      39.605  30.458  31.812  1.00  0.00    -0.248 NA
ATOM     46  C   UNL A   1      37.793  31.879  31.429  1.00  0.00     0.031 C 
ATOM     47  C   UNL A   1      39.246  29.031  27.562  1.00  0.00     0.029 A 
ATOM     48  N   UNL A   1      40.415  28.826  29.459  1.00  0.00    -0.354 N 
ATOM     49  C   UNL A   1      39.294  31.141  32.980  1.00  0.00     0.074 A 
ATOM     50  C   UNL A   1      38.194  32.028  32.682  1.00  0.00     0.031 C 
ATOM     51  C   UNL A   1      40.197  28.105  27.353  1.00  0.00     0.029 A 
ATOM     52  C   UNL A   1      40.993  27.958  28.570  1.00  0.00     0.049 A 
ATOM     53  H   UNL A   1      40.725  28.936  30.388  1.00  0.00     0.167 HD
ATOM     54  C   UNL A   1      39.869  31.024  34.200  1.00  0.00     0.037 A 
ATOM     55  C   UNL A   1      42.053  27.145  28.731  1.00  0.00     0.037 A 
ATOM     56  C   UNL A   1      40.978  30.151  34.477  1.00  0.00     0.049 A 
ATOM     57  C   UNL A   1      42.716  27.079  30.082  1.00  0.00     0.074 A 
ATOM     58  C   UNL A   1      41.663  29.971  35.664  1.00  0.00     0.029 A 
ATOM     59  N   UNL A   1      41.567  29.313  33.541  1.00  0.00    -0.354 N 
ATOM     60  N   UNL A   1      42.414  27.721  31.187  1.00  0.00    -0.248 NA
ATOM     61  C   UNL A   1      43.858  26.165  30.214  1.00  0.00     0.031 C 
ATOM     62  C   UNL A   1      42.694  29.053  35.436  1.00  0.00     0.029 A 
ATOM     63  C   UNL A   1      42.618  28.622  34.120  1.00  0.00     0.049 A 
ATOM     64  H   UNL A   1      41.281  29.222  32.603  1.00  0.00     0.167 HD
ATOM     65  C   UNL A   1      43.313  27.277  32.146  1.00  0.00     0.074 A 
ATOM     66  C   UNL A   1      44.154  26.288  31.500  1.00  0.00     0.031 C 
ATOM     67  C   UNL A   1      43.440  27.650  33.445  1.00  0.00     0.037 A 
BRANCH  54  68
ATOM     68  C   UNL A   1      39.320  31.873  35.306  1.00  0.00     0.064 A 
ATOM     69  C   UNL A   1      38.427  31.353  36.258  1.00  0.00     0.173 A 
ATOM     70  C   UNL A   1      39.695  33.218  35.426  1.00  0.00     0.173 A 
ATOM     71  F   UNL A   1      38.017  30.078  36.173  1.00  0.00    -0.203 F 
ATOM     72  C   UNL A   1      37.917  32.155  37.276  1.00  0.00     0.198 A 
ATOM     73  C   UNL A   1      39.205  34.010  36.461  1.00  0.00     0.198 A 
ATOM     74  F   UNL A   1      40.540  33.765  34.540  1.00  0.00    -0.203 F 
ATOM     75  F   UNL A   1      37.032  31.649  38.146  1.00  0.00    -0.200 F 
ATOM     76  C   UNL A   1      38.313  33.480  37.382  1.00  0.00     0.200 A 
ATOM     77  F   UNL A   1      39.593  35.288  36.567  1.00  0.00    -0.200 F 
ATOM     78  F   UNL A   1      37.826  34.250  38.366  1.00  0.00    -0.200 F 
ENDBRANCH  54  68
BRANCH  55  79
ATOM     79  C   UNL A   1      42.554  26.342  27.585  1.00  0.00     0.064 A 
ATOM     80  C   UNL A   1      43.567  26.818  26.743  1.00  0.00     0.173 A 
ATOM     81  C   UNL A   1      42.013  25.078  27.302  1.00  0.00     0.173 A 
ATOM     82  F   UNL A   1      44.104  28.029  26.958  1.00  0.00    -0.203 F 
ATOM     83  C   UNL A   1      44.005  26.073  25.650  1.00  0.00     0.198 A 
ATOM     84  C   UNL A   1      42.471  24.321  26.227  1.00  0.00     0.198 A 
ATOM     85  F   UNL A   1      41.041  24.575  28.077  1.00  0.00    -0.203 F 
ATOM     86  F   UNL A   1      44.941  26.574  24.831  1.00  0.00    -0.200 F 
ATOM     87  C   UNL A   1      43.461  24.823  25.396  1.00  0.00     0.200 A 
ATOM     88  F   UNL A   1      41.951  23.108  25.994  1.00  0.00    -0.200 F 
ATOM     89  F   UNL A   1      43.882  24.105  24.346  1.00  0.00    -0.200 F 
ENDBRANCH  55  79
BRANCH  67  90
ATOM     90  C   UNL A   1      44.515  26.972  34.244  1.00  0.00     0.064 A 
ATOM     91  C   UNL A   1      44.281  25.762  34.911  1.00  0.00     0.173 A 
ATOM     92  C   UNL A   1      45.798  27.533  34.326  1.00  0.00     0.173 A 
ATOM     93  F   UNL A   1      43.065  25.194  34.873  1.00  0.00    -0.203 F 
ATOM     94  C   UNL A   1      45.281  25.157  35.666  1.00  0.00     0.198 A 
ATOM     95  C   UNL A   1      46.806  26.908  35.054  1.00  0.00     0.198 A 
ATOM     96  F   UNL A   1      46.077  28.684  33.696  1.00  0.00    -0.203 F 
ATOM     97  F   UNL A   1      45.016  24.033  36.347  1.00  0.00    -0.200 F 
ATOM     98  C   UNL A   1      46.543  25.727  35.734  1.00  0.00     0.200 A 
ATOM     99  F   UNL A   1      48.030  27.452  35.106  1.00  0.00    -0.200 F 
ATOM    100  F   UNL A   1      47.505  25.144  36.462  1.00  0.00    -0.200 F 
ENDBRANCH  67  90
ENDBRANCH  41  42
ENDBRANCH  34  36
ENDBRANCH  33  34
ENDBRANCH  32  33
ENDBRANCH  31  32
ENDBRANCH  30  31
ENDBRANCH   1  30
TORSDOF 19
ENDMDL
MODEL 3
REMARK VINA RESULT:     -12.2      4.063      9.521
REMARK SMILES O=C(COc1ccccc1[C@@H]1[NH2+]CCc2cc(O)c(O)cc21)OCCOCCOC(=O)c1ccc(-c2c3nc(c(-c4c(F)c(F)c(F)c(F)c4F)c4ccc([nH]4)c(-c4c(F)c(F)c(F)c(F)c4F)c4nc(c(-c5c(F)c(F)c(F)c(F)c5F)c5ccc2[nH]5)C=C4)C=C3)cc1
REMARK SMILES IDX 25 1 24 2 23 3 2 4 1 5 3 6 4 7 5 8 6 9 10 10 7 11 9 12 8 13
REMARK SMILES IDX 11 14 12 15 22 16 13 17 15 20 21 21 14 22 16 23 19 24 17 25
REMARK SMILES IDX 20 26 18 28 26 30 27 31 28 32 29 33 30 34 31 35 32 36 33 37
REMARK SMILES IDX 94 38 34 39 93 40 35 41 36 42 37 43 87 44 38 45 92 46 86 47
REMARK SMILES IDX 88 48 39 49 91 50 85 51 84 52 40 54 72 55 52 56 71 57 53 58
REMARK SMILES IDX 56 59 70 60 89 61 54 62 55 63 69 65 90 66 57 67 41 68 42 69
REMARK SMILES IDX 50 70 43 71 44 72 48 73 51 74 45 75 46 76 49 77 47 78 73 79
REMARK SMILES IDX 74 80 82 81 75 82 76 83 80 84 83 85 77 86 78 87 81 88 79 89
REMARK SMILES IDX 58 90 59 91 67 92 60 93 61 94 65 95 68 96 62 97 63 98 66 99
REMARK SMILES IDX 64 100
REMARK H PARENT 12 18 12 19 20 27 18 29 88 53 56 64
REMARK Flexibility Score: inf
ROOT
ATOM      1  C   UNL A   1      32.927  28.873  24.039  1.00  0.00     0.202 C 
ENDROOT
BRANCH   1   2
ATOM      2  C   UNL A   1      32.572  27.706  23.100  1.00  0.00     0.261 C 
BRANCH   2   3
ATOM      3  O   UNL A   1      33.304  26.518  23.435  1.00  0.00    -0.461 OA
BRANCH   3   4
ATOM      4  C   UNL A   1      33.652  25.759  22.369  1.00  0.00     0.344 C 
ATOM      5  O   UNL A   1      33.281  26.067  21.239  1.00  0.00    -0.248 OA
BRANCH   4   6
ATOM      6  C   UNL A   1      34.471  24.511  22.730  1.00  0.00     0.351 C 
BRANCH   6   7
ATOM      7  O   UNL A   1      35.060  24.356  23.993  1.00  0.00    -0.481 OA
BRANCH   7   8
ATOM      8  C   UNL A   1      35.460  23.164  24.517  1.00  0.00     0.129 A 
ATOM      9  C   UNL A   1      36.720  22.842  23.965  1.00  0.00     0.047 A 
ATOM     10  C   UNL A   1      34.876  22.306  25.477  1.00  0.00     0.056 A 
ATOM     11  C   UNL A   1      37.393  21.673  24.287  1.00  0.00     0.004 A 
ATOM     12  C   UNL A   1      35.570  21.097  25.749  1.00  0.00     0.014 A 
ATOM     13  C   UNL A   1      36.807  20.788  25.172  1.00  0.00     0.001 A 
BRANCH  10  14
ATOM     14  C   UNL A   1      33.536  22.517  26.193  1.00  0.00     0.249 C 
ATOM     15  N   UNL A   1      32.703  21.309  26.299  1.00  0.00    -0.336 N 
ATOM     16  C   UNL A   1      32.577  23.609  25.703  1.00  0.00     0.021 A 
ATOM     17  C   UNL A   1      32.116  20.870  25.026  1.00  0.00     0.266 C 
ATOM     18  H   UNL A   1      31.943  21.499  26.953  1.00  0.00     0.347 HD
ATOM     19  H   UNL A   1      33.315  20.556  26.614  1.00  0.00     0.347 HD
ATOM     20  C   UNL A   1      31.727  23.285  24.618  1.00  0.00    -0.029 A 
ATOM     21  C   UNL A   1      32.353  24.779  26.445  1.00  0.00     0.060 A 
ATOM     22  C   UNL A   1      31.956  21.955  23.951  1.00  0.00     0.097 C 
ATOM     23  C   UNL A   1      30.653  24.108  24.289  1.00  0.00     0.054 A 
ATOM     24  C   UNL A   1      31.256  25.572  26.127  1.00  0.00     0.157 A 
ATOM     25  C   UNL A   1      30.413  25.230  25.067  1.00  0.00     0.157 A 
BRANCH  24  26
ATOM     26  O   UNL A   1      30.923  26.672  26.869  1.00  0.00    -0.504 OA
ATOM     27  H   UNL A   1      30.925  26.623  27.805  1.00  0.00     0.293 HD
ENDBRANCH  24  26
BRANCH  25  28
ATOM     28  O   UNL A   1      29.295  25.976  24.823  1.00  0.00    -0.504 OA
ATOM     29  H   UNL A   1      28.732  25.754  24.108  1.00  0.00     0.293 HD
ENDBRANCH  25  28
ENDBRANCH  10  14
ENDBRANCH   7   8
ENDBRANCH   6   7
ENDBRANCH   4   6
ENDBRANCH   3   4
ENDBRANCH   2   3
ENDBRANCH   1   2
BRANCH   1  30
ATOM     30  O   UNL A   1      32.100  29.045  25.189  1.00  0.00    -0.374 OA
BRANCH  30  31
ATOM     31  C   UNL A   1      31.397  30.270  25.412  1.00  0.00     0.202 C 
BRANCH  31  32
ATOM     32  C   UNL A   1      31.788  31.260  26.526  1.00  0.00     0.261 C 
BRANCH  32  33
ATOM     33  O   UNL A   1      32.969  30.928  27.249  1.00  0.00    -0.460 OA
BRANCH  33  34
ATOM     34  C   UNL A   1      33.680  32.005  27.639  1.00  0.00     0.338 C 
ATOM     35  O   UNL A   1      33.257  33.128  27.894  1.00  0.00    -0.246 OA
BRANCH  34  36
ATOM     36  C   UNL A   1      35.054  31.583  27.929  1.00  0.00     0.060 A 
ATOM     37  C   UNL A   1      35.285  30.209  28.039  1.00  0.00     0.016 A 
ATOM     38  C   UNL A   1      36.087  32.508  28.113  1.00  0.00     0.016 A 
ATOM     39  C   UNL A   1      36.543  29.747  28.385  1.00  0.00     0.010 A 
ATOM     40  C   UNL A   1      37.347  32.045  28.495  1.00  0.00     0.010 A 
ATOM     41  C   UNL A   1      37.557  30.667  28.674  1.00  0.00    -0.014 A 
BRANCH  41  42
ATOM     42  C   UNL A   1      38.737  30.164  29.405  1.00  0.00     0.031 A 
ATOM     43  C   UNL A   1      38.932  30.629  30.820  1.00  0.00     0.074 A 
ATOM     44  C   UNL A   1      39.528  29.228  28.860  1.00  0.00     0.049 A 
ATOM     45  N   UNL A   1      39.823  30.258  31.701  1.00  0.00    -0.248 NA
ATOM     46  C   UNL A   1      37.984  31.643  31.313  1.00  0.00     0.031 C 
ATOM     47  C   UNL A   1      39.385  28.683  27.512  1.00  0.00     0.029 A 
ATOM     48  N   UNL A   1      40.600  28.558  29.387  1.00  0.00    -0.354 N 
ATOM     49  C   UNL A   1      39.531  30.978  32.853  1.00  0.00     0.074 A 
ATOM     50  C   UNL A   1      38.412  31.840  32.550  1.00  0.00     0.031 C 
ATOM     51  C   UNL A   1      40.343  27.762  27.312  1.00  0.00     0.029 A 
ATOM     52  C   UNL A   1      41.169  27.666  28.514  1.00  0.00     0.049 A 
ATOM     53  H   UNL A   1      40.930  28.703  30.303  1.00  0.00     0.167 HD
ATOM     54  C   UNL A   1      40.135  30.909  34.061  1.00  0.00     0.037 A 
ATOM     55  C   UNL A   1      42.243  26.872  28.677  1.00  0.00     0.037 A 
ATOM     56  C   UNL A   1      41.261  30.060  34.342  1.00  0.00     0.049 A 
ATOM     57  C   UNL A   1      42.938  26.861  30.014  1.00  0.00     0.074 A 
ATOM     58  C   UNL A   1      41.975  29.929  35.518  1.00  0.00     0.029 A 
ATOM     59  N   UNL A   1      41.839  29.197  33.421  1.00  0.00    -0.354 N 
ATOM     60  N   UNL A   1      42.653  27.537  31.103  1.00  0.00    -0.248 NA
ATOM     61  C   UNL A   1      44.094  25.965  30.151  1.00  0.00     0.031 C 
ATOM     62  C   UNL A   1      43.013  29.016  35.297  1.00  0.00     0.029 A 
ATOM     63  C   UNL A   1      42.913  28.540  33.999  1.00  0.00     0.049 A 
ATOM     64  H   UNL A   1      41.533  29.071  32.494  1.00  0.00     0.167 HD
ATOM     65  C   UNL A   1      43.579  27.136  32.056  1.00  0.00     0.074 A 
ATOM     66  C   UNL A   1      44.418  26.137  31.425  1.00  0.00     0.031 C 
ATOM     67  C   UNL A   1      43.731  27.555  33.338  1.00  0.00     0.037 A 
BRANCH  54  68
ATOM     68  C   UNL A   1      39.600  31.789  35.151  1.00  0.00     0.064 A 
ATOM     69  C   UNL A   1      38.642  31.324  36.066  1.00  0.00     0.173 A 
ATOM     70  C   UNL A   1      40.056  33.107  35.291  1.00  0.00     0.173 A 
ATOM     71  F   UNL A   1      38.155  30.078  35.961  1.00  0.00    -0.203 F 
ATOM     72  C   UNL A   1      38.146  32.155  37.069  1.00  0.00     0.198 A 
ATOM     73  C   UNL A   1      39.579  33.926  36.312  1.00  0.00     0.198 A 
ATOM     74  F   UNL A   1      40.966  33.601  34.440  1.00  0.00    -0.203 F 
ATOM     75  F   UNL A   1      37.199  31.704  37.903  1.00  0.00    -0.200 F 
ATOM     76  C   UNL A   1      38.621  33.451  37.196  1.00  0.00     0.200 A 
ATOM     77  F   UNL A   1      40.043  35.176  36.438  1.00  0.00    -0.200 F 
ATOM     78  F   UNL A   1      38.148  34.248  38.165  1.00  0.00    -0.200 F 
ENDBRANCH  54  68
BRANCH  55  79
ATOM     79  C   UNL A   1      42.728  26.037  27.548  1.00  0.00     0.064 A 
ATOM     80  C   UNL A   1      43.736  26.485  26.685  1.00  0.00     0.173 A 
ATOM     81  C   UNL A   1      42.176  24.769  27.303  1.00  0.00     0.173 A 
ATOM     82  F   UNL A   1      44.282  27.697  26.864  1.00  0.00    -0.203 F 
ATOM     83  C   UNL A   1      44.158  25.709  25.607  1.00  0.00     0.198 A 
ATOM     84  C   UNL A   1      42.619  23.983  26.244  1.00  0.00     0.198 A 
ATOM     85  F   UNL A   1      41.208  24.293  28.099  1.00  0.00    -0.203 F 
ATOM     86  F   UNL A   1      45.090  26.182  24.767  1.00  0.00    -0.200 F 
ATOM     87  C   UNL A   1      43.604  24.456  25.390  1.00  0.00     0.200 A 
ATOM     88  F   UNL A   1      42.089  22.767  26.047  1.00  0.00    -0.200 F 
ATOM     89  F   UNL A   1      44.011  23.709  24.355  1.00  0.00    -0.200 F 
ENDBRANCH  55  79
BRANCH  67  90
ATOM     90  C   UNL A   1      44.833  26.918  34.134  1.00  0.00     0.064 A 
ATOM     91  C   UNL A   1      46.116  27.482  34.193  1.00  0.00     0.173 A 
ATOM     92  C   UNL A   1      44.596  25.741  34.858  1.00  0.00     0.173 A 
ATOM     93  F   UNL A   1      46.394  28.601  33.506  1.00  0.00    -0.203 F 
ATOM     94  C   UNL A   1      47.133  26.867  34.916  1.00  0.00     0.198 A 
ATOM     95  C   UNL A   1      45.607  25.148  35.607  1.00  0.00     0.198 A 
ATOM     96  F   UNL A   1      43.383  25.168  34.843  1.00  0.00    -0.203 F 
ATOM     97  F   UNL A   1      48.368  27.390  34.908  1.00  0.00    -0.200 F 
ATOM     98  C   UNL A   1      46.878  25.704  35.626  1.00  0.00     0.200 A 
ATOM     99  F   UNL A   1      45.355  24.031  36.305  1.00  0.00    -0.200 F 
ATOM    100  F   UNL A   1      47.860  25.113  36.321  1.00  0.00    -0.200 F 
ENDBRANCH  67  90
ENDBRANCH  41  42
ENDBRANCH  34  36
ENDBRANCH  33  34
ENDBRANCH  32  33
ENDBRANCH  31  32
ENDBRANCH  30  31
ENDBRANCH   1  30
TORSDOF 19
ENDMDL
