MODEL 1
REMARK VINA RESULT:     -11.5      0.000      0.000
REMARK SMILES CN(C)C(=O)Nc1cccc(/C=C/C(=O)OCCOCCOC(=O)c2ccc(-c3c4nc(c(-c5c(F)c(F)c(F)c(F)c5F)c5ccc([nH]5)c(-c5c(F)c(F)c(F)c(F)c5F)c5nc(c(-c6c(F)c(F)c(F)c(F)c6F)c6ccc3[nH]6)C=C5)C=C4)cc2)n1
REMARK SMILES IDX 19 1 18 2 17 3 16 4 14 5 15 6 13 7 12 8 11 9 7 10 8 11 88 12
REMARK SMILES IDX 9 13 10 14 6 15 1 16 2 17 3 18 4 19 5 20 20 22 21 23 22 24
REMARK SMILES IDX 23 25 24 26 25 27 26 28 87 29 27 30 86 31 28 32 29 33 30 34
REMARK SMILES IDX 80 35 31 36 85 37 79 38 81 39 32 40 84 41 78 42 77 43 33 45
REMARK SMILES IDX 65 46 45 47 64 48 46 49 49 50 63 51 82 52 47 53 48 54 62 56
REMARK SMILES IDX 83 57 50 58 34 59 35 60 43 61 36 62 37 63 41 64 44 65 38 66
REMARK SMILES IDX 39 67 42 68 40 69 66 70 67 71 75 72 68 73 69 74 73 75 76 76
REMARK SMILES IDX 70 77 71 78 74 79 72 80 51 81 52 82 60 83 53 84 54 85 58 86
REMARK SMILES IDX 61 87 55 88 56 89 59 90 57 91
REMARK H PARENT 6 21 81 44 49 55
REMARK Flexibility Score: inf
ROOT
ATOM      1  O   UNL A   1      35.393  22.167  26.038  1.00  0.00    -0.374 OA
ENDROOT
BRANCH   1   2
ATOM      2  C   UNL A   1      34.416  22.131  27.078  1.00  0.00     0.202 C 
BRANCH   2   3
ATOM      3  C   UNL A   1      32.966  22.291  26.618  1.00  0.00     0.261 C 
BRANCH   3   4
ATOM      4  O   UNL A   1      32.242  23.129  27.534  1.00  0.00    -0.460 OA
BRANCH   4   5
ATOM      5  C   UNL A   1      31.288  23.908  26.973  1.00  0.00     0.330 C 
ATOM      6  O   UNL A   1      30.080  23.755  27.057  1.00  0.00    -0.247 OA
BRANCH   5   7
ATOM      7  C   UNL A   1      31.872  25.074  26.288  1.00  0.00     0.095 C 
ATOM      8  C   UNL A   1      31.292  25.810  25.326  1.00  0.00     0.036 C 
BRANCH   8   9
ATOM      9  C   UNL A   1      31.990  26.953  24.721  1.00  0.00     0.066 A 
ATOM     10  C   UNL A   1      31.886  28.648  23.149  1.00  0.00     0.134 A 
ATOM     11  C   UNL A   1      33.225  28.960  23.322  1.00  0.00     0.047 A 
ATOM     12  N   UNL A   1      31.257  27.710  23.876  1.00  0.00    -0.231 NA
ATOM     13  C   UNL A   1      33.958  28.227  24.253  1.00  0.00     0.006 A 
ATOM     14  C   UNL A   1      33.337  27.192  24.953  1.00  0.00     0.028 A 
BRANCH  10  15
ATOM     15  N   UNL A   1      31.080  29.257  22.199  1.00  0.00    -0.292 N 
ATOM     16  C   UNL A   1      28.092  30.993  23.447  1.00  0.00     0.148 C 
ATOM     17  N   UNL A   1      29.432  30.431  23.437  1.00  0.00    -0.331 N 
ATOM     18  C   UNL A   1      30.298  30.883  24.520  1.00  0.00     0.148 C 
ATOM     19  C   UNL A   1      29.847  29.808  22.276  1.00  0.00     0.322 C 
ATOM     20  O   UNL A   1      29.165  29.837  21.247  1.00  0.00    -0.248 OA
ATOM     21  H   UNL A   1      31.480  29.295  21.300  1.00  0.00     0.173 HD
ENDBRANCH  10  15
ENDBRANCH   8   9
ENDBRANCH   5   7
ENDBRANCH   4   5
ENDBRANCH   3   4
ENDBRANCH   2   3
ENDBRANCH   1   2
BRANCH   1  22
ATOM     22  C   UNL A   1      35.526  20.993  25.234  1.00  0.00     0.202 C 
BRANCH  22  23
ATOM     23  C   UNL A   1      36.966  20.528  24.983  1.00  0.00     0.261 C 
BRANCH  23  24
ATOM     24  O   UNL A   1      37.909  21.599  25.178  1.00  0.00    -0.460 OA
BRANCH  24  25
ATOM     25  C   UNL A   1      38.977  21.286  25.948  1.00  0.00     0.338 C 
ATOM     26  O   UNL A   1      39.520  20.196  26.059  1.00  0.00    -0.246 OA
BRANCH  25  27
ATOM     27  C   UNL A   1      39.542  22.510  26.544  1.00  0.00     0.060 A 
ATOM     28  C   UNL A   1      39.043  23.739  26.092  1.00  0.00     0.016 A 
ATOM     29  C   UNL A   1      40.581  22.467  27.477  1.00  0.00     0.016 A 
ATOM     30  C   UNL A   1      39.612  24.930  26.535  1.00  0.00     0.010 A 
ATOM     31  C   UNL A   1      41.156  23.664  27.917  1.00  0.00     0.010 A 
ATOM     32  C   UNL A   1      40.697  24.899  27.421  1.00  0.00    -0.014 A 
BRANCH  32  33
ATOM     33  C   UNL A   1      41.433  26.150  27.723  1.00  0.00     0.031 A 
ATOM     34  C   UNL A   1      40.728  27.256  28.456  1.00  0.00     0.074 A 
ATOM     35  C   UNL A   1      42.720  26.295  27.360  1.00  0.00     0.049 A 
ATOM     36  N   UNL A   1      41.168  28.442  28.796  1.00  0.00    -0.248 NA
ATOM     37  C   UNL A   1      39.337  26.992  28.853  1.00  0.00     0.031 C 
ATOM     38  C   UNL A   1      43.517  25.287  26.666  1.00  0.00     0.029 A 
ATOM     39  N   UNL A   1      43.575  27.355  27.518  1.00  0.00    -0.354 N 
ATOM     40  C   UNL A   1      40.107  29.067  29.437  1.00  0.00     0.074 A 
ATOM     41  C   UNL A   1      38.993  28.143  29.411  1.00  0.00     0.031 C 
ATOM     42  C   UNL A   1      44.745  25.784  26.442  1.00  0.00     0.029 A 
ATOM     43  C   UNL A   1      44.809  27.153  26.953  1.00  0.00     0.049 A 
ATOM     44  H   UNL A   1      43.328  28.183  27.992  1.00  0.00     0.167 HD
ATOM     45  C   UNL A   1      40.068  30.298  30.002  1.00  0.00     0.037 A 
ATOM     46  C   UNL A   1      45.862  27.986  26.842  1.00  0.00     0.037 A 
ATOM     47  C   UNL A   1      41.179  31.212  30.032  1.00  0.00     0.049 A 
ATOM     48  C   UNL A   1      45.783  29.366  27.437  1.00  0.00     0.074 A 
ATOM     49  C   UNL A   1      41.254  32.461  30.622  1.00  0.00     0.029 A 
ATOM     50  N   UNL A   1      42.410  30.979  29.434  1.00  0.00    -0.354 N 
ATOM     51  N   UNL A   1      44.792  29.934  28.081  1.00  0.00    -0.248 NA
ATOM     52  C   UNL A   1      46.972  30.219  27.297  1.00  0.00     0.031 C 
ATOM     53  C   UNL A   1      42.510  33.007  30.334  1.00  0.00     0.029 A 
ATOM     54  C   UNL A   1      43.238  32.075  29.612  1.00  0.00     0.049 A 
ATOM     55  H   UNL A   1      42.657  30.155  28.954  1.00  0.00     0.167 HD
ATOM     56  C   UNL A   1      45.242  31.198  28.440  1.00  0.00     0.074 A 
ATOM     57  C   UNL A   1      46.601  31.309  27.954  1.00  0.00     0.031 C 
ATOM     58  C   UNL A   1      44.589  32.176  29.116  1.00  0.00     0.037 A 
BRANCH  45  59
ATOM     59  C   UNL A   1      38.765  30.739  30.603  1.00  0.00     0.064 A 
ATOM     60  C   UNL A   1      38.523  30.662  31.983  1.00  0.00     0.173 A 
ATOM     61  C   UNL A   1      37.750  31.260  29.786  1.00  0.00     0.173 A 
ATOM     62  F   UNL A   1      39.455  30.161  32.806  1.00  0.00    -0.203 F 
ATOM     63  C   UNL A   1      37.298  31.059  32.518  1.00  0.00     0.198 A 
ATOM     64  C   UNL A   1      36.539  31.682  30.327  1.00  0.00     0.198 A 
ATOM     65  F   UNL A   1      37.932  31.358  28.461  1.00  0.00    -0.203 F 
ATOM     66  F   UNL A   1      37.068  30.925  33.832  1.00  0.00    -0.200 F 
ATOM     67  C   UNL A   1      36.310  31.572  31.691  1.00  0.00     0.200 A 
ATOM     68  F   UNL A   1      35.590  32.188  29.529  1.00  0.00    -0.200 F 
ATOM     69  F   UNL A   1      35.134  31.952  32.207  1.00  0.00    -0.200 F 
ENDBRANCH  45  59
BRANCH  46  70
ATOM     70  C   UNL A   1      47.080  27.529  26.126  1.00  0.00     0.064 A 
ATOM     71  C   UNL A   1      47.192  27.650  24.735  1.00  0.00     0.173 A 
ATOM     72  C   UNL A   1      48.164  26.975  26.824  1.00  0.00     0.173 A 
ATOM     73  F   UNL A   1      46.173  28.149  24.022  1.00  0.00    -0.203 F 
ATOM     74  C   UNL A   1      48.342  27.229  24.068  1.00  0.00     0.198 A 
ATOM     75  C   UNL A   1      49.322  26.579  26.159  1.00  0.00     0.198 A 
ATOM     76  F   UNL A   1      48.105  26.838  28.157  1.00  0.00    -0.203 F 
ATOM     77  F   UNL A   1      48.411  27.326  22.733  1.00  0.00    -0.200 F 
ATOM     78  C   UNL A   1      49.408  26.701  24.781  1.00  0.00     0.200 A 
ATOM     79  F   UNL A   1      50.354  26.083  26.854  1.00  0.00    -0.200 F 
ATOM     80  F   UNL A   1      50.516  26.309  24.140  1.00  0.00    -0.200 F 
ENDBRANCH  46  70
BRANCH  58  81
ATOM     81  C   UNL A   1      45.340  33.447  29.390  1.00  0.00     0.064 A 
ATOM     82  C   UNL A   1      46.137  33.599  30.535  1.00  0.00     0.173 A 
ATOM     83  C   UNL A   1      45.300  34.508  28.473  1.00  0.00     0.173 A 
ATOM     84  F   UNL A   1      46.198  32.620  31.449  1.00  0.00    -0.203 F 
ATOM     85  C   UNL A   1      46.847  34.776  30.761  1.00  0.00     0.198 A 
ATOM     86  C   UNL A   1      46.034  35.671  28.687  1.00  0.00     0.198 A 
ATOM     87  F   UNL A   1      44.559  34.410  27.358  1.00  0.00    -0.203 F 
ATOM     88  F   UNL A   1      47.567  34.916  31.882  1.00  0.00    -0.200 F 
ATOM     89  C   UNL A   1      46.802  35.807  29.835  1.00  0.00     0.200 A 
ATOM     90  F   UNL A   1      45.999  36.661  27.784  1.00  0.00    -0.200 F 
ATOM     91  F   UNL A   1      47.493  36.934  30.050  1.00  0.00    -0.200 F 
ENDBRANCH  58  81
ENDBRANCH  32  33
ENDBRANCH  25  27
ENDBRANCH  24  25
ENDBRANCH  23  24
ENDBRANCH  22  23
ENDBRANCH   1  22
TORSDOF 16
ENDMDL
MODEL 2
REMARK VINA RESULT:     -11.5      5.726      9.636
REMARK SMILES CN(C)C(=O)Nc1cccc(/C=C/C(=O)OCCOCCOC(=O)c2ccc(-c3c4nc(c(-c5c(F)c(F)c(F)c(F)c5F)c5ccc([nH]5)c(-c5c(F)c(F)c(F)c(F)c5F)c5nc(c(-c6c(F)c(F)c(F)c(F)c6F)c6ccc3[nH]6)C=C5)C=C4)cc2)n1
REMARK SMILES IDX 19 1 18 2 17 3 16 4 14 5 15 6 13 7 12 8 11 9 7 10 8 11 88 12
REMARK SMILES IDX 9 13 10 14 6 15 1 16 2 17 3 18 4 19 5 20 20 22 21 23 22 24
REMARK SMILES IDX 23 25 24 26 25 27 26 28 87 29 27 30 86 31 28 32 29 33 30 34
REMARK SMILES IDX 80 35 31 36 85 37 79 38 81 39 32 40 84 41 78 42 77 43 33 45
REMARK SMILES IDX 65 46 45 47 64 48 46 49 49 50 63 51 82 52 47 53 48 54 62 56
REMARK SMILES IDX 83 57 50 58 34 59 35 60 43 61 36 62 37 63 41 64 44 65 38 66
REMARK SMILES IDX 39 67 42 68 40 69 66 70 67 71 75 72 68 73 69 74 73 75 76 76
REMARK SMILES IDX 70 77 71 78 74 79 72 80 51 81 52 82 60 83 53 84 54 85 58 86
REMARK SMILES IDX 61 87 55 88 56 89 59 90 57 91
REMARK H PARENT 6 21 81 44 49 55
REMARK Flexibility Score: inf
ROOT
ATOM      1  O   UNL A   1      34.800  34.170  29.217  1.00  0.00    -0.374 OA
ENDROOT
BRANCH   1   2
ATOM      2  C   UNL A   1      34.423  32.794  29.180  1.00  0.00     0.202 C 
BRANCH   2   3
ATOM      3  C   UNL A   1      34.948  32.004  27.981  1.00  0.00     0.261 C 
BRANCH   3   4
ATOM      4  O   UNL A   1      33.963  31.056  27.538  1.00  0.00    -0.460 OA
BRANCH   4   5
ATOM      5  C   UNL A   1      34.436  29.816  27.271  1.00  0.00     0.330 C 
ATOM      6  O   UNL A   1      35.563  29.402  27.492  1.00  0.00    -0.247 OA
BRANCH   5   7
ATOM      7  C   UNL A   1      33.381  28.935  26.742  1.00  0.00     0.095 C 
ATOM      8  C   UNL A   1      32.521  29.222  25.751  1.00  0.00     0.036 C 
BRANCH   8   9
ATOM      9  C   UNL A   1      31.508  28.249  25.320  1.00  0.00     0.066 A 
ATOM     10  C   UNL A   1      30.471  26.232  25.781  1.00  0.00     0.134 A 
ATOM     11  C   UNL A   1      29.834  26.220  24.551  1.00  0.00     0.047 A 
ATOM     12  N   UNL A   1      31.241  27.253  26.193  1.00  0.00    -0.231 NA
ATOM     13  C   UNL A   1      30.051  27.290  23.686  1.00  0.00     0.006 A 
ATOM     14  C   UNL A   1      30.917  28.314  24.066  1.00  0.00     0.028 A 
BRANCH  10  15
ATOM     15  N   UNL A   1      30.390  25.187  26.690  1.00  0.00    -0.292 N 
ATOM     16  C   UNL A   1      32.060  22.053  25.748  1.00  0.00     0.148 C 
ATOM     17  N   UNL A   1      31.773  23.476  25.803  1.00  0.00    -0.331 N 
ATOM     18  C   UNL A   1      32.832  24.339  25.290  1.00  0.00     0.148 C 
ATOM     19  C   UNL A   1      30.717  23.878  26.598  1.00  0.00     0.322 C 
ATOM     20  O   UNL A   1      30.122  23.083  27.331  1.00  0.00    -0.248 OA
ATOM     21  H   UNL A   1      30.026  25.448  27.567  1.00  0.00     0.173 HD
ENDBRANCH  10  15
ENDBRANCH   8   9
ENDBRANCH   5   7
ENDBRANCH   4   5
ENDBRANCH   3   4
ENDBRANCH   2   3
ENDBRANCH   1   2
BRANCH   1  22
ATOM     22  C   UNL A   1      33.937  35.095  28.550  1.00  0.00     0.202 C 
BRANCH  22  23
ATOM     23  C   UNL A   1      33.018  35.912  29.466  1.00  0.00     0.261 C 
BRANCH  23  24
ATOM     24  O   UNL A   1      32.523  35.120  30.562  1.00  0.00    -0.460 OA
BRANCH  24  25
ATOM     25  C   UNL A   1      32.763  35.633  31.792  1.00  0.00     0.338 C 
ATOM     26  O   UNL A   1      32.088  36.449  32.403  1.00  0.00    -0.246 OA
BRANCH  25  27
ATOM     27  C   UNL A   1      33.906  34.936  32.411  1.00  0.00     0.060 A 
ATOM     28  C   UNL A   1      35.142  35.595  32.411  1.00  0.00     0.016 A 
ATOM     29  C   UNL A   1      33.792  33.643  32.926  1.00  0.00     0.016 A 
ATOM     30  C   UNL A   1      36.280  34.945  32.880  1.00  0.00     0.010 A 
ATOM     31  C   UNL A   1      34.938  32.988  33.392  1.00  0.00     0.010 A 
ATOM     32  C   UNL A   1      36.192  33.624  33.339  1.00  0.00    -0.014 A 
BRANCH  32  33
ATOM     33  C   UNL A   1      37.431  32.867  33.637  1.00  0.00     0.031 A 
ATOM     34  C   UNL A   1      38.177  33.154  34.910  1.00  0.00     0.074 A 
ATOM     35  C   UNL A   1      37.881  31.925  32.790  1.00  0.00     0.049 A 
ATOM     36  N   UNL A   1      39.293  32.635  35.355  1.00  0.00    -0.248 NA
ATOM     37  C   UNL A   1      37.587  34.168  35.797  1.00  0.00     0.031 C 
ATOM     38  C   UNL A   1      37.235  31.541  31.538  1.00  0.00     0.029 A 
ATOM     39  N   UNL A   1      38.996  31.128  32.855  1.00  0.00    -0.354 N 
ATOM     40  C   UNL A   1      39.544  33.266  36.567  1.00  0.00     0.074 A 
ATOM     41  C   UNL A   1      38.482  34.226  36.772  1.00  0.00     0.031 C 
ATOM     42  C   UNL A   1      37.974  30.591  30.941  1.00  0.00     0.029 A 
ATOM     43  C   UNL A   1      39.158  30.321  31.757  1.00  0.00     0.049 A 
ATOM     44  H   UNL A   1      39.620  31.135  33.617  1.00  0.00     0.167 HD
ATOM     45  C   UNL A   1      40.565  33.055  37.432  1.00  0.00     0.037 A 
ATOM     46  C   UNL A   1      40.158  29.478  31.438  1.00  0.00     0.037 A 
ATOM     47  C   UNL A   1      41.617  32.095  37.229  1.00  0.00     0.049 A 
ATOM     48  C   UNL A   1      41.307  29.293  32.393  1.00  0.00     0.074 A 
ATOM     49  C   UNL A   1      42.668  31.773  38.069  1.00  0.00     0.029 A 
ATOM     50  N   UNL A   1      41.757  31.306  36.095  1.00  0.00    -0.354 N 
ATOM     51  N   UNL A   1      41.514  29.859  33.557  1.00  0.00    -0.248 NA
ATOM     52  C   UNL A   1      42.357  28.345  31.993  1.00  0.00     0.031 C 
ATOM     53  C   UNL A   1      43.475  30.831  37.422  1.00  0.00     0.029 A 
ATOM     54  C   UNL A   1      42.897  30.524  36.201  1.00  0.00     0.049 A 
ATOM     55  H   UNL A   1      41.138  31.302  35.330  1.00  0.00     0.167 HD
ATOM     56  C   UNL A   1      42.702  29.323  34.038  1.00  0.00     0.074 A 
ATOM     57  C   UNL A   1      43.164  28.377  33.044  1.00  0.00     0.031 C 
ATOM     58  C   UNL A   1      43.349  29.589  35.200  1.00  0.00     0.037 A 
BRANCH  45  59
ATOM     59  C   UNL A   1      40.610  33.911  38.665  1.00  0.00     0.064 A 
ATOM     60  C   UNL A   1      41.314  35.124  38.700  1.00  0.00     0.173 A 
ATOM     61  C   UNL A   1      39.923  33.517  39.824  1.00  0.00     0.173 A 
ATOM     62  F   UNL A   1      41.997  35.540  37.624  1.00  0.00    -0.203 F 
ATOM     63  C   UNL A   1      41.358  35.893  39.861  1.00  0.00     0.198 A 
ATOM     64  C   UNL A   1      39.945  34.302  40.973  1.00  0.00     0.198 A 
ATOM     65  F   UNL A   1      39.231  32.369  39.842  1.00  0.00    -0.203 F 
ATOM     66  F   UNL A   1      42.083  37.020  39.889  1.00  0.00    -0.200 F 
ATOM     67  C   UNL A   1      40.671  35.485  40.994  1.00  0.00     0.200 A 
ATOM     68  F   UNL A   1      39.271  33.912  42.063  1.00  0.00    -0.200 F 
ATOM     69  F   UNL A   1      40.714  36.225  42.110  1.00  0.00    -0.200 F 
ENDBRANCH  45  59
BRANCH  46  70
ATOM     70  C   UNL A   1      40.114  28.752  30.144  1.00  0.00     0.064 A 
ATOM     71  C   UNL A   1      40.695  29.291  28.989  1.00  0.00     0.173 A 
ATOM     72  C   UNL A   1      39.500  27.494  30.041  1.00  0.00     0.173 A 
ATOM     73  F   UNL A   1      41.270  30.501  29.031  1.00  0.00    -0.203 F 
ATOM     74  C   UNL A   1      40.660  28.602  27.777  1.00  0.00     0.198 A 
ATOM     75  C   UNL A   1      39.488  26.795  28.836  1.00  0.00     0.198 A 
ATOM     76  F   UNL A   1      38.930  26.936  31.118  1.00  0.00    -0.203 F 
ATOM     77  F   UNL A   1      41.195  29.154  26.680  1.00  0.00    -0.200 F 
ATOM     78  C   UNL A   1      40.063  27.352  27.704  1.00  0.00     0.200 A 
ATOM     79  F   UNL A   1      38.924  25.581  28.774  1.00  0.00    -0.200 F 
ATOM     80  F   UNL A   1      40.041  26.684  26.543  1.00  0.00    -0.200 F 
ENDBRANCH  46  70
BRANCH  58  81
ATOM     81  C   UNL A   1      44.617  28.833  35.474  1.00  0.00     0.064 A 
ATOM     82  C   UNL A   1      44.606  27.584  36.113  1.00  0.00     0.173 A 
ATOM     83  C   UNL A   1      45.854  29.342  35.049  1.00  0.00     0.173 A 
ATOM     84  F   UNL A   1      43.451  27.060  36.550  1.00  0.00    -0.203 F 
ATOM     85  C   UNL A   1      45.790  26.885  36.337  1.00  0.00     0.198 A 
ATOM     86  C   UNL A   1      47.032  28.627  35.249  1.00  0.00     0.198 A 
ATOM     87  F   UNL A   1      45.919  30.529  34.427  1.00  0.00    -0.203 F 
ATOM     88  F   UNL A   1      45.760  25.714  36.988  1.00  0.00    -0.200 F 
ATOM     89  C   UNL A   1      46.999  27.401  35.898  1.00  0.00     0.200 A 
ATOM     90  F   UNL A   1      48.198  29.122  34.811  1.00  0.00    -0.200 F 
ATOM     91  F   UNL A   1      48.135  26.722  36.107  1.00  0.00    -0.200 F 
ENDBRANCH  58  81
ENDBRANCH  32  33
ENDBRANCH  25  27
ENDBRANCH  24  25
ENDBRANCH  23  24
ENDBRANCH  22  23
ENDBRANCH   1  22
TORSDOF 16
ENDMDL
MODEL 3
REMARK VINA RESULT:     -11.4      0.499      7.529
REMARK SMILES CN(C)C(=O)Nc1cccc(/C=C/C(=O)OCCOCCOC(=O)c2ccc(-c3c4nc(c(-c5c(F)c(F)c(F)c(F)c5F)c5ccc([nH]5)c(-c5c(F)c(F)c(F)c(F)c5F)c5nc(c(-c6c(F)c(F)c(F)c(F)c6F)c6ccc3[nH]6)C=C5)C=C4)cc2)n1
REMARK SMILES IDX 19 1 18 2 17 3 16 4 14 5 15 6 13 7 12 8 11 9 7 10 8 11 88 12
REMARK SMILES IDX 9 13 10 14 6 15 1 16 2 17 3 18 4 19 5 20 20 22 21 23 22 24
REMARK SMILES IDX 23 25 24 26 25 27 26 28 87 29 27 30 86 31 28 32 29 33 30 34
REMARK SMILES IDX 80 35 31 36 85 37 79 38 81 39 32 40 84 41 78 42 77 43 33 45
REMARK SMILES IDX 65 46 45 47 64 48 46 49 49 50 63 51 82 52 47 53 48 54 62 56
REMARK SMILES IDX 83 57 50 58 34 59 35 60 43 61 36 62 37 63 41 64 44 65 38 66
REMARK SMILES IDX 39 67 42 68 40 69 66 70 67 71 75 72 68 73 69 74 73 75 76 76
REMARK SMILES IDX 70 77 71 78 74 79 72 80 51 81 52 82 60 83 53 84 54 85 58 86
REMARK SMILES IDX 61 87 55 88 56 89 59 90 57 91
REMARK H PARENT 6 21 81 44 49 55
REMARK Flexibility Score: inf
ROOT
ATOM      1  O   UNL A   1      35.500  21.556  26.116  1.00  0.00    -0.374 OA
ENDROOT
BRANCH   1   2
ATOM      2  C   UNL A   1      34.094  21.730  26.300  1.00  0.00     0.202 C 
BRANCH   2   3
ATOM      3  C   UNL A   1      33.672  23.084  26.870  1.00  0.00     0.261 C 
BRANCH   3   4
ATOM      4  O   UNL A   1      32.416  22.966  27.558  1.00  0.00    -0.460 OA
BRANCH   4   5
ATOM      5  C   UNL A   1      31.404  23.700  27.040  1.00  0.00     0.330 C 
ATOM      6  O   UNL A   1      30.215  23.421  27.060  1.00  0.00    -0.247 OA
BRANCH   5   7
ATOM      7  C   UNL A   1      31.885  24.984  26.501  1.00  0.00     0.095 C 
ATOM      8  C   UNL A   1      31.160  25.890  25.824  1.00  0.00     0.036 C 
BRANCH   8   9
ATOM      9  C   UNL A   1      31.767  27.135  25.335  1.00  0.00     0.066 A 
ATOM     10  C   UNL A   1      31.700  28.798  23.726  1.00  0.00     0.134 A 
ATOM     11  C   UNL A   1      32.909  29.326  24.149  1.00  0.00     0.047 A 
ATOM     12  N   UNL A   1      31.101  27.765  24.343  1.00  0.00    -0.231 NA
ATOM     13  C   UNL A   1      33.553  28.720  25.225  1.00  0.00     0.006 A 
ATOM     14  C   UNL A   1      32.985  27.593  25.819  1.00  0.00     0.028 A 
BRANCH  10  15
ATOM     15  N   UNL A   1      31.008  29.269  22.621  1.00  0.00    -0.292 N 
ATOM     16  C   UNL A   1      27.912  31.132  23.289  1.00  0.00     0.148 C 
ATOM     17  N   UNL A   1      29.241  30.584  23.502  1.00  0.00    -0.331 N 
ATOM     18  C   UNL A   1      29.985  31.182  24.605  1.00  0.00     0.148 C 
ATOM     19  C   UNL A   1      29.778  29.816  22.487  1.00  0.00     0.322 C 
ATOM     20  O   UNL A   1      29.214  29.703  21.395  1.00  0.00    -0.248 OA
ATOM     21  H   UNL A   1      31.505  29.191  21.775  1.00  0.00     0.173 HD
ENDBRANCH  10  15
ENDBRANCH   8   9
ENDBRANCH   5   7
ENDBRANCH   4   5
ENDBRANCH   3   4
ENDBRANCH   2   3
ENDBRANCH   1   2
BRANCH   1  22
ATOM     22  C   UNL A   1      35.913  20.751  25.010  1.00  0.00     0.202 C 
BRANCH  22  23
ATOM     23  C   UNL A   1      37.358  20.242  25.072  1.00  0.00     0.261 C 
BRANCH  23  24
ATOM     24  O   UNL A   1      38.298  21.329  25.173  1.00  0.00    -0.460 OA
BRANCH  24  25
ATOM     25  C   UNL A   1      39.303  21.134  26.058  1.00  0.00     0.338 C 
ATOM     26  O   UNL A   1      39.902  20.093  26.287  1.00  0.00    -0.246 OA
BRANCH  25  27
ATOM     27  C   UNL A   1      39.725  22.426  26.629  1.00  0.00     0.060 A 
ATOM     28  C   UNL A   1      39.117  23.584  26.127  1.00  0.00     0.016 A 
ATOM     29  C   UNL A   1      40.737  22.515  27.588  1.00  0.00     0.016 A 
ATOM     30  C   UNL A   1      39.552  24.839  26.546  1.00  0.00     0.010 A 
ATOM     31  C   UNL A   1      41.177  23.776  28.003  1.00  0.00     0.010 A 
ATOM     32  C   UNL A   1      40.610  24.944  27.459  1.00  0.00    -0.014 A 
BRANCH  32  33
ATOM     33  C   UNL A   1      41.208  26.271  27.739  1.00  0.00     0.031 A 
ATOM     34  C   UNL A   1      42.612  26.552  27.283  1.00  0.00     0.074 A 
ATOM     35  C   UNL A   1      40.504  27.221  28.378  1.00  0.00     0.049 A 
ATOM     36  N   UNL A   1      43.340  27.628  27.446  1.00  0.00    -0.248 NA
ATOM     37  C   UNL A   1      43.289  25.471  26.551  1.00  0.00     0.031 C 
ATOM     38  C   UNL A   1      39.129  27.077  28.849  1.00  0.00     0.029 A 
ATOM     39  N   UNL A   1      40.859  28.493  28.752  1.00  0.00    -0.354 N 
ATOM     40  C   UNL A   1      44.562  27.350  26.847  1.00  0.00     0.074 A 
ATOM     41  C   UNL A   1      44.488  25.994  26.344  1.00  0.00     0.031 C 
ATOM     42  C   UNL A   1      38.760  28.212  29.465  1.00  0.00     0.029 A 
ATOM     43  C   UNL A   1      39.882  29.151  29.454  1.00  0.00     0.049 A 
ATOM     44  H   UNL A   1      41.732  28.895  28.536  1.00  0.00     0.167 HD
ATOM     45  C   UNL A   1      45.644  28.156  26.721  1.00  0.00     0.037 A 
ATOM     46  C   UNL A   1      39.898  30.363  30.041  1.00  0.00     0.037 A 
ATOM     47  C   UNL A   1      45.712  29.505  27.216  1.00  0.00     0.049 A 
ATOM     48  C   UNL A   1      41.127  31.225  29.928  1.00  0.00     0.074 A 
ATOM     49  C   UNL A   1      46.744  30.418  27.095  1.00  0.00     0.029 A 
ATOM     50  N   UNL A   1      44.707  30.133  27.938  1.00  0.00    -0.354 N 
ATOM     51  N   UNL A   1      42.262  30.973  29.321  1.00  0.00    -0.248 NA
ATOM     52  C   UNL A   1      41.075  32.544  30.576  1.00  0.00     0.031 C 
ATOM     53  C   UNL A   1      46.388  31.578  27.792  1.00  0.00     0.029 A 
ATOM     54  C   UNL A   1      45.109  31.409  28.299  1.00  0.00     0.049 A 
ATOM     55  H   UNL A   1      43.835  29.731  28.161  1.00  0.00     0.167 HD
ATOM     56  C   UNL A   1      43.049  32.104  29.494  1.00  0.00     0.074 A 
ATOM     57  C   UNL A   1      42.257  33.050  30.252  1.00  0.00     0.031 C 
ATOM     58  C   UNL A   1      44.312  32.340  29.060  1.00  0.00     0.037 A 
BRANCH  45  59
ATOM     59  C   UNL A   1      46.857  27.580  26.050  1.00  0.00     0.064 A 
ATOM     60  C   UNL A   1      47.033  27.641  24.659  1.00  0.00     0.173 A 
ATOM     61  C   UNL A   1      47.865  26.971  26.813  1.00  0.00     0.173 A 
ATOM     62  F   UNL A   1      46.093  28.201  23.883  1.00  0.00    -0.203 F 
ATOM     63  C   UNL A   1      48.157  27.082  24.054  1.00  0.00     0.198 A 
ATOM     64  C   UNL A   1      49.000  26.439  26.208  1.00  0.00     0.198 A 
ATOM     65  F   UNL A   1      47.747  26.889  28.146  1.00  0.00    -0.203 F 
ATOM     66  F   UNL A   1      48.278  27.103  22.720  1.00  0.00    -0.200 F 
ATOM     67  C   UNL A   1      49.141  26.487  24.829  1.00  0.00     0.200 A 
ATOM     68  F   UNL A   1      49.955  25.874  26.959  1.00  0.00    -0.200 F 
ATOM     69  F   UNL A   1      50.221  25.950  24.246  1.00  0.00    -0.200 F 
ENDBRANCH  45  59
BRANCH  46  70
ATOM     70  C   UNL A   1      38.706  30.824  30.796  1.00  0.00     0.064 A 
ATOM     71  C   UNL A   1      38.606  30.634  32.180  1.00  0.00     0.173 A 
ATOM     72  C   UNL A   1      37.648  31.479  30.147  1.00  0.00     0.173 A 
ATOM     73  F   UNL A   1      39.580  29.991  32.840  1.00  0.00    -0.203 F 
ATOM     74  C   UNL A   1      37.489  31.077  32.887  1.00  0.00     0.198 A 
ATOM     75  C   UNL A   1      36.544  31.944  30.859  1.00  0.00     0.198 A 
ATOM     76  F   UNL A   1      37.698  31.685  28.823  1.00  0.00    -0.203 F 
ATOM     77  F   UNL A   1      37.403  30.854  34.206  1.00  0.00    -0.200 F 
ATOM     78  C   UNL A   1      36.464  31.738  32.227  1.00  0.00     0.200 A 
ATOM     79  F   UNL A   1      35.564  32.595  30.219  1.00  0.00    -0.200 F 
ATOM     80  F   UNL A   1      35.397  32.174  32.909  1.00  0.00    -0.200 F 
ENDBRANCH  46  70
BRANCH  58  81
ATOM     81  C   UNL A   1      44.913  33.679  29.375  1.00  0.00     0.064 A 
ATOM     82  C   UNL A   1      44.734  34.783  28.528  1.00  0.00     0.173 A 
ATOM     83  C   UNL A   1      45.637  33.873  30.561  1.00  0.00     0.173 A 
ATOM     84  F   UNL A   1      44.062  34.648  27.375  1.00  0.00    -0.203 F 
ATOM     85  C   UNL A   1      45.278  36.025  28.847  1.00  0.00     0.198 A 
ATOM     86  C   UNL A   1      46.155  35.122  30.892  1.00  0.00     0.198 A 
ATOM     87  F   UNL A   1      45.831  32.850  31.409  1.00  0.00    -0.203 F 
ATOM     88  F   UNL A   1      45.132  37.055  28.003  1.00  0.00    -0.200 F 
ATOM     89  C   UNL A   1      45.980  36.196  30.031  1.00  0.00     0.200 A 
ATOM     90  F   UNL A   1      46.821  35.288  32.043  1.00  0.00    -0.200 F 
ATOM     91  F   UNL A   1      46.494  37.394  30.340  1.00  0.00    -0.200 F 
ENDBRANCH  58  81
ENDBRANCH  32  33
ENDBRANCH  25  27
ENDBRANCH  24  25
ENDBRANCH  23  24
ENDBRANCH  22  23
ENDBRANCH   1  22
TORSDOF 16
ENDMDL
