MODEL 1
REMARK VINA RESULT:     -12.9      0.000      0.000
REMARK SMILES Cc1ccc(Oc2cc(C(=O)OCCOCCOC(=O)c3ccc(-c4c5nc(c(-c6c(F)c(F)c(F)c(F)c6F)c6ccc([nH]6)c(-c6c(F)c(F)c(F)c(F)c6F)c6nc(c(-c7c(F)c(F)c(F)c(F)c7F)c7ccc4[nH]7)C=C6)C=C5)cc3)nc3ccccc23)cc1
REMARK SMILES IDX 15 1 14 2 13 3 12 4 10 5 11 6 9 7 7 8 8 9 90 10 85 11 89 12
REMARK SMILES IDX 84 13 86 14 88 15 87 16 6 17 5 18 1 19 2 20 3 21 92 22 4 23
REMARK SMILES IDX 91 24 16 25 17 26 18 27 19 28 20 29 21 30 22 31 83 32 23 33
REMARK SMILES IDX 82 34 24 35 25 36 26 37 76 38 27 39 81 40 75 41 77 42 28 43
REMARK SMILES IDX 80 44 74 45 73 46 29 48 61 49 41 50 60 51 42 52 45 53 59 54
REMARK SMILES IDX 78 55 43 56 44 57 58 59 79 60 46 61 30 62 31 63 39 64 32 65
REMARK SMILES IDX 33 66 37 67 40 68 34 69 35 70 38 71 36 72 62 73 63 74 71 75
REMARK SMILES IDX 64 76 65 77 69 78 72 79 66 80 67 81 70 82 68 83 47 84 48 85
REMARK SMILES IDX 56 86 49 87 50 88 54 89 57 90 51 91 52 92 55 93 53 94
REMARK H PARENT 77 47 45 58
REMARK Flexibility Score: inf
ROOT
ATOM      1  O   UNL A   1      32.400  28.491  27.099  1.00  0.00    -0.374 OA
ENDROOT
BRANCH   1   2
ATOM      2  C   UNL A   1      32.026  27.783  25.934  1.00  0.00     0.202 C 
BRANCH   2   3
ATOM      3  C   UNL A   1      31.088  26.696  26.376  1.00  0.00     0.261 C 
BRANCH   3   4
ATOM      4  O   UNL A   1      31.777  25.545  26.893  1.00  0.00    -0.459 OA
BRANCH   4   5
ATOM      5  C   UNL A   1      31.284  24.277  26.748  1.00  0.00     0.357 C 
ATOM      6  O   UNL A   1      30.215  23.821  27.074  1.00  0.00    -0.244 OA
BRANCH   5   7
ATOM      7  C   UNL A   1      32.320  23.518  26.029  1.00  0.00     0.152 A 
ATOM      8  C   UNL A   1      33.009  21.988  24.399  1.00  0.00     0.139 A 
ATOM      9  C   UNL A   1      31.963  22.596  25.074  1.00  0.00     0.084 A 
ATOM     10  C   UNL A   1      34.361  22.342  24.654  1.00  0.00     0.043 A 
ATOM     11  C   UNL A   1      34.577  23.289  25.668  1.00  0.00     0.075 A 
ATOM     12  C   UNL A   1      35.495  21.793  24.018  1.00  0.00     0.014 A 
ATOM     13  N   UNL A   1      33.592  23.861  26.332  1.00  0.00    -0.240 NA
ATOM     14  C   UNL A   1      35.851  23.658  26.043  1.00  0.00     0.029 A 
ATOM     15  C   UNL A   1      36.783  22.162  24.418  1.00  0.00     0.001 A 
ATOM     16  C   UNL A   1      36.961  23.094  25.434  1.00  0.00     0.002 A 
BRANCH   8  17
ATOM     17  O   UNL A   1      32.660  21.001  23.507  1.00  0.00    -0.457 OA
BRANCH  17  18
ATOM     18  C   UNL A   1      32.641  19.708  23.994  1.00  0.00     0.127 A 
ATOM     19  C   UNL A   1      33.177  15.619  25.190  1.00  0.00     0.044 C 
ATOM     20  C   UNL A   1      32.912  17.035  24.778  1.00  0.00    -0.051 A 
ATOM     21  C   UNL A   1      32.799  17.368  23.422  1.00  0.00     0.007 A 
ATOM     22  C   UNL A   1      32.799  18.040  25.741  1.00  0.00     0.007 A 
ATOM     23  C   UNL A   1      32.667  18.701  23.031  1.00  0.00     0.047 A 
ATOM     24  C   UNL A   1      32.648  19.367  25.352  1.00  0.00     0.047 A 
ENDBRANCH  17  18
ENDBRANCH   8  17
ENDBRANCH   5   7
ENDBRANCH   4   5
ENDBRANCH   3   4
ENDBRANCH   2   3
ENDBRANCH   1   2
BRANCH   1  25
ATOM     25  C   UNL A   1      32.079  29.865  27.129  1.00  0.00     0.202 C 
BRANCH  25  26
ATOM     26  C   UNL A   1      33.302  30.740  26.836  1.00  0.00     0.261 C 
BRANCH  26  27
ATOM     27  O   UNL A   1      33.931  31.151  28.072  1.00  0.00    -0.460 OA
BRANCH  27  28
ATOM     28  C   UNL A   1      35.244  31.518  27.989  1.00  0.00     0.338 C 
ATOM     29  O   UNL A   1      35.646  32.594  27.578  1.00  0.00    -0.246 OA
BRANCH  28  30
ATOM     30  C   UNL A   1      36.124  30.331  28.210  1.00  0.00     0.060 A 
ATOM     31  C   UNL A   1      36.197  29.714  29.477  1.00  0.00     0.016 A 
ATOM     32  C   UNL A   1      37.117  30.090  27.273  1.00  0.00     0.016 A 
ATOM     33  C   UNL A   1      37.355  29.010  29.863  1.00  0.00     0.010 A 
ATOM     34  C   UNL A   1      38.300  29.544  27.714  1.00  0.00     0.010 A 
ATOM     35  C   UNL A   1      38.451  29.009  29.007  1.00  0.00    -0.014 A 
BRANCH  35  36
ATOM     36  C   UNL A   1      39.812  28.533  29.292  1.00  0.00     0.031 A 
ATOM     37  C   UNL A   1      40.159  27.162  28.828  1.00  0.00     0.074 A 
ATOM     38  C   UNL A   1      40.820  29.367  29.662  1.00  0.00     0.049 A 
ATOM     39  N   UNL A   1      41.232  26.537  29.167  1.00  0.00    -0.248 NA
ATOM     40  C   UNL A   1      39.298  26.339  27.979  1.00  0.00     0.031 C 
ATOM     41  C   UNL A   1      42.237  29.223  29.302  1.00  0.00     0.029 A 
ATOM     42  N   UNL A   1      40.805  30.589  30.352  1.00  0.00    -0.354 N 
ATOM     43  C   UNL A   1      41.377  25.459  28.323  1.00  0.00     0.074 A 
ATOM     44  C   UNL A   1      40.083  25.292  27.722  1.00  0.00     0.031 C 
ATOM     45  C   UNL A   1      42.974  30.139  29.951  1.00  0.00     0.029 A 
ATOM     46  C   UNL A   1      42.093  30.833  30.866  1.00  0.00     0.049 A 
ATOM     47  H   UNL A   1      40.023  31.178  30.458  1.00  0.00     0.167 HD
ATOM     48  C   UNL A   1      42.628  24.952  28.133  1.00  0.00     0.037 A 
ATOM     49  C   UNL A   1      42.312  31.082  32.187  1.00  0.00     0.037 A 
ATOM     50  C   UNL A   1      43.599  25.699  28.943  1.00  0.00     0.049 A 
ATOM     51  C   UNL A   1      43.144  29.977  32.758  1.00  0.00     0.074 A 
ATOM     52  C   UNL A   1      44.553  26.651  28.624  1.00  0.00     0.029 A 
ATOM     53  N   UNL A   1      43.456  25.736  30.327  1.00  0.00    -0.354 N 
ATOM     54  N   UNL A   1      43.211  28.812  32.179  1.00  0.00    -0.248 NA
ATOM     55  C   UNL A   1      43.996  30.067  33.936  1.00  0.00     0.031 C 
ATOM     56  C   UNL A   1      44.991  27.252  29.833  1.00  0.00     0.029 A 
ATOM     57  C   UNL A   1      44.316  26.657  30.888  1.00  0.00     0.049 A 
ATOM     58  H   UNL A   1      42.825  25.179  30.838  1.00  0.00     0.167 HD
ATOM     59  C   UNL A   1      44.123  28.037  32.815  1.00  0.00     0.074 A 
ATOM     60  C   UNL A   1      44.560  28.843  33.939  1.00  0.00     0.031 C 
ATOM     61  C   UNL A   1      44.431  26.801  32.335  1.00  0.00     0.037 A 
BRANCH  48  62
ATOM     62  C   UNL A   1      43.069  23.962  27.065  1.00  0.00     0.064 A 
ATOM     63  C   UNL A   1      42.754  22.589  27.209  1.00  0.00     0.173 A 
ATOM     64  C   UNL A   1      43.817  24.254  25.906  1.00  0.00     0.173 A 
ATOM     65  F   UNL A   1      41.983  22.147  28.211  1.00  0.00    -0.203 F 
ATOM     66  C   UNL A   1      43.206  21.605  26.324  1.00  0.00     0.198 A 
ATOM     67  C   UNL A   1      44.273  23.270  25.021  1.00  0.00     0.198 A 
ATOM     68  F   UNL A   1      44.120  25.497  25.539  1.00  0.00    -0.203 F 
ATOM     69  F   UNL A   1      42.887  20.321  26.539  1.00  0.00    -0.200 F 
ATOM     70  C   UNL A   1      43.976  21.944  25.234  1.00  0.00     0.200 A 
ATOM     71  F   UNL A   1      45.000  23.629  23.953  1.00  0.00    -0.200 F 
ATOM     72  F   UNL A   1      44.411  21.005  24.384  1.00  0.00    -0.200 F 
ENDBRANCH  48  62
BRANCH  49  73
ATOM     73  C   UNL A   1      41.175  31.814  32.810  1.00  0.00     0.064 A 
ATOM     74  C   UNL A   1      40.975  33.140  32.373  1.00  0.00     0.173 A 
ATOM     75  C   UNL A   1      40.054  31.107  33.274  1.00  0.00     0.173 A 
ATOM     76  F   UNL A   1      42.014  33.864  31.927  1.00  0.00    -0.203 F 
ATOM     77  C   UNL A   1      39.691  33.667  32.237  1.00  0.00     0.198 A 
ATOM     78  C   UNL A   1      38.769  31.631  33.109  1.00  0.00     0.198 A 
ATOM     79  F   UNL A   1      40.184  29.845  33.704  1.00  0.00    -0.203 F 
ATOM     80  F   UNL A   1      39.518  34.872  31.674  1.00  0.00    -0.200 F 
ATOM     81  C   UNL A   1      38.589  32.891  32.555  1.00  0.00     0.200 A 
ATOM     82  F   UNL A   1      37.698  30.871  33.375  1.00  0.00    -0.200 F 
ATOM     83  F   UNL A   1      37.356  33.326  32.254  1.00  0.00    -0.200 F 
ENDBRANCH  49  73
BRANCH  61  84
ATOM     84  C   UNL A   1      44.969  25.666  33.157  1.00  0.00     0.064 A 
ATOM     85  C   UNL A   1      46.325  25.303  33.177  1.00  0.00     0.173 A 
ATOM     86  C   UNL A   1      44.148  25.006  34.104  1.00  0.00     0.173 A 
ATOM     87  F   UNL A   1      47.239  25.950  32.443  1.00  0.00    -0.203 F 
ATOM     88  C   UNL A   1      46.806  24.294  34.009  1.00  0.00     0.198 A 
ATOM     89  C   UNL A   1      44.647  24.054  34.986  1.00  0.00     0.198 A 
ATOM     90  F   UNL A   1      42.844  25.285  34.235  1.00  0.00    -0.203 F 
ATOM     91  F   UNL A   1      48.097  23.944  33.943  1.00  0.00    -0.200 F 
ATOM     92  C   UNL A   1      45.969  23.676  34.919  1.00  0.00     0.200 A 
ATOM     93  F   UNL A   1      43.839  23.523  35.915  1.00  0.00    -0.200 F 
ATOM     94  F   UNL A   1      46.445  22.736  35.746  1.00  0.00    -0.200 F 
ENDBRANCH  61  84
ENDBRANCH  35  36
ENDBRANCH  28  30
ENDBRANCH  27  28
ENDBRANCH  26  27
ENDBRANCH  25  26
ENDBRANCH   1  25
TORSDOF 16
ENDMDL
MODEL 2
REMARK VINA RESULT:     -12.7      3.885      9.449
REMARK SMILES Cc1ccc(Oc2cc(C(=O)OCCOCCOC(=O)c3ccc(-c4c5nc(c(-c6c(F)c(F)c(F)c(F)c6F)c6ccc([nH]6)c(-c6c(F)c(F)c(F)c(F)c6F)c6nc(c(-c7c(F)c(F)c(F)c(F)c7F)c7ccc4[nH]7)C=C6)C=C5)cc3)nc3ccccc23)cc1
REMARK SMILES IDX 15 1 14 2 13 3 12 4 10 5 11 6 9 7 7 8 8 9 90 10 85 11 89 12
REMARK SMILES IDX 84 13 86 14 88 15 87 16 6 17 5 18 1 19 2 20 3 21 92 22 4 23
REMARK SMILES IDX 91 24 16 25 17 26 18 27 19 28 20 29 21 30 22 31 83 32 23 33
REMARK SMILES IDX 82 34 24 35 25 36 26 37 76 38 27 39 81 40 75 41 77 42 28 43
REMARK SMILES IDX 80 44 74 45 73 46 29 48 61 49 41 50 60 51 42 52 45 53 59 54
REMARK SMILES IDX 78 55 43 56 44 57 58 59 79 60 46 61 30 62 31 63 39 64 32 65
REMARK SMILES IDX 33 66 37 67 40 68 34 69 35 70 38 71 36 72 62 73 63 74 71 75
REMARK SMILES IDX 64 76 65 77 69 78 72 79 66 80 67 81 70 82 68 83 47 84 48 85
REMARK SMILES IDX 56 86 49 87 50 88 54 89 57 90 51 91 52 92 55 93 53 94
REMARK H PARENT 77 47 45 58
REMARK Flexibility Score: inf
ROOT
ATOM      1  O   UNL A   1      39.621  18.874  25.429  1.00  0.00    -0.374 OA
ENDROOT
BRANCH   1   2
ATOM      2  C   UNL A   1      38.375  19.532  25.317  1.00  0.00     0.202 C 
BRANCH   2   3
ATOM      3  C   UNL A   1      38.663  21.006  25.378  1.00  0.00     0.261 C 
BRANCH   3   4
ATOM      4  O   UNL A   1      37.567  21.806  24.901  1.00  0.00    -0.459 OA
BRANCH   4   5
ATOM      5  C   UNL A   1      36.901  22.683  25.712  1.00  0.00     0.357 C 
ATOM      6  O   UNL A   1      37.333  23.547  26.437  1.00  0.00    -0.244 OA
BRANCH   5   7
ATOM      7  C   UNL A   1      35.468  22.424  25.500  1.00  0.00     0.152 A 
ATOM      8  C   UNL A   1      33.698  21.180  24.610  1.00  0.00     0.139 A 
ATOM      9  C   UNL A   1      35.064  21.392  24.685  1.00  0.00     0.084 A 
ATOM     10  C   UNL A   1      32.783  21.956  25.371  1.00  0.00     0.043 A 
ATOM     11  C   UNL A   1      33.336  22.985  26.149  1.00  0.00     0.075 A 
ATOM     12  C   UNL A   1      31.379  21.814  25.373  1.00  0.00     0.014 A 
ATOM     13  N   UNL A   1      34.633  23.212  26.215  1.00  0.00    -0.240 NA
ATOM     14  C   UNL A   1      32.537  23.840  26.876  1.00  0.00     0.029 A 
ATOM     15  C   UNL A   1      30.577  22.697  26.101  1.00  0.00     0.001 A 
ATOM     16  C   UNL A   1      31.156  23.714  26.852  1.00  0.00     0.002 A 
BRANCH   8  17
ATOM     17  O   UNL A   1      33.286  20.208  23.727  1.00  0.00    -0.457 OA
BRANCH  17  18
ATOM     18  C   UNL A   1      33.357  18.902  24.170  1.00  0.00     0.127 A 
ATOM     19  C   UNL A   1      32.899  14.844  25.499  1.00  0.00     0.044 C 
ATOM     20  C   UNL A   1      33.126  16.264  25.076  1.00  0.00    -0.051 A 
ATOM     21  C   UNL A   1      32.578  17.319  25.818  1.00  0.00     0.007 A 
ATOM     22  C   UNL A   1      33.866  16.548  23.927  1.00  0.00     0.007 A 
ATOM     23  C   UNL A   1      32.690  18.633  25.364  1.00  0.00     0.047 A 
ATOM     24  C   UNL A   1      33.995  17.861  23.485  1.00  0.00     0.047 A 
ENDBRANCH  17  18
ENDBRANCH   8  17
ENDBRANCH   5   7
ENDBRANCH   4   5
ENDBRANCH   3   4
ENDBRANCH   2   3
ENDBRANCH   1   2
BRANCH   1  25
ATOM     25  C   UNL A   1      40.640  19.572  26.113  1.00  0.00     0.202 C 
BRANCH  25  26
ATOM     26  C   UNL A   1      42.025  18.988  25.816  1.00  0.00     0.261 C 
BRANCH  26  27
ATOM     27  O   UNL A   1      43.056  19.843  26.363  1.00  0.00    -0.460 OA
BRANCH  27  28
ATOM     28  C   UNL A   1      43.615  20.743  25.501  1.00  0.00     0.338 C 
ATOM     29  O   UNL A   1      44.597  20.532  24.808  1.00  0.00    -0.246 OA
BRANCH  28  30
ATOM     30  C   UNL A   1      43.027  22.099  25.722  1.00  0.00     0.060 A 
ATOM     31  C   UNL A   1      43.198  23.123  24.767  1.00  0.00     0.016 A 
ATOM     32  C   UNL A   1      42.646  22.425  27.015  1.00  0.00     0.016 A 
ATOM     33  C   UNL A   1      43.167  24.476  25.157  1.00  0.00     0.010 A 
ATOM     34  C   UNL A   1      42.779  23.734  27.415  1.00  0.00     0.010 A 
ATOM     35  C   UNL A   1      43.052  24.777  26.510  1.00  0.00    -0.014 A 
BRANCH  35  36
ATOM     36  C   UNL A   1      43.213  26.088  27.154  1.00  0.00     0.031 A 
ATOM     37  C   UNL A   1      41.969  26.823  27.512  1.00  0.00     0.074 A 
ATOM     38  C   UNL A   1      44.388  26.499  27.701  1.00  0.00     0.049 A 
ATOM     39  N   UNL A   1      41.944  28.051  27.899  1.00  0.00    -0.248 NA
ATOM     40  C   UNL A   1      40.623  26.259  27.411  1.00  0.00     0.031 C 
ATOM     41  C   UNL A   1      44.538  27.338  28.898  1.00  0.00     0.029 A 
ATOM     42  N   UNL A   1      45.718  26.182  27.383  1.00  0.00    -0.354 N 
ATOM     43  C   UNL A   1      40.700  28.298  28.437  1.00  0.00     0.074 A 
ATOM     44  C   UNL A   1      39.880  27.217  27.965  1.00  0.00     0.031 C 
ATOM     45  C   UNL A   1      45.829  27.667  29.072  1.00  0.00     0.029 A 
ATOM     46  C   UNL A   1      46.560  27.173  27.925  1.00  0.00     0.049 A 
ATOM     47  H   UNL A   1      46.012  25.397  26.868  1.00  0.00     0.167 HD
ATOM     48  C   UNL A   1      40.580  29.309  29.343  1.00  0.00     0.037 A 
ATOM     49  C   UNL A   1      47.454  27.861  27.162  1.00  0.00     0.037 A 
ATOM     50  C   UNL A   1      41.878  29.968  29.535  1.00  0.00     0.049 A 
ATOM     51  C   UNL A   1      47.066  29.306  27.145  1.00  0.00     0.074 A 
ATOM     52  C   UNL A   1      42.810  29.925  30.558  1.00  0.00     0.029 A 
ATOM     53  N   UNL A   1      42.514  30.562  28.449  1.00  0.00    -0.354 N 
ATOM     54  N   UNL A   1      45.851  29.684  27.427  1.00  0.00    -0.248 NA
ATOM     55  C   UNL A   1      47.957  30.430  26.890  1.00  0.00     0.031 C 
ATOM     56  C   UNL A   1      44.011  30.512  30.079  1.00  0.00     0.029 A 
ATOM     57  C   UNL A   1      43.805  30.924  28.771  1.00  0.00     0.049 A 
ATOM     58  H   UNL A   1      42.098  30.705  27.567  1.00  0.00     0.167 HD
ATOM     59  C   UNL A   1      45.792  31.038  27.469  1.00  0.00     0.074 A 
ATOM     60  C   UNL A   1      47.121  31.469  27.081  1.00  0.00     0.031 C 
ATOM     61  C   UNL A   1      44.639  31.665  27.832  1.00  0.00     0.037 A 
BRANCH  48  62
ATOM     62  C   UNL A   1      39.396  29.590  30.257  1.00  0.00     0.064 A 
ATOM     63  C   UNL A   1      38.740  30.844  30.189  1.00  0.00     0.173 A 
ATOM     64  C   UNL A   1      38.863  28.725  31.234  1.00  0.00     0.173 A 
ATOM     65  F   UNL A   1      39.067  31.758  29.265  1.00  0.00    -0.203 F 
ATOM     66  C   UNL A   1      37.711  31.216  31.059  1.00  0.00     0.198 A 
ATOM     67  C   UNL A   1      37.835  29.096  32.107  1.00  0.00     0.198 A 
ATOM     68  F   UNL A   1      39.272  27.466  31.380  1.00  0.00    -0.203 F 
ATOM     69  F   UNL A   1      37.155  32.430  30.949  1.00  0.00    -0.200 F 
ATOM     70  C   UNL A   1      37.264  30.345  32.027  1.00  0.00     0.200 A 
ATOM     71  F   UNL A   1      37.400  28.220  33.026  1.00  0.00    -0.200 F 
ATOM     72  F   UNL A   1      36.279  30.696  32.864  1.00  0.00    -0.200 F 
ENDBRANCH  48  62
BRANCH  49  73
ATOM     73  C   UNL A   1      48.000  27.027  26.057  1.00  0.00     0.064 A 
ATOM     74  C   UNL A   1      47.519  27.316  24.763  1.00  0.00     0.173 A 
ATOM     75  C   UNL A   1      49.287  26.475  26.162  1.00  0.00     0.173 A 
ATOM     76  F   UNL A   1      46.291  27.838  24.604  1.00  0.00    -0.203 F 
ATOM     77  C   UNL A   1      48.352  27.229  23.648  1.00  0.00     0.198 A 
ATOM     78  C   UNL A   1      50.124  26.416  25.045  1.00  0.00     0.198 A 
ATOM     79  F   UNL A   1      49.795  26.177  27.365  1.00  0.00    -0.203 F 
ATOM     80  F   UNL A   1      47.919  27.657  22.453  1.00  0.00    -0.200 F 
ATOM     81  C   UNL A   1      49.669  26.829  23.801  1.00  0.00     0.200 A 
ATOM     82  F   UNL A   1      51.411  26.071  25.192  1.00  0.00    -0.200 F 
ATOM     83  F   UNL A   1      50.518  26.919  22.767  1.00  0.00    -0.200 F 
ENDBRANCH  49  73
BRANCH  61  84
ATOM     84  C   UNL A   1      44.253  33.059  27.430  1.00  0.00     0.064 A 
ATOM     85  C   UNL A   1      43.844  33.403  26.131  1.00  0.00     0.173 A 
ATOM     86  C   UNL A   1      44.112  34.080  28.403  1.00  0.00     0.173 A 
ATOM     87  F   UNL A   1      43.783  32.495  25.149  1.00  0.00    -0.203 F 
ATOM     88  C   UNL A   1      43.419  34.690  25.809  1.00  0.00     0.198 A 
ATOM     89  C   UNL A   1      43.614  35.340  28.092  1.00  0.00     0.198 A 
ATOM     90  F   UNL A   1      44.414  33.882  29.693  1.00  0.00    -0.203 F 
ATOM     91  F   UNL A   1      43.100  34.981  24.541  1.00  0.00    -0.200 F 
ATOM     92  C   UNL A   1      43.295  35.655  26.790  1.00  0.00     0.200 A 
ATOM     93  F   UNL A   1      43.425  36.238  29.070  1.00  0.00    -0.200 F 
ATOM     94  F   UNL A   1      42.846  36.879  26.483  1.00  0.00    -0.200 F 
ENDBRANCH  61  84
ENDBRANCH  35  36
ENDBRANCH  28  30
ENDBRANCH  27  28
ENDBRANCH  26  27
ENDBRANCH  25  26
ENDBRANCH   1  25
TORSDOF 16
ENDMDL
MODEL 3
REMARK VINA RESULT:     -12.5      1.591      2.842
REMARK SMILES Cc1ccc(Oc2cc(C(=O)OCCOCCOC(=O)c3ccc(-c4c5nc(c(-c6c(F)c(F)c(F)c(F)c6F)c6ccc([nH]6)c(-c6c(F)c(F)c(F)c(F)c6F)c6nc(c(-c7c(F)c(F)c(F)c(F)c7F)c7ccc4[nH]7)C=C6)C=C5)cc3)nc3ccccc23)cc1
REMARK SMILES IDX 15 1 14 2 13 3 12 4 10 5 11 6 9 7 7 8 8 9 90 10 85 11 89 12
REMARK SMILES IDX 84 13 86 14 88 15 87 16 6 17 5 18 1 19 2 20 3 21 92 22 4 23
REMARK SMILES IDX 91 24 16 25 17 26 18 27 19 28 20 29 21 30 22 31 83 32 23 33
REMARK SMILES IDX 82 34 24 35 25 36 26 37 76 38 27 39 81 40 75 41 77 42 28 43
REMARK SMILES IDX 80 44 74 45 73 46 29 48 61 49 41 50 60 51 42 52 45 53 59 54
REMARK SMILES IDX 78 55 43 56 44 57 58 59 79 60 46 61 30 62 31 63 39 64 32 65
REMARK SMILES IDX 33 66 37 67 40 68 34 69 35 70 38 71 36 72 62 73 63 74 71 75
REMARK SMILES IDX 64 76 65 77 69 78 72 79 66 80 67 81 70 82 68 83 47 84 48 85
REMARK SMILES IDX 56 86 49 87 50 88 54 89 57 90 51 91 52 92 55 93 53 94
REMARK H PARENT 77 47 45 58
REMARK Flexibility Score: inf
ROOT
ATOM      1  O   UNL A   1      33.225  29.201  25.049  1.00  0.00    -0.374 OA
ENDROOT
BRANCH   1   2
ATOM      2  C   UNL A   1      32.665  29.042  23.761  1.00  0.00     0.202 C 
BRANCH   2   3
ATOM      3  C   UNL A   1      32.277  27.595  23.639  1.00  0.00     0.261 C 
BRANCH   3   4
ATOM      4  O   UNL A   1      33.408  26.733  23.427  1.00  0.00    -0.459 OA
BRANCH   4   5
ATOM      5  C   UNL A   1      33.448  25.825  22.404  1.00  0.00     0.357 C 
ATOM      6  O   UNL A   1      33.469  26.006  21.211  1.00  0.00    -0.244 OA
BRANCH   5   7
ATOM      7  C   UNL A   1      33.523  24.500  23.040  1.00  0.00     0.152 A 
ATOM      8  C   UNL A   1      34.109  23.080  24.804  1.00  0.00     0.139 A 
ATOM      9  C   UNL A   1      34.157  24.348  24.251  1.00  0.00     0.084 A 
ATOM     10  C   UNL A   1      33.404  22.021  24.172  1.00  0.00     0.043 A 
ATOM     11  C   UNL A   1      32.817  22.316  22.932  1.00  0.00     0.075 A 
ATOM     12  C   UNL A   1      33.287  20.700  24.655  1.00  0.00     0.014 A 
ATOM     13  N   UNL A   1      32.871  23.513  22.384  1.00  0.00    -0.240 NA
ATOM     14  C   UNL A   1      32.165  21.348  22.200  1.00  0.00     0.029 A 
ATOM     15  C   UNL A   1      32.637  19.721  23.898  1.00  0.00     0.001 A 
ATOM     16  C   UNL A   1      32.077  20.044  22.667  1.00  0.00     0.002 A 
BRANCH   8  17
ATOM     17  O   UNL A   1      34.818  22.903  25.970  1.00  0.00    -0.457 OA
BRANCH  17  18
ATOM     18  C   UNL A   1      36.166  22.631  25.838  1.00  0.00     0.127 A 
ATOM     19  C   UNL A   1      40.381  21.858  26.102  1.00  0.00     0.044 C 
ATOM     20  C   UNL A   1      38.922  22.155  25.937  1.00  0.00    -0.051 A 
ATOM     21  C   UNL A   1      38.403  23.395  26.330  1.00  0.00     0.007 A 
ATOM     22  C   UNL A   1      38.061  21.189  25.410  1.00  0.00     0.007 A 
ATOM     23  C   UNL A   1      37.028  23.631  26.284  1.00  0.00     0.047 A 
ATOM     24  C   UNL A   1      36.693  21.432  25.346  1.00  0.00     0.047 A 
ENDBRANCH  17  18
ENDBRANCH   8  17
ENDBRANCH   5   7
ENDBRANCH   4   5
ENDBRANCH   3   4
ENDBRANCH   2   3
ENDBRANCH   1   2
BRANCH   1  25
ATOM     25  C   UNL A   1      32.312  29.329  26.118  1.00  0.00     0.202 C 
BRANCH  25  26
ATOM     26  C   UNL A   1      32.920  30.102  27.293  1.00  0.00     0.261 C 
BRANCH  26  27
ATOM     27  O   UNL A   1      34.034  30.905  26.840  1.00  0.00    -0.460 OA
BRANCH  27  28
ATOM     28  C   UNL A   1      34.897  31.339  27.805  1.00  0.00     0.338 C 
ATOM     29  O   UNL A   1      35.011  32.496  28.175  1.00  0.00    -0.246 OA
BRANCH  28  30
ATOM     30  C   UNL A   1      35.867  30.256  28.151  1.00  0.00     0.060 A 
ATOM     31  C   UNL A   1      35.909  29.714  29.453  1.00  0.00     0.016 A 
ATOM     32  C   UNL A   1      36.943  30.067  27.295  1.00  0.00     0.016 A 
ATOM     33  C   UNL A   1      37.098  29.147  29.952  1.00  0.00     0.010 A 
ATOM     34  C   UNL A   1      38.138  29.662  27.843  1.00  0.00     0.010 A 
ATOM     35  C   UNL A   1      38.246  29.210  29.171  1.00  0.00    -0.014 A 
BRANCH  35  36
ATOM     36  C   UNL A   1      39.623  28.885  29.572  1.00  0.00     0.031 A 
ATOM     37  C   UNL A   1      40.217  27.646  29.000  1.00  0.00     0.074 A 
ATOM     38  C   UNL A   1      40.450  29.788  30.161  1.00  0.00     0.049 A 
ATOM     39  N   UNL A   1      41.326  27.128  29.400  1.00  0.00    -0.248 NA
ATOM     40  C   UNL A   1      39.586  26.835  27.958  1.00  0.00     0.031 C 
ATOM     41  C   UNL A   1      41.904  29.881  29.971  1.00  0.00     0.029 A 
ATOM     42  N   UNL A   1      40.180  30.895  30.980  1.00  0.00    -0.354 N 
ATOM     43  C   UNL A   1      41.720  26.200  28.462  1.00  0.00     0.074 A 
ATOM     44  C   UNL A   1      40.539  25.945  27.685  1.00  0.00     0.031 C 
ATOM     45  C   UNL A   1      42.423  30.792  30.811  1.00  0.00     0.029 A 
ATOM     46  C   UNL A   1      41.353  31.237  31.680  1.00  0.00     0.049 A 
ATOM     47  H   UNL A   1      39.312  31.356  31.053  1.00  0.00     0.167 HD
ATOM     48  C   UNL A   1      43.046  25.893  28.376  1.00  0.00     0.037 A 
ATOM     49  C   UNL A   1      41.385  31.335  33.038  1.00  0.00     0.037 A 
ATOM     50  C   UNL A   1      43.801  26.647  29.385  1.00  0.00     0.049 A 
ATOM     51  C   UNL A   1      42.303  30.284  33.579  1.00  0.00     0.074 A 
ATOM     52  C   UNL A   1      44.634  27.750  29.302  1.00  0.00     0.029 A 
ATOM     53  N   UNL A   1      43.502  26.481  30.734  1.00  0.00    -0.354 N 
ATOM     54  N   UNL A   1      42.604  29.225  32.883  1.00  0.00    -0.248 NA
ATOM     55  C   UNL A   1      42.997  30.328  34.859  1.00  0.00     0.031 C 
ATOM     56  C   UNL A   1      44.842  28.238  30.619  1.00  0.00     0.029 A 
ATOM     57  C   UNL A   1      44.149  27.425  31.503  1.00  0.00     0.049 A 
ATOM     58  H   UNL A   1      42.907  25.782  31.092  1.00  0.00     0.167 HD
ATOM     59  C   UNL A   1      43.544  28.500  33.536  1.00  0.00     0.074 A 
ATOM     60  C   UNL A   1      43.730  29.200  34.793  1.00  0.00     0.031 C 
ATOM     61  C   UNL A   1      44.082  27.389  32.959  1.00  0.00     0.037 A 
BRANCH  48  62
ATOM     62  C   UNL A   1      43.743  25.120  27.266  1.00  0.00     0.064 A 
ATOM     63  C   UNL A   1      43.553  23.720  27.159  1.00  0.00     0.173 A 
ATOM     64  C   UNL A   1      44.624  25.647  26.300  1.00  0.00     0.173 A 
ATOM     65  F   UNL A   1      42.688  23.068  27.948  1.00  0.00    -0.203 F 
ATOM     66  C   UNL A   1      44.232  22.926  26.230  1.00  0.00     0.198 A 
ATOM     67  C   UNL A   1      45.307  24.853  25.372  1.00  0.00     0.198 A 
ATOM     68  F   UNL A   1      44.850  26.953  26.168  1.00  0.00    -0.203 F 
ATOM     69  F   UNL A   1      44.017  21.603  26.206  1.00  0.00    -0.200 F 
ATOM     70  C   UNL A   1      45.119  23.491  25.342  1.00  0.00     0.200 A 
ATOM     71  F   UNL A   1      46.147  25.431  24.500  1.00  0.00    -0.200 F 
ATOM     72  F   UNL A   1      45.773  22.734  24.451  1.00  0.00    -0.200 F 
ENDBRANCH  48  62
BRANCH  49  73
ATOM     73  C   UNL A   1      40.092  31.821  33.591  1.00  0.00     0.064 A 
ATOM     74  C   UNL A   1      39.837  33.201  33.457  1.00  0.00     0.173 A 
ATOM     75  C   UNL A   1      38.984  30.960  33.649  1.00  0.00     0.173 A 
ATOM     76  F   UNL A   1      40.860  34.071  33.405  1.00  0.00    -0.203 F 
ATOM     77  C   UNL A   1      38.549  33.677  33.210  1.00  0.00     0.198 A 
ATOM     78  C   UNL A   1      37.700  31.439  33.373  1.00  0.00     0.198 A 
ATOM     79  F   UNL A   1      39.164  29.639  33.778  1.00  0.00    -0.203 F 
ATOM     80  F   UNL A   1      38.356  34.974  32.931  1.00  0.00    -0.200 F 
ATOM     81  C   UNL A   1      37.493  32.787  33.115  1.00  0.00     0.200 A 
ATOM     82  F   UNL A   1      36.681  30.580  33.239  1.00  0.00    -0.200 F 
ATOM     83  F   UNL A   1      36.292  33.217  32.699  1.00  0.00    -0.200 F 
ENDBRANCH  49  73
BRANCH  61  84
ATOM     84  C   UNL A   1      44.686  26.236  33.707  1.00  0.00     0.064 A 
ATOM     85  C   UNL A   1      46.070  26.005  33.780  1.00  0.00     0.173 A 
ATOM     86  C   UNL A   1      43.887  25.412  34.536  1.00  0.00     0.173 A 
ATOM     87  F   UNL A   1      46.951  26.804  33.167  1.00  0.00    -0.203 F 
ATOM     88  C   UNL A   1      46.604  24.970  34.545  1.00  0.00     0.198 A 
ATOM     89  C   UNL A   1      44.431  24.431  35.357  1.00  0.00     0.198 A 
ATOM     90  F   UNL A   1      42.556  25.552  34.610  1.00  0.00    -0.203 F 
ATOM     91  F   UNL A   1      47.926  24.753  34.529  1.00  0.00    -0.200 F 
ATOM     92  C   UNL A   1      45.786  24.190  35.340  1.00  0.00     0.200 A 
ATOM     93  F   UNL A   1      43.632  23.738  36.181  1.00  0.00    -0.200 F 
ATOM     94  F   UNL A   1      46.310  23.224  36.105  1.00  0.00    -0.200 F 
ENDBRANCH  61  84
ENDBRANCH  35  36
ENDBRANCH  28  30
ENDBRANCH  27  28
ENDBRANCH  26  27
ENDBRANCH  25  26
ENDBRANCH   1  25
TORSDOF 16
ENDMDL
