MODEL 1
REMARK VINA RESULT:     -12.8      0.000      0.000
REMARK SMILES Cc1cccc(C(=O)OCCOCCOC(=O)c2ccc(-c3c4nc(c(-c5c(F)c(F)c(F)c(F)c5F)c5ccc([nH]5)c(-c5c(F)c(F)c(F)c(F)c5F)c5nc(c(-c6c(F)c(F)c(F)c(F)c6F)c6ccc3[nH]6)C=C5)C=C4)cc2)c1NC(=O)N[C@H]1CCCC1(C)C
REMARK SMILES IDX 12 1 11 2 10 3 9 4 7 5 8 6 6 7 1 8 2 9 3 10 81 11 4 12 5 13
REMARK SMILES IDX 82 14 83 15 84 17 85 18 86 20 87 21 90 22 88 23 89 24 91 25
REMARK SMILES IDX 92 26 13 27 14 28 15 29 16 30 17 31 18 32 19 33 80 34 20 35
REMARK SMILES IDX 79 36 21 37 22 38 23 39 73 40 24 41 78 42 72 43 74 44 25 45
REMARK SMILES IDX 77 46 71 47 70 48 26 50 58 51 38 52 57 53 39 54 42 55 56 56
REMARK SMILES IDX 75 57 40 58 41 59 55 61 76 62 43 63 27 64 28 65 36 66 29 67
REMARK SMILES IDX 30 68 34 69 37 70 31 71 32 72 35 73 33 74 59 75 60 76 68 77
REMARK SMILES IDX 61 78 62 79 66 80 69 81 63 82 64 83 67 84 65 85 44 86 45 87
REMARK SMILES IDX 53 88 46 89 47 90 51 91 54 92 48 93 49 94 52 95 50 96
REMARK H PARENT 82 16 85 19 74 49 42 60
REMARK Flexibility Score: inf
ROOT
ATOM      1  O   UNL A   1      40.906  20.049  26.076  1.00  0.00    -0.374 OA
ENDROOT
BRANCH   1   2
ATOM      2  C   UNL A   1      40.382  21.104  26.893  1.00  0.00     0.202 C 
BRANCH   2   3
ATOM      3  C   UNL A   1      39.276  21.847  26.135  1.00  0.00     0.261 C 
BRANCH   3   4
ATOM      4  O   UNL A   1      38.305  21.067  25.366  1.00  0.00    -0.460 OA
BRANCH   4   5
ATOM      5  C   UNL A   1      36.980  21.438  25.360  1.00  0.00     0.340 C 
ATOM      6  O   UNL A   1      36.666  22.602  25.559  1.00  0.00    -0.246 OA
BRANCH   5   7
ATOM      7  C   UNL A   1      35.994  20.351  24.920  1.00  0.00     0.083 A 
ATOM      8  C   UNL A   1      32.267  20.307  24.423  1.00  0.00     0.046 C 
ATOM      9  C   UNL A   1      33.646  19.786  24.660  1.00  0.00    -0.027 A 
ATOM     10  C   UNL A   1      33.925  18.433  24.550  1.00  0.00     0.005 A 
ATOM     11  C   UNL A   1      34.668  20.587  25.190  1.00  0.00     0.060 A 
ATOM     12  C   UNL A   1      35.245  18.029  24.608  1.00  0.00     0.001 A 
ATOM     13  C   UNL A   1      36.261  19.000  24.650  1.00  0.00     0.018 A 
BRANCH  11  14
ATOM     14  N   UNL A   1      34.381  21.024  26.485  1.00  0.00    -0.307 N 
ATOM     15  C   UNL A   1      33.710  22.127  26.886  1.00  0.00     0.319 C 
ATOM     16  H   UNL A   1      34.717  20.447  27.209  1.00  0.00     0.171 HD
ATOM     17  O   UNL A   1      33.523  22.211  28.107  1.00  0.00    -0.248 OA
ATOM     18  N   UNL A   1      33.018  22.986  26.095  1.00  0.00    -0.335 N 
ATOM     19  H   UNL A   1      32.067  22.782  26.248  1.00  0.00     0.165 HD
BRANCH  18  20
ATOM     20  C   UNL A   1      33.037  24.128  25.074  1.00  0.00     0.089 C 
ATOM     21  C   UNL A   1      33.468  25.433  25.735  1.00  0.00     0.025 C 
ATOM     22  C   UNL A   1      32.902  24.443  23.427  1.00  0.00    -0.015 C 
ATOM     23  C   UNL A   1      33.625  26.472  24.643  1.00  0.00     0.003 C 
ATOM     24  C   UNL A   1      33.761  25.730  23.333  1.00  0.00     0.008 C 
ATOM     25  C   UNL A   1      33.265  23.654  22.127  1.00  0.00     0.013 C 
ATOM     26  C   UNL A   1      31.411  24.811  23.115  1.00  0.00     0.013 C 
ENDBRANCH  18  20
ENDBRANCH  11  14
ENDBRANCH   5   7
ENDBRANCH   4   5
ENDBRANCH   3   4
ENDBRANCH   2   3
ENDBRANCH   1   2
BRANCH   1  27
ATOM     27  C   UNL A   1      41.941  19.207  26.592  1.00  0.00     0.202 C 
BRANCH  27  28
ATOM     28  C   UNL A   1      43.110  18.870  25.669  1.00  0.00     0.261 C 
BRANCH  28  29
ATOM     29  O   UNL A   1      43.412  19.962  24.771  1.00  0.00    -0.460 OA
BRANCH  29  30
ATOM     30  C   UNL A   1      44.377  20.832  25.179  1.00  0.00     0.338 C 
ATOM     31  O   UNL A   1      45.552  20.547  25.320  1.00  0.00    -0.246 OA
BRANCH  30  32
ATOM     32  C   UNL A   1      43.769  22.140  25.562  1.00  0.00     0.060 A 
ATOM     33  C   UNL A   1      43.699  23.198  24.640  1.00  0.00     0.016 A 
ATOM     34  C   UNL A   1      43.534  22.393  26.904  1.00  0.00     0.016 A 
ATOM     35  C   UNL A   1      43.584  24.527  25.093  1.00  0.00     0.010 A 
ATOM     36  C   UNL A   1      43.575  23.701  27.342  1.00  0.00     0.010 A 
ATOM     37  C   UNL A   1      43.620  24.796  26.458  1.00  0.00    -0.014 A 
BRANCH  37  38
ATOM     38  C   UNL A   1      43.745  26.127  27.101  1.00  0.00     0.031 A 
ATOM     39  C   UNL A   1      42.467  26.874  27.347  1.00  0.00     0.074 A 
ATOM     40  C   UNL A   1      44.886  26.581  27.697  1.00  0.00     0.049 A 
ATOM     41  N   UNL A   1      42.385  27.920  28.086  1.00  0.00    -0.248 NA
ATOM     42  C   UNL A   1      41.156  26.511  26.799  1.00  0.00     0.031 C 
ATOM     43  C   UNL A   1      44.978  27.548  28.805  1.00  0.00     0.029 A 
ATOM     44  N   UNL A   1      46.237  26.204  27.542  1.00  0.00    -0.354 N 
ATOM     45  C   UNL A   1      41.075  28.211  28.330  1.00  0.00     0.074 A 
ATOM     46  C   UNL A   1      40.333  27.324  27.475  1.00  0.00     0.031 C 
ATOM     47  C   UNL A   1      46.254  27.822  29.113  1.00  0.00     0.029 A 
ATOM     48  C   UNL A   1      47.048  27.242  28.062  1.00  0.00     0.049 A 
ATOM     49  H   UNL A   1      46.561  25.366  27.142  1.00  0.00     0.167 HD
ATOM     50  C   UNL A   1      40.815  29.140  29.288  1.00  0.00     0.037 A 
ATOM     51  C   UNL A   1      47.924  27.923  27.279  1.00  0.00     0.037 A 
ATOM     52  C   UNL A   1      42.037  29.901  29.601  1.00  0.00     0.049 A 
ATOM     53  C   UNL A   1      47.423  29.339  27.189  1.00  0.00     0.074 A 
ATOM     54  C   UNL A   1      42.863  30.014  30.703  1.00  0.00     0.029 A 
ATOM     55  N   UNL A   1      42.729  30.500  28.537  1.00  0.00    -0.354 N 
ATOM     56  N   UNL A   1      46.154  29.646  27.296  1.00  0.00    -0.248 NA
ATOM     57  C   UNL A   1      48.293  30.509  27.206  1.00  0.00     0.031 C 
ATOM     58  C   UNL A   1      44.097  30.591  30.259  1.00  0.00     0.029 A 
ATOM     59  C   UNL A   1      44.007  30.876  28.900  1.00  0.00     0.049 A 
ATOM     60  H   UNL A   1      42.349  30.637  27.639  1.00  0.00     0.167 HD
ATOM     61  C   UNL A   1      46.044  30.973  27.572  1.00  0.00     0.074 A 
ATOM     62  C   UNL A   1      47.397  31.489  27.424  1.00  0.00     0.031 C 
ATOM     63  C   UNL A   1      44.887  31.578  27.964  1.00  0.00     0.037 A 
BRANCH  50  64
ATOM     64  C   UNL A   1      39.491  29.320  29.994  1.00  0.00     0.064 A 
ATOM     65  C   UNL A   1      38.535  30.231  29.494  1.00  0.00     0.173 A 
ATOM     66  C   UNL A   1      39.142  28.717  31.223  1.00  0.00     0.173 A 
ATOM     67  F   UNL A   1      38.752  30.901  28.353  1.00  0.00    -0.203 F 
ATOM     68  C   UNL A   1      37.331  30.499  30.157  1.00  0.00     0.198 A 
ATOM     69  C   UNL A   1      37.916  28.947  31.859  1.00  0.00     0.198 A 
ATOM     70  F   UNL A   1      39.993  27.928  31.892  1.00  0.00    -0.203 F 
ATOM     71  F   UNL A   1      36.482  31.407  29.656  1.00  0.00    -0.200 F 
ATOM     72  C   UNL A   1      37.014  29.844  31.331  1.00  0.00     0.200 A 
ATOM     73  F   UNL A   1      37.631  28.310  33.005  1.00  0.00    -0.200 F 
ATOM     74  F   UNL A   1      35.859  30.094  31.962  1.00  0.00    -0.200 F 
ENDBRANCH  50  64
BRANCH  51  75
ATOM     75  C   UNL A   1      48.535  27.007  26.277  1.00  0.00     0.064 A 
ATOM     76  C   UNL A   1      48.076  27.179  24.948  1.00  0.00     0.173 A 
ATOM     77  C   UNL A   1      49.842  26.528  26.445  1.00  0.00     0.173 A 
ATOM     78  F   UNL A   1      46.833  27.643  24.726  1.00  0.00    -0.203 F 
ATOM     79  C   UNL A   1      48.940  27.073  23.860  1.00  0.00     0.198 A 
ATOM     80  C   UNL A   1      50.701  26.414  25.347  1.00  0.00     0.198 A 
ATOM     81  F   UNL A   1      50.345  26.362  27.676  1.00  0.00    -0.203 F 
ATOM     82  F   UNL A   1      48.524  27.424  22.634  1.00  0.00    -0.200 F 
ATOM     83  C   UNL A   1      50.265  26.737  24.068  1.00  0.00     0.200 A 
ATOM     84  F   UNL A   1      51.994  26.112  25.539  1.00  0.00    -0.200 F 
ATOM     85  F   UNL A   1      51.139  26.796  23.051  1.00  0.00    -0.200 F 
ENDBRANCH  51  75
BRANCH  63  86
ATOM     86  C   UNL A   1      44.553  32.970  27.502  1.00  0.00     0.064 A 
ATOM     87  C   UNL A   1      43.953  33.230  26.255  1.00  0.00     0.173 A 
ATOM     88  C   UNL A   1      44.643  34.071  28.380  1.00  0.00     0.173 A 
ATOM     89  F   UNL A   1      43.664  32.248  25.390  1.00  0.00    -0.203 F 
ATOM     90  C   UNL A   1      43.573  34.513  25.872  1.00  0.00     0.198 A 
ATOM     91  C   UNL A   1      44.194  35.340  28.019  1.00  0.00     0.198 A 
ATOM     92  F   UNL A   1      45.123  33.950  29.625  1.00  0.00    -0.203 F 
ATOM     93  F   UNL A   1      43.067  34.711  24.648  1.00  0.00    -0.200 F 
ATOM     94  C   UNL A   1      43.686  35.565  26.757  1.00  0.00     0.200 A 
ATOM     95  F   UNL A   1      44.235  36.336  28.914  1.00  0.00    -0.200 F 
ATOM     96  F   UNL A   1      43.282  36.791  26.401  1.00  0.00    -0.200 F 
ENDBRANCH  63  86
ENDBRANCH  37  38
ENDBRANCH  30  32
ENDBRANCH  29  30
ENDBRANCH  28  29
ENDBRANCH  27  28
ENDBRANCH   1  27
TORSDOF 16
ENDMDL
MODEL 2
REMARK VINA RESULT:     -12.4      3.098      4.790
REMARK SMILES Cc1cccc(C(=O)OCCOCCOC(=O)c2ccc(-c3c4nc(c(-c5c(F)c(F)c(F)c(F)c5F)c5ccc([nH]5)c(-c5c(F)c(F)c(F)c(F)c5F)c5nc(c(-c6c(F)c(F)c(F)c(F)c6F)c6ccc3[nH]6)C=C5)C=C4)cc2)c1NC(=O)N[C@H]1CCCC1(C)C
REMARK SMILES IDX 12 1 11 2 10 3 9 4 7 5 8 6 6 7 1 8 2 9 3 10 81 11 4 12 5 13
REMARK SMILES IDX 82 14 83 15 84 17 85 18 86 20 87 21 90 22 88 23 89 24 91 25
REMARK SMILES IDX 92 26 13 27 14 28 15 29 16 30 17 31 18 32 19 33 80 34 20 35
REMARK SMILES IDX 79 36 21 37 22 38 23 39 73 40 24 41 78 42 72 43 74 44 25 45
REMARK SMILES IDX 77 46 71 47 70 48 26 50 58 51 38 52 57 53 39 54 42 55 56 56
REMARK SMILES IDX 75 57 40 58 41 59 55 61 76 62 43 63 27 64 28 65 36 66 29 67
REMARK SMILES IDX 30 68 34 69 37 70 31 71 32 72 35 73 33 74 59 75 60 76 68 77
REMARK SMILES IDX 61 78 62 79 66 80 69 81 63 82 64 83 67 84 65 85 44 86 45 87
REMARK SMILES IDX 53 88 46 89 47 90 51 91 54 92 48 93 49 94 52 95 50 96
REMARK H PARENT 82 16 85 19 74 49 42 60
REMARK Flexibility Score: inf
ROOT
ATOM      1  O   UNL A   1      34.855  21.233  26.386  1.00  0.00    -0.374 OA
ENDROOT
BRANCH   1   2
ATOM      2  C   UNL A   1      34.011  21.793  27.400  1.00  0.00     0.202 C 
BRANCH   2   3
ATOM      3  C   UNL A   1      33.662  23.242  27.043  1.00  0.00     0.261 C 
BRANCH   3   4
ATOM      4  O   UNL A   1      32.255  23.649  27.053  1.00  0.00    -0.460 OA
BRANCH   4   5
ATOM      5  C   UNL A   1      31.366  23.058  26.186  1.00  0.00     0.340 C 
ATOM      6  O   UNL A   1      30.191  22.934  26.498  1.00  0.00    -0.246 OA
BRANCH   5   7
ATOM      7  C   UNL A   1      31.915  22.751  24.789  1.00  0.00     0.083 A 
ATOM      8  C   UNL A   1      32.864  24.917  21.866  1.00  0.00     0.046 C 
ATOM      9  C   UNL A   1      32.456  23.692  22.615  1.00  0.00    -0.027 A 
ATOM     10  C   UNL A   1      32.519  22.440  22.025  1.00  0.00     0.005 A 
ATOM     11  C   UNL A   1      31.811  23.758  23.860  1.00  0.00     0.060 A 
ATOM     12  C   UNL A   1      32.296  21.330  22.818  1.00  0.00     0.001 A 
ATOM     13  C   UNL A   1      32.139  21.495  24.205  1.00  0.00     0.018 A 
BRANCH  11  14
ATOM     14  N   UNL A   1      30.565  24.382  23.779  1.00  0.00    -0.307 N 
ATOM     15  C   UNL A   1      30.235  25.668  24.038  1.00  0.00     0.319 C 
ATOM     16  H   UNL A   1      29.821  23.804  23.494  1.00  0.00     0.171 HD
ATOM     17  O   UNL A   1      29.060  25.968  23.787  1.00  0.00    -0.248 OA
ATOM     18  N   UNL A   1      31.093  26.690  24.287  1.00  0.00    -0.335 N 
ATOM     19  H   UNL A   1      31.110  27.229  23.463  1.00  0.00     0.165 HD
BRANCH  18  20
ATOM     20  C   UNL A   1      32.046  27.390  25.260  1.00  0.00     0.089 C 
ATOM     21  C   UNL A   1      33.376  26.648  25.337  1.00  0.00     0.025 C 
ATOM     22  C   UNL A   1      32.221  28.790  26.176  1.00  0.00    -0.015 C 
ATOM     23  C   UNL A   1      34.321  27.481  26.180  1.00  0.00     0.003 C 
ATOM     24  C   UNL A   1      33.768  28.889  26.216  1.00  0.00     0.008 C 
ATOM     25  C   UNL A   1      31.756  30.273  26.011  1.00  0.00     0.013 C 
ATOM     26  C   UNL A   1      31.700  28.501  27.625  1.00  0.00     0.013 C 
ENDBRANCH  18  20
ENDBRANCH  11  14
ENDBRANCH   5   7
ENDBRANCH   4   5
ENDBRANCH   3   4
ENDBRANCH   2   3
ENDBRANCH   1   2
BRANCH   1  27
ATOM     27  C   UNL A   1      35.923  22.018  25.848  1.00  0.00     0.202 C 
BRANCH  27  28
ATOM     28  C   UNL A   1      37.301  21.367  25.742  1.00  0.00     0.261 C 
BRANCH  28  29
ATOM     29  O   UNL A   1      38.326  22.335  25.427  1.00  0.00    -0.460 OA
BRANCH  29  30
ATOM     30  C   UNL A   1      39.192  22.649  26.431  1.00  0.00     0.338 C 
ATOM     31  O   UNL A   1      39.761  21.834  27.133  1.00  0.00    -0.246 OA
BRANCH  30  32
ATOM     32  C   UNL A   1      39.235  24.125  26.639  1.00  0.00     0.060 A 
ATOM     33  C   UNL A   1      40.178  24.919  25.963  1.00  0.00     0.016 A 
ATOM     34  C   UNL A   1      38.533  24.664  27.704  1.00  0.00     0.016 A 
ATOM     35  C   UNL A   1      40.545  26.178  26.479  1.00  0.00     0.010 A 
ATOM     36  C   UNL A   1      39.008  25.824  28.283  1.00  0.00     0.010 A 
ATOM     37  C   UNL A   1      40.032  26.598  27.702  1.00  0.00    -0.014 A 
BRANCH  37  38
ATOM     38  C   UNL A   1      40.475  27.766  28.501  1.00  0.00     0.031 A 
ATOM     39  C   UNL A   1      39.552  28.948  28.530  1.00  0.00     0.074 A 
ATOM     40  C   UNL A   1      41.512  27.733  29.389  1.00  0.00     0.049 A 
ATOM     41  N   UNL A   1      39.680  29.933  29.342  1.00  0.00    -0.248 NA
ATOM     42  C   UNL A   1      38.385  29.130  27.659  1.00  0.00     0.031 C 
ATOM     43  C   UNL A   1      41.673  28.572  30.590  1.00  0.00     0.029 A 
ATOM     44  N   UNL A   1      42.617  26.863  29.507  1.00  0.00    -0.354 N 
ATOM     45  C   UNL A   1      38.557  30.707  29.311  1.00  0.00     0.074 A 
ATOM     46  C   UNL A   1      37.781  30.190  28.216  1.00  0.00     0.031 C 
ATOM     47  C   UNL A   1      42.835  28.325  31.210  1.00  0.00     0.029 A 
ATOM     48  C   UNL A   1      43.595  27.497  30.310  1.00  0.00     0.049 A 
ATOM     49  H   UNL A   1      42.695  25.970  29.101  1.00  0.00     0.167 HD
ATOM     50  C   UNL A   1      38.428  31.651  30.281  1.00  0.00     0.037 A 
ATOM     51  C   UNL A   1      44.830  27.794  29.830  1.00  0.00     0.037 A 
ATOM     52  C   UNL A   1      39.722  31.872  30.948  1.00  0.00     0.049 A 
ATOM     53  C   UNL A   1      44.933  29.294  29.786  1.00  0.00     0.074 A 
ATOM     54  C   UNL A   1      40.221  31.639  32.215  1.00  0.00     0.029 A 
ATOM     55  N   UNL A   1      40.833  32.170  30.144  1.00  0.00    -0.354 N 
ATOM     56  N   UNL A   1      43.887  30.069  29.633  1.00  0.00    -0.248 NA
ATOM     57  C   UNL A   1      46.141  30.035  30.132  1.00  0.00     0.031 C 
ATOM     58  C   UNL A   1      41.651  31.698  32.133  1.00  0.00     0.029 A 
ATOM     59  C   UNL A   1      42.022  32.014  30.830  1.00  0.00     0.049 A 
ATOM     60  H   UNL A   1      40.773  32.456  29.204  1.00  0.00     0.167 HD
ATOM     61  C   UNL A   1      44.214  31.330  30.022  1.00  0.00     0.074 A 
ATOM     62  C   UNL A   1      45.651  31.282  30.247  1.00  0.00     0.031 C 
ATOM     63  C   UNL A   1      43.307  32.332  30.204  1.00  0.00     0.037 A 
BRANCH  50  64
ATOM     64  C   UNL A   1      37.134  32.321  30.681  1.00  0.00     0.064 A 
ATOM     65  C   UNL A   1      36.495  33.219  29.799  1.00  0.00     0.173 A 
ATOM     66  C   UNL A   1      36.528  32.213  31.952  1.00  0.00     0.173 A 
ATOM     67  F   UNL A   1      36.983  33.444  28.571  1.00  0.00    -0.203 F 
ATOM     68  C   UNL A   1      35.343  33.932  30.154  1.00  0.00     0.198 A 
ATOM     69  C   UNL A   1      35.347  32.888  32.289  1.00  0.00     0.198 A 
ATOM     70  F   UNL A   1      37.080  31.502  32.943  1.00  0.00    -0.203 F 
ATOM     71  F   UNL A   1      34.806  34.805  29.290  1.00  0.00    -0.200 F 
ATOM     72  C   UNL A   1      34.759  33.753  31.392  1.00  0.00     0.200 A 
ATOM     73  F   UNL A   1      34.801  32.709  33.501  1.00  0.00    -0.200 F 
ATOM     74  F   UNL A   1      33.652  34.429  31.730  1.00  0.00    -0.200 F 
ENDBRANCH  50  64
BRANCH  51  75
ATOM     75  C   UNL A   1      45.288  26.728  28.899  1.00  0.00     0.064 A 
ATOM     76  C   UNL A   1      45.436  25.445  29.482  1.00  0.00     0.173 A 
ATOM     77  C   UNL A   1      44.966  26.777  27.535  1.00  0.00     0.173 A 
ATOM     78  F   UNL A   1      45.738  25.336  30.787  1.00  0.00    -0.203 F 
ATOM     79  C   UNL A   1      45.082  24.287  28.792  1.00  0.00     0.198 A 
ATOM     80  C   UNL A   1      44.622  25.609  26.846  1.00  0.00     0.198 A 
ATOM     81  F   UNL A   1      44.793  27.959  26.927  1.00  0.00    -0.203 F 
ATOM     82  F   UNL A   1      45.054  23.107  29.429  1.00  0.00    -0.200 F 
ATOM     83  C   UNL A   1      44.628  24.377  27.488  1.00  0.00     0.200 A 
ATOM     84  F   UNL A   1      44.158  25.687  25.590  1.00  0.00    -0.200 F 
ATOM     85  F   UNL A   1      44.129  23.293  26.876  1.00  0.00    -0.200 F 
ENDBRANCH  51  75
BRANCH  63  86
ATOM     86  C   UNL A   1      43.644  33.751  29.836  1.00  0.00     0.064 A 
ATOM     87  C   UNL A   1      43.776  34.176  28.500  1.00  0.00     0.173 A 
ATOM     88  C   UNL A   1      43.653  34.775  30.808  1.00  0.00     0.173 A 
ATOM     89  F   UNL A   1      43.629  33.330  27.471  1.00  0.00    -0.203 F 
ATOM     90  C   UNL A   1      44.007  35.507  28.168  1.00  0.00     0.198 A 
ATOM     91  C   UNL A   1      43.812  36.115  30.464  1.00  0.00     0.198 A 
ATOM     92  F   UNL A   1      43.463  34.520  32.109  1.00  0.00    -0.203 F 
ATOM     93  F   UNL A   1      44.188  35.843  26.884  1.00  0.00    -0.200 F 
ATOM     94  C   UNL A   1      44.017  36.477  29.149  1.00  0.00     0.200 A 
ATOM     95  F   UNL A   1      43.740  37.056  31.416  1.00  0.00    -0.200 F 
ATOM     96  F   UNL A   1      44.199  37.763  28.823  1.00  0.00    -0.200 F 
ENDBRANCH  63  86
ENDBRANCH  37  38
ENDBRANCH  30  32
ENDBRANCH  29  30
ENDBRANCH  28  29
ENDBRANCH  27  28
ENDBRANCH   1  27
TORSDOF 16
ENDMDL
MODEL 3
REMARK VINA RESULT:     -12.3      5.626     11.714
REMARK SMILES Cc1cccc(C(=O)OCCOCCOC(=O)c2ccc(-c3c4nc(c(-c5c(F)c(F)c(F)c(F)c5F)c5ccc([nH]5)c(-c5c(F)c(F)c(F)c(F)c5F)c5nc(c(-c6c(F)c(F)c(F)c(F)c6F)c6ccc3[nH]6)C=C5)C=C4)cc2)c1NC(=O)N[C@H]1CCCC1(C)C
REMARK SMILES IDX 12 1 11 2 10 3 9 4 7 5 8 6 6 7 1 8 2 9 3 10 81 11 4 12 5 13
REMARK SMILES IDX 82 14 83 15 84 17 85 18 86 20 87 21 90 22 88 23 89 24 91 25
REMARK SMILES IDX 92 26 13 27 14 28 15 29 16 30 17 31 18 32 19 33 80 34 20 35
REMARK SMILES IDX 79 36 21 37 22 38 23 39 73 40 24 41 78 42 72 43 74 44 25 45
REMARK SMILES IDX 77 46 71 47 70 48 26 50 58 51 38 52 57 53 39 54 42 55 56 56
REMARK SMILES IDX 75 57 40 58 41 59 55 61 76 62 43 63 27 64 28 65 36 66 29 67
REMARK SMILES IDX 30 68 34 69 37 70 31 71 32 72 35 73 33 74 59 75 60 76 68 77
REMARK SMILES IDX 61 78 62 79 66 80 69 81 63 82 64 83 67 84 65 85 44 86 45 87
REMARK SMILES IDX 53 88 46 89 47 90 51 91 54 92 48 93 49 94 52 95 50 96
REMARK H PARENT 82 16 85 19 74 49 42 60
REMARK Flexibility Score: inf
ROOT
ATOM      1  O   UNL A   1      33.252  33.722  28.080  1.00  0.00    -0.374 OA
ENDROOT
BRANCH   1   2
ATOM      2  C   UNL A   1      34.278  32.791  28.451  1.00  0.00     0.202 C 
BRANCH   2   3
ATOM      3  C   UNL A   1      34.133  31.505  27.630  1.00  0.00     0.261 C 
BRANCH   3   4
ATOM      4  O   UNL A   1      32.797  31.101  27.186  1.00  0.00    -0.460 OA
BRANCH   4   5
ATOM      5  C   UNL A   1      32.662  30.140  26.212  1.00  0.00     0.340 C 
ATOM      6  O   UNL A   1      33.454  29.211  26.149  1.00  0.00    -0.246 OA
BRANCH   5   7
ATOM      7  C   UNL A   1      31.385  30.230  25.370  1.00  0.00     0.083 A 
ATOM      8  C   UNL A   1      29.806  27.944  22.838  1.00  0.00     0.046 C 
ATOM      9  C   UNL A   1      30.116  29.207  23.569  1.00  0.00    -0.027 A 
ATOM     10  C   UNL A   1      29.332  30.338  23.402  1.00  0.00     0.005 A 
ATOM     11  C   UNL A   1      31.304  29.380  24.293  1.00  0.00     0.060 A 
ATOM     12  C   UNL A   1      29.559  31.420  24.231  1.00  0.00     0.001 A 
ATOM     13  C   UNL A   1      30.479  31.299  25.286  1.00  0.00     0.018 A 
BRANCH  11  14
ATOM     14  N   UNL A   1      32.436  29.325  23.478  1.00  0.00    -0.307 N 
ATOM     15  C   UNL A   1      33.166  28.251  23.101  1.00  0.00     0.319 C 
ATOM     16  H   UNL A   1      32.746  30.190  23.128  1.00  0.00     0.171 HD
ATOM     17  O   UNL A   1      34.069  28.490  22.287  1.00  0.00    -0.248 OA
ATOM     18  N   UNL A   1      32.857  26.946  23.312  1.00  0.00    -0.335 N 
ATOM     19  H   UNL A   1      32.550  26.601  22.442  1.00  0.00     0.165 HD
BRANCH  18  20
ATOM     20  C   UNL A   1      32.766  25.764  24.282  1.00  0.00     0.089 C 
ATOM     21  C   UNL A   1      34.159  25.271  24.659  1.00  0.00     0.025 C 
ATOM     22  C   UNL A   1      31.675  24.893  25.220  1.00  0.00    -0.015 C 
ATOM     23  C   UNL A   1      33.998  24.220  25.740  1.00  0.00     0.003 C 
ATOM     24  C   UNL A   1      32.624  24.404  26.345  1.00  0.00     0.008 C 
ATOM     25  C   UNL A   1      30.352  25.246  25.975  1.00  0.00     0.013 C 
ATOM     26  C   UNL A   1      31.194  23.651  24.395  1.00  0.00     0.013 C 
ENDBRANCH  18  20
ENDBRANCH  11  14
ENDBRANCH   5   7
ENDBRANCH   4   5
ENDBRANCH   3   4
ENDBRANCH   2   3
ENDBRANCH   1   2
BRANCH   1  27
ATOM     27  C   UNL A   1      33.289  35.053  28.603  1.00  0.00     0.202 C 
BRANCH  27  28
ATOM     28  C   UNL A   1      32.773  35.273  30.024  1.00  0.00     0.261 C 
BRANCH  28  29
ATOM     29  O   UNL A   1      33.745  35.959  30.844  1.00  0.00    -0.460 OA
BRANCH  29  30
ATOM     30  C   UNL A   1      34.032  35.390  32.048  1.00  0.00     0.338 C 
ATOM     31  O   UNL A   1      33.758  35.880  33.128  1.00  0.00    -0.246 OA
BRANCH  30  32
ATOM     32  C   UNL A   1      34.850  34.157  31.859  1.00  0.00     0.060 A 
ATOM     33  C   UNL A   1      34.777  33.098  32.780  1.00  0.00     0.016 A 
ATOM     34  C   UNL A   1      35.881  34.182  30.934  1.00  0.00     0.016 A 
ATOM     35  C   UNL A   1      35.839  32.178  32.890  1.00  0.00     0.010 A 
ATOM     36  C   UNL A   1      36.978  33.373  31.152  1.00  0.00     0.010 A 
ATOM     37  C   UNL A   1      36.997  32.369  32.140  1.00  0.00    -0.014 A 
BRANCH  37  38
ATOM     38  C   UNL A   1      38.286  31.652  32.292  1.00  0.00     0.031 A 
ATOM     39  C   UNL A   1      38.473  30.425  31.450  1.00  0.00     0.074 A 
ATOM     40  C   UNL A   1      39.374  32.169  32.936  1.00  0.00     0.049 A 
ATOM     41  N   UNL A   1      39.600  29.830  31.299  1.00  0.00    -0.248 NA
ATOM     42  C   UNL A   1      37.416  29.756  30.683  1.00  0.00     0.031 C 
ATOM     43  C   UNL A   1      40.788  31.852  32.671  1.00  0.00     0.029 A 
ATOM     44  N   UNL A   1      39.493  33.191  33.901  1.00  0.00    -0.354 N 
ATOM     45  C   UNL A   1      39.511  28.924  30.283  1.00  0.00     0.074 A 
ATOM     46  C   UNL A   1      38.114  28.882  29.945  1.00  0.00     0.031 C 
ATOM     47  C   UNL A   1      41.603  32.490  33.523  1.00  0.00     0.029 A 
ATOM     48  C   UNL A   1      40.750  33.054  34.537  1.00  0.00     0.049 A 
ATOM     49  H   UNL A   1      38.819  33.880  34.100  1.00  0.00     0.167 HD
ATOM     50  C   UNL A   1      40.674  28.381  29.835  1.00  0.00     0.037 A 
ATOM     51  C   UNL A   1      40.854  32.810  35.869  1.00  0.00     0.037 A 
ATOM     52  C   UNL A   1      41.756  28.626  30.805  1.00  0.00     0.049 A 
ATOM     53  C   UNL A   1      41.437  31.432  36.017  1.00  0.00     0.074 A 
ATOM     54  C   UNL A   1      42.917  29.374  30.805  1.00  0.00     0.029 A 
ATOM     55  N   UNL A   1      41.540  28.246  32.138  1.00  0.00    -0.354 N 
ATOM     56  N   UNL A   1      41.270  30.494  35.117  1.00  0.00    -0.248 NA
ATOM     57  C   UNL A   1      42.417  31.071  37.036  1.00  0.00     0.031 C 
ATOM     58  C   UNL A   1      43.334  29.524  32.168  1.00  0.00     0.029 A 
ATOM     59  C   UNL A   1      42.456  28.828  32.994  1.00  0.00     0.049 A 
ATOM     60  H   UNL A   1      40.824  27.638  32.430  1.00  0.00     0.167 HD
ATOM     61  C   UNL A   1      42.204  29.526  35.311  1.00  0.00     0.074 A 
ATOM     62  C   UNL A   1      42.846  29.884  36.568  1.00  0.00     0.031 C 
ATOM     63  C   UNL A   1      42.459  28.522  34.425  1.00  0.00     0.037 A 
BRANCH  50  64
ATOM     64  C   UNL A   1      40.861  27.696  28.501  1.00  0.00     0.064 A 
ATOM     65  C   UNL A   1      40.318  26.413  28.277  1.00  0.00     0.173 A 
ATOM     66  C   UNL A   1      41.654  28.193  27.442  1.00  0.00     0.173 A 
ATOM     67  F   UNL A   1      39.573  25.806  29.212  1.00  0.00    -0.203 F 
ATOM     68  C   UNL A   1      40.535  25.699  27.091  1.00  0.00     0.198 A 
ATOM     69  C   UNL A   1      41.829  27.500  26.237  1.00  0.00     0.198 A 
ATOM     70  F   UNL A   1      42.342  29.336  27.547  1.00  0.00    -0.203 F 
ATOM     71  F   UNL A   1      40.030  24.465  26.954  1.00  0.00    -0.200 F 
ATOM     72  C   UNL A   1      41.276  26.250  26.065  1.00  0.00     0.200 A 
ATOM     73  F   UNL A   1      42.561  28.048  25.255  1.00  0.00    -0.200 F 
ATOM     74  F   UNL A   1      41.479  25.571  24.927  1.00  0.00    -0.200 F 
ENDBRANCH  50  64
BRANCH  51  75
ATOM     75  C   UNL A   1      39.784  33.534  36.607  1.00  0.00     0.064 A 
ATOM     76  C   UNL A   1      38.738  32.716  37.103  1.00  0.00     0.173 A 
ATOM     77  C   UNL A   1      40.070  34.708  37.318  1.00  0.00     0.173 A 
ATOM     78  F   UNL A   1      38.424  31.575  36.466  1.00  0.00    -0.203 F 
ATOM     79  C   UNL A   1      38.155  32.955  38.346  1.00  0.00     0.198 A 
ATOM     80  C   UNL A   1      39.472  34.946  38.561  1.00  0.00     0.198 A 
ATOM     81  F   UNL A   1      41.060  35.515  36.914  1.00  0.00    -0.203 F 
ATOM     82  F   UNL A   1      37.303  32.061  38.872  1.00  0.00    -0.200 F 
ATOM     83  C   UNL A   1      38.559  34.045  39.095  1.00  0.00     0.200 A 
ATOM     84  F   UNL A   1      39.874  35.987  39.307  1.00  0.00    -0.200 F 
ATOM     85  F   UNL A   1      38.128  34.188  40.357  1.00  0.00    -0.200 F 
ENDBRANCH  51  75
BRANCH  63  86
ATOM     86  C   UNL A   1      42.807  27.140  34.907  1.00  0.00     0.064 A 
ATOM     87  C   UNL A   1      41.847  26.118  35.034  1.00  0.00     0.173 A 
ATOM     88  C   UNL A   1      44.151  26.741  35.071  1.00  0.00     0.173 A 
ATOM     89  F   UNL A   1      40.553  26.324  34.752  1.00  0.00    -0.203 F 
ATOM     90  C   UNL A   1      42.193  24.822  35.403  1.00  0.00     0.198 A 
ATOM     91  C   UNL A   1      44.498  25.425  35.369  1.00  0.00     0.198 A 
ATOM     92  F   UNL A   1      45.170  27.595  34.904  1.00  0.00    -0.203 F 
ATOM     93  F   UNL A   1      41.230  23.906  35.571  1.00  0.00    -0.200 F 
ATOM     94  C   UNL A   1      43.518  24.474  35.562  1.00  0.00     0.200 A 
ATOM     95  F   UNL A   1      45.792  25.082  35.442  1.00  0.00    -0.200 F 
ATOM     96  F   UNL A   1      43.852  23.216  35.876  1.00  0.00    -0.200 F 
ENDBRANCH  63  86
ENDBRANCH  37  38
ENDBRANCH  30  32
ENDBRANCH  29  30
ENDBRANCH  28  29
ENDBRANCH  27  28
ENDBRANCH   1  27
TORSDOF 16
ENDMDL
