MODEL 1
REMARK VINA RESULT:     -11.5      0.000      0.000
REMARK SMILES Cc1nn(C)c(C)c1C(=O)N1CC[C@H](C(=O)OCCOCCOC(=O)c2ccc(-c3c4nc(c(-c5c(F)c(F)c(F)c(F)c5F)c5ccc([nH]5)c(-c5c(F)c(F)c(F)c(F)c5F)c5nc(c(-c6c(F)c(F)c(F)c(F)c6F)c6ccc3[nH]6)C=C5)C=C4)cc2)[C@@H]1C
REMARK SMILES IDX 20 1 19 2 18 3 17 4 15 5 16 6 14 7 11 8 12 9 89 10 13 11
REMARK SMILES IDX 90 12 9 13 10 14 8 15 1 16 2 17 3 18 4 19 6 20 5 21 7 22
REMARK SMILES IDX 21 23 22 24 23 25 24 26 25 27 26 28 27 29 88 30 28 31 87 32
REMARK SMILES IDX 29 33 30 34 31 35 81 36 32 37 86 38 80 39 82 40 33 41 85 42
REMARK SMILES IDX 79 43 78 44 34 46 66 47 46 48 65 49 47 50 50 51 64 52 83 53
REMARK SMILES IDX 48 54 49 55 63 57 84 58 51 59 35 60 36 61 44 62 37 63 38 64
REMARK SMILES IDX 42 65 45 66 39 67 40 68 43 69 41 70 67 71 68 72 76 73 69 74
REMARK SMILES IDX 70 75 74 76 77 77 71 78 72 79 75 80 73 81 52 82 53 83 61 84
REMARK SMILES IDX 54 85 55 86 59 87 62 88 56 89 57 90 60 91 58 92
REMARK H PARENT 82 45 50 56
REMARK Flexibility Score: inf
ROOT
ATOM      1  O   UNL A   1      37.761  21.299  24.901  1.00  0.00    -0.374 OA
ENDROOT
BRANCH   1   2
ATOM      2  C   UNL A   1      36.473  21.732  24.487  1.00  0.00     0.202 C 
BRANCH   2   3
ATOM      3  C   UNL A   1      35.282  21.524  25.418  1.00  0.00     0.261 C 
BRANCH   3   4
ATOM      4  O   UNL A   1      34.187  20.841  24.782  1.00  0.00    -0.463 OA
BRANCH   4   5
ATOM      5  C   UNL A   1      32.989  21.489  24.834  1.00  0.00     0.311 C 
ATOM      6  O   UNL A   1      31.909  20.946  25.022  1.00  0.00    -0.252 OA
BRANCH   5   7
ATOM      7  C   UNL A   1      33.160  22.962  24.535  1.00  0.00     0.123 C 
ATOM      8  N   UNL A   1      31.496  24.561  25.118  1.00  0.00    -0.335 N 
ATOM      9  C   UNL A   1      30.960  23.763  24.042  1.00  0.00     0.121 C 
ATOM     10  C   UNL A   1      32.738  23.980  25.627  1.00  0.00     0.096 C 
ATOM     11  C   UNL A   1      32.226  23.281  23.352  1.00  0.00     0.039 C 
ATOM     12  C   UNL A   1      32.527  23.479  27.049  1.00  0.00     0.032 C 
BRANCH   8  13
ATOM     13  C   UNL A   1      30.778  25.627  25.623  1.00  0.00     0.257 C 
ATOM     14  O   UNL A   1      29.768  25.439  26.299  1.00  0.00    -0.269 OA
BRANCH  13  15
ATOM     15  C   UNL A   1      31.193  26.980  25.258  1.00  0.00     0.083 A 
ATOM     16  C   UNL A   1      30.637  27.205  22.680  1.00  0.00     0.069 C 
ATOM     17  C   UNL A   1      31.108  27.669  24.009  1.00  0.00     0.072 A 
ATOM     18  N   UNL A   1      31.455  28.956  24.126  1.00  0.00    -0.178 NA
ATOM     19  N   UNL A   1      31.642  29.131  25.444  1.00  0.00    -0.272 N 
ATOM     20  C   UNL A   1      31.601  27.963  26.158  1.00  0.00     0.048 A 
ATOM     21  C   UNL A   1      31.735  30.484  25.938  1.00  0.00     0.174 C 
ATOM     22  C   UNL A   1      31.859  27.897  27.621  1.00  0.00     0.067 C 
ENDBRANCH  13  15
ENDBRANCH   8  13
ENDBRANCH   5   7
ENDBRANCH   4   5
ENDBRANCH   3   4
ENDBRANCH   2   3
ENDBRANCH   1   2
BRANCH   1  23
ATOM     23  C   UNL A   1      38.034  19.911  25.012  1.00  0.00     0.202 C 
BRANCH  23  24
ATOM     24  C   UNL A   1      39.295  19.427  25.748  1.00  0.00     0.261 C 
BRANCH  24  25
ATOM     25  O   UNL A   1      40.309  20.396  25.934  1.00  0.00    -0.460 OA
BRANCH  25  26
ATOM     26  C   UNL A   1      40.782  20.494  27.195  1.00  0.00     0.338 C 
ATOM     27  O   UNL A   1      41.001  19.610  27.999  1.00  0.00    -0.246 OA
BRANCH  26  28
ATOM     28  C   UNL A   1      41.115  21.911  27.346  1.00  0.00     0.060 A 
ATOM     29  C   UNL A   1      40.465  22.839  26.528  1.00  0.00     0.016 A 
ATOM     30  C   UNL A   1      41.974  22.310  28.376  1.00  0.00     0.016 A 
ATOM     31  C   UNL A   1      40.689  24.194  26.732  1.00  0.00     0.010 A 
ATOM     32  C   UNL A   1      42.200  23.664  28.576  1.00  0.00     0.010 A 
ATOM     33  C   UNL A   1      41.574  24.603  27.741  1.00  0.00    -0.014 A 
BRANCH  33  34
ATOM     34  C   UNL A   1      41.972  26.017  27.842  1.00  0.00     0.031 A 
ATOM     35  C   UNL A   1      43.287  26.421  27.256  1.00  0.00     0.074 A 
ATOM     36  C   UNL A   1      41.178  26.896  28.472  1.00  0.00     0.049 A 
ATOM     37  N   UNL A   1      43.886  27.581  27.279  1.00  0.00    -0.248 NA
ATOM     38  C   UNL A   1      44.038  25.365  26.555  1.00  0.00     0.031 C 
ATOM     39  C   UNL A   1      39.870  26.589  29.048  1.00  0.00     0.029 A 
ATOM     40  N   UNL A   1      41.366  28.225  28.743  1.00  0.00    -0.354 N 
ATOM     41  C   UNL A   1      45.085  27.393  26.608  1.00  0.00     0.074 A 
ATOM     42  C   UNL A   1      45.147  26.002  26.218  1.00  0.00     0.031 C 
ATOM     43  C   UNL A   1      39.369  27.704  29.606  1.00  0.00     0.029 A 
ATOM     44  C   UNL A   1      40.340  28.785  29.461  1.00  0.00     0.049 A 
ATOM     45  H   UNL A   1      42.159  28.729  28.450  1.00  0.00     0.167 HD
ATOM     46  C   UNL A   1      46.042  28.310  26.339  1.00  0.00     0.037 A 
ATOM     47  C   UNL A   1      40.224  30.031  29.959  1.00  0.00     0.037 A 
ATOM     48  C   UNL A   1      45.957  29.685  26.749  1.00  0.00     0.049 A 
ATOM     49  C   UNL A   1      41.345  31.008  29.726  1.00  0.00     0.074 A 
ATOM     50  C   UNL A   1      46.839  30.720  26.496  1.00  0.00     0.029 A 
ATOM     51  N   UNL A   1      44.930  30.211  27.522  1.00  0.00    -0.354 N 
ATOM     52  N   UNL A   1      42.453  30.848  29.041  1.00  0.00    -0.248 NA
ATOM     53  C   UNL A   1      41.206  32.332  30.343  1.00  0.00     0.031 C 
ATOM     54  C   UNL A   1      46.379  31.853  27.175  1.00  0.00     0.029 A 
ATOM     55  C   UNL A   1      45.181  31.544  27.802  1.00  0.00     0.049 A 
ATOM     56  H   UNL A   1      44.139  29.710  27.828  1.00  0.00     0.167 HD
ATOM     57  C   UNL A   1      43.135  32.053  29.128  1.00  0.00     0.074 A 
ATOM     58  C   UNL A   1      42.306  32.941  29.920  1.00  0.00     0.031 C 
ATOM     59  C   UNL A   1      44.339  32.398  28.604  1.00  0.00     0.037 A 
BRANCH  46  60
ATOM     60  C   UNL A   1      47.269  27.833  25.617  1.00  0.00     0.064 A 
ATOM     61  C   UNL A   1      48.421  27.417  26.302  1.00  0.00     0.173 A 
ATOM     62  C   UNL A   1      47.298  27.812  24.215  1.00  0.00     0.173 A 
ATOM     63  F   UNL A   1      48.454  27.436  27.643  1.00  0.00    -0.203 F 
ATOM     64  C   UNL A   1      49.568  27.035  25.610  1.00  0.00     0.198 A 
ATOM     65  C   UNL A   1      48.435  27.397  23.526  1.00  0.00     0.198 A 
ATOM     66  F   UNL A   1      46.226  28.201  23.509  1.00  0.00    -0.203 F 
ATOM     67  F   UNL A   1      50.678  26.706  26.286  1.00  0.00    -0.200 F 
ATOM     68  C   UNL A   1      49.572  27.021  24.223  1.00  0.00     0.200 A 
ATOM     69  F   UNL A   1      48.434  27.375  22.186  1.00  0.00    -0.200 F 
ATOM     70  F   UNL A   1      50.679  26.659  23.558  1.00  0.00    -0.200 F 
ENDBRANCH  46  60
BRANCH  47  71
ATOM     71  C   UNL A   1      39.004  30.412  30.715  1.00  0.00     0.064 A 
ATOM     72  C   UNL A   1      38.950  30.262  32.107  1.00  0.00     0.173 A 
ATOM     73  C   UNL A   1      37.881  30.957  30.073  1.00  0.00     0.173 A 
ATOM     74  F   UNL A   1      39.990  29.729  32.764  1.00  0.00    -0.203 F 
ATOM     75  C   UNL A   1      37.818  30.639  32.829  1.00  0.00     0.198 A 
ATOM     76  C   UNL A   1      36.760  31.357  30.799  1.00  0.00     0.198 A 
ATOM     77  F   UNL A   1      37.882  31.122  28.742  1.00  0.00    -0.203 F 
ATOM     78  F   UNL A   1      37.782  30.460  34.156  1.00  0.00    -0.200 F 
ATOM     79  C   UNL A   1      36.728  31.194  32.175  1.00  0.00     0.200 A 
ATOM     80  F   UNL A   1      35.716  31.907  30.164  1.00  0.00    -0.200 F 
ATOM     81  F   UNL A   1      35.647  31.569  32.871  1.00  0.00    -0.200 F 
ENDBRANCH  47  71
BRANCH  59  82
ATOM     82  C   UNL A   1      44.827  33.792  28.867  1.00  0.00     0.064 A 
ATOM     83  C   UNL A   1      45.549  34.106  30.027  1.00  0.00     0.173 A 
ATOM     84  C   UNL A   1      44.625  34.807  27.920  1.00  0.00     0.173 A 
ATOM     85  F   UNL A   1      45.754  33.174  30.969  1.00  0.00    -0.203 F 
ATOM     86  C   UNL A   1      46.039  35.392  30.237  1.00  0.00     0.198 A 
ATOM     87  C   UNL A   1      45.144  36.083  28.118  1.00  0.00     0.198 A 
ATOM     88  F   UNL A   1      43.945  34.555  26.792  1.00  0.00    -0.203 F 
ATOM     89  F   UNL A   1      46.692  35.681  31.371  1.00  0.00    -0.200 F 
ATOM     90  C   UNL A   1      45.846  36.376  29.278  1.00  0.00     0.200 A 
ATOM     91  F   UNL A   1      44.971  37.028  27.184  1.00  0.00    -0.200 F 
ATOM     92  F   UNL A   1      46.332  37.609  29.474  1.00  0.00    -0.200 F 
ENDBRANCH  59  82
ENDBRANCH  33  34
ENDBRANCH  26  28
ENDBRANCH  25  26
ENDBRANCH  24  25
ENDBRANCH  23  24
ENDBRANCH   1  23
TORSDOF 16
ENDMDL
MODEL 2
REMARK VINA RESULT:     -11.4      1.605      7.433
REMARK SMILES Cc1nn(C)c(C)c1C(=O)N1CC[C@H](C(=O)OCCOCCOC(=O)c2ccc(-c3c4nc(c(-c5c(F)c(F)c(F)c(F)c5F)c5ccc([nH]5)c(-c5c(F)c(F)c(F)c(F)c5F)c5nc(c(-c6c(F)c(F)c(F)c(F)c6F)c6ccc3[nH]6)C=C5)C=C4)cc2)[C@@H]1C
REMARK SMILES IDX 20 1 19 2 18 3 17 4 15 5 16 6 14 7 11 8 12 9 89 10 13 11
REMARK SMILES IDX 90 12 9 13 10 14 8 15 1 16 2 17 3 18 4 19 6 20 5 21 7 22
REMARK SMILES IDX 21 23 22 24 23 25 24 26 25 27 26 28 27 29 88 30 28 31 87 32
REMARK SMILES IDX 29 33 30 34 31 35 81 36 32 37 86 38 80 39 82 40 33 41 85 42
REMARK SMILES IDX 79 43 78 44 34 46 66 47 46 48 65 49 47 50 50 51 64 52 83 53
REMARK SMILES IDX 48 54 49 55 63 57 84 58 51 59 35 60 36 61 44 62 37 63 38 64
REMARK SMILES IDX 42 65 45 66 39 67 40 68 43 69 41 70 67 71 68 72 76 73 69 74
REMARK SMILES IDX 70 75 74 76 77 77 71 78 72 79 75 80 73 81 52 82 53 83 61 84
REMARK SMILES IDX 54 85 55 86 59 87 62 88 56 89 57 90 60 91 58 92
REMARK H PARENT 82 45 50 56
REMARK Flexibility Score: inf
ROOT
ATOM      1  O   UNL A   1      38.207  21.566  25.568  1.00  0.00    -0.374 OA
ENDROOT
BRANCH   1   2
ATOM      2  C   UNL A   1      37.133  22.437  25.245  1.00  0.00     0.202 C 
BRANCH   2   3
ATOM      3  C   UNL A   1      36.064  21.971  24.260  1.00  0.00     0.261 C 
BRANCH   3   4
ATOM      4  O   UNL A   1      35.022  21.202  24.886  1.00  0.00    -0.463 OA
BRANCH   4   5
ATOM      5  C   UNL A   1      33.758  21.476  24.455  1.00  0.00     0.311 C 
ATOM      6  O   UNL A   1      32.899  20.634  24.232  1.00  0.00    -0.252 OA
BRANCH   5   7
ATOM      7  C   UNL A   1      33.585  22.956  24.200  1.00  0.00     0.123 C 
ATOM      8  N   UNL A   1      31.823  24.204  25.203  1.00  0.00    -0.335 N 
ATOM      9  C   UNL A   1      31.222  23.327  24.229  1.00  0.00     0.121 C 
ATOM     10  C   UNL A   1      33.232  23.867  25.406  1.00  0.00     0.096 C 
ATOM     11  C   UNL A   1      32.372  23.102  23.260  1.00  0.00     0.039 C 
ATOM     12  C   UNL A   1      33.434  23.323  26.814  1.00  0.00     0.032 C 
BRANCH   8  13
ATOM     13  C   UNL A   1      31.050  25.110  25.902  1.00  0.00     0.257 C 
ATOM     14  O   UNL A   1      30.326  24.736  26.823  1.00  0.00    -0.269 OA
BRANCH  13  15
ATOM     15  C   UNL A   1      31.042  26.503  25.462  1.00  0.00     0.083 A 
ATOM     16  C   UNL A   1      33.231  27.570  26.501  1.00  0.00     0.069 C 
ATOM     17  C   UNL A   1      31.986  27.551  25.691  1.00  0.00     0.072 A 
ATOM     18  N   UNL A   1      31.694  28.648  24.984  1.00  0.00    -0.178 NA
ATOM     19  N   UNL A   1      30.654  28.282  24.219  1.00  0.00    -0.272 N 
ATOM     20  C   UNL A   1      30.156  27.046  24.534  1.00  0.00     0.048 A 
ATOM     21  C   UNL A   1      30.285  29.146  23.122  1.00  0.00     0.174 C 
ATOM     22  C   UNL A   1      28.957  26.462  23.876  1.00  0.00     0.067 C 
ENDBRANCH  13  15
ENDBRANCH   8  13
ENDBRANCH   5   7
ENDBRANCH   4   5
ENDBRANCH   3   4
ENDBRANCH   2   3
ENDBRANCH   1   2
BRANCH   1  23
ATOM     23  C   UNL A   1      38.251  20.266  25.001  1.00  0.00     0.202 C 
BRANCH  23  24
ATOM     24  C   UNL A   1      39.241  19.220  25.542  1.00  0.00     0.261 C 
BRANCH  24  25
ATOM     25  O   UNL A   1      40.133  19.675  26.542  1.00  0.00    -0.460 OA
BRANCH  25  26
ATOM     26  C   UNL A   1      41.442  19.551  26.240  1.00  0.00     0.338 C 
ATOM     27  O   UNL A   1      42.027  18.605  25.751  1.00  0.00    -0.246 OA
BRANCH  26  28
ATOM     28  C   UNL A   1      42.000  20.879  26.502  1.00  0.00     0.060 A 
ATOM     29  C   UNL A   1      42.343  21.209  27.815  1.00  0.00     0.016 A 
ATOM     30  C   UNL A   1      42.288  21.728  25.428  1.00  0.00     0.016 A 
ATOM     31  C   UNL A   1      42.973  22.422  28.064  1.00  0.00     0.010 A 
ATOM     32  C   UNL A   1      42.913  22.941  25.679  1.00  0.00     0.010 A 
ATOM     33  C   UNL A   1      43.236  23.295  26.999  1.00  0.00    -0.014 A 
BRANCH  33  34
ATOM     34  C   UNL A   1      43.722  24.659  27.267  1.00  0.00     0.031 A 
ATOM     35  C   UNL A   1      42.738  25.669  27.766  1.00  0.00     0.074 A 
ATOM     36  C   UNL A   1      45.005  24.974  27.036  1.00  0.00     0.049 A 
ATOM     37  N   UNL A   1      42.905  26.941  28.006  1.00  0.00    -0.248 NA
ATOM     38  C   UNL A   1      41.373  25.179  28.017  1.00  0.00     0.031 C 
ATOM     39  C   UNL A   1      46.033  24.042  26.576  1.00  0.00     0.029 A 
ATOM     40  N   UNL A   1      45.658  26.172  27.147  1.00  0.00    -0.354 N 
ATOM     41  C   UNL A   1      41.666  27.405  28.427  1.00  0.00     0.074 A 
ATOM     42  C   UNL A   1      40.749  26.288  28.377  1.00  0.00     0.031 C 
ATOM     43  C   UNL A   1      47.193  24.706  26.443  1.00  0.00     0.029 A 
ATOM     44  C   UNL A   1      46.975  26.113  26.770  1.00  0.00     0.049 A 
ATOM     45  H   UNL A   1      45.224  26.996  27.468  1.00  0.00     0.167 HD
ATOM     46  C   UNL A   1      41.335  28.654  28.824  1.00  0.00     0.037 A 
ATOM     47  C   UNL A   1      47.886  27.100  26.683  1.00  0.00     0.037 A 
ATOM     48  C   UNL A   1      42.268  29.749  28.853  1.00  0.00     0.049 A 
ATOM     49  C   UNL A   1      47.468  28.501  27.042  1.00  0.00     0.074 A 
ATOM     50  C   UNL A   1      42.065  31.047  29.281  1.00  0.00     0.029 A 
ATOM     51  N   UNL A   1      43.584  29.670  28.414  1.00  0.00    -0.354 N 
ATOM     52  N   UNL A   1      46.314  28.930  27.495  1.00  0.00    -0.248 NA
ATOM     53  C   UNL A   1      48.474  29.555  26.868  1.00  0.00     0.031 C 
ATOM     54  C   UNL A   1      43.237  31.770  29.035  1.00  0.00     0.029 A 
ATOM     55  C   UNL A   1      44.190  30.910  28.510  1.00  0.00     0.049 A 
ATOM     56  H   UNL A   1      44.020  28.852  28.082  1.00  0.00     0.167 HD
ATOM     57  C   UNL A   1      46.456  30.297  27.677  1.00  0.00     0.074 A 
ATOM     58  C   UNL A   1      47.818  30.624  27.301  1.00  0.00     0.031 C 
ATOM     59  C   UNL A   1      45.547  31.205  28.114  1.00  0.00     0.037 A 
BRANCH  46  60
ATOM     60  C   UNL A   1      39.904  28.900  29.203  1.00  0.00     0.064 A 
ATOM     61  C   UNL A   1      39.446  28.751  30.521  1.00  0.00     0.173 A 
ATOM     62  C   UNL A   1      38.969  29.271  28.224  1.00  0.00     0.173 A 
ATOM     63  F   UNL A   1      40.294  28.378  31.492  1.00  0.00    -0.203 F 
ATOM     64  C   UNL A   1      38.101  28.926  30.838  1.00  0.00     0.198 A 
ATOM     65  C   UNL A   1      37.632  29.479  28.550  1.00  0.00     0.198 A 
ATOM     66  F   UNL A   1      39.350  29.426  26.948  1.00  0.00    -0.203 F 
ATOM     67  F   UNL A   1      37.676  28.712  32.091  1.00  0.00    -0.200 F 
ATOM     68  C   UNL A   1      37.196  29.294  29.854  1.00  0.00     0.200 A 
ATOM     69  F   UNL A   1      36.761  29.844  27.600  1.00  0.00    -0.200 F 
ATOM     70  F   UNL A   1      35.901  29.457  30.159  1.00  0.00    -0.200 F 
ENDBRANCH  46  60
BRANCH  47  71
ATOM     71  C   UNL A   1      49.270  26.790  26.242  1.00  0.00     0.064 A 
ATOM     72  C   UNL A   1      50.223  26.319  27.155  1.00  0.00     0.173 A 
ATOM     73  C   UNL A   1      49.665  26.932  24.903  1.00  0.00     0.173 A 
ATOM     74  F   UNL A   1      49.901  26.185  28.450  1.00  0.00    -0.203 F 
ATOM     75  C   UNL A   1      51.518  26.004  26.747  1.00  0.00     0.198 A 
ATOM     76  C   UNL A   1      50.952  26.592  24.491  1.00  0.00     0.198 A 
ATOM     77  F   UNL A   1      48.790  27.379  23.989  1.00  0.00    -0.203 F 
ATOM     78  F   UNL A   1      52.417  25.581  27.645  1.00  0.00    -0.200 F 
ATOM     79  C   UNL A   1      51.878  26.133  25.413  1.00  0.00     0.200 A 
ATOM     80  F   UNL A   1      51.290  26.704  23.199  1.00  0.00    -0.200 F 
ATOM     81  F   UNL A   1      53.119  25.816  25.019  1.00  0.00    -0.200 F 
ENDBRANCH  47  71
BRANCH  59  82
ATOM     82  C   UNL A   1      45.996  32.633  28.212  1.00  0.00     0.064 A 
ATOM     83  C   UNL A   1      46.635  33.120  29.361  1.00  0.00     0.173 A 
ATOM     84  C   UNL A   1      45.842  33.504  27.123  1.00  0.00     0.173 A 
ATOM     85  F   UNL A   1      46.789  32.331  30.435  1.00  0.00    -0.203 F 
ATOM     86  C   UNL A   1      47.091  34.434  29.422  1.00  0.00     0.198 A 
ATOM     87  C   UNL A   1      46.329  34.806  27.175  1.00  0.00     0.198 A 
ATOM     88  F   UNL A   1      45.243  33.083  25.999  1.00  0.00    -0.203 F 
ATOM     89  F   UNL A   1      47.662  34.892  30.544  1.00  0.00    -0.200 F 
ATOM     90  C   UNL A   1      46.947  35.272  28.325  1.00  0.00     0.200 A 
ATOM     91  F   UNL A   1      46.204  35.609  26.109  1.00  0.00    -0.200 F 
ATOM     92  F   UNL A   1      47.402  36.531  28.379  1.00  0.00    -0.200 F 
ENDBRANCH  59  82
ENDBRANCH  33  34
ENDBRANCH  26  28
ENDBRANCH  25  26
ENDBRANCH  24  25
ENDBRANCH  23  24
ENDBRANCH   1  23
TORSDOF 16
ENDMDL
MODEL 3
REMARK VINA RESULT:     -11.4      4.637     10.494
REMARK SMILES Cc1nn(C)c(C)c1C(=O)N1CC[C@H](C(=O)OCCOCCOC(=O)c2ccc(-c3c4nc(c(-c5c(F)c(F)c(F)c(F)c5F)c5ccc([nH]5)c(-c5c(F)c(F)c(F)c(F)c5F)c5nc(c(-c6c(F)c(F)c(F)c(F)c6F)c6ccc3[nH]6)C=C5)C=C4)cc2)[C@@H]1C
REMARK SMILES IDX 20 1 19 2 18 3 17 4 15 5 16 6 14 7 11 8 12 9 89 10 13 11
REMARK SMILES IDX 90 12 9 13 10 14 8 15 1 16 2 17 3 18 4 19 6 20 5 21 7 22
REMARK SMILES IDX 21 23 22 24 23 25 24 26 25 27 26 28 27 29 88 30 28 31 87 32
REMARK SMILES IDX 29 33 30 34 31 35 81 36 32 37 86 38 80 39 82 40 33 41 85 42
REMARK SMILES IDX 79 43 78 44 34 46 66 47 46 48 65 49 47 50 50 51 64 52 83 53
REMARK SMILES IDX 48 54 49 55 63 57 84 58 51 59 35 60 36 61 44 62 37 63 38 64
REMARK SMILES IDX 42 65 45 66 39 67 40 68 43 69 41 70 67 71 68 72 76 73 69 74
REMARK SMILES IDX 70 75 74 76 77 77 71 78 72 79 75 80 73 81 52 82 53 83 61 84
REMARK SMILES IDX 54 85 55 86 59 87 62 88 56 89 57 90 60 91 58 92
REMARK H PARENT 82 45 50 56
REMARK Flexibility Score: inf
ROOT
ATOM      1  O   UNL A   1      32.165  30.761  26.830  1.00  0.00    -0.374 OA
ENDROOT
BRANCH   1   2
ATOM      2  C   UNL A   1      32.338  29.987  25.652  1.00  0.00     0.202 C 
BRANCH   2   3
ATOM      3  C   UNL A   1      31.128  29.297  25.027  1.00  0.00     0.261 C 
BRANCH   3   4
ATOM      4  O   UNL A   1      31.199  29.232  23.592  1.00  0.00    -0.463 OA
BRANCH   4   5
ATOM      5  C   UNL A   1      30.951  28.005  23.052  1.00  0.00     0.311 C 
ATOM      6  O   UNL A   1      30.274  27.805  22.054  1.00  0.00    -0.252 OA
BRANCH   5   7
ATOM      7  C   UNL A   1      31.551  26.910  23.906  1.00  0.00     0.123 C 
ATOM      8  N   UNL A   1      32.484  24.941  22.948  1.00  0.00    -0.335 N 
ATOM      9  C   UNL A   1      31.056  24.872  22.755  1.00  0.00     0.121 C 
ATOM     10  C   UNL A   1      32.879  26.263  23.435  1.00  0.00     0.096 C 
ATOM     11  C   UNL A   1      30.546  25.742  23.893  1.00  0.00     0.039 C 
ATOM     12  C   UNL A   1      33.701  26.977  22.370  1.00  0.00     0.032 C 
BRANCH   8  13
ATOM     13  C   UNL A   1      33.294  23.894  22.556  1.00  0.00     0.257 C 
ATOM     14  O   UNL A   1      33.591  23.741  21.372  1.00  0.00    -0.269 OA
BRANCH  13  15
ATOM     15  C   UNL A   1      33.714  22.923  23.564  1.00  0.00     0.083 A 
ATOM     16  C   UNL A   1      35.412  24.228  25.120  1.00  0.00     0.069 C 
ATOM     17  C   UNL A   1      34.596  23.068  24.679  1.00  0.00     0.072 A 
ATOM     18  N   UNL A   1      34.597  21.981  25.458  1.00  0.00    -0.178 NA
ATOM     19  N   UNL A   1      33.646  21.195  24.931  1.00  0.00    -0.272 N 
ATOM     20  C   UNL A   1      33.156  21.658  23.740  1.00  0.00     0.048 A 
ATOM     21  C   UNL A   1      33.189  20.071  25.715  1.00  0.00     0.174 C 
ATOM     22  C   UNL A   1      32.152  20.916  22.931  1.00  0.00     0.067 C 
ENDBRANCH  13  15
ENDBRANCH   8  13
ENDBRANCH   5   7
ENDBRANCH   4   5
ENDBRANCH   3   4
ENDBRANCH   2   3
ENDBRANCH   1   2
BRANCH   1  23
ATOM     23  C   UNL A   1      31.432  31.975  26.770  1.00  0.00     0.202 C 
BRANCH  23  24
ATOM     24  C   UNL A   1      32.151  33.322  26.959  1.00  0.00     0.261 C 
BRANCH  24  25
ATOM     25  O   UNL A   1      32.948  33.438  28.122  1.00  0.00    -0.460 OA
BRANCH  25  26
ATOM     26  C   UNL A   1      34.070  34.173  27.975  1.00  0.00     0.338 C 
ATOM     27  O   UNL A   1      34.194  35.298  27.535  1.00  0.00    -0.246 OA
BRANCH  26  28
ATOM     28  C   UNL A   1      35.117  33.364  28.603  1.00  0.00     0.060 A 
ATOM     29  C   UNL A   1      34.781  32.092  29.074  1.00  0.00     0.016 A 
ATOM     30  C   UNL A   1      36.436  33.827  28.605  1.00  0.00     0.016 A 
ATOM     31  C   UNL A   1      35.783  31.270  29.573  1.00  0.00     0.010 A 
ATOM     32  C   UNL A   1      37.436  33.007  29.108  1.00  0.00     0.010 A 
ATOM     33  C   UNL A   1      37.105  31.738  29.610  1.00  0.00    -0.014 A 
BRANCH  33  34
ATOM     34  C   UNL A   1      38.142  30.962  30.311  1.00  0.00     0.031 A 
ATOM     35  C   UNL A   1      38.374  31.249  31.761  1.00  0.00     0.074 A 
ATOM     36  C   UNL A   1      38.866  30.050  29.645  1.00  0.00     0.049 A 
ATOM     37  N   UNL A   1      39.268  30.754  32.572  1.00  0.00    -0.248 NA
ATOM     38  C   UNL A   1      37.480  32.243  32.378  1.00  0.00     0.031 C 
ATOM     39  C   UNL A   1      38.685  29.693  28.240  1.00  0.00     0.029 A 
ATOM     40  N   UNL A   1      39.909  29.269  30.064  1.00  0.00    -0.354 N 
ATOM     41  C   UNL A   1      39.052  31.381  33.791  1.00  0.00     0.074 A 
ATOM     42  C   UNL A   1      37.966  32.317  33.606  1.00  0.00     0.031 C 
ATOM     43  C   UNL A   1      39.591  28.756  27.910  1.00  0.00     0.029 A 
ATOM     44  C   UNL A   1      40.435  28.484  29.070  1.00  0.00     0.049 A 
ATOM     45  H   UNL A   1      40.247  29.269  30.989  1.00  0.00     0.167 HD
ATOM     46  C   UNL A   1      39.704  31.182  34.958  1.00  0.00     0.037 A 
ATOM     47  C   UNL A   1      41.498  27.658  29.103  1.00  0.00     0.037 A 
ATOM     48  C   UNL A   1      40.789  30.250  35.109  1.00  0.00     0.049 A 
ATOM     49  C   UNL A   1      42.266  27.523  30.390  1.00  0.00     0.074 A 
ATOM     50  C   UNL A   1      41.498  29.924  36.250  1.00  0.00     0.029 A 
ATOM     51  N   UNL A   1      41.336  29.507  34.069  1.00  0.00    -0.354 N 
ATOM     52  N   UNL A   1      42.027  28.071  31.559  1.00  0.00    -0.248 NA
ATOM     53  C   UNL A   1      43.456  26.664  30.363  1.00  0.00     0.031 C 
ATOM     54  C   UNL A   1      42.517  29.037  35.887  1.00  0.00     0.029 A 
ATOM     55  C   UNL A   1      42.408  28.764  34.531  1.00  0.00     0.049 A 
ATOM     56  H   UNL A   1      41.009  29.511  33.141  1.00  0.00     0.167 HD
ATOM     57  C   UNL A   1      43.022  27.613  32.409  1.00  0.00     0.074 A 
ATOM     58  C   UNL A   1      43.860  26.726  31.625  1.00  0.00     0.031 C 
ATOM     59  C   UNL A   1      43.230  27.898  33.720  1.00  0.00     0.037 A 
BRANCH  46  60
ATOM     60  C   UNL A   1      39.290  32.022  36.131  1.00  0.00     0.064 A 
ATOM     61  C   UNL A   1      39.894  33.257  36.412  1.00  0.00     0.173 A 
ATOM     62  C   UNL A   1      38.284  31.573  36.999  1.00  0.00     0.173 A 
ATOM     63  F   UNL A   1      40.875  33.724  35.625  1.00  0.00    -0.203 F 
ATOM     64  C   UNL A   1      39.534  33.991  37.540  1.00  0.00     0.198 A 
ATOM     65  C   UNL A   1      37.902  32.326  38.107  1.00  0.00     0.198 A 
ATOM     66  F   UNL A   1      37.673  30.399  36.780  1.00  0.00    -0.203 F 
ATOM     67  F   UNL A   1      40.172  35.135  37.825  1.00  0.00    -0.200 F 
ATOM     68  C   UNL A   1      38.536  33.527  38.383  1.00  0.00     0.200 A 
ATOM     69  F   UNL A   1      36.930  31.880  38.915  1.00  0.00    -0.200 F 
ATOM     70  F   UNL A   1      38.194  34.232  39.471  1.00  0.00    -0.200 F 
ENDBRANCH  46  60
BRANCH  47  71
ATOM     71  C   UNL A   1      41.885  26.903  27.884  1.00  0.00     0.064 A 
ATOM     72  C   UNL A   1      42.762  27.462  26.945  1.00  0.00     0.173 A 
ATOM     73  C   UNL A   1      41.411  25.605  27.641  1.00  0.00     0.173 A 
ATOM     74  F   UNL A   1      43.227  28.707  27.121  1.00  0.00    -0.203 F 
ATOM     75  C   UNL A   1      43.149  26.753  25.809  1.00  0.00     0.198 A 
ATOM     76  C   UNL A   1      41.819  24.886  26.519  1.00  0.00     0.198 A 
ATOM     77  F   UNL A   1      40.569  25.024  28.509  1.00  0.00    -0.203 F 
ATOM     78  F   UNL A   1      43.969  27.321  24.914  1.00  0.00    -0.200 F 
ATOM     79  C   UNL A   1      42.684  25.462  25.602  1.00  0.00     0.200 A 
ATOM     80  F   UNL A   1      41.379  23.635  26.332  1.00  0.00    -0.200 F 
ATOM     81  F   UNL A   1      43.068  24.776  24.518  1.00  0.00    -0.200 F 
ENDBRANCH  47  71
BRANCH  59  82
ATOM     82  C   UNL A   1      44.403  27.243  34.386  1.00  0.00     0.064 A 
ATOM     83  C   UNL A   1      45.653  27.875  34.452  1.00  0.00     0.173 A 
ATOM     84  C   UNL A   1      44.259  25.999  35.020  1.00  0.00     0.173 A 
ATOM     85  F   UNL A   1      45.845  29.057  33.846  1.00  0.00    -0.203 F 
ATOM     86  C   UNL A   1      46.722  27.279  35.115  1.00  0.00     0.198 A 
ATOM     87  C   UNL A   1      45.320  25.422  35.711  1.00  0.00     0.198 A 
ATOM     88  F   UNL A   1      43.082  25.357  34.991  1.00  0.00    -0.203 F 
ATOM     89  F   UNL A   1      47.918  27.882  35.131  1.00  0.00    -0.200 F 
ATOM     90  C   UNL A   1      46.551  26.059  35.753  1.00  0.00     0.200 A 
ATOM     91  F   UNL A   1      45.150  24.251  36.340  1.00  0.00    -0.200 F 
ATOM     92  F   UNL A   1      47.576  25.494  36.406  1.00  0.00    -0.200 F 
ENDBRANCH  59  82
ENDBRANCH  33  34
ENDBRANCH  26  28
ENDBRANCH  25  26
ENDBRANCH  24  25
ENDBRANCH  23  24
ENDBRANCH   1  23
TORSDOF 16
ENDMDL
