MODEL 1
REMARK VINA RESULT:     -11.2      0.000      0.000
REMARK SMILES O=C(COc1ccc(S(=O)(=O)N2CCC(O)CC2)cc1)OCCOCCOC(=O)c1ccc(-c2c3nc(c(-c4c(F)c(F)c(F)c(F)c4F)c4ccc([nH]4)c(-c4c(F)c(F)c(F)c(F)c4F)c4nc(c(-c5c(F)c(F)c(F)c(F)c5F)c5ccc2[nH]5)C=C4)C=C3)cc1
REMARK SMILES IDX 22 1 21 2 2 3 1 4 3 5 4 6 5 7 6 8 20 9 7 10 19 11 8 12 9 13
REMARK SMILES IDX 10 14 11 15 12 16 13 17 18 18 14 19 17 20 15 21 16 22 23 24
REMARK SMILES IDX 24 25 25 26 26 27 27 28 28 29 29 30 30 31 31 32 92 33 32 34
REMARK SMILES IDX 91 35 33 36 34 37 35 38 85 39 36 40 90 41 84 42 86 43 37 44
REMARK SMILES IDX 89 45 83 46 82 47 38 49 70 50 50 51 69 52 51 53 54 54 68 55
REMARK SMILES IDX 87 56 52 57 53 58 67 60 88 61 55 62 39 63 40 64 48 65 41 66
REMARK SMILES IDX 42 67 46 68 49 69 43 70 44 71 47 72 45 73 71 74 72 75 80 76
REMARK SMILES IDX 73 77 74 78 78 79 81 80 75 81 76 82 79 83 77 84 56 85 57 86
REMARK SMILES IDX 65 87 58 88 59 89 63 90 66 91 60 92 61 93 64 94 62 95
REMARK H PARENT 16 23 86 48 54 59
REMARK Flexibility Score: inf
ROOT
ATOM      1  C   UNL A   1      33.252  35.162  29.389  1.00  0.00     0.261 C 
ENDROOT
BRANCH   1   2
ATOM      2  O   UNL A   1      33.676  33.792  29.471  1.00  0.00    -0.461 OA
BRANCH   2   3
ATOM      3  C   UNL A   1      34.289  33.132  28.456  1.00  0.00     0.344 C 
ATOM      4  O   UNL A   1      35.114  33.723  27.759  1.00  0.00    -0.248 OA
BRANCH   3   5
ATOM      5  C   UNL A   1      33.946  31.662  28.206  1.00  0.00     0.351 C 
BRANCH   5   6
ATOM      6  O   UNL A   1      34.591  30.925  27.173  1.00  0.00    -0.482 OA
BRANCH   6   7
ATOM      7  C   UNL A   1      33.831  29.893  26.705  1.00  0.00     0.120 A 
ATOM      8  C   UNL A   1      34.390  28.619  26.719  1.00  0.00     0.048 A 
ATOM      9  C   UNL A   1      32.559  30.088  26.179  1.00  0.00     0.048 A 
ATOM     10  C   UNL A   1      33.616  27.522  26.329  1.00  0.00     0.025 A 
ATOM     11  C   UNL A   1      31.785  29.002  25.803  1.00  0.00     0.025 A 
ATOM     12  C   UNL A   1      32.295  27.713  25.903  1.00  0.00     0.082 A 
BRANCH  12  13
ATOM     13  S   UNL A   1      31.285  26.278  25.587  1.00  0.00     0.243 S 
ATOM     14  O   UNL A   1      30.992  25.689  26.876  1.00  0.00    -0.207 OA
ATOM     15  O   UNL A   1      30.232  26.725  24.700  1.00  0.00    -0.207 OA
BRANCH  13  16
ATOM     16  N   UNL A   1      32.252  25.182  24.691  1.00  0.00    -0.198 NA
ATOM     17  C   UNL A   1      32.638  25.583  23.314  1.00  0.00     0.105 C 
ATOM     18  C   UNL A   1      32.005  23.743  24.934  1.00  0.00     0.105 C 
ATOM     19  C   UNL A   1      33.742  24.697  22.756  1.00  0.00     0.048 C 
ATOM     20  C   UNL A   1      33.113  22.876  24.350  1.00  0.00     0.048 C 
ATOM     21  C   UNL A   1      33.411  23.219  22.894  1.00  0.00     0.117 C 
BRANCH  21  22
ATOM     22  O   UNL A   1      32.339  22.880  22.016  1.00  0.00    -0.393 OA
ATOM     23  H   UNL A   1      32.560  22.067  21.535  1.00  0.00     0.210 HD
ENDBRANCH  21  22
ENDBRANCH  13  16
ENDBRANCH  12  13
ENDBRANCH   6   7
ENDBRANCH   5   6
ENDBRANCH   3   5
ENDBRANCH   2   3
ENDBRANCH   1   2
BRANCH   1  24
ATOM     24  C   UNL A   1      33.434  35.903  30.705  1.00  0.00     0.202 C 
BRANCH  24  25
ATOM     25  O   UNL A   1      34.322  35.291  31.634  1.00  0.00    -0.374 OA
BRANCH  25  26
ATOM     26  C   UNL A   1      33.730  34.758  32.828  1.00  0.00     0.202 C 
BRANCH  26  27
ATOM     27  C   UNL A   1      34.038  33.290  33.139  1.00  0.00     0.261 C 
BRANCH  27  28
ATOM     28  O   UNL A   1      35.161  32.821  32.371  1.00  0.00    -0.460 OA
BRANCH  28  29
ATOM     29  C   UNL A   1      36.208  32.369  33.101  1.00  0.00     0.338 C 
ATOM     30  O   UNL A   1      36.354  32.446  34.308  1.00  0.00    -0.246 OA
BRANCH  29  31
ATOM     31  C   UNL A   1      37.091  31.550  32.244  1.00  0.00     0.060 A 
ATOM     32  C   UNL A   1      38.003  30.700  32.888  1.00  0.00     0.016 A 
ATOM     33  C   UNL A   1      37.067  31.640  30.851  1.00  0.00     0.016 A 
ATOM     34  C   UNL A   1      38.946  29.997  32.144  1.00  0.00     0.010 A 
ATOM     35  C   UNL A   1      38.021  30.944  30.105  1.00  0.00     0.010 A 
ATOM     36  C   UNL A   1      38.994  30.162  30.754  1.00  0.00    -0.014 A 
BRANCH  36  37
ATOM     37  C   UNL A   1      40.187  29.697  30.012  1.00  0.00     0.031 A 
ATOM     38  C   UNL A   1      41.325  30.661  29.822  1.00  0.00     0.074 A 
ATOM     39  C   UNL A   1      40.268  28.440  29.544  1.00  0.00     0.049 A 
ATOM     40  N   UNL A   1      42.452  30.504  29.178  1.00  0.00    -0.248 NA
ATOM     41  C   UNL A   1      41.166  31.987  30.442  1.00  0.00     0.031 C 
ATOM     42  C   UNL A   1      39.244  27.411  29.709  1.00  0.00     0.029 A 
ATOM     43  N   UNL A   1      41.259  27.822  28.828  1.00  0.00    -0.354 N 
ATOM     44  C   UNL A   1      43.130  31.708  29.310  1.00  0.00     0.074 A 
ATOM     45  C   UNL A   1      42.279  32.598  30.068  1.00  0.00     0.031 C 
ATOM     46  C   UNL A   1      39.656  26.288  29.096  1.00  0.00     0.029 A 
ATOM     47  C   UNL A   1      40.956  26.531  28.474  1.00  0.00     0.049 A 
ATOM     48  H   UNL A   1      42.108  28.261  28.592  1.00  0.00     0.167 HD
ATOM     49  C   UNL A   1      44.358  32.038  28.845  1.00  0.00     0.037 A 
ATOM     50  C   UNL A   1      41.647  25.659  27.715  1.00  0.00     0.037 A 
ATOM     51  C   UNL A   1      45.199  31.148  28.091  1.00  0.00     0.049 A 
ATOM     52  C   UNL A   1      42.982  26.072  27.152  1.00  0.00     0.074 A 
ATOM     53  C   UNL A   1      46.467  31.374  27.589  1.00  0.00     0.029 A 
ATOM     54  N   UNL A   1      44.845  29.857  27.726  1.00  0.00    -0.354 N 
ATOM     55  N   UNL A   1      43.629  27.204  27.300  1.00  0.00    -0.248 NA
ATOM     56  C   UNL A   1      43.684  25.086  26.319  1.00  0.00     0.031 C 
ATOM     57  C   UNL A   1      46.862  30.236  26.878  1.00  0.00     0.029 A 
ATOM     58  C   UNL A   1      45.861  29.282  26.982  1.00  0.00     0.049 A 
ATOM     59  H   UNL A   1      43.998  29.415  27.962  1.00  0.00     0.167 HD
ATOM     60  C   UNL A   1      44.821  27.059  26.601  1.00  0.00     0.074 A 
ATOM     61  C   UNL A   1      44.813  25.723  26.041  1.00  0.00     0.031 C 
ATOM     62  C   UNL A   1      45.831  27.948  26.438  1.00  0.00     0.037 A 
BRANCH  49  63
ATOM     63  C   UNL A   1      44.848  33.431  29.118  1.00  0.00     0.064 A 
ATOM     64  C   UNL A   1      45.603  33.737  30.260  1.00  0.00     0.173 A 
ATOM     65  C   UNL A   1      44.570  34.469  28.216  1.00  0.00     0.173 A 
ATOM     66  F   UNL A   1      45.879  32.783  31.163  1.00  0.00    -0.203 F 
ATOM     67  C   UNL A   1      46.039  35.037  30.502  1.00  0.00     0.198 A 
ATOM     68  C   UNL A   1      45.032  35.762  28.448  1.00  0.00     0.198 A 
ATOM     69  F   UNL A   1      43.852  34.229  27.109  1.00  0.00    -0.203 F 
ATOM     70  F   UNL A   1      46.715  35.316  31.625  1.00  0.00    -0.200 F 
ATOM     71  C   UNL A   1      45.758  36.046  29.594  1.00  0.00     0.200 A 
ATOM     72  F   UNL A   1      44.767  36.734  27.564  1.00  0.00    -0.200 F 
ATOM     73  F   UNL A   1      46.181  37.297  29.827  1.00  0.00    -0.200 F 
ENDBRANCH  49  63
BRANCH  50  74
ATOM     74  C   UNL A   1      41.084  24.313  27.435  1.00  0.00     0.064 A 
ATOM     75  C   UNL A   1      41.605  23.168  28.051  1.00  0.00     0.173 A 
ATOM     76  C   UNL A   1      40.017  24.144  26.540  1.00  0.00     0.173 A 
ATOM     77  F   UNL A   1      42.642  23.275  28.895  1.00  0.00    -0.203 F 
ATOM     78  C   UNL A   1      41.090  21.902  27.772  1.00  0.00     0.198 A 
ATOM     79  C   UNL A   1      39.485  22.882  26.282  1.00  0.00     0.198 A 
ATOM     80  F   UNL A   1      39.483  25.208  25.922  1.00  0.00    -0.203 F 
ATOM     81  F   UNL A   1      41.634  20.820  28.345  1.00  0.00    -0.200 F 
ATOM     82  C   UNL A   1      40.027  21.762  26.894  1.00  0.00     0.200 A 
ATOM     83  F   UNL A   1      38.450  22.752  25.441  1.00  0.00    -0.200 F 
ATOM     84  F   UNL A   1      39.528  20.546  26.631  1.00  0.00    -0.200 F 
ENDBRANCH  50  74
BRANCH  62  85
ATOM     85  C   UNL A   1      47.024  27.496  25.646  1.00  0.00     0.064 A 
ATOM     86  C   UNL A   1      47.101  27.689  24.259  1.00  0.00     0.173 A 
ATOM     87  C   UNL A   1      48.120  26.905  26.292  1.00  0.00     0.173 A 
ATOM     88  F   UNL A   1      46.072  28.237  23.597  1.00  0.00    -0.203 F 
ATOM     89  C   UNL A   1      48.224  27.285  23.544  1.00  0.00     0.198 A 
ATOM     90  C   UNL A   1      49.254  26.530  25.577  1.00  0.00     0.198 A 
ATOM     91  F   UNL A   1      48.099  26.707  27.618  1.00  0.00    -0.203 F 
ATOM     92  F   UNL A   1      48.260  27.438  22.213  1.00  0.00    -0.200 F 
ATOM     93  C   UNL A   1      49.303  26.712  24.204  1.00  0.00     0.200 A 
ATOM     94  F   UNL A   1      50.300  25.989  26.218  1.00  0.00    -0.200 F 
ATOM     95  F   UNL A   1      50.386  26.333  23.514  1.00  0.00    -0.200 F 
ENDBRANCH  62  85
ENDBRANCH  36  37
ENDBRANCH  29  31
ENDBRANCH  28  29
ENDBRANCH  27  28
ENDBRANCH  26  27
ENDBRANCH  25  26
ENDBRANCH  24  25
ENDBRANCH   1  24
TORSDOF 19
ENDMDL
MODEL 2
REMARK VINA RESULT:     -11.1      1.403      2.121
REMARK SMILES O=C(COc1ccc(S(=O)(=O)N2CCC(O)CC2)cc1)OCCOCCOC(=O)c1ccc(-c2c3nc(c(-c4c(F)c(F)c(F)c(F)c4F)c4ccc([nH]4)c(-c4c(F)c(F)c(F)c(F)c4F)c4nc(c(-c5c(F)c(F)c(F)c(F)c5F)c5ccc2[nH]5)C=C4)C=C3)cc1
REMARK SMILES IDX 22 1 21 2 2 3 1 4 3 5 4 6 5 7 6 8 20 9 7 10 19 11 8 12 9 13
REMARK SMILES IDX 10 14 11 15 12 16 13 17 18 18 14 19 17 20 15 21 16 22 23 24
REMARK SMILES IDX 24 25 25 26 26 27 27 28 28 29 29 30 30 31 31 32 92 33 32 34
REMARK SMILES IDX 91 35 33 36 34 37 35 38 85 39 36 40 90 41 84 42 86 43 37 44
REMARK SMILES IDX 89 45 83 46 82 47 38 49 70 50 50 51 69 52 51 53 54 54 68 55
REMARK SMILES IDX 87 56 52 57 53 58 67 60 88 61 55 62 39 63 40 64 48 65 41 66
REMARK SMILES IDX 42 67 46 68 49 69 43 70 44 71 47 72 45 73 71 74 72 75 80 76
REMARK SMILES IDX 73 77 74 78 78 79 81 80 75 81 76 82 79 83 77 84 56 85 57 86
REMARK SMILES IDX 65 87 58 88 59 89 63 90 66 91 60 92 61 93 64 94 62 95
REMARK H PARENT 16 23 86 48 54 59
REMARK Flexibility Score: inf
ROOT
ATOM      1  C   UNL A   1      33.638  34.481  29.304  1.00  0.00     0.261 C 
ENDROOT
BRANCH   1   2
ATOM      2  O   UNL A   1      34.737  33.562  29.416  1.00  0.00    -0.461 OA
BRANCH   2   3
ATOM      3  C   UNL A   1      35.074  32.671  28.448  1.00  0.00     0.344 C 
ATOM      4  O   UNL A   1      35.879  32.999  27.577  1.00  0.00    -0.248 OA
BRANCH   3   5
ATOM      5  C   UNL A   1      34.451  31.274  28.470  1.00  0.00     0.351 C 
BRANCH   5   6
ATOM      6  O   UNL A   1      34.938  30.242  27.619  1.00  0.00    -0.482 OA
BRANCH   6   7
ATOM      7  C   UNL A   1      33.959  29.683  26.851  1.00  0.00     0.120 A 
ATOM      8  C   UNL A   1      34.323  29.169  25.610  1.00  0.00     0.048 A 
ATOM      9  C   UNL A   1      32.627  29.661  27.248  1.00  0.00     0.048 A 
ATOM     10  C   UNL A   1      33.369  28.512  24.828  1.00  0.00     0.025 A 
ATOM     11  C   UNL A   1      31.681  28.999  26.481  1.00  0.00     0.025 A 
ATOM     12  C   UNL A   1      32.050  28.396  25.285  1.00  0.00     0.082 A 
BRANCH  12  13
ATOM     13  S   UNL A   1      30.908  27.397  24.348  1.00  0.00     0.243 S 
ATOM     14  O   UNL A   1      31.619  26.957  23.167  1.00  0.00    -0.207 OA
ATOM     15  O   UNL A   1      30.344  26.453  25.290  1.00  0.00    -0.207 OA
BRANCH  13  16
ATOM     16  N   UNL A   1      29.630  28.432  23.864  1.00  0.00    -0.198 NA
ATOM     17  C   UNL A   1      28.456  27.804  23.206  1.00  0.00     0.105 C 
ATOM     18  C   UNL A   1      30.021  29.785  23.406  1.00  0.00     0.105 C 
ATOM     19  C   UNL A   1      27.276  28.759  23.124  1.00  0.00     0.048 C 
ATOM     20  C   UNL A   1      28.820  30.716  23.314  1.00  0.00     0.048 C 
ATOM     21  C   UNL A   1      27.668  30.102  22.526  1.00  0.00     0.117 C 
BRANCH  21  22
ATOM     22  O   UNL A   1      27.969  29.943  21.140  1.00  0.00    -0.393 OA
ATOM     23  H   UNL A   1      28.799  29.451  21.044  1.00  0.00     0.210 HD
ENDBRANCH  21  22
ENDBRANCH  13  16
ENDBRANCH  12  13
ENDBRANCH   6   7
ENDBRANCH   5   6
ENDBRANCH   3   5
ENDBRANCH   2   3
ENDBRANCH   1   2
BRANCH   1  24
ATOM     24  C   UNL A   1      33.634  35.514  30.421  1.00  0.00     0.202 C 
BRANCH  24  25
ATOM     25  O   UNL A   1      34.382  35.163  31.582  1.00  0.00    -0.374 OA
BRANCH  25  26
ATOM     26  C   UNL A   1      33.658  34.513  32.636  1.00  0.00     0.202 C 
BRANCH  26  27
ATOM     27  C   UNL A   1      34.404  33.404  33.385  1.00  0.00     0.261 C 
BRANCH  27  28
ATOM     28  O   UNL A   1      35.467  32.860  32.584  1.00  0.00    -0.460 OA
BRANCH  28  29
ATOM     29  C   UNL A   1      36.501  32.332  33.281  1.00  0.00     0.338 C 
ATOM     30  O   UNL A   1      36.647  32.325  34.491  1.00  0.00    -0.246 OA
BRANCH  29  31
ATOM     31  C   UNL A   1      37.361  31.547  32.372  1.00  0.00     0.060 A 
ATOM     32  C   UNL A   1      38.276  30.659  32.959  1.00  0.00     0.016 A 
ATOM     33  C   UNL A   1      37.314  31.701  30.985  1.00  0.00     0.016 A 
ATOM     34  C   UNL A   1      39.199  29.984  32.167  1.00  0.00     0.010 A 
ATOM     35  C   UNL A   1      38.249  31.033  30.192  1.00  0.00     0.010 A 
ATOM     36  C   UNL A   1      39.225  30.214  30.786  1.00  0.00    -0.014 A 
BRANCH  36  37
ATOM     37  C   UNL A   1      40.401  29.773  30.002  1.00  0.00     0.031 A 
ATOM     38  C   UNL A   1      41.494  30.772  29.741  1.00  0.00     0.074 A 
ATOM     39  C   UNL A   1      40.506  28.510  29.558  1.00  0.00     0.049 A 
ATOM     40  N   UNL A   1      42.597  30.639  29.052  1.00  0.00    -0.248 NA
ATOM     41  C   UNL A   1      41.315  32.105  30.340  1.00  0.00     0.031 C 
ATOM     42  C   UNL A   1      39.528  27.449  29.790  1.00  0.00     0.029 A 
ATOM     43  N   UNL A   1      41.487  27.910  28.813  1.00  0.00    -0.354 N 
ATOM     44  C   UNL A   1      43.237  31.869  29.128  1.00  0.00     0.074 A 
ATOM     45  C   UNL A   1      42.388  32.746  29.904  1.00  0.00     0.031 C 
ATOM     46  C   UNL A   1      39.953  26.328  29.184  1.00  0.00     0.029 A 
ATOM     47  C   UNL A   1      41.216  26.601  28.500  1.00  0.00     0.049 A 
ATOM     48  H   UNL A   1      42.309  28.373  28.530  1.00  0.00     0.167 HD
ATOM     49  C   UNL A   1      44.431  32.231  28.603  1.00  0.00     0.037 A 
ATOM     50  C   UNL A   1      41.904  25.737  27.730  1.00  0.00     0.037 A 
ATOM     51  C   UNL A   1      45.270  31.354  27.832  1.00  0.00     0.049 A 
ATOM     52  C   UNL A   1      43.197  26.184  27.100  1.00  0.00     0.074 A 
ATOM     53  C   UNL A   1      46.506  31.612  27.270  1.00  0.00     0.029 A 
ATOM     54  N   UNL A   1      44.947  30.043  27.510  1.00  0.00    -0.354 N 
ATOM     55  N   UNL A   1      43.810  27.341  27.195  1.00  0.00    -0.248 NA
ATOM     56  C   UNL A   1      43.898  25.203  26.258  1.00  0.00     0.031 C 
ATOM     57  C   UNL A   1      46.911  30.472  26.567  1.00  0.00     0.029 A 
ATOM     58  C   UNL A   1      45.950  29.487  26.735  1.00  0.00     0.049 A 
ATOM     59  H   UNL A   1      44.127  29.577  27.793  1.00  0.00     0.167 HD
ATOM     60  C   UNL A   1      44.974  27.221  26.447  1.00  0.00     0.074 A 
ATOM     61  C   UNL A   1      44.990  25.873  25.917  1.00  0.00     0.031 C 
ATOM     62  C   UNL A   1      45.944  28.141  26.222  1.00  0.00     0.037 A 
BRANCH  49  63
ATOM     63  C   UNL A   1      44.882  33.646  28.824  1.00  0.00     0.064 A 
ATOM     64  C   UNL A   1      45.672  34.005  29.927  1.00  0.00     0.173 A 
ATOM     65  C   UNL A   1      44.530  34.652  27.912  1.00  0.00     0.173 A 
ATOM     66  F   UNL A   1      46.019  33.083  30.837  1.00  0.00    -0.203 F 
ATOM     67  C   UNL A   1      46.071  35.325  30.121  1.00  0.00     0.198 A 
ATOM     68  C   UNL A   1      44.955  35.966  28.096  1.00  0.00     0.198 A 
ATOM     69  F   UNL A   1      43.776  34.362  26.842  1.00  0.00    -0.203 F 
ATOM     70  F   UNL A   1      46.784  35.653  31.208  1.00  0.00    -0.200 F 
ATOM     71  C   UNL A   1      45.717  36.302  29.203  1.00  0.00     0.200 A 
ATOM     72  F   UNL A   1      44.619  36.907  27.203  1.00  0.00    -0.200 F 
ATOM     73  F   UNL A   1      46.105  37.571  29.391  1.00  0.00    -0.200 F 
ENDBRANCH  49  63
BRANCH  50  74
ATOM     74  C   UNL A   1      41.378  24.366  27.504  1.00  0.00     0.064 A 
ATOM     75  C   UNL A   1      42.000  23.248  28.075  1.00  0.00     0.173 A 
ATOM     76  C   UNL A   1      40.245  24.145  26.706  1.00  0.00     0.173 A 
ATOM     77  F   UNL A   1      43.101  23.406  28.824  1.00  0.00    -0.203 F 
ATOM     78  C   UNL A   1      41.518  21.960  27.846  1.00  0.00     0.198 A 
ATOM     79  C   UNL A   1      39.748  22.860  26.500  1.00  0.00     0.198 A 
ATOM     80  F   UNL A   1      39.613  25.181  26.135  1.00  0.00    -0.203 F 
ATOM     81  F   UNL A   1      42.157  20.906  28.371  1.00  0.00    -0.200 F 
ATOM     82  C   UNL A   1      40.390  21.768  27.065  1.00  0.00     0.200 A 
ATOM     83  F   UNL A   1      38.650  22.680  25.753  1.00  0.00    -0.200 F 
ATOM     84  F   UNL A   1      39.923  20.531  26.849  1.00  0.00    -0.200 F 
ENDBRANCH  50  74
BRANCH  62  85
ATOM     85  C   UNL A   1      47.117  27.712  25.388  1.00  0.00     0.064 A 
ATOM     86  C   UNL A   1      47.114  27.847  23.992  1.00  0.00     0.173 A 
ATOM     87  C   UNL A   1      48.273  27.204  25.999  1.00  0.00     0.173 A 
ATOM     88  F   UNL A   1      46.026  28.315  23.362  1.00  0.00    -0.203 F 
ATOM     89  C   UNL A   1      48.219  27.467  23.236  1.00  0.00     0.198 A 
ATOM     90  C   UNL A   1      49.387  26.853  25.242  1.00  0.00     0.198 A 
ATOM     91  F   UNL A   1      48.328  27.064  27.331  1.00  0.00    -0.203 F 
ATOM     92  F   UNL A   1      48.180  27.563  21.900  1.00  0.00    -0.200 F 
ATOM     93  C   UNL A   1      49.357  26.977  23.861  1.00  0.00     0.200 A 
ATOM     94  F   UNL A   1      50.489  26.393  25.849  1.00  0.00    -0.200 F 
ATOM     95  F   UNL A   1      50.422  26.620  23.132  1.00  0.00    -0.200 F 
ENDBRANCH  62  85
ENDBRANCH  36  37
ENDBRANCH  29  31
ENDBRANCH  28  29
ENDBRANCH  27  28
ENDBRANCH  26  27
ENDBRANCH  25  26
ENDBRANCH  24  25
ENDBRANCH   1  24
TORSDOF 19
ENDMDL
MODEL 3
REMARK VINA RESULT:     -11.0      1.422      2.889
REMARK SMILES O=C(COc1ccc(S(=O)(=O)N2CCC(O)CC2)cc1)OCCOCCOC(=O)c1ccc(-c2c3nc(c(-c4c(F)c(F)c(F)c(F)c4F)c4ccc([nH]4)c(-c4c(F)c(F)c(F)c(F)c4F)c4nc(c(-c5c(F)c(F)c(F)c(F)c5F)c5ccc2[nH]5)C=C4)C=C3)cc1
REMARK SMILES IDX 22 1 21 2 2 3 1 4 3 5 4 6 5 7 6 8 20 9 7 10 19 11 8 12 9 13
REMARK SMILES IDX 10 14 11 15 12 16 13 17 18 18 14 19 17 20 15 21 16 22 23 24
REMARK SMILES IDX 24 25 25 26 26 27 27 28 28 29 29 30 30 31 31 32 92 33 32 34
REMARK SMILES IDX 91 35 33 36 34 37 35 38 85 39 36 40 90 41 84 42 86 43 37 44
REMARK SMILES IDX 89 45 83 46 82 47 38 49 70 50 50 51 69 52 51 53 54 54 68 55
REMARK SMILES IDX 87 56 52 57 53 58 67 60 88 61 55 62 39 63 40 64 48 65 41 66
REMARK SMILES IDX 42 67 46 68 49 69 43 70 44 71 47 72 45 73 71 74 72 75 80 76
REMARK SMILES IDX 73 77 74 78 78 79 81 80 75 81 76 82 79 83 77 84 56 85 57 86
REMARK SMILES IDX 65 87 58 88 59 89 63 90 66 91 60 92 61 93 64 94 62 95
REMARK H PARENT 16 23 86 48 54 59
REMARK Flexibility Score: inf
ROOT
ATOM      1  C   UNL A   1      33.338  34.271  29.102  1.00  0.00     0.261 C 
ENDROOT
BRANCH   1   2
ATOM      2  O   UNL A   1      34.253  33.183  29.312  1.00  0.00    -0.461 OA
BRANCH   2   3
ATOM      3  C   UNL A   1      34.775  32.433  28.308  1.00  0.00     0.344 C 
ATOM      4  O   UNL A   1      35.942  32.615  27.960  1.00  0.00    -0.248 OA
BRANCH   3   5
ATOM      5  C   UNL A   1      33.901  31.372  27.637  1.00  0.00     0.351 C 
BRANCH   5   6
ATOM      6  O   UNL A   1      34.305  30.007  27.602  1.00  0.00    -0.482 OA
BRANCH   6   7
ATOM      7  C   UNL A   1      33.528  29.245  26.779  1.00  0.00     0.120 A 
ATOM      8  C   UNL A   1      32.343  28.733  27.298  1.00  0.00     0.048 A 
ATOM      9  C   UNL A   1      33.909  28.934  25.479  1.00  0.00     0.048 A 
ATOM     10  C   UNL A   1      31.476  28.019  26.465  1.00  0.00     0.025 A 
ATOM     11  C   UNL A   1      33.047  28.237  24.647  1.00  0.00     0.025 A 
ATOM     12  C   UNL A   1      31.816  27.803  25.123  1.00  0.00     0.082 A 
BRANCH  12  13
ATOM     13  S   UNL A   1      30.609  27.050  24.049  1.00  0.00     0.243 S 
ATOM     14  O   UNL A   1      31.311  26.668  22.843  1.00  0.00    -0.207 OA
ATOM     15  O   UNL A   1      29.911  26.075  24.861  1.00  0.00    -0.207 OA
BRANCH  13  16
ATOM     16  N   UNL A   1      29.468  28.268  23.657  1.00  0.00    -0.198 NA
ATOM     17  C   UNL A   1      28.154  27.827  23.125  1.00  0.00     0.105 C 
ATOM     18  C   UNL A   1      30.022  29.536  23.129  1.00  0.00     0.105 C 
ATOM     19  C   UNL A   1      27.135  28.956  23.126  1.00  0.00     0.048 C 
ATOM     20  C   UNL A   1      28.978  30.645  23.122  1.00  0.00     0.048 C 
ATOM     21  C   UNL A   1      27.675  30.212  22.460  1.00  0.00     0.117 C 
BRANCH  21  22
ATOM     22  O   UNL A   1      27.814  29.991  21.057  1.00  0.00    -0.393 OA
ATOM     23  H   UNL A   1      26.990  29.622  20.705  1.00  0.00     0.210 HD
ENDBRANCH  21  22
ENDBRANCH  13  16
ENDBRANCH  12  13
ENDBRANCH   6   7
ENDBRANCH   5   6
ENDBRANCH   3   5
ENDBRANCH   2   3
ENDBRANCH   1   2
BRANCH   1  24
ATOM     24  C   UNL A   1      33.629  35.454  30.012  1.00  0.00     0.202 C 
BRANCH  24  25
ATOM     25  O   UNL A   1      34.384  35.155  31.182  1.00  0.00    -0.374 OA
BRANCH  25  26
ATOM     26  C   UNL A   1      33.658  34.595  32.285  1.00  0.00     0.202 C 
BRANCH  26  27
ATOM     27  C   UNL A   1      34.437  33.637  33.192  1.00  0.00     0.261 C 
BRANCH  27  28
ATOM     28  O   UNL A   1      35.434  32.914  32.449  1.00  0.00    -0.460 OA
BRANCH  28  29
ATOM     29  C   UNL A   1      36.404  32.336  33.198  1.00  0.00     0.338 C 
ATOM     30  O   UNL A   1      36.478  32.308  34.415  1.00  0.00    -0.246 OA
BRANCH  29  31
ATOM     31  C   UNL A   1      37.286  31.530  32.330  1.00  0.00     0.060 A 
ATOM     32  C   UNL A   1      38.247  30.725  32.959  1.00  0.00     0.016 A 
ATOM     33  C   UNL A   1      37.212  31.588  30.936  1.00  0.00     0.016 A 
ATOM     34  C   UNL A   1      39.189  30.039  32.199  1.00  0.00     0.010 A 
ATOM     35  C   UNL A   1      38.165  30.909  30.173  1.00  0.00     0.010 A 
ATOM     36  C   UNL A   1      39.185  30.175  30.805  1.00  0.00    -0.014 A 
BRANCH  36  37
ATOM     37  C   UNL A   1      40.368  29.734  30.033  1.00  0.00     0.031 A 
ATOM     38  C   UNL A   1      41.472  30.727  29.798  1.00  0.00     0.074 A 
ATOM     39  C   UNL A   1      40.471  28.475  29.577  1.00  0.00     0.049 A 
ATOM     40  N   UNL A   1      42.584  30.594  29.123  1.00  0.00    -0.248 NA
ATOM     41  C   UNL A   1      41.294  32.056  30.408  1.00  0.00     0.031 C 
ATOM     42  C   UNL A   1      39.482  27.419  29.784  1.00  0.00     0.029 A 
ATOM     43  N   UNL A   1      41.458  27.876  28.839  1.00  0.00    -0.354 N 
ATOM     44  C   UNL A   1      43.231  31.819  29.221  1.00  0.00     0.074 A 
ATOM     45  C   UNL A   1      42.378  32.694  29.994  1.00  0.00     0.031 C 
ATOM     46  C   UNL A   1      39.907  26.301  29.171  1.00  0.00     0.029 A 
ATOM     47  C   UNL A   1      41.182  26.573  28.508  1.00  0.00     0.049 A 
ATOM     48  H   UNL A   1      42.287  28.336  28.572  1.00  0.00     0.167 HD
ATOM     49  C   UNL A   1      44.435  32.177  28.716  1.00  0.00     0.037 A 
ATOM     50  C   UNL A   1      41.874  25.711  27.739  1.00  0.00     0.037 A 
ATOM     51  C   UNL A   1      45.278  31.302  27.948  1.00  0.00     0.049 A 
ATOM     52  C   UNL A   1      43.179  26.156  27.132  1.00  0.00     0.074 A 
ATOM     53  C   UNL A   1      46.524  31.557  27.405  1.00  0.00     0.029 A 
ATOM     54  N   UNL A   1      44.951  29.997  27.608  1.00  0.00    -0.354 N 
ATOM     55  N   UNL A   1      43.798  27.307  27.248  1.00  0.00    -0.248 NA
ATOM     56  C   UNL A   1      43.884  25.179  26.289  1.00  0.00     0.031 C 
ATOM     57  C   UNL A   1      46.930  30.422  26.696  1.00  0.00     0.029 A 
ATOM     58  C   UNL A   1      45.960  29.442  26.840  1.00  0.00     0.049 A 
ATOM     59  H   UNL A   1      44.124  29.534  27.874  1.00  0.00     0.167 HD
ATOM     60  C   UNL A   1      44.973  27.186  26.515  1.00  0.00     0.074 A 
ATOM     61  C   UNL A   1      44.986  25.844  25.970  1.00  0.00     0.031 C 
ATOM     62  C   UNL A   1      45.952  28.102  26.312  1.00  0.00     0.037 A 
BRANCH  49  63
ATOM     63  C   UNL A   1      44.894  33.586  28.959  1.00  0.00     0.064 A 
ATOM     64  C   UNL A   1      44.557  34.633  28.087  1.00  0.00     0.173 A 
ATOM     65  C   UNL A   1      45.669  33.894  30.087  1.00  0.00     0.173 A 
ATOM     66  F   UNL A   1      43.833  34.386  26.984  1.00  0.00    -0.203 F 
ATOM     67  C   UNL A   1      45.001  35.931  28.322  1.00  0.00     0.198 A 
ATOM     68  C   UNL A   1      46.088  35.199  30.333  1.00  0.00     0.198 A 
ATOM     69  F   UNL A   1      46.020  32.931  30.951  1.00  0.00    -0.203 F 
ATOM     70  F   UNL A   1      44.709  36.905  27.449  1.00  0.00    -0.200 F 
ATOM     71  C   UNL A   1      45.761  36.214  29.447  1.00  0.00     0.200 A 
ATOM     72  F   UNL A   1      46.815  35.472  31.425  1.00  0.00    -0.200 F 
ATOM     73  F   UNL A   1      46.186  37.465  29.673  1.00  0.00    -0.200 F 
ENDBRANCH  49  63
BRANCH  50  74
ATOM     74  C   UNL A   1      41.341  24.347  27.491  1.00  0.00     0.064 A 
ATOM     75  C   UNL A   1      40.215  24.146  26.683  1.00  0.00     0.173 A 
ATOM     76  C   UNL A   1      41.945  23.217  28.061  1.00  0.00     0.173 A 
ATOM     77  F   UNL A   1      39.587  25.197  26.136  1.00  0.00    -0.203 F 
ATOM     78  C   UNL A   1      39.703  22.867  26.466  1.00  0.00     0.198 A 
ATOM     79  C   UNL A   1      41.450  21.936  27.822  1.00  0.00     0.198 A 
ATOM     80  F   UNL A   1      43.025  23.355  28.844  1.00  0.00    -0.203 F 
ATOM     81  F   UNL A   1      38.601  22.707  25.722  1.00  0.00    -0.200 F 
ATOM     82  C   UNL A   1      40.325  21.764  27.030  1.00  0.00     0.200 A 
ATOM     83  F   UNL A   1      42.061  20.872  28.360  1.00  0.00    -0.200 F 
ATOM     84  F   UNL A   1      39.837  20.534  26.816  1.00  0.00    -0.200 F 
ENDBRANCH  50  74
BRANCH  62  85
ATOM     85  C   UNL A   1      47.133  27.673  25.490  1.00  0.00     0.064 A 
ATOM     86  C   UNL A   1      48.246  27.050  26.071  1.00  0.00     0.173 A 
ATOM     87  C   UNL A   1      47.128  27.849  24.098  1.00  0.00     0.173 A 
ATOM     88  F   UNL A   1      48.303  26.874  27.400  1.00  0.00    -0.203 F 
ATOM     89  C   UNL A   1      49.323  26.638  25.291  1.00  0.00     0.198 A 
ATOM     90  C   UNL A   1      48.193  27.409  23.318  1.00  0.00     0.198 A 
ATOM     91  F   UNL A   1      46.083  28.432  23.493  1.00  0.00    -0.203 F 
ATOM     92  F   UNL A   1      50.395  26.084  25.872  1.00  0.00    -0.200 F 
ATOM     93  C   UNL A   1      49.292  26.811  23.915  1.00  0.00     0.200 A 
ATOM     94  F   UNL A   1      48.156  27.565  21.987  1.00  0.00    -0.200 F 
ATOM     95  F   UNL A   1      50.325  26.406  23.165  1.00  0.00    -0.200 F 
ENDBRANCH  62  85
ENDBRANCH  36  37
ENDBRANCH  29  31
ENDBRANCH  28  29
ENDBRANCH  27  28
ENDBRANCH  26  27
ENDBRANCH  25  26
ENDBRANCH  24  25
ENDBRANCH   1  24
TORSDOF 19
ENDMDL
