MODEL 1
REMARK VINA RESULT:     -11.0      0.000      0.000
REMARK SMILES CCc1cc(C(=O)N2CCO[C@@H](CC(=O)OCCOCCOC(=O)c3ccc(-c4c5nc(c(-c6c(F)c(F)c(F)c(F)c6F)c6ccc([nH]6)c(-c6c(F)c(F)c(F)c(F)c6F)c6nc(c(-c7c(F)c(F)c(F)c(F)c7F)c7ccc4[nH]7)C=C6)C=C5)cc3)C2)sc1C
REMARK SMILES IDX 18 1 17 2 16 3 14 4 15 5 13 6 12 7 8 8 9 9 88 10 10 11 11 12
REMARK SMILES IDX 6 13 7 14 5 15 3 16 4 17 90 18 89 19 91 20 2 21 1 22 19 23
REMARK SMILES IDX 20 24 21 25 22 26 23 27 24 28 25 29 26 30 87 31 27 32 86 33
REMARK SMILES IDX 28 34 29 35 30 36 80 37 31 38 85 39 79 40 81 41 32 42 84 43
REMARK SMILES IDX 78 44 77 45 33 47 65 48 45 49 64 50 46 51 49 52 63 53 82 54
REMARK SMILES IDX 47 55 48 56 62 58 83 59 50 60 34 61 35 62 43 63 36 64 37 65
REMARK SMILES IDX 41 66 44 67 38 68 39 69 42 70 40 71 66 72 67 73 75 74 68 75
REMARK SMILES IDX 69 76 73 77 76 78 70 79 71 80 74 81 72 82 51 83 52 84 60 85
REMARK SMILES IDX 53 86 54 87 58 88 61 89 55 90 56 91 59 92 57 93
REMARK H PARENT 81 46 49 57
REMARK Flexibility Score: inf
ROOT
ATOM      1  C   UNL A   1      30.790  29.117  23.902  1.00  0.00     0.202 C 
ENDROOT
BRANCH   1   2
ATOM      2  C   UNL A   1      31.110  28.794  22.442  1.00  0.00     0.261 C 
BRANCH   2   3
ATOM      3  O   UNL A   1      30.741  27.438  22.104  1.00  0.00    -0.463 OA
BRANCH   3   4
ATOM      4  C   UNL A   1      31.707  26.500  22.272  1.00  0.00     0.308 C 
ATOM      5  O   UNL A   1      32.911  26.710  22.194  1.00  0.00    -0.252 OA
BRANCH   4   6
ATOM      6  C   UNL A   1      31.134  25.126  22.494  1.00  0.00     0.156 C 
BRANCH   6   7
ATOM      7  C   UNL A   1      30.998  24.673  23.948  1.00  0.00     0.148 C 
ATOM      8  N   UNL A   1      32.207  24.045  26.022  1.00  0.00    -0.333 N 
ATOM      9  C   UNL A   1      31.637  25.206  26.700  1.00  0.00     0.148 C 
ATOM     10  C   UNL A   1      32.336  24.202  24.569  1.00  0.00     0.152 C 
ATOM     11  C   UNL A   1      30.301  25.563  26.063  1.00  0.00     0.182 C 
ATOM     12  O   UNL A   1      30.477  25.823  24.665  1.00  0.00    -0.374 OA
BRANCH   8  13
ATOM     13  C   UNL A   1      32.956  23.076  26.686  1.00  0.00     0.264 C 
ATOM     14  O   UNL A   1      32.495  22.544  27.696  1.00  0.00    -0.268 OA
BRANCH  13  15
ATOM     15  C   UNL A   1      34.313  22.822  26.196  1.00  0.00     0.093 A 
ATOM     16  C   UNL A   1      36.621  23.003  25.706  1.00  0.00    -0.034 A 
ATOM     17  C   UNL A   1      35.430  23.638  26.202  1.00  0.00     0.029 A 
ATOM     18  C   UNL A   1      36.370  21.675  25.403  1.00  0.00     0.005 A 
ATOM     19  S   UNL A   1      34.719  21.267  25.604  1.00  0.00    -0.135 S 
ATOM     20  C   UNL A   1      37.323  20.618  24.944  1.00  0.00     0.056 C 
BRANCH  16  21
ATOM     21  C   UNL A   1      37.948  23.709  25.609  1.00  0.00     0.033 C 
ATOM     22  C   UNL A   1      38.399  24.333  26.921  1.00  0.00     0.009 C 
ENDBRANCH  16  21
ENDBRANCH  13  15
ENDBRANCH   8  13
ENDBRANCH   6   7
ENDBRANCH   4   6
ENDBRANCH   3   4
ENDBRANCH   2   3
ENDBRANCH   1   2
BRANCH   1  23
ATOM     23  O   UNL A   1      31.775  28.711  24.854  1.00  0.00    -0.374 OA
BRANCH  23  24
ATOM     24  C   UNL A   1      32.704  29.701  25.285  1.00  0.00     0.202 C 
BRANCH  24  25
ATOM     25  C   UNL A   1      32.140  30.781  26.214  1.00  0.00     0.261 C 
BRANCH  25  26
ATOM     26  O   UNL A   1      32.801  30.790  27.491  1.00  0.00    -0.460 OA
BRANCH  26  27
ATOM     27  C   UNL A   1      33.595  31.866  27.711  1.00  0.00     0.338 C 
ATOM     28  O   UNL A   1      33.240  33.034  27.811  1.00  0.00    -0.246 OA
BRANCH  27  29
ATOM     29  C   UNL A   1      34.982  31.446  27.983  1.00  0.00     0.060 A 
ATOM     30  C   UNL A   1      35.241  30.075  28.092  1.00  0.00     0.016 A 
ATOM     31  C   UNL A   1      36.001  32.370  28.206  1.00  0.00     0.016 A 
ATOM     32  C   UNL A   1      36.499  29.633  28.497  1.00  0.00     0.010 A 
ATOM     33  C   UNL A   1      37.273  31.927  28.588  1.00  0.00     0.010 A 
ATOM     34  C   UNL A   1      37.510  30.558  28.795  1.00  0.00    -0.014 A 
BRANCH  34  35
ATOM     35  C   UNL A   1      38.721  30.093  29.519  1.00  0.00     0.031 A 
ATOM     36  C   UNL A   1      38.959  30.593  30.921  1.00  0.00     0.074 A 
ATOM     37  C   UNL A   1      39.549  29.179  28.982  1.00  0.00     0.049 A 
ATOM     38  N   UNL A   1      39.896  30.266  31.775  1.00  0.00    -0.248 NA
ATOM     39  C   UNL A   1      38.007  31.594  31.432  1.00  0.00     0.031 C 
ATOM     40  C   UNL A   1      39.422  28.603  27.646  1.00  0.00     0.029 A 
ATOM     41  N   UNL A   1      40.659  28.565  29.510  1.00  0.00    -0.354 N 
ATOM     42  C   UNL A   1      39.642  31.012  32.919  1.00  0.00     0.074 A 
ATOM     43  C   UNL A   1      38.494  31.846  32.638  1.00  0.00     0.031 C 
ATOM     44  C   UNL A   1      40.409  27.709  27.461  1.00  0.00     0.029 A 
ATOM     45  C   UNL A   1      41.247  27.663  28.659  1.00  0.00     0.049 A 
ATOM     46  H   UNL A   1      41.001  28.755  30.414  1.00  0.00     0.167 HD
ATOM     47  C   UNL A   1      40.287  30.990  34.108  1.00  0.00     0.037 A 
ATOM     48  C   UNL A   1      42.339  26.891  28.830  1.00  0.00     0.037 A 
ATOM     49  C   UNL A   1      41.425  30.161  34.399  1.00  0.00     0.049 A 
ATOM     50  C   UNL A   1      43.076  26.930  30.146  1.00  0.00     0.074 A 
ATOM     51  C   UNL A   1      42.142  30.060  35.578  1.00  0.00     0.029 A 
ATOM     52  N   UNL A   1      42.013  29.288  33.496  1.00  0.00    -0.354 N 
ATOM     53  N   UNL A   1      42.800  27.607  31.234  1.00  0.00    -0.248 NA
ATOM     54  C   UNL A   1      44.275  26.085  30.256  1.00  0.00     0.031 C 
ATOM     55  C   UNL A   1      43.189  29.154  35.377  1.00  0.00     0.029 A 
ATOM     56  C   UNL A   1      43.096  28.659  34.087  1.00  0.00     0.049 A 
ATOM     57  H   UNL A   1      41.706  29.139  32.573  1.00  0.00     0.167 HD
ATOM     58  C   UNL A   1      43.769  27.251  32.162  1.00  0.00     0.074 A 
ATOM     59  C   UNL A   1      44.630  26.282  31.517  1.00  0.00     0.031 C 
ATOM     60  C   UNL A   1      43.934  27.687  33.435  1.00  0.00     0.037 A 
BRANCH  47  61
ATOM     61  C   UNL A   1      39.776  31.895  35.189  1.00  0.00     0.064 A 
ATOM     62  C   UNL A   1      40.244  33.211  35.321  1.00  0.00     0.173 A 
ATOM     63  C   UNL A   1      38.783  31.457  36.078  1.00  0.00     0.173 A 
ATOM     64  F   UNL A   1      41.204  33.672  34.506  1.00  0.00    -0.203 F 
ATOM     65  C   UNL A   1      39.750  34.049  36.318  1.00  0.00     0.198 A 
ATOM     66  C   UNL A   1      38.274  32.306  37.056  1.00  0.00     0.198 A 
ATOM     67  F   UNL A   1      38.301  30.209  35.991  1.00  0.00    -0.203 F 
ATOM     68  F   UNL A   1      40.240  35.289  36.452  1.00  0.00    -0.200 F 
ATOM     69  C   UNL A   1      38.761  33.598  37.179  1.00  0.00     0.200 A 
ATOM     70  F   UNL A   1      37.311  31.873  37.881  1.00  0.00    -0.200 F 
ATOM     71  F   UNL A   1      38.281  34.409  38.132  1.00  0.00    -0.200 F 
ENDBRANCH  47  61
BRANCH  48  72
ATOM     72  C   UNL A   1      42.808  26.002  27.734  1.00  0.00     0.064 A 
ATOM     73  C   UNL A   1      43.758  26.443  26.802  1.00  0.00     0.173 A 
ATOM     74  C   UNL A   1      42.279  24.715  27.567  1.00  0.00     0.173 A 
ATOM     75  F   UNL A   1      44.273  27.677  26.902  1.00  0.00    -0.203 F 
ATOM     76  C   UNL A   1      44.140  25.639  25.729  1.00  0.00     0.198 A 
ATOM     77  C   UNL A   1      42.681  23.902  26.510  1.00  0.00     0.198 A 
ATOM     78  F   UNL A   1      41.363  24.248  28.428  1.00  0.00    -0.203 F 
ATOM     79  F   UNL A   1      45.006  26.107  24.820  1.00  0.00    -0.200 F 
ATOM     80  C   UNL A   1      43.604  24.369  25.585  1.00  0.00     0.200 A 
ATOM     81  F   UNL A   1      42.166  22.672  26.378  1.00  0.00    -0.200 F 
ATOM     82  F   UNL A   1      43.965  23.600  24.549  1.00  0.00    -0.200 F 
ENDBRANCH  48  72
BRANCH  60  83
ATOM     83  C   UNL A   1      45.066  27.098  34.226  1.00  0.00     0.064 A 
ATOM     84  C   UNL A   1      44.907  25.922  34.973  1.00  0.00     0.173 A 
ATOM     85  C   UNL A   1      46.335  27.696  34.204  1.00  0.00     0.173 A 
ATOM     86  F   UNL A   1      43.710  25.319  35.036  1.00  0.00    -0.203 F 
ATOM     87  C   UNL A   1      45.970  25.382  35.692  1.00  0.00     0.198 A 
ATOM     88  C   UNL A   1      47.402  27.138  34.900  1.00  0.00     0.198 A 
ATOM     89  F   UNL A   1      46.542  28.817  33.497  1.00  0.00    -0.203 F 
ATOM     90  F   UNL A   1      45.782  24.283  36.437  1.00  0.00    -0.200 F 
ATOM     91  C   UNL A   1      47.217  25.986  35.650  1.00  0.00     0.200 A 
ATOM     92  F   UNL A   1      48.611  27.715  34.848  1.00  0.00    -0.200 F 
ATOM     93  F   UNL A   1      48.240  25.462  36.339  1.00  0.00    -0.200 F 
ENDBRANCH  60  83
ENDBRANCH  34  35
ENDBRANCH  27  29
ENDBRANCH  26  27
ENDBRANCH  25  26
ENDBRANCH  24  25
ENDBRANCH  23  24
ENDBRANCH   1  23
TORSDOF 18
ENDMDL
MODEL 2
REMARK VINA RESULT:     -11.0      4.224      6.888
REMARK SMILES CCc1cc(C(=O)N2CCO[C@@H](CC(=O)OCCOCCOC(=O)c3ccc(-c4c5nc(c(-c6c(F)c(F)c(F)c(F)c6F)c6ccc([nH]6)c(-c6c(F)c(F)c(F)c(F)c6F)c6nc(c(-c7c(F)c(F)c(F)c(F)c7F)c7ccc4[nH]7)C=C6)C=C5)cc3)C2)sc1C
REMARK SMILES IDX 18 1 17 2 16 3 14 4 15 5 13 6 12 7 8 8 9 9 88 10 10 11 11 12
REMARK SMILES IDX 6 13 7 14 5 15 3 16 4 17 90 18 89 19 91 20 2 21 1 22 19 23
REMARK SMILES IDX 20 24 21 25 22 26 23 27 24 28 25 29 26 30 87 31 27 32 86 33
REMARK SMILES IDX 28 34 29 35 30 36 80 37 31 38 85 39 79 40 81 41 32 42 84 43
REMARK SMILES IDX 78 44 77 45 33 47 65 48 45 49 64 50 46 51 49 52 63 53 82 54
REMARK SMILES IDX 47 55 48 56 62 58 83 59 50 60 34 61 35 62 43 63 36 64 37 65
REMARK SMILES IDX 41 66 44 67 38 68 39 69 42 70 40 71 66 72 67 73 75 74 68 75
REMARK SMILES IDX 69 76 73 77 76 78 70 79 71 80 74 81 72 82 51 83 52 84 60 85
REMARK SMILES IDX 53 86 54 87 58 88 61 89 55 90 56 91 59 92 57 93
REMARK H PARENT 81 46 49 57
REMARK Flexibility Score: inf
ROOT
ATOM      1  C   UNL A   1      34.183  34.001  29.302  1.00  0.00     0.202 C 
ENDROOT
BRANCH   1   2
ATOM      2  C   UNL A   1      35.008  33.163  28.325  1.00  0.00     0.261 C 
BRANCH   2   3
ATOM      3  O   UNL A   1      34.164  32.379  27.453  1.00  0.00    -0.463 OA
BRANCH   3   4
ATOM      4  C   UNL A   1      34.185  31.037  27.654  1.00  0.00     0.308 C 
ATOM      5  O   UNL A   1      35.151  30.403  28.060  1.00  0.00    -0.252 OA
BRANCH   4   6
ATOM      6  C   UNL A   1      32.895  30.379  27.244  1.00  0.00     0.156 C 
BRANCH   6   7
ATOM      7  C   UNL A   1      33.016  29.139  26.358  1.00  0.00     0.148 C 
ATOM      8  N   UNL A   1      31.840  27.161  25.428  1.00  0.00    -0.333 N 
ATOM      9  C   UNL A   1      31.999  27.704  24.083  1.00  0.00     0.148 C 
ATOM     10  C   UNL A   1      31.809  28.177  26.486  1.00  0.00     0.152 C 
ATOM     11  C   UNL A   1      33.237  28.590  24.034  1.00  0.00     0.182 C 
ATOM     12  O   UNL A   1      33.128  29.642  25.000  1.00  0.00    -0.374 OA
BRANCH   8  13
ATOM     13  C   UNL A   1      31.332  25.887  25.672  1.00  0.00     0.264 C 
ATOM     14  O   UNL A   1      30.431  25.744  26.498  1.00  0.00    -0.268 OA
BRANCH  13  15
ATOM     15  C   UNL A   1      31.982  24.763  24.995  1.00  0.00     0.093 A 
ATOM     16  C   UNL A   1      33.496  23.050  24.383  1.00  0.00    -0.034 A 
ATOM     17  C   UNL A   1      33.239  24.215  25.184  1.00  0.00     0.029 A 
ATOM     18  C   UNL A   1      32.370  22.708  23.652  1.00  0.00     0.005 A 
ATOM     19  S   UNL A   1      31.102  23.841  23.851  1.00  0.00    -0.135 S 
ATOM     20  C   UNL A   1      32.151  21.531  22.756  1.00  0.00     0.056 C 
BRANCH  16  21
ATOM     21  C   UNL A   1      34.803  22.302  24.417  1.00  0.00     0.033 C 
ATOM     22  C   UNL A   1      35.258  21.941  25.824  1.00  0.00     0.009 C 
ENDBRANCH  16  21
ENDBRANCH  13  15
ENDBRANCH   8  13
ENDBRANCH   6   7
ENDBRANCH   4   6
ENDBRANCH   3   4
ENDBRANCH   2   3
ENDBRANCH   1   2
BRANCH   1  23
ATOM     23  O   UNL A   1      34.060  33.467  30.621  1.00  0.00    -0.374 OA
BRANCH  23  24
ATOM     24  C   UNL A   1      34.324  34.354  31.705  1.00  0.00     0.202 C 
BRANCH  24  25
ATOM     25  C   UNL A   1      34.652  33.687  33.045  1.00  0.00     0.261 C 
BRANCH  25  26
ATOM     26  O   UNL A   1      35.114  32.336  32.874  1.00  0.00    -0.460 OA
BRANCH  26  27
ATOM     27  C   UNL A   1      36.317  32.073  33.440  1.00  0.00     0.338 C 
ATOM     28  O   UNL A   1      36.659  32.320  34.591  1.00  0.00    -0.246 OA
BRANCH  27  29
ATOM     29  C   UNL A   1      37.163  31.281  32.528  1.00  0.00     0.060 A 
ATOM     30  C   UNL A   1      38.259  30.605  33.075  1.00  0.00     0.016 A 
ATOM     31  C   UNL A   1      36.943  31.258  31.152  1.00  0.00     0.016 A 
ATOM     32  C   UNL A   1      39.175  29.969  32.239  1.00  0.00     0.010 A 
ATOM     33  C   UNL A   1      37.848  30.598  30.312  1.00  0.00     0.010 A 
ATOM     34  C   UNL A   1      39.001  30.003  30.847  1.00  0.00    -0.014 A 
BRANCH  34  35
ATOM     35  C   UNL A   1      40.133  29.605  29.971  1.00  0.00     0.031 A 
ATOM     36  C   UNL A   1      41.227  30.609  29.706  1.00  0.00     0.074 A 
ATOM     37  C   UNL A   1      40.239  28.354  29.489  1.00  0.00     0.049 A 
ATOM     38  N   UNL A   1      42.348  30.465  29.045  1.00  0.00    -0.248 NA
ATOM     39  C   UNL A   1      41.033  31.956  30.269  1.00  0.00     0.031 C 
ATOM     40  C   UNL A   1      39.262  27.286  29.686  1.00  0.00     0.029 A 
ATOM     41  N   UNL A   1      41.231  27.769  28.740  1.00  0.00    -0.354 N 
ATOM     42  C   UNL A   1      42.991  31.695  29.119  1.00  0.00     0.074 A 
ATOM     43  C   UNL A   1      42.117  32.589  29.846  1.00  0.00     0.031 C 
ATOM     44  C   UNL A   1      39.709  26.170  29.084  1.00  0.00     0.029 A 
ATOM     45  C   UNL A   1      40.993  26.451  28.444  1.00  0.00     0.049 A 
ATOM     46  H   UNL A   1      42.037  28.251  28.444  1.00  0.00     0.167 HD
ATOM     47  C   UNL A   1      44.210  32.045  28.649  1.00  0.00     0.037 A 
ATOM     48  C   UNL A   1      41.732  25.572  27.736  1.00  0.00     0.037 A 
ATOM     49  C   UNL A   1      45.088  31.161  27.931  1.00  0.00     0.049 A 
ATOM     50  C   UNL A   1      43.061  26.006  27.171  1.00  0.00     0.074 A 
ATOM     51  C   UNL A   1      46.348  31.421  27.422  1.00  0.00     0.029 A 
ATOM     52  N   UNL A   1      44.793  29.843  27.619  1.00  0.00    -0.354 N 
ATOM     53  N   UNL A   1      43.677  27.158  27.285  1.00  0.00    -0.248 NA
ATOM     54  C   UNL A   1      43.802  25.009  26.385  1.00  0.00     0.031 C 
ATOM     55  C   UNL A   1      46.800  30.270  26.768  1.00  0.00     0.029 A 
ATOM     56  C   UNL A   1      45.841  29.282  26.907  1.00  0.00     0.049 A 
ATOM     57  H   UNL A   1      43.962  29.376  27.866  1.00  0.00     0.167 HD
ATOM     58  C   UNL A   1      44.883  27.015  26.612  1.00  0.00     0.074 A 
ATOM     59  C   UNL A   1      44.923  25.659  26.108  1.00  0.00     0.031 C 
ATOM     60  C   UNL A   1      45.870  27.926  26.426  1.00  0.00     0.037 A 
BRANCH  47  61
ATOM     61  C   UNL A   1      44.668  33.451  28.896  1.00  0.00     0.064 A 
ATOM     62  C   UNL A   1      45.372  33.796  30.060  1.00  0.00     0.173 A 
ATOM     63  C   UNL A   1      44.435  34.456  27.946  1.00  0.00     0.173 A 
ATOM     64  F   UNL A   1      45.606  32.874  31.006  1.00  0.00    -0.203 F 
ATOM     65  C   UNL A   1      45.807  35.101  30.272  1.00  0.00     0.198 A 
ATOM     66  C   UNL A   1      44.894  35.754  28.150  1.00  0.00     0.198 A 
ATOM     67  F   UNL A   1      43.769  34.177  26.816  1.00  0.00    -0.203 F 
ATOM     68  F   UNL A   1      46.443  35.418  31.409  1.00  0.00    -0.200 F 
ATOM     69  C   UNL A   1      45.575  36.077  29.314  1.00  0.00     0.200 A 
ATOM     70  F   UNL A   1      44.678  36.694  27.220  1.00  0.00    -0.200 F 
ATOM     71  F   UNL A   1      46.002  37.331  29.516  1.00  0.00    -0.200 F 
ENDBRANCH  47  61
BRANCH  48  72
ATOM     72  C   UNL A   1      41.244  24.184  27.521  1.00  0.00     0.064 A 
ATOM     73  C   UNL A   1      41.891  23.089  28.110  1.00  0.00     0.173 A 
ATOM     74  C   UNL A   1      40.153  23.921  26.680  1.00  0.00     0.173 A 
ATOM     75  F   UNL A   1      42.957  23.287  28.900  1.00  0.00    -0.203 F 
ATOM     76  C   UNL A   1      41.483  21.783  27.845  1.00  0.00     0.198 A 
ATOM     77  C   UNL A   1      39.729  22.617  26.437  1.00  0.00     0.198 A 
ATOM     78  F   UNL A   1      39.503  24.933  26.086  1.00  0.00    -0.203 F 
ATOM     79  F   UNL A   1      42.156  20.753  28.376  1.00  0.00    -0.200 F 
ATOM     80  C   UNL A   1      40.401  21.548  27.011  1.00  0.00     0.200 A 
ATOM     81  F   UNL A   1      38.678  22.394  25.636  1.00  0.00    -0.200 F 
ATOM     82  F   UNL A   1      40.014  20.292  26.751  1.00  0.00    -0.200 F 
ENDBRANCH  48  72
BRANCH  60  83
ATOM     83  C   UNL A   1      47.090  27.477  25.674  1.00  0.00     0.064 A 
ATOM     84  C   UNL A   1      47.208  27.661  24.290  1.00  0.00     0.173 A 
ATOM     85  C   UNL A   1      48.169  26.892  26.355  1.00  0.00     0.173 A 
ATOM     86  F   UNL A   1      46.200  28.203  23.592  1.00  0.00    -0.203 F 
ATOM     87  C   UNL A   1      48.351  27.249  23.609  1.00  0.00     0.198 A 
ATOM     88  C   UNL A   1      49.321  26.509  25.676  1.00  0.00     0.198 A 
ATOM     89  F   UNL A   1      48.109  26.703  27.682  1.00  0.00    -0.203 F 
ATOM     90  F   UNL A   1      48.423  27.391  22.278  1.00  0.00    -0.200 F 
ATOM     91  C   UNL A   1      49.408  26.679  24.303  1.00  0.00     0.200 A 
ATOM     92  F   UNL A   1      50.347  25.971  26.350  1.00  0.00    -0.200 F 
ATOM     93  F   UNL A   1      50.509  26.288  23.647  1.00  0.00    -0.200 F 
ENDBRANCH  60  83
ENDBRANCH  34  35
ENDBRANCH  27  29
ENDBRANCH  26  27
ENDBRANCH  25  26
ENDBRANCH  24  25
ENDBRANCH  23  24
ENDBRANCH   1  23
TORSDOF 18
ENDMDL
MODEL 3
REMARK VINA RESULT:     -10.6      4.057      9.717
REMARK SMILES CCc1cc(C(=O)N2CCO[C@@H](CC(=O)OCCOCCOC(=O)c3ccc(-c4c5nc(c(-c6c(F)c(F)c(F)c(F)c6F)c6ccc([nH]6)c(-c6c(F)c(F)c(F)c(F)c6F)c6nc(c(-c7c(F)c(F)c(F)c(F)c7F)c7ccc4[nH]7)C=C6)C=C5)cc3)C2)sc1C
REMARK SMILES IDX 18 1 17 2 16 3 14 4 15 5 13 6 12 7 8 8 9 9 88 10 10 11 11 12
REMARK SMILES IDX 6 13 7 14 5 15 3 16 4 17 90 18 89 19 91 20 2 21 1 22 19 23
REMARK SMILES IDX 20 24 21 25 22 26 23 27 24 28 25 29 26 30 87 31 27 32 86 33
REMARK SMILES IDX 28 34 29 35 30 36 80 37 31 38 85 39 79 40 81 41 32 42 84 43
REMARK SMILES IDX 78 44 77 45 33 47 65 48 45 49 64 50 46 51 49 52 63 53 82 54
REMARK SMILES IDX 47 55 48 56 62 58 83 59 50 60 34 61 35 62 43 63 36 64 37 65
REMARK SMILES IDX 41 66 44 67 38 68 39 69 42 70 40 71 66 72 67 73 75 74 68 75
REMARK SMILES IDX 69 76 73 77 76 78 70 79 71 80 74 81 72 82 51 83 52 84 60 85
REMARK SMILES IDX 53 86 54 87 58 88 61 89 55 90 56 91 59 92 57 93
REMARK H PARENT 81 46 49 57
REMARK Flexibility Score: inf
ROOT
ATOM      1  C   UNL A   1      34.800  22.310  26.008  1.00  0.00     0.202 C 
ENDROOT
BRANCH   1   2
ATOM      2  C   UNL A   1      33.470  22.329  26.764  1.00  0.00     0.261 C 
BRANCH   2   3
ATOM      3  O   UNL A   1      33.006  23.678  26.990  1.00  0.00    -0.463 OA
BRANCH   3   4
ATOM      4  C   UNL A   1      31.728  23.939  26.615  1.00  0.00     0.308 C 
ATOM      5  O   UNL A   1      31.067  24.897  26.995  1.00  0.00    -0.252 OA
BRANCH   4   6
ATOM      6  C   UNL A   1      31.165  22.863  25.726  1.00  0.00     0.156 C 
BRANCH   6   7
ATOM      7  C   UNL A   1      31.337  23.067  24.221  1.00  0.00     0.148 C 
ATOM      8  N   UNL A   1      32.535  24.320  22.445  1.00  0.00    -0.333 N 
ATOM      9  C   UNL A   1      33.152  23.077  21.990  1.00  0.00     0.148 C 
ATOM     10  C   UNL A   1      32.169  24.324  23.865  1.00  0.00     0.152 C 
ATOM     11  C   UNL A   1      32.242  21.903  22.329  1.00  0.00     0.182 C 
ATOM     12  O   UNL A   1      31.994  21.865  23.739  1.00  0.00    -0.374 OA
BRANCH   8  13
ATOM     13  C   UNL A   1      32.671  25.524  21.758  1.00  0.00     0.264 C 
ATOM     14  O   UNL A   1      33.227  25.535  20.660  1.00  0.00    -0.268 OA
BRANCH  13  15
ATOM     15  C   UNL A   1      32.231  26.742  22.443  1.00  0.00     0.093 A 
ATOM     16  C   UNL A   1      30.924  28.523  23.292  1.00  0.00    -0.034 A 
ATOM     17  C   UNL A   1      31.009  27.391  22.411  1.00  0.00     0.029 A 
ATOM     18  C   UNL A   1      32.090  28.650  24.030  1.00  0.00     0.005 A 
ATOM     19  S   UNL A   1      33.274  27.503  23.568  1.00  0.00    -0.135 S 
ATOM     20  C   UNL A   1      32.413  29.622  25.119  1.00  0.00     0.056 C 
BRANCH  16  21
ATOM     21  C   UNL A   1      29.693  29.383  23.407  1.00  0.00     0.033 C 
ATOM     22  C   UNL A   1      28.420  28.683  22.956  1.00  0.00     0.009 C 
ENDBRANCH  16  21
ENDBRANCH  13  15
ENDBRANCH   8  13
ENDBRANCH   6   7
ENDBRANCH   4   6
ENDBRANCH   3   4
ENDBRANCH   2   3
ENDBRANCH   1   2
BRANCH   1  23
ATOM     23  O   UNL A   1      34.967  21.238  25.080  1.00  0.00    -0.374 OA
BRANCH  23  24
ATOM     24  C   UNL A   1      36.264  20.654  24.994  1.00  0.00     0.202 C 
BRANCH  24  25
ATOM     25  C   UNL A   1      37.329  21.263  25.913  1.00  0.00     0.261 C 
BRANCH  25  26
ATOM     26  O   UNL A   1      38.622  21.302  25.284  1.00  0.00    -0.460 OA
BRANCH  26  27
ATOM     27  C   UNL A   1      39.666  21.104  26.124  1.00  0.00     0.338 C 
ATOM     28  O   UNL A   1      40.360  20.098  26.213  1.00  0.00    -0.246 OA
BRANCH  27  29
ATOM     29  C   UNL A   1      39.994  22.344  26.852  1.00  0.00     0.060 A 
ATOM     30  C   UNL A   1      39.316  23.513  26.489  1.00  0.00     0.016 A 
ATOM     31  C   UNL A   1      40.999  22.389  27.816  1.00  0.00     0.016 A 
ATOM     32  C   UNL A   1      39.694  24.738  27.038  1.00  0.00     0.010 A 
ATOM     33  C   UNL A   1      41.363  23.614  28.387  1.00  0.00     0.010 A 
ATOM     34  C   UNL A   1      40.754  24.803  27.955  1.00  0.00    -0.014 A 
BRANCH  34  35
ATOM     35  C   UNL A   1      41.344  26.127  28.280  1.00  0.00     0.031 A 
ATOM     36  C   UNL A   1      42.738  26.433  27.795  1.00  0.00     0.074 A 
ATOM     37  C   UNL A   1      40.630  27.074  28.916  1.00  0.00     0.049 A 
ATOM     38  N   UNL A   1      43.427  27.543  27.885  1.00  0.00    -0.248 NA
ATOM     39  C   UNL A   1      43.450  25.341  27.110  1.00  0.00     0.031 C 
ATOM     40  C   UNL A   1      39.269  26.912  29.420  1.00  0.00     0.029 A 
ATOM     41  N   UNL A   1      40.956  28.370  29.234  1.00  0.00    -0.354 N 
ATOM     42  C   UNL A   1      44.643  27.284  27.264  1.00  0.00     0.074 A 
ATOM     43  C   UNL A   1      44.622  25.900  26.845  1.00  0.00     0.031 C 
ATOM     44  C   UNL A   1      38.870  28.070  29.975  1.00  0.00     0.029 A 
ATOM     45  C   UNL A   1      39.953  29.047  29.880  1.00  0.00     0.049 A 
ATOM     46  H   UNL A   1      41.828  28.775  29.019  1.00  0.00     0.167 HD
ATOM     47  C   UNL A   1      45.677  28.127  27.039  1.00  0.00     0.037 A 
ATOM     48  C   UNL A   1      39.917  30.314  30.342  1.00  0.00     0.037 A 
ATOM     49  C   UNL A   1      45.705  29.505  27.448  1.00  0.00     0.049 A 
ATOM     50  C   UNL A   1      41.108  31.215  30.130  1.00  0.00     0.074 A 
ATOM     51  C   UNL A   1      46.705  30.443  27.256  1.00  0.00     0.029 A 
ATOM     52  N   UNL A   1      44.683  30.143  28.133  1.00  0.00    -0.354 N 
ATOM     53  N   UNL A   1      42.234  30.971  29.505  1.00  0.00    -0.248 NA
ATOM     54  C   UNL A   1      41.015  32.574  30.684  1.00  0.00     0.031 C 
ATOM     55  C   UNL A   1      46.303  31.639  27.860  1.00  0.00     0.029 A 
ATOM     56  C   UNL A   1      45.036  31.458  28.389  1.00  0.00     0.049 A 
ATOM     57  H   UNL A   1      43.833  29.723  28.399  1.00  0.00     0.167 HD
ATOM     58  C   UNL A   1      42.968  32.148  29.566  1.00  0.00     0.074 A 
ATOM     59  C   UNL A   1      42.152  33.113  30.272  1.00  0.00     0.031 C 
ATOM     60  C   UNL A   1      44.207  32.408  29.081  1.00  0.00     0.037 A 
BRANCH  47  61
ATOM     61  C   UNL A   1      46.871  27.578  26.316  1.00  0.00     0.064 A 
ATOM     62  C   UNL A   1      46.971  27.643  24.918  1.00  0.00     0.173 A 
ATOM     63  C   UNL A   1      47.941  27.016  27.027  1.00  0.00     0.173 A 
ATOM     64  F   UNL A   1      45.967  28.157  24.192  1.00  0.00    -0.203 F 
ATOM     65  C   UNL A   1      48.091  27.145  24.258  1.00  0.00     0.198 A 
ATOM     66  C   UNL A   1      49.070  26.542  26.365  1.00  0.00     0.198 A 
ATOM     67  F   UNL A   1      47.895  26.933  28.365  1.00  0.00    -0.203 F 
ATOM     68  F   UNL A   1      48.148  27.180  22.919  1.00  0.00    -0.200 F 
ATOM     69  C   UNL A   1      49.142  26.603  24.982  1.00  0.00     0.200 A 
ATOM     70  F   UNL A   1      50.090  26.028  27.066  1.00  0.00    -0.200 F 
ATOM     71  F   UNL A   1      50.223  26.132  24.345  1.00  0.00    -0.200 F 
ENDBRANCH  47  61
BRANCH  48  72
ATOM     72  C   UNL A   1      38.710  30.820  31.048  1.00  0.00     0.064 A 
ATOM     73  C   UNL A   1      37.665  31.436  30.344  1.00  0.00     0.173 A 
ATOM     74  C   UNL A   1      38.601  30.747  32.444  1.00  0.00     0.173 A 
ATOM     75  F   UNL A   1      37.735  31.556  29.011  1.00  0.00    -0.203 F 
ATOM     76  C   UNL A   1      36.571  31.982  31.013  1.00  0.00     0.198 A 
ATOM     77  C   UNL A   1      37.495  31.269  33.109  1.00  0.00     0.198 A 
ATOM     78  F   UNL A   1      39.577  30.174  33.164  1.00  0.00    -0.203 F 
ATOM     79  F   UNL A   1      35.614  32.616  30.320  1.00  0.00    -0.200 F 
ATOM     80  C   UNL A   1      36.485  31.895  32.393  1.00  0.00     0.200 A 
ATOM     81  F   UNL A   1      37.412  31.178  34.443  1.00  0.00    -0.200 F 
ATOM     82  F   UNL A   1      35.436  32.428  33.036  1.00  0.00    -0.200 F 
ENDBRANCH  48  72
BRANCH  60  83
ATOM     83  C   UNL A   1      44.744  33.798  29.269  1.00  0.00     0.064 A 
ATOM     84  C   UNL A   1      45.518  34.142  30.386  1.00  0.00     0.173 A 
ATOM     85  C   UNL A   1      44.512  34.787  28.300  1.00  0.00     0.173 A 
ATOM     86  F   UNL A   1      45.758  33.236  31.346  1.00  0.00    -0.203 F 
ATOM     87  C   UNL A   1      46.018  35.432  30.540  1.00  0.00     0.198 A 
ATOM     88  C   UNL A   1      45.037  36.067  28.443  1.00  0.00     0.198 A 
ATOM     89  F   UNL A   1      43.784  34.506  27.209  1.00  0.00    -0.203 F 
ATOM     90  F   UNL A   1      46.717  35.751  31.639  1.00  0.00    -0.200 F 
ATOM     91  C   UNL A   1      45.783  36.391  29.567  1.00  0.00     0.200 A 
ATOM     92  F   UNL A   1      44.820  36.989  27.495  1.00  0.00    -0.200 F 
ATOM     93  F   UNL A   1      46.269  37.631  29.714  1.00  0.00    -0.200 F 
ENDBRANCH  60  83
ENDBRANCH  34  35
ENDBRANCH  27  29
ENDBRANCH  26  27
ENDBRANCH  25  26
ENDBRANCH  24  25
ENDBRANCH  23  24
ENDBRANCH   1  23
TORSDOF 18
ENDMDL
