MODEL 1
REMARK VINA RESULT:     -12.9      0.000      0.000
REMARK SMILES CC(C)(C)c1cc(Nc2ccccc2C(=O)OCCOCCOC(=O)c2ccc(-c3c4nc(c(-c5c(F)c(F)c(F)c(F)c5F)c5ccc([nH]5)c(-c5c(F)c(F)c(F)c(F)c5F)c5nc(c(-c6c(F)c(F)c(F)c(F)c6F)c6ccc3[nH]6)C=C5)C=C4)cc2)cc2c1OCC2(C)C
REMARK SMILES IDX 19 1 18 2 17 3 15 4 16 5 14 6 9 7 10 8 11 9 13 10 12 11 8 12
REMARK SMILES IDX 7 14 5 15 6 16 91 17 90 18 92 19 89 20 94 21 93 22 95 23
REMARK SMILES IDX 96 24 2 25 1 26 3 27 4 28 20 29 21 30 22 31 23 32 24 33
REMARK SMILES IDX 25 34 26 35 27 36 88 37 28 38 87 39 29 40 30 41 31 42 81 43
REMARK SMILES IDX 32 44 86 45 80 46 82 47 33 48 85 49 79 50 78 51 34 53 66 54
REMARK SMILES IDX 46 55 65 56 47 57 50 58 64 59 83 60 48 61 49 62 63 64 84 65
REMARK SMILES IDX 51 66 35 67 36 68 44 69 37 70 38 71 42 72 45 73 39 74 40 75
REMARK SMILES IDX 43 76 41 77 67 78 68 79 76 80 69 81 70 82 74 83 77 84 71 85
REMARK SMILES IDX 72 86 75 87 73 88 52 89 53 90 61 91 54 92 55 93 59 94 62 95
REMARK SMILES IDX 56 96 57 97 60 98 58 99
REMARK H PARENT 8 13 82 52 50 63
REMARK Flexibility Score: inf
ROOT
ATOM      1  C   UNL A   1      43.672  19.245  25.714  1.00  0.00     0.202 C 
ENDROOT
BRANCH   1   2
ATOM      2  C   UNL A   1      42.318  18.800  26.270  1.00  0.00     0.261 C 
BRANCH   2   3
ATOM      3  O   UNL A   1      41.509  19.945  26.601  1.00  0.00    -0.460 OA
BRANCH   3   4
ATOM      4  C   UNL A   1      40.261  19.926  26.074  1.00  0.00     0.340 C 
ATOM      5  O   UNL A   1      39.672  18.929  25.683  1.00  0.00    -0.246 OA
BRANCH   4   6
ATOM      6  C   UNL A   1      39.604  21.260  26.121  1.00  0.00     0.083 A 
ATOM      7  C   UNL A   1      38.327  21.572  25.617  1.00  0.00     0.053 A 
ATOM      8  C   UNL A   1      37.824  22.867  25.878  1.00  0.00     0.027 A 
ATOM      9  C   UNL A   1      38.606  23.863  26.463  1.00  0.00     0.002 A 
ATOM     10  C   UNL A   1      40.394  22.281  26.694  1.00  0.00     0.018 A 
ATOM     11  C   UNL A   1      39.911  23.580  26.833  1.00  0.00     0.001 A 
BRANCH   7  12
ATOM     12  N   UNL A   1      37.611  20.737  24.721  1.00  0.00    -0.355 N 
ATOM     13  H   UNL A   1      38.123  20.357  23.971  1.00  0.00     0.167 HD
BRANCH  12  14
ATOM     14  C   UNL A   1      36.239  20.392  24.791  1.00  0.00     0.039 A 
ATOM     15  C   UNL A   1      33.847  21.088  24.729  1.00  0.00     0.002 A 
ATOM     16  C   UNL A   1      35.239  21.389  24.772  1.00  0.00     0.034 A 
ATOM     17  C   UNL A   1      33.525  19.732  24.646  1.00  0.00     0.127 A 
ATOM     18  C   UNL A   1      34.494  18.740  24.666  1.00  0.00     0.006 A 
ATOM     19  O   UNL A   1      32.267  19.211  24.473  1.00  0.00    -0.492 OA
ATOM     20  C   UNL A   1      35.834  19.054  24.772  1.00  0.00     0.034 A 
ATOM     21  C   UNL A   1      33.889  17.396  24.435  1.00  0.00     0.028 C 
ATOM     22  C   UNL A   1      32.414  17.779  24.636  1.00  0.00     0.240 C 
ATOM     23  C   UNL A   1      34.168  16.935  22.998  1.00  0.00     0.020 C 
ATOM     24  C   UNL A   1      34.352  16.335  25.434  1.00  0.00     0.020 C 
BRANCH  15  25
ATOM     25  C   UNL A   1      32.799  22.219  24.735  1.00  0.00    -0.009 C 
ATOM     26  C   UNL A   1      33.469  23.585  25.006  1.00  0.00     0.016 C 
ATOM     27  C   UNL A   1      31.684  22.039  25.793  1.00  0.00     0.016 C 
ATOM     28  C   UNL A   1      32.133  22.306  23.351  1.00  0.00     0.016 C 
ENDBRANCH  15  25
ENDBRANCH  12  14
ENDBRANCH   7  12
ENDBRANCH   4   6
ENDBRANCH   3   4
ENDBRANCH   2   3
ENDBRANCH   1   2
BRANCH   1  29
ATOM     29  O   UNL A   1      43.630  20.313  24.767  1.00  0.00    -0.374 OA
BRANCH  29  30
ATOM     30  C   UNL A   1      44.074  21.592  25.225  1.00  0.00     0.202 C 
BRANCH  30  31
ATOM     31  C   UNL A   1      43.909  22.758  24.243  1.00  0.00     0.261 C 
BRANCH  31  32
ATOM     32  O   UNL A   1      43.406  23.946  24.876  1.00  0.00    -0.460 OA
BRANCH  32  33
ATOM     33  C   UNL A   1      44.334  24.883  25.185  1.00  0.00     0.338 C 
ATOM     34  O   UNL A   1      45.382  25.115  24.600  1.00  0.00    -0.246 OA
BRANCH  33  35
ATOM     35  C   UNL A   1      43.813  25.725  26.278  1.00  0.00     0.060 A 
ATOM     36  C   UNL A   1      43.008  25.175  27.267  1.00  0.00     0.016 A 
ATOM     37  C   UNL A   1      44.144  27.088  26.315  1.00  0.00     0.016 A 
ATOM     38  C   UNL A   1      42.531  25.999  28.286  1.00  0.00     0.010 A 
ATOM     39  C   UNL A   1      43.657  27.910  27.341  1.00  0.00     0.010 A 
ATOM     40  C   UNL A   1      42.830  27.380  28.339  1.00  0.00    -0.014 A 
BRANCH  40  41
ATOM     41  C   UNL A   1      42.269  28.209  29.454  1.00  0.00     0.031 A 
ATOM     42  C   UNL A   1      40.953  28.947  29.337  1.00  0.00     0.074 A 
ATOM     43  C   UNL A   1      42.907  28.214  30.643  1.00  0.00     0.049 A 
ATOM     44  N   UNL A   1      40.291  29.604  30.263  1.00  0.00    -0.248 NA
ATOM     45  C   UNL A   1      40.286  28.944  28.028  1.00  0.00     0.031 C 
ATOM     46  C   UNL A   1      44.185  27.553  30.905  1.00  0.00     0.029 A 
ATOM     47  N   UNL A   1      42.553  28.745  31.861  1.00  0.00    -0.354 N 
ATOM     48  C   UNL A   1      39.144  30.094  29.649  1.00  0.00     0.074 A 
ATOM     49  C   UNL A   1      39.209  29.683  28.262  1.00  0.00     0.031 C 
ATOM     50  C   UNL A   1      44.461  27.632  32.213  1.00  0.00     0.029 A 
ATOM     51  C   UNL A   1      43.426  28.422  32.873  1.00  0.00     0.049 A 
ATOM     52  H   UNL A   1      41.753  29.302  31.996  1.00  0.00     0.167 HD
ATOM     53  C   UNL A   1      38.123  30.805  30.192  1.00  0.00     0.037 A 
ATOM     54  C   UNL A   1      43.413  28.728  34.186  1.00  0.00     0.037 A 
ATOM     55  C   UNL A   1      38.032  31.195  31.578  1.00  0.00     0.049 A 
ATOM     56  C   UNL A   1      42.299  29.564  34.746  1.00  0.00     0.074 A 
ATOM     57  C   UNL A   1      37.010  31.884  32.212  1.00  0.00     0.029 A 
ATOM     58  N   UNL A   1      38.990  30.934  32.546  1.00  0.00    -0.354 N 
ATOM     59  N   UNL A   1      41.216  30.000  34.154  1.00  0.00    -0.248 NA
ATOM     60  C   UNL A   1      42.418  29.971  36.155  1.00  0.00     0.031 C 
ATOM     61  C   UNL A   1      37.374  32.091  33.545  1.00  0.00     0.029 A 
ATOM     62  C   UNL A   1      38.601  31.485  33.758  1.00  0.00     0.049 A 
ATOM     63  H   UNL A   1      39.825  30.434  32.394  1.00  0.00     0.167 HD
ATOM     64  C   UNL A   1      40.528  30.734  35.111  1.00  0.00     0.074 A 
ATOM     65  C   UNL A   1      41.296  30.655  36.335  1.00  0.00     0.031 C 
ATOM     66  C   UNL A   1      39.370  31.422  34.975  1.00  0.00     0.037 A 
BRANCH  53  67
ATOM     67  C   UNL A   1      36.993  31.229  29.295  1.00  0.00     0.064 A 
ATOM     68  C   UNL A   1      35.972  30.339  28.931  1.00  0.00     0.173 A 
ATOM     69  C   UNL A   1      36.865  32.571  28.899  1.00  0.00     0.173 A 
ATOM     70  F   UNL A   1      36.045  29.047  29.283  1.00  0.00    -0.203 F 
ATOM     71  C   UNL A   1      34.870  30.774  28.196  1.00  0.00     0.198 A 
ATOM     72  C   UNL A   1      35.749  33.008  28.188  1.00  0.00     0.198 A 
ATOM     73  F   UNL A   1      37.804  33.467  29.235  1.00  0.00    -0.203 F 
ATOM     74  F   UNL A   1      33.916  29.902  27.842  1.00  0.00    -0.200 F 
ATOM     75  C   UNL A   1      34.753  32.109  27.835  1.00  0.00     0.200 A 
ATOM     76  F   UNL A   1      35.629  34.302  27.860  1.00  0.00    -0.200 F 
ATOM     77  F   UNL A   1      33.681  32.530  27.151  1.00  0.00    -0.200 F 
ENDBRANCH  53  67
BRANCH  54  78
ATOM     78  C   UNL A   1      44.514  28.240  35.058  1.00  0.00     0.064 A 
ATOM     79  C   UNL A   1      45.703  28.969  35.198  1.00  0.00     0.173 A 
ATOM     80  C   UNL A   1      44.387  27.052  35.793  1.00  0.00     0.173 A 
ATOM     81  F   UNL A   1      45.885  30.097  34.494  1.00  0.00    -0.203 F 
ATOM     82  C   UNL A   1      46.720  28.530  36.044  1.00  0.00     0.198 A 
ATOM     83  C   UNL A   1      45.387  26.633  36.666  1.00  0.00     0.198 A 
ATOM     84  F   UNL A   1      43.270  26.316  35.691  1.00  0.00    -0.203 F 
ATOM     85  F   UNL A   1      47.859  29.228  36.137  1.00  0.00    -0.200 F 
ATOM     86  C   UNL A   1      46.555  27.371  36.787  1.00  0.00     0.200 A 
ATOM     87  F   UNL A   1      45.214  25.524  37.396  1.00  0.00    -0.200 F 
ATOM     88  F   UNL A   1      47.523  26.961  37.618  1.00  0.00    -0.200 F 
ENDBRANCH  54  78
BRANCH  66  89
ATOM     89  C   UNL A   1      38.857  32.173  36.170  1.00  0.00     0.064 A 
ATOM     90  C   UNL A   1      38.076  31.536  37.147  1.00  0.00     0.173 A 
ATOM     91  C   UNL A   1      39.208  33.515  36.384  1.00  0.00     0.173 A 
ATOM     92  F   UNL A   1      37.702  30.258  36.983  1.00  0.00    -0.203 F 
ATOM     93  C   UNL A   1      37.659  32.216  38.288  1.00  0.00     0.198 A 
ATOM     94  C   UNL A   1      38.811  34.185  37.539  1.00  0.00     0.198 A 
ATOM     95  F   UNL A   1      39.957  34.170  35.485  1.00  0.00    -0.203 F 
ATOM     96  F   UNL A   1      36.890  31.594  39.193  1.00  0.00    -0.200 F 
ATOM     97  C   UNL A   1      38.035  33.535  38.489  1.00  0.00     0.200 A 
ATOM     98  F   UNL A   1      39.188  35.454  37.739  1.00  0.00    -0.200 F 
ATOM     99  F   UNL A   1      37.649  34.183  39.597  1.00  0.00    -0.200 F 
ENDBRANCH  66  89
ENDBRANCH  40  41
ENDBRANCH  33  35
ENDBRANCH  32  33
ENDBRANCH  31  32
ENDBRANCH  30  31
ENDBRANCH  29  30
ENDBRANCH   1  29
TORSDOF 17
ENDMDL
MODEL 2
REMARK VINA RESULT:     -12.8      0.522      7.107
REMARK SMILES CC(C)(C)c1cc(Nc2ccccc2C(=O)OCCOCCOC(=O)c2ccc(-c3c4nc(c(-c5c(F)c(F)c(F)c(F)c5F)c5ccc([nH]5)c(-c5c(F)c(F)c(F)c(F)c5F)c5nc(c(-c6c(F)c(F)c(F)c(F)c6F)c6ccc3[nH]6)C=C5)C=C4)cc2)cc2c1OCC2(C)C
REMARK SMILES IDX 19 1 18 2 17 3 15 4 16 5 14 6 9 7 10 8 11 9 13 10 12 11 8 12
REMARK SMILES IDX 7 14 5 15 6 16 91 17 90 18 92 19 89 20 94 21 93 22 95 23
REMARK SMILES IDX 96 24 2 25 1 26 3 27 4 28 20 29 21 30 22 31 23 32 24 33
REMARK SMILES IDX 25 34 26 35 27 36 88 37 28 38 87 39 29 40 30 41 31 42 81 43
REMARK SMILES IDX 32 44 86 45 80 46 82 47 33 48 85 49 79 50 78 51 34 53 66 54
REMARK SMILES IDX 46 55 65 56 47 57 50 58 64 59 83 60 48 61 49 62 63 64 84 65
REMARK SMILES IDX 51 66 35 67 36 68 44 69 37 70 38 71 42 72 45 73 39 74 40 75
REMARK SMILES IDX 43 76 41 77 67 78 68 79 76 80 69 81 70 82 74 83 77 84 71 85
REMARK SMILES IDX 72 86 75 87 73 88 52 89 53 90 61 91 54 92 55 93 59 94 62 95
REMARK SMILES IDX 56 96 57 97 60 98 58 99
REMARK H PARENT 8 13 82 52 50 63
REMARK Flexibility Score: inf
ROOT
ATOM      1  C   UNL A   1      43.588  19.187  25.584  1.00  0.00     0.202 C 
ENDROOT
BRANCH   1   2
ATOM      2  C   UNL A   1      42.256  18.998  26.312  1.00  0.00     0.261 C 
BRANCH   2   3
ATOM      3  O   UNL A   1      41.524  20.237  26.353  1.00  0.00    -0.460 OA
BRANCH   3   4
ATOM      4  C   UNL A   1      40.217  20.133  26.013  1.00  0.00     0.340 C 
ATOM      5  O   UNL A   1      39.634  19.091  25.751  1.00  0.00    -0.246 OA
BRANCH   4   6
ATOM      6  C   UNL A   1      39.501  21.434  26.102  1.00  0.00     0.083 A 
ATOM      7  C   UNL A   1      38.205  21.701  25.621  1.00  0.00     0.053 A 
ATOM      8  C   UNL A   1      37.648  22.964  25.922  1.00  0.00     0.027 A 
ATOM      9  C   UNL A   1      38.391  23.980  26.525  1.00  0.00     0.002 A 
ATOM     10  C   UNL A   1      40.251  22.475  26.694  1.00  0.00     0.018 A 
ATOM     11  C   UNL A   1      39.711  23.746  26.872  1.00  0.00     0.001 A 
BRANCH   7  12
ATOM     12  N   UNL A   1      37.517  20.858  24.712  1.00  0.00    -0.355 N 
ATOM     13  H   UNL A   1      38.040  20.510  23.954  1.00  0.00     0.167 HD
BRANCH  12  14
ATOM     14  C   UNL A   1      36.158  20.462  24.778  1.00  0.00     0.039 A 
ATOM     15  C   UNL A   1      33.742  21.072  24.726  1.00  0.00     0.002 A 
ATOM     16  C   UNL A   1      35.123  21.423  24.771  1.00  0.00     0.034 A 
ATOM     17  C   UNL A   1      33.469  19.706  24.627  1.00  0.00     0.127 A 
ATOM     18  C   UNL A   1      34.473  18.750  24.635  1.00  0.00     0.006 A 
ATOM     19  O   UNL A   1      32.230  19.142  24.450  1.00  0.00    -0.492 OA
ATOM     20  C   UNL A   1      35.801  19.111  24.745  1.00  0.00     0.034 A 
ATOM     21  C   UNL A   1      33.917  17.388  24.390  1.00  0.00     0.028 C 
ATOM     22  C   UNL A   1      32.430  17.715  24.596  1.00  0.00     0.240 C 
ATOM     23  C   UNL A   1      34.211  16.953  22.947  1.00  0.00     0.020 C 
ATOM     24  C   UNL A   1      34.419  16.332  25.376  1.00  0.00     0.020 C 
BRANCH  15  25
ATOM     25  C   UNL A   1      32.655  22.164  24.745  1.00  0.00    -0.009 C 
ATOM     26  C   UNL A   1      33.261  23.536  25.118  1.00  0.00     0.016 C 
ATOM     27  C   UNL A   1      31.502  21.889  25.742  1.00  0.00     0.016 C 
ATOM     28  C   UNL A   1      32.045  22.305  23.340  1.00  0.00     0.016 C 
ENDBRANCH  15  25
ENDBRANCH  12  14
ENDBRANCH   7  12
ENDBRANCH   4   6
ENDBRANCH   3   4
ENDBRANCH   2   3
ENDBRANCH   1   2
BRANCH   1  29
ATOM     29  O   UNL A   1      43.637  20.274  24.659  1.00  0.00    -0.374 OA
BRANCH  29  30
ATOM     30  C   UNL A   1      44.265  21.473  25.115  1.00  0.00     0.202 C 
BRANCH  30  31
ATOM     31  C   UNL A   1      44.236  22.663  24.148  1.00  0.00     0.261 C 
BRANCH  31  32
ATOM     32  O   UNL A   1      43.663  23.841  24.739  1.00  0.00    -0.460 OA
BRANCH  32  33
ATOM     33  C   UNL A   1      44.550  24.771  25.168  1.00  0.00     0.338 C 
ATOM     34  O   UNL A   1      45.590  25.116  24.625  1.00  0.00    -0.246 OA
BRANCH  33  35
ATOM     35  C   UNL A   1      43.991  25.451  26.351  1.00  0.00     0.060 A 
ATOM     36  C   UNL A   1      43.168  24.763  27.234  1.00  0.00     0.016 A 
ATOM     37  C   UNL A   1      44.304  26.799  26.583  1.00  0.00     0.016 A 
ATOM     38  C   UNL A   1      42.655  25.436  28.343  1.00  0.00     0.010 A 
ATOM     39  C   UNL A   1      43.780  27.468  27.698  1.00  0.00     0.010 A 
ATOM     40  C   UNL A   1      42.934  26.800  28.592  1.00  0.00    -0.014 A 
BRANCH  40  41
ATOM     41  C   UNL A   1      42.334  27.463  29.794  1.00  0.00     0.031 A 
ATOM     42  C   UNL A   1      43.020  27.477  31.142  1.00  0.00     0.074 A 
ATOM     43  C   UNL A   1      41.191  28.164  29.644  1.00  0.00     0.049 A 
ATOM     44  N   UNL A   1      42.672  28.115  32.238  1.00  0.00    -0.248 NA
ATOM     45  C   UNL A   1      44.252  26.691  31.286  1.00  0.00     0.031 C 
ATOM     46  C   UNL A   1      40.416  28.239  28.407  1.00  0.00     0.029 A 
ATOM     47  N   UNL A   1      40.509  28.984  30.513  1.00  0.00    -0.354 N 
ATOM     48  C   UNL A   1      43.632  27.801  33.193  1.00  0.00     0.074 A 
ATOM     49  C   UNL A   1      44.565  26.893  32.560  1.00  0.00     0.031 C 
ATOM     50  C   UNL A   1      39.426  29.128  28.561  1.00  0.00     0.029 A 
ATOM     51  C   UNL A   1      39.440  29.626  29.934  1.00  0.00     0.049 A 
ATOM     52  H   UNL A   1      40.761  29.099  31.458  1.00  0.00     0.167 HD
ATOM     53  C   UNL A   1      43.736  28.241  34.473  1.00  0.00     0.037 A 
ATOM     54  C   UNL A   1      38.555  30.508  30.441  1.00  0.00     0.037 A 
ATOM     55  C   UNL A   1      42.830  29.167  35.107  1.00  0.00     0.049 A 
ATOM     56  C   UNL A   1      38.664  30.932  31.877  1.00  0.00     0.074 A 
ATOM     57  C   UNL A   1      42.892  29.689  36.389  1.00  0.00     0.029 A 
ATOM     58  N   UNL A   1      41.701  29.712  34.513  1.00  0.00    -0.354 N 
ATOM     59  N   UNL A   1      39.589  30.640  32.756  1.00  0.00    -0.248 NA
ATOM     60  C   UNL A   1      37.590  31.792  32.398  1.00  0.00     0.031 C 
ATOM     61  C   UNL A   1      41.772  30.501  36.592  1.00  0.00     0.029 A 
ATOM     62  C   UNL A   1      41.038  30.529  35.418  1.00  0.00     0.049 A 
ATOM     63  H   UNL A   1      41.412  29.542  33.588  1.00  0.00     0.167 HD
ATOM     64  C   UNL A   1      39.209  31.272  33.932  1.00  0.00     0.074 A 
ATOM     65  C   UNL A   1      37.989  31.996  33.646  1.00  0.00     0.031 C 
ATOM     66  C   UNL A   1      39.816  31.239  35.142  1.00  0.00     0.037 A 
BRANCH  53  67
ATOM     67  C   UNL A   1      44.877  27.731  35.311  1.00  0.00     0.064 A 
ATOM     68  C   UNL A   1      46.090  28.430  35.401  1.00  0.00     0.173 A 
ATOM     69  C   UNL A   1      44.710  26.601  36.128  1.00  0.00     0.173 A 
ATOM     70  F   UNL A   1      46.302  29.515  34.642  1.00  0.00    -0.203 F 
ATOM     71  C   UNL A   1      47.096  28.010  36.271  1.00  0.00     0.198 A 
ATOM     72  C   UNL A   1      45.706  26.201  37.016  1.00  0.00     0.198 A 
ATOM     73  F   UNL A   1      43.562  25.907  36.095  1.00  0.00    -0.203 F 
ATOM     74  F   UNL A   1      48.255  28.681  36.325  1.00  0.00    -0.200 F 
ATOM     75  C   UNL A   1      46.899  26.905  37.085  1.00  0.00     0.200 A 
ATOM     76  F   UNL A   1      45.505  25.146  37.818  1.00  0.00    -0.200 F 
ATOM     77  F   UNL A   1      47.858  26.519  37.938  1.00  0.00    -0.200 F 
ENDBRANCH  53  67
BRANCH  54  78
ATOM     78  C   UNL A   1      37.476  31.040  29.567  1.00  0.00     0.064 A 
ATOM     79  C   UNL A   1      36.390  30.238  29.191  1.00  0.00     0.173 A 
ATOM     80  C   UNL A   1      37.494  32.369  29.117  1.00  0.00     0.173 A 
ATOM     81  F   UNL A   1      36.341  28.953  29.572  1.00  0.00    -0.203 F 
ATOM     82  C   UNL A   1      35.360  30.748  28.403  1.00  0.00     0.198 A 
ATOM     83  C   UNL A   1      36.447  32.888  28.361  1.00  0.00     0.198 A 
ATOM     84  F   UNL A   1      38.513  33.175  29.446  1.00  0.00    -0.203 F 
ATOM     85  F   UNL A   1      34.348  29.954  28.031  1.00  0.00    -0.200 F 
ATOM     86  C   UNL A   1      35.383  32.076  28.001  1.00  0.00     0.200 A 
ATOM     87  F   UNL A   1      36.464  34.175  27.993  1.00  0.00    -0.200 F 
ATOM     88  F   UNL A   1      34.381  32.572  27.263  1.00  0.00    -0.200 F 
ENDBRANCH  54  78
BRANCH  66  89
ATOM     89  C   UNL A   1      39.167  31.987  36.271  1.00  0.00     0.064 A 
ATOM     90  C   UNL A   1      38.202  31.376  37.086  1.00  0.00     0.173 A 
ATOM     91  C   UNL A   1      39.563  33.294  36.592  1.00  0.00     0.173 A 
ATOM     92  F   UNL A   1      37.778  30.133  36.813  1.00  0.00    -0.203 F 
ATOM     93  C   UNL A   1      37.651  32.049  38.174  1.00  0.00     0.198 A 
ATOM     94  C   UNL A   1      39.030  33.955  37.696  1.00  0.00     0.198 A 
ATOM     95  F   UNL A   1      40.487  33.923  35.850  1.00  0.00    -0.203 F 
ATOM     96  F   UNL A   1      36.709  31.455  38.920  1.00  0.00    -0.200 F 
ATOM     97  C   UNL A   1      38.073  33.332  38.485  1.00  0.00     0.200 A 
ATOM     98  F   UNL A   1      39.450  35.189  38.005  1.00  0.00    -0.200 F 
ATOM     99  F   UNL A   1      37.557  33.972  39.543  1.00  0.00    -0.200 F 
ENDBRANCH  66  89
ENDBRANCH  40  41
ENDBRANCH  33  35
ENDBRANCH  32  33
ENDBRANCH  31  32
ENDBRANCH  30  31
ENDBRANCH  29  30
ENDBRANCH   1  29
TORSDOF 17
ENDMDL
MODEL 3
REMARK VINA RESULT:     -12.4      6.368     11.697
REMARK SMILES CC(C)(C)c1cc(Nc2ccccc2C(=O)OCCOCCOC(=O)c2ccc(-c3c4nc(c(-c5c(F)c(F)c(F)c(F)c5F)c5ccc([nH]5)c(-c5c(F)c(F)c(F)c(F)c5F)c5nc(c(-c6c(F)c(F)c(F)c(F)c6F)c6ccc3[nH]6)C=C5)C=C4)cc2)cc2c1OCC2(C)C
REMARK SMILES IDX 19 1 18 2 17 3 15 4 16 5 14 6 9 7 10 8 11 9 13 10 12 11 8 12
REMARK SMILES IDX 7 14 5 15 6 16 91 17 90 18 92 19 89 20 94 21 93 22 95 23
REMARK SMILES IDX 96 24 2 25 1 26 3 27 4 28 20 29 21 30 22 31 23 32 24 33
REMARK SMILES IDX 25 34 26 35 27 36 88 37 28 38 87 39 29 40 30 41 31 42 81 43
REMARK SMILES IDX 32 44 86 45 80 46 82 47 33 48 85 49 79 50 78 51 34 53 66 54
REMARK SMILES IDX 46 55 65 56 47 57 50 58 64 59 83 60 48 61 49 62 63 64 84 65
REMARK SMILES IDX 51 66 35 67 36 68 44 69 37 70 38 71 42 72 45 73 39 74 40 75
REMARK SMILES IDX 43 76 41 77 67 78 68 79 76 80 69 81 70 82 74 83 77 84 71 85
REMARK SMILES IDX 72 86 75 87 73 88 52 89 53 90 61 91 54 92 55 93 59 94 62 95
REMARK SMILES IDX 56 96 57 97 60 98 58 99
REMARK H PARENT 8 13 82 52 50 63
REMARK Flexibility Score: inf
ROOT
ATOM      1  C   UNL A   1      33.449  35.687  30.389  1.00  0.00     0.202 C 
ENDROOT
BRANCH   1   2
ATOM      2  C   UNL A   1      32.940  35.143  29.053  1.00  0.00     0.261 C 
BRANCH   2   3
ATOM      3  O   UNL A   1      33.759  34.043  28.613  1.00  0.00    -0.460 OA
BRANCH   3   4
ATOM      4  C   UNL A   1      33.118  33.138  27.835  1.00  0.00     0.340 C 
ATOM      5  O   UNL A   1      32.065  33.330  27.244  1.00  0.00    -0.246 OA
BRANCH   4   6
ATOM      6  C   UNL A   1      33.897  31.882  27.664  1.00  0.00     0.083 A 
ATOM      7  C   UNL A   1      33.442  30.703  27.044  1.00  0.00     0.053 A 
ATOM      8  C   UNL A   1      34.380  29.662  26.861  1.00  0.00     0.027 A 
ATOM      9  C   UNL A   1      35.662  29.711  27.410  1.00  0.00     0.002 A 
ATOM     10  C   UNL A   1      35.190  31.914  28.232  1.00  0.00     0.018 A 
ATOM     11  C   UNL A   1      36.052  30.825  28.135  1.00  0.00     0.001 A 
BRANCH   7  12
ATOM     12  N   UNL A   1      32.077  30.439  26.767  1.00  0.00    -0.355 N 
ATOM     13  H   UNL A   1      31.425  30.745  27.439  1.00  0.00     0.167 HD
BRANCH  12  14
ATOM     14  C   UNL A   1      31.550  29.783  25.627  1.00  0.00     0.039 A 
ATOM     15  C   UNL A   1      30.005  29.793  23.671  1.00  0.00     0.002 A 
ATOM     16  C   UNL A   1      30.494  30.358  24.885  1.00  0.00     0.034 A 
ATOM     17  C   UNL A   1      30.678  28.656  23.220  1.00  0.00     0.127 A 
ATOM     18  C   UNL A   1      31.714  28.078  23.938  1.00  0.00     0.006 A 
ATOM     19  O   UNL A   1      30.466  28.013  22.026  1.00  0.00    -0.492 OA
ATOM     20  C   UNL A   1      32.129  28.607  25.143  1.00  0.00     0.034 A 
ATOM     21  C   UNL A   1      32.336  26.959  23.172  1.00  0.00     0.028 C 
ATOM     22  C   UNL A   1      31.254  26.800  22.092  1.00  0.00     0.240 C 
ATOM     23  C   UNL A   1      33.676  27.412  22.575  1.00  0.00     0.020 C 
ATOM     24  C   UNL A   1      32.524  25.683  23.993  1.00  0.00     0.020 C 
BRANCH  15  25
ATOM     25  C   UNL A   1      28.833  30.450  22.917  1.00  0.00    -0.009 C 
ATOM     26  C   UNL A   1      27.557  29.585  23.025  1.00  0.00     0.016 C 
ATOM     27  C   UNL A   1      29.102  30.680  21.409  1.00  0.00     0.016 C 
ATOM     28  C   UNL A   1      28.513  31.813  23.556  1.00  0.00     0.016 C 
ENDBRANCH  15  25
ENDBRANCH  12  14
ENDBRANCH   7  12
ENDBRANCH   4   6
ENDBRANCH   3   4
ENDBRANCH   2   3
ENDBRANCH   1   2
BRANCH   1  29
ATOM     29  O   UNL A   1      32.890  35.083  31.556  1.00  0.00    -0.374 OA
BRANCH  29  30
ATOM     30  C   UNL A   1      33.815  34.571  32.517  1.00  0.00     0.202 C 
BRANCH  30  31
ATOM     31  C   UNL A   1      35.215  34.230  31.994  1.00  0.00     0.261 C 
BRANCH  31  32
ATOM     32  O   UNL A   1      35.509  32.825  32.077  1.00  0.00    -0.460 OA
BRANCH  32  33
ATOM     33  C   UNL A   1      36.445  32.477  32.992  1.00  0.00     0.338 C 
ATOM     34  O   UNL A   1      36.330  32.461  34.209  1.00  0.00    -0.246 OA
BRANCH  33  35
ATOM     35  C   UNL A   1      37.627  31.948  32.285  1.00  0.00     0.060 A 
ATOM     36  C   UNL A   1      37.808  32.201  30.931  1.00  0.00     0.016 A 
ATOM     37  C   UNL A   1      38.571  31.190  32.994  1.00  0.00     0.016 A 
ATOM     38  C   UNL A   1      38.935  31.686  30.292  1.00  0.00     0.010 A 
ATOM     39  C   UNL A   1      39.700  30.672  32.342  1.00  0.00     0.010 A 
ATOM     40  C   UNL A   1      39.894  30.901  30.974  1.00  0.00    -0.014 A 
BRANCH  40  41
ATOM     41  C   UNL A   1      41.073  30.364  30.219  1.00  0.00     0.031 A 
ATOM     42  C   UNL A   1      41.093  28.974  29.624  1.00  0.00     0.074 A 
ATOM     43  C   UNL A   1      42.112  31.188  29.971  1.00  0.00     0.049 A 
ATOM     44  N   UNL A   1      41.997  28.423  28.846  1.00  0.00    -0.248 NA
ATOM     45  C   UNL A   1      39.959  28.089  29.925  1.00  0.00     0.031 C 
ATOM     46  C   UNL A   1      42.235  32.552  30.481  1.00  0.00     0.029 A 
ATOM     47  N   UNL A   1      43.234  31.023  29.192  1.00  0.00    -0.354 N 
ATOM     48  C   UNL A   1      41.547  27.136  28.575  1.00  0.00     0.074 A 
ATOM     49  C   UNL A   1      40.300  26.973  29.293  1.00  0.00     0.031 C 
ATOM     50  C   UNL A   1      43.309  33.133  29.931  1.00  0.00     0.029 A 
ATOM     51  C   UNL A   1      44.003  32.159  29.093  1.00  0.00     0.049 A 
ATOM     52  H   UNL A   1      43.464  30.175  28.748  1.00  0.00     0.167 HD
ATOM     53  C   UNL A   1      42.111  26.184  27.789  1.00  0.00     0.037 A 
ATOM     54  C   UNL A   1      45.144  32.400  28.418  1.00  0.00     0.037 A 
ATOM     55  C   UNL A   1      43.337  26.343  27.045  1.00  0.00     0.049 A 
ATOM     56  C   UNL A   1      45.773  31.308  27.602  1.00  0.00     0.074 A 
ATOM     57  C   UNL A   1      43.951  25.437  26.196  1.00  0.00     0.029 A 
ATOM     58  N   UNL A   1      44.136  27.476  27.057  1.00  0.00    -0.354 N 
ATOM     59  N   UNL A   1      45.322  30.107  27.342  1.00  0.00    -0.248 NA
ATOM     60  C   UNL A   1      47.084  31.600  27.001  1.00  0.00     0.031 C 
ATOM     61  C   UNL A   1      45.149  25.996  25.741  1.00  0.00     0.029 A 
ATOM     62  C   UNL A   1      45.257  27.273  26.264  1.00  0.00     0.049 A 
ATOM     63  H   UNL A   1      43.939  28.301  27.556  1.00  0.00     0.167 HD
ATOM     64  C   UNL A   1      46.291  29.499  26.557  1.00  0.00     0.074 A 
ATOM     65  C   UNL A   1      47.339  30.474  26.348  1.00  0.00     0.031 C 
ATOM     66  C   UNL A   1      46.309  28.236  26.067  1.00  0.00     0.037 A 
BRANCH  53  67
ATOM     67  C   UNL A   1      41.418  24.853  27.672  1.00  0.00     0.064 A 
ATOM     68  C   UNL A   1      40.284  24.685  26.865  1.00  0.00     0.173 A 
ATOM     69  C   UNL A   1      41.968  23.711  28.277  1.00  0.00     0.173 A 
ATOM     70  F   UNL A   1      39.718  25.743  26.266  1.00  0.00    -0.203 F 
ATOM     71  C   UNL A   1      39.721  23.423  26.674  1.00  0.00     0.198 A 
ATOM     72  C   UNL A   1      41.420  22.448  28.061  1.00  0.00     0.198 A 
ATOM     73  F   UNL A   1      43.063  23.813  29.045  1.00  0.00    -0.203 F 
ATOM     74  F   UNL A   1      38.625  23.289  25.914  1.00  0.00    -0.200 F 
ATOM     75  C   UNL A   1      40.296  22.305  27.262  1.00  0.00     0.200 A 
ATOM     76  F   UNL A   1      41.989  21.368  28.612  1.00  0.00    -0.200 F 
ATOM     77  F   UNL A   1      39.767  21.092  27.056  1.00  0.00    -0.200 F 
ENDBRANCH  53  67
BRANCH  54  78
ATOM     78  C   UNL A   1      45.770  33.746  28.505  1.00  0.00     0.064 A 
ATOM     79  C   UNL A   1      45.404  34.771  27.623  1.00  0.00     0.173 A 
ATOM     80  C   UNL A   1      46.722  34.043  29.492  1.00  0.00     0.173 A 
ATOM     81  F   UNL A   1      44.519  34.530  26.644  1.00  0.00    -0.203 F 
ATOM     82  C   UNL A   1      45.963  36.044  27.729  1.00  0.00     0.198 A 
ATOM     83  C   UNL A   1      47.253  35.323  29.620  1.00  0.00     0.198 A 
ATOM     84  F   UNL A   1      47.109  33.095  30.358  1.00  0.00    -0.203 F 
ATOM     85  F   UNL A   1      45.620  36.999  26.854  1.00  0.00    -0.200 F 
ATOM     86  C   UNL A   1      46.876  36.322  28.735  1.00  0.00     0.200 A 
ATOM     87  F   UNL A   1      48.118  35.591  30.606  1.00  0.00    -0.200 F 
ATOM     88  F   UNL A   1      47.396  37.551  28.852  1.00  0.00    -0.200 F 
ENDBRANCH  54  78
BRANCH  66  89
ATOM     89  C   UNL A   1      47.510  27.812  25.270  1.00  0.00     0.064 A 
ATOM     90  C   UNL A   1      48.643  27.272  25.898  1.00  0.00     0.173 A 
ATOM     91  C   UNL A   1      47.504  27.872  23.868  1.00  0.00     0.173 A 
ATOM     92  F   UNL A   1      48.705  27.206  27.237  1.00  0.00    -0.203 F 
ATOM     93  C   UNL A   1      49.728  26.817  25.153  1.00  0.00     0.198 A 
ATOM     94  C   UNL A   1      48.579  27.392  23.125  1.00  0.00     0.198 A 
ATOM     95  F   UNL A   1      46.444  28.374  23.218  1.00  0.00    -0.203 F 
ATOM     96  F   UNL A   1      50.811  26.332  25.776  1.00  0.00    -0.200 F 
ATOM     97  C   UNL A   1      49.691  26.866  23.768  1.00  0.00     0.200 A 
ATOM     98  F   UNL A   1      48.536  27.426  21.786  1.00  0.00    -0.200 F 
ATOM     99  F   UNL A   1      50.727  26.410  23.051  1.00  0.00    -0.200 F 
ENDBRANCH  66  89
ENDBRANCH  40  41
ENDBRANCH  33  35
ENDBRANCH  32  33
ENDBRANCH  31  32
ENDBRANCH  30  31
ENDBRANCH  29  30
ENDBRANCH   1  29
TORSDOF 17
ENDMDL
