MODEL 1
REMARK VINA RESULT:      -9.5      0.000      0.000
REMARK SMILES CC(C)c1ccc2c(c1)c(SC(C)(C)C)c(CC(C)(C)C(=O)OCCOCCOC(=O)c1ccc(-c3c4nc(c(-c5c(F)c(F)c(F)c(F)c5F)c5ccc([nH]5)c(-c5c(F)c(F)c(F)c(F)c5F)c5nc(c(-c6c(F)c(F)c(F)c(F)c6F)c6ccc3[nH]6)C=C5)C=C4)cc1)n2Cc1ccc(Cl)cc1
REMARK SMILES IDX 25 1 24 2 23 3 21 4 22 5 18 6 19 7 20 8 17 9 16 10 4 11 5 12
REMARK SMILES IDX 9 13 6 14 8 15 7 16 10 17 95 18 2 19 1 20 3 21 11 22 12 23
REMARK SMILES IDX 13 24 14 25 15 26 96 27 97 28 98 29 103 30 99 31 102 32
REMARK SMILES IDX 100 33 101 34 26 35 27 36 28 37 29 38 30 39 31 40 32 41
REMARK SMILES IDX 33 42 94 43 34 44 93 45 35 46 36 47 37 48 87 49 38 50 92 51
REMARK SMILES IDX 86 52 88 53 39 54 91 55 85 56 84 57 40 59 72 60 52 61 71 62
REMARK SMILES IDX 53 63 56 64 70 65 89 66 54 67 55 68 69 70 90 71 57 72 41 73
REMARK SMILES IDX 42 74 50 75 43 76 44 77 48 78 51 79 45 80 46 81 49 82 47 83
REMARK SMILES IDX 73 84 74 85 82 86 75 87 76 88 80 89 83 90 77 91 78 92 81 93
REMARK SMILES IDX 79 94 58 95 59 96 67 97 60 98 61 99 65 100 68 101 62 102
REMARK SMILES IDX 63 103 66 104 64 105
REMARK H PARENT 88 58 56 69
REMARK Flexibility Score: inf
ROOT
ATOM      1  C   UNL A   1      41.730  26.844  36.753  1.00  0.00     0.202 C 
ENDROOT
BRANCH   1   2
ATOM      2  C   UNL A   1      42.095  27.218  35.311  1.00  0.00     0.261 C 
BRANCH   2   3
ATOM      3  O   UNL A   1      42.032  28.626  35.118  1.00  0.00    -0.463 OA
BRANCH   3   4
ATOM      4  C   UNL A   1      41.253  28.920  34.047  1.00  0.00     0.311 C 
ATOM      5  O   UNL A   1      40.329  28.204  33.697  1.00  0.00    -0.252 OA
BRANCH   4   6
ATOM      6  C   UNL A   1      41.697  30.188  33.339  1.00  0.00     0.068 C 
ATOM      7  C   UNL A   1      41.066  29.992  31.947  1.00  0.00     0.024 C 
ATOM      8  C   UNL A   1      43.223  30.299  33.143  1.00  0.00     0.024 C 
BRANCH   6   9
ATOM      9  C   UNL A   1      41.272  31.379  34.273  1.00  0.00     0.073 C 
BRANCH   9  10
ATOM     10  C   UNL A   1      39.961  31.981  33.926  1.00  0.00     0.034 A 
ATOM     11  C   UNL A   1      36.457  32.601  30.983  1.00  0.00    -0.045 A 
ATOM     12  C   UNL A   1      35.911  31.610  31.807  1.00  0.00     0.006 A 
ATOM     13  C   UNL A   1      37.685  33.183  31.365  1.00  0.00     0.015 A 
ATOM     14  C   UNL A   1      36.578  31.143  32.944  1.00  0.00     0.027 A 
ATOM     15  C   UNL A   1      38.402  32.726  32.506  1.00  0.00     0.014 A 
ATOM     16  C   UNL A   1      37.836  31.684  33.248  1.00  0.00     0.050 A 
ATOM     17  C   UNL A   1      39.692  33.045  33.084  1.00  0.00     0.037 A 
ATOM     18  N   UNL A   1      38.749  31.360  34.238  1.00  0.00    -0.339 N 
BRANCH  11  19
ATOM     19  C   UNL A   1      35.702  32.996  29.716  1.00  0.00     0.013 C 
ATOM     20  C   UNL A   1      34.402  33.774  29.945  1.00  0.00     0.012 C 
ATOM     21  C   UNL A   1      36.591  33.805  28.754  1.00  0.00     0.012 C 
ENDBRANCH  11  19
BRANCH  17  22
ATOM     22  S   UNL A   1      40.739  34.281  32.382  1.00  0.00    -0.118 SA
BRANCH  22  23
ATOM     23  C   UNL A   1      41.132  34.188  30.571  1.00  0.00     0.012 C 
ATOM     24  C   UNL A   1      41.357  32.737  30.144  1.00  0.00     0.023 C 
ATOM     25  C   UNL A   1      40.287  34.879  29.481  1.00  0.00     0.023 C 
ATOM     26  C   UNL A   1      42.468  34.976  30.505  1.00  0.00     0.023 C 
ENDBRANCH  22  23
ENDBRANCH  17  22
BRANCH  18  27
ATOM     27  C   UNL A   1      38.384  30.638  35.478  1.00  0.00     0.158 C 
BRANCH  27  28
ATOM     28  C   UNL A   1      38.173  31.391  36.784  1.00  0.00    -0.028 A 
ATOM     29  C   UNL A   1      38.665  32.704  36.918  1.00  0.00     0.007 A 
ATOM     30  C   UNL A   1      37.402  30.874  37.842  1.00  0.00     0.007 A 
ATOM     31  C   UNL A   1      38.420  33.462  38.071  1.00  0.00     0.021 A 
ATOM     32  C   UNL A   1      37.157  31.632  39.000  1.00  0.00     0.021 A 
ATOM     33  C   UNL A   1      37.670  32.922  39.110  1.00  0.00     0.041 A 
ATOM     34  Cl  UNL A   1      37.420  33.835  40.550  1.00  0.00    -0.084 Cl
ENDBRANCH  27  28
ENDBRANCH  18  27
ENDBRANCH   9  10
ENDBRANCH   6   9
ENDBRANCH   4   6
ENDBRANCH   3   4
ENDBRANCH   2   3
ENDBRANCH   1   2
BRANCH   1  35
ATOM     35  O   UNL A   1      42.732  26.515  37.709  1.00  0.00    -0.374 OA
BRANCH  35  36
ATOM     36  C   UNL A   1      43.469  25.321  37.449  1.00  0.00     0.202 C 
BRANCH  36  37
ATOM     37  C   UNL A   1      44.849  25.211  38.100  1.00  0.00     0.261 C 
BRANCH  37  38
ATOM     38  O   UNL A   1      45.784  25.902  37.246  1.00  0.00    -0.460 OA
BRANCH  38  39
ATOM     39  C   UNL A   1      46.666  25.087  36.625  1.00  0.00     0.338 C 
ATOM     40  O   UNL A   1      47.287  24.174  37.140  1.00  0.00    -0.246 OA
BRANCH  39  41
ATOM     41  C   UNL A   1      46.472  25.268  35.171  1.00  0.00     0.060 A 
ATOM     42  C   UNL A   1      45.860  26.419  34.656  1.00  0.00     0.016 A 
ATOM     43  C   UNL A   1      46.640  24.121  34.375  1.00  0.00     0.016 A 
ATOM     44  C   UNL A   1      45.341  26.380  33.364  1.00  0.00     0.010 A 
ATOM     45  C   UNL A   1      46.107  24.081  33.087  1.00  0.00     0.010 A 
ATOM     46  C   UNL A   1      45.429  25.198  32.592  1.00  0.00    -0.014 A 
BRANCH  46  47
ATOM     47  C   UNL A   1      45.053  25.301  31.180  1.00  0.00     0.031 A 
ATOM     48  C   UNL A   1      45.964  26.249  30.495  1.00  0.00     0.074 A 
ATOM     49  C   UNL A   1      44.158  24.595  30.458  1.00  0.00     0.049 A 
ATOM     50  N   UNL A   1      45.671  27.376  29.938  1.00  0.00    -0.248 NA
ATOM     51  C   UNL A   1      47.408  25.971  30.600  1.00  0.00     0.031 C 
ATOM     52  C   UNL A   1      43.427  23.391  30.851  1.00  0.00     0.029 A 
ATOM     53  N   UNL A   1      43.780  24.770  29.147  1.00  0.00    -0.354 N 
ATOM     54  C   UNL A   1      46.884  27.872  29.477  1.00  0.00     0.074 A 
ATOM     55  C   UNL A   1      47.926  27.068  30.057  1.00  0.00     0.031 C 
ATOM     56  C   UNL A   1      42.852  22.839  29.758  1.00  0.00     0.029 A 
ATOM     57  C   UNL A   1      43.086  23.696  28.606  1.00  0.00     0.049 A 
ATOM     58  H   UNL A   1      43.983  25.587  28.636  1.00  0.00     0.167 HD
ATOM     59  C   UNL A   1      46.939  28.724  28.425  1.00  0.00     0.037 A 
ATOM     60  C   UNL A   1      42.789  23.487  27.298  1.00  0.00     0.037 A 
ATOM     61  C   UNL A   1      45.667  29.321  28.135  1.00  0.00     0.049 A 
ATOM     62  C   UNL A   1      42.834  24.782  26.581  1.00  0.00     0.074 A 
ATOM     63  C   UNL A   1      44.929  30.388  28.588  1.00  0.00     0.029 A 
ATOM     64  N   UNL A   1      44.828  28.519  27.416  1.00  0.00    -0.354 N 
ATOM     65  N   UNL A   1      41.967  25.740  26.743  1.00  0.00    -0.248 NA
ATOM     66  C   UNL A   1      44.017  25.131  25.797  1.00  0.00     0.031 C 
ATOM     67  C   UNL A   1      43.577  30.148  28.191  1.00  0.00     0.029 A 
ATOM     68  C   UNL A   1      43.527  28.938  27.507  1.00  0.00     0.049 A 
ATOM     69  H   UNL A   1      45.120  27.737  26.897  1.00  0.00     0.167 HD
ATOM     70  C   UNL A   1      42.677  26.885  26.454  1.00  0.00     0.074 A 
ATOM     71  C   UNL A   1      43.841  26.451  25.702  1.00  0.00     0.031 C 
ATOM     72  C   UNL A   1      42.461  28.030  27.159  1.00  0.00     0.037 A 
BRANCH  59  73
ATOM     73  C   UNL A   1      48.025  28.645  27.388  1.00  0.00     0.064 A 
ATOM     74  C   UNL A   1      48.110  27.521  26.552  1.00  0.00     0.173 A 
ATOM     75  C   UNL A   1      49.149  29.504  27.384  1.00  0.00     0.173 A 
ATOM     76  F   UNL A   1      47.124  26.613  26.531  1.00  0.00    -0.203 F 
ATOM     77  C   UNL A   1      49.246  27.271  25.776  1.00  0.00     0.198 A 
ATOM     78  C   UNL A   1      50.251  29.287  26.563  1.00  0.00     0.198 A 
ATOM     79  F   UNL A   1      49.270  30.516  28.255  1.00  0.00    -0.203 F 
ATOM     80  F   UNL A   1      49.331  26.138  25.067  1.00  0.00    -0.200 F 
ATOM     81  C   UNL A   1      50.310  28.159  25.775  1.00  0.00     0.200 A 
ATOM     82  F   UNL A   1      51.283  30.141  26.604  1.00  0.00    -0.200 F 
ATOM     83  F   UNL A   1      51.411  27.902  25.058  1.00  0.00    -0.200 F 
ENDBRANCH  59  73
BRANCH  60  84
ATOM     84  C   UNL A   1      42.678  22.212  26.541  1.00  0.00     0.064 A 
ATOM     85  C   UNL A   1      43.834  21.544  26.090  1.00  0.00     0.173 A 
ATOM     86  C   UNL A   1      41.484  21.468  26.523  1.00  0.00     0.173 A 
ATOM     87  F   UNL A   1      45.022  22.168  26.094  1.00  0.00    -0.203 F 
ATOM     88  C   UNL A   1      43.808  20.199  25.714  1.00  0.00     0.198 A 
ATOM     89  C   UNL A   1      41.457  20.129  26.130  1.00  0.00     0.198 A 
ATOM     90  F   UNL A   1      40.340  21.991  26.982  1.00  0.00    -0.203 F 
ATOM     91  F   UNL A   1      44.948  19.576  25.382  1.00  0.00    -0.200 F 
ATOM     92  C   UNL A   1      42.621  19.488  25.750  1.00  0.00     0.200 A 
ATOM     93  F   UNL A   1      40.307  19.444  26.195  1.00  0.00    -0.200 F 
ATOM     94  F   UNL A   1      42.607  18.178  25.466  1.00  0.00    -0.200 F 
ENDBRANCH  60  84
BRANCH  72  95
ATOM     95  C   UNL A   1      41.102  28.229  27.743  1.00  0.00     0.064 A 
ATOM     96  C   UNL A   1      40.044  28.879  27.088  1.00  0.00     0.173 A 
ATOM     97  C   UNL A   1      40.856  27.710  29.021  1.00  0.00     0.173 A 
ATOM     98  F   UNL A   1      40.185  29.334  25.835  1.00  0.00    -0.203 F 
ATOM     99  C   UNL A   1      38.810  29.045  27.715  1.00  0.00     0.198 A 
ATOM    100  C   UNL A   1      39.613  27.842  29.628  1.00  0.00     0.198 A 
ATOM    101  F   UNL A   1      41.826  27.051  29.677  1.00  0.00    -0.203 F 
ATOM    102  F   UNL A   1      37.821  29.700  27.088  1.00  0.00    -0.200 F 
ATOM    103  C   UNL A   1      38.594  28.522  28.981  1.00  0.00     0.200 A 
ATOM    104  F   UNL A   1      39.400  27.303  30.836  1.00  0.00    -0.200 F 
ATOM    105  F   UNL A   1      37.399  28.659  29.572  1.00  0.00    -0.200 F 
ENDBRANCH  72  95
ENDBRANCH  46  47
ENDBRANCH  39  41
ENDBRANCH  38  39
ENDBRANCH  37  38
ENDBRANCH  36  37
ENDBRANCH  35  36
ENDBRANCH   1  35
TORSDOF 21
ENDMDL
MODEL 2
REMARK VINA RESULT:      -9.5      1.781      3.148
REMARK SMILES CC(C)c1ccc2c(c1)c(SC(C)(C)C)c(CC(C)(C)C(=O)OCCOCCOC(=O)c1ccc(-c3c4nc(c(-c5c(F)c(F)c(F)c(F)c5F)c5ccc([nH]5)c(-c5c(F)c(F)c(F)c(F)c5F)c5nc(c(-c6c(F)c(F)c(F)c(F)c6F)c6ccc3[nH]6)C=C5)C=C4)cc1)n2Cc1ccc(Cl)cc1
REMARK SMILES IDX 25 1 24 2 23 3 21 4 22 5 18 6 19 7 20 8 17 9 16 10 4 11 5 12
REMARK SMILES IDX 9 13 6 14 8 15 7 16 10 17 95 18 2 19 1 20 3 21 11 22 12 23
REMARK SMILES IDX 13 24 14 25 15 26 96 27 97 28 98 29 103 30 99 31 102 32
REMARK SMILES IDX 100 33 101 34 26 35 27 36 28 37 29 38 30 39 31 40 32 41
REMARK SMILES IDX 33 42 94 43 34 44 93 45 35 46 36 47 37 48 87 49 38 50 92 51
REMARK SMILES IDX 86 52 88 53 39 54 91 55 85 56 84 57 40 59 72 60 52 61 71 62
REMARK SMILES IDX 53 63 56 64 70 65 89 66 54 67 55 68 69 70 90 71 57 72 41 73
REMARK SMILES IDX 42 74 50 75 43 76 44 77 48 78 51 79 45 80 46 81 49 82 47 83
REMARK SMILES IDX 73 84 74 85 82 86 75 87 76 88 80 89 83 90 77 91 78 92 81 93
REMARK SMILES IDX 79 94 58 95 59 96 67 97 60 98 61 99 65 100 68 101 62 102
REMARK SMILES IDX 63 103 66 104 64 105
REMARK H PARENT 88 58 56 69
REMARK Flexibility Score: inf
ROOT
ATOM      1  C   UNL A   1      42.992  27.689  36.421  1.00  0.00     0.202 C 
ENDROOT
BRANCH   1   2
ATOM      2  C   UNL A   1      41.531  27.869  35.991  1.00  0.00     0.261 C 
BRANCH   2   3
ATOM      3  O   UNL A   1      41.363  29.066  35.243  1.00  0.00    -0.463 OA
BRANCH   3   4
ATOM      4  C   UNL A   1      40.946  28.780  33.984  1.00  0.00     0.311 C 
ATOM      5  O   UNL A   1      40.014  28.026  33.761  1.00  0.00    -0.252 OA
BRANCH   4   6
ATOM      6  C   UNL A   1      41.796  29.463  32.925  1.00  0.00     0.068 C 
ATOM      7  C   UNL A   1      40.717  29.928  31.929  1.00  0.00     0.024 C 
ATOM      8  C   UNL A   1      42.745  28.511  32.169  1.00  0.00     0.024 C 
BRANCH   6   9
ATOM      9  C   UNL A   1      42.703  30.493  33.693  1.00  0.00     0.073 C 
BRANCH   9  10
ATOM     10  C   UNL A   1      43.030  31.710  32.912  1.00  0.00     0.034 A 
ATOM     11  C   UNL A   1      43.097  34.056  28.935  1.00  0.00    -0.045 A 
ATOM     12  C   UNL A   1      41.950  34.604  29.522  1.00  0.00     0.006 A 
ATOM     13  C   UNL A   1      43.901  33.200  29.717  1.00  0.00     0.015 A 
ATOM     14  C   UNL A   1      41.553  34.272  30.820  1.00  0.00     0.027 A 
ATOM     15  C   UNL A   1      43.525  32.826  31.037  1.00  0.00     0.014 A 
ATOM     16  C   UNL A   1      42.330  33.351  31.540  1.00  0.00     0.050 A 
ATOM     17  C   UNL A   1      44.071  31.918  32.026  1.00  0.00     0.037 A 
ATOM     18  N   UNL A   1      42.137  32.778  32.787  1.00  0.00    -0.339 N 
BRANCH  11  19
ATOM     19  C   UNL A   1      43.415  34.409  27.484  1.00  0.00     0.013 C 
ATOM     20  C   UNL A   1      42.918  35.783  27.020  1.00  0.00     0.012 C 
ATOM     21  C   UNL A   1      44.924  34.314  27.194  1.00  0.00     0.012 C 
ENDBRANCH  11  19
BRANCH  17  22
ATOM     22  S   UNL A   1      45.556  31.011  31.727  1.00  0.00    -0.118 SA
BRANCH  22  23
ATOM     23  C   UNL A   1      47.181  31.804  32.147  1.00  0.00     0.012 C 
ATOM     24  C   UNL A   1      47.385  33.078  31.325  1.00  0.00     0.023 C 
ATOM     25  C   UNL A   1      47.638  32.092  33.592  1.00  0.00     0.023 C 
ATOM     26  C   UNL A   1      48.184  30.711  31.692  1.00  0.00     0.023 C 
ENDBRANCH  22  23
ENDBRANCH  17  22
BRANCH  18  27
ATOM     27  C   UNL A   1      41.259  33.363  33.825  1.00  0.00     0.158 C 
BRANCH  27  28
ATOM     28  C   UNL A   1      39.745  33.275  33.706  1.00  0.00    -0.028 A 
ATOM     29  C   UNL A   1      39.087  32.078  34.051  1.00  0.00     0.007 A 
ATOM     30  C   UNL A   1      38.944  34.382  33.367  1.00  0.00     0.007 A 
ATOM     31  C   UNL A   1      37.690  31.980  34.036  1.00  0.00     0.021 A 
ATOM     32  C   UNL A   1      37.542  34.286  33.349  1.00  0.00     0.021 A 
ATOM     33  C   UNL A   1      36.921  33.084  33.680  1.00  0.00     0.041 A 
ATOM     34  Cl  UNL A   1      35.205  32.945  33.606  1.00  0.00    -0.084 Cl
ENDBRANCH  27  28
ENDBRANCH  18  27
ENDBRANCH   9  10
ENDBRANCH   6   9
ENDBRANCH   4   6
ENDBRANCH   3   4
ENDBRANCH   2   3
ENDBRANCH   1   2
BRANCH   1  35
ATOM     35  O   UNL A   1      43.330  27.093  37.669  1.00  0.00    -0.374 OA
BRANCH  35  36
ATOM     36  C   UNL A   1      43.464  25.672  37.661  1.00  0.00     0.202 C 
BRANCH  36  37
ATOM     37  C   UNL A   1      44.830  25.110  38.056  1.00  0.00     0.261 C 
BRANCH  37  38
ATOM     38  O   UNL A   1      45.815  25.739  37.211  1.00  0.00    -0.460 OA
BRANCH  38  39
ATOM     39  C   UNL A   1      46.488  24.876  36.417  1.00  0.00     0.338 C 
ATOM     40  O   UNL A   1      47.245  23.997  36.789  1.00  0.00    -0.246 OA
BRANCH  39  41
ATOM     41  C   UNL A   1      45.875  24.956  35.074  1.00  0.00     0.060 A 
ATOM     42  C   UNL A   1      45.577  23.799  34.340  1.00  0.00     0.016 A 
ATOM     43  C   UNL A   1      45.896  26.218  34.456  1.00  0.00     0.016 A 
ATOM     44  C   UNL A   1      45.386  23.910  32.966  1.00  0.00     0.010 A 
ATOM     45  C   UNL A   1      45.717  26.324  33.077  1.00  0.00     0.010 A 
ATOM     46  C   UNL A   1      45.495  25.167  32.326  1.00  0.00    -0.014 A 
BRANCH  46  47
ATOM     47  C   UNL A   1      45.074  25.233  30.924  1.00  0.00     0.031 A 
ATOM     48  C   UNL A   1      45.977  26.144  30.181  1.00  0.00     0.074 A 
ATOM     49  C   UNL A   1      44.144  24.521  30.254  1.00  0.00     0.049 A 
ATOM     50  N   UNL A   1      45.684  27.258  29.598  1.00  0.00    -0.248 NA
ATOM     51  C   UNL A   1      47.419  25.845  30.247  1.00  0.00     0.031 C 
ATOM     52  C   UNL A   1      43.408  23.342  30.708  1.00  0.00     0.029 A 
ATOM     53  N   UNL A   1      43.726  24.662  28.951  1.00  0.00    -0.354 N 
ATOM     54  C   UNL A   1      46.888  27.719  29.083  1.00  0.00     0.074 A 
ATOM     55  C   UNL A   1      47.936  26.916  29.654  1.00  0.00     0.031 C 
ATOM     56  C   UNL A   1      42.788  22.766  29.652  1.00  0.00     0.029 A 
ATOM     57  C   UNL A   1      42.997  23.584  28.467  1.00  0.00     0.049 A 
ATOM     58  H   UNL A   1      43.925  25.460  28.409  1.00  0.00     0.167 HD
ATOM     59  C   UNL A   1      46.922  28.538  28.004  1.00  0.00     0.037 A 
ATOM     60  C   UNL A   1      42.653  23.340  27.177  1.00  0.00     0.037 A 
ATOM     61  C   UNL A   1      45.651  29.147  27.737  1.00  0.00     0.049 A 
ATOM     62  C   UNL A   1      42.695  24.611  26.419  1.00  0.00     0.074 A 
ATOM     63  C   UNL A   1      44.944  30.240  28.181  1.00  0.00     0.029 A 
ATOM     64  N   UNL A   1      44.775  28.338  27.072  1.00  0.00    -0.354 N 
ATOM     65  N   UNL A   1      41.849  25.589  26.579  1.00  0.00    -0.248 NA
ATOM     66  C   UNL A   1      43.856  24.917  25.586  1.00  0.00     0.031 C 
ATOM     67  C   UNL A   1      43.577  30.010  27.836  1.00  0.00     0.029 A 
ATOM     68  C   UNL A   1      43.485  28.782  27.192  1.00  0.00     0.049 A 
ATOM     69  H   UNL A   1      45.037  27.535  26.568  1.00  0.00     0.167 HD
ATOM     70  C   UNL A   1      42.567  26.712  26.232  1.00  0.00     0.074 A 
ATOM     71  C   UNL A   1      43.699  26.236  25.456  1.00  0.00     0.031 C 
ATOM     72  C   UNL A   1      42.393  27.882  26.907  1.00  0.00     0.037 A 
BRANCH  59  73
ATOM     73  C   UNL A   1      47.971  28.409  26.934  1.00  0.00     0.064 A 
ATOM     74  C   UNL A   1      47.986  27.277  26.106  1.00  0.00     0.173 A 
ATOM     75  C   UNL A   1      49.127  29.222  26.890  1.00  0.00     0.173 A 
ATOM     76  F   UNL A   1      46.964  26.409  26.122  1.00  0.00    -0.203 F 
ATOM     77  C   UNL A   1      49.086  26.976  25.297  1.00  0.00     0.198 A 
ATOM     78  C   UNL A   1      50.194  28.956  26.037  1.00  0.00     0.198 A 
ATOM     79  F   UNL A   1      49.315  30.234  27.748  1.00  0.00    -0.203 F 
ATOM     80  F   UNL A   1      49.104  25.836  24.595  1.00  0.00    -0.200 F 
ATOM     81  C   UNL A   1      50.184  27.821  25.256  1.00  0.00     0.200 A 
ATOM     82  F   UNL A   1      51.260  29.769  26.039  1.00  0.00    -0.200 F 
ATOM     83  F   UNL A   1      51.251  27.516  24.508  1.00  0.00    -0.200 F 
ENDBRANCH  59  73
BRANCH  60  84
ATOM     84  C   UNL A   1      42.498  22.045  26.464  1.00  0.00     0.064 A 
ATOM     85  C   UNL A   1      43.627  21.345  25.995  1.00  0.00     0.173 A 
ATOM     86  C   UNL A   1      41.292  21.321  26.509  1.00  0.00     0.173 A 
ATOM     87  F   UNL A   1      44.824  21.948  25.940  1.00  0.00    -0.203 F 
ATOM     88  C   UNL A   1      43.567  19.989  25.662  1.00  0.00     0.198 A 
ATOM     89  C   UNL A   1      41.231  19.970  26.159  1.00  0.00     0.198 A 
ATOM     90  F   UNL A   1      40.172  21.876  26.990  1.00  0.00    -0.203 F 
ATOM     91  F   UNL A   1      44.685  19.337  25.311  1.00  0.00    -0.200 F 
ATOM     92  C   UNL A   1      42.372  19.299  25.759  1.00  0.00     0.200 A 
ATOM     93  F   UNL A   1      40.073  19.306  26.284  1.00  0.00    -0.200 F 
ATOM     94  F   UNL A   1      42.327  17.982  25.517  1.00  0.00    -0.200 F 
ENDBRANCH  60  84
BRANCH  72  95
ATOM     95  C   UNL A   1      41.058  28.121  27.529  1.00  0.00     0.064 A 
ATOM     96  C   UNL A   1      40.016  28.840  26.921  1.00  0.00     0.173 A 
ATOM     97  C   UNL A   1      40.817  27.571  28.795  1.00  0.00     0.173 A 
ATOM     98  F   UNL A   1      40.150  29.330  25.680  1.00  0.00    -0.203 F 
ATOM     99  C   UNL A   1      38.805  29.040  27.581  1.00  0.00     0.198 A 
ATOM    100  C   UNL A   1      39.595  27.738  29.435  1.00  0.00     0.198 A 
ATOM    101  F   UNL A   1      41.769  26.847  29.406  1.00  0.00    -0.203 F 
ATOM    102  F   UNL A   1      37.834  29.758  26.999  1.00  0.00    -0.200 F 
ATOM    103  C   UNL A   1      38.594  28.484  28.834  1.00  0.00     0.200 A 
ATOM    104  F   UNL A   1      39.384  27.168  30.629  1.00  0.00    -0.200 F 
ATOM    105  F   UNL A   1      37.419  28.654  29.458  1.00  0.00    -0.200 F 
ENDBRANCH  72  95
ENDBRANCH  46  47
ENDBRANCH  39  41
ENDBRANCH  38  39
ENDBRANCH  37  38
ENDBRANCH  36  37
ENDBRANCH  35  36
ENDBRANCH   1  35
TORSDOF 21
ENDMDL
MODEL 3
REMARK VINA RESULT:      -9.2      5.796     10.668
REMARK SMILES CC(C)c1ccc2c(c1)c(SC(C)(C)C)c(CC(C)(C)C(=O)OCCOCCOC(=O)c1ccc(-c3c4nc(c(-c5c(F)c(F)c(F)c(F)c5F)c5ccc([nH]5)c(-c5c(F)c(F)c(F)c(F)c5F)c5nc(c(-c6c(F)c(F)c(F)c(F)c6F)c6ccc3[nH]6)C=C5)C=C4)cc1)n2Cc1ccc(Cl)cc1
REMARK SMILES IDX 25 1 24 2 23 3 21 4 22 5 18 6 19 7 20 8 17 9 16 10 4 11 5 12
REMARK SMILES IDX 9 13 6 14 8 15 7 16 10 17 95 18 2 19 1 20 3 21 11 22 12 23
REMARK SMILES IDX 13 24 14 25 15 26 96 27 97 28 98 29 103 30 99 31 102 32
REMARK SMILES IDX 100 33 101 34 26 35 27 36 28 37 29 38 30 39 31 40 32 41
REMARK SMILES IDX 33 42 94 43 34 44 93 45 35 46 36 47 37 48 87 49 38 50 92 51
REMARK SMILES IDX 86 52 88 53 39 54 91 55 85 56 84 57 40 59 72 60 52 61 71 62
REMARK SMILES IDX 53 63 56 64 70 65 89 66 54 67 55 68 69 70 90 71 57 72 41 73
REMARK SMILES IDX 42 74 50 75 43 76 44 77 48 78 51 79 45 80 46 81 49 82 47 83
REMARK SMILES IDX 73 84 74 85 82 86 75 87 76 88 80 89 83 90 77 91 78 92 81 93
REMARK SMILES IDX 79 94 58 95 59 96 67 97 60 98 61 99 65 100 68 101 62 102
REMARK SMILES IDX 63 103 66 104 64 105
REMARK H PARENT 88 58 56 69
REMARK Flexibility Score: inf
ROOT
ATOM      1  C   UNL A   1      35.406  31.169  27.911  1.00  0.00     0.202 C 
ENDROOT
BRANCH   1   2
ATOM      2  C   UNL A   1      34.142  30.756  27.150  1.00  0.00     0.261 C 
BRANCH   2   3
ATOM      3  O   UNL A   1      33.655  29.503  27.612  1.00  0.00    -0.463 OA
BRANCH   3   4
ATOM      4  C   UNL A   1      34.137  28.497  26.840  1.00  0.00     0.311 C 
ATOM      5  O   UNL A   1      35.319  28.195  26.825  1.00  0.00    -0.252 OA
BRANCH   4   6
ATOM      6  C   UNL A   1      33.056  27.850  25.990  1.00  0.00     0.068 C 
ATOM      7  C   UNL A   1      33.674  27.960  24.583  1.00  0.00     0.024 C 
ATOM      8  C   UNL A   1      31.722  28.624  25.972  1.00  0.00     0.024 C 
BRANCH   6   9
ATOM      9  C   UNL A   1      32.762  26.453  26.651  1.00  0.00     0.073 C 
BRANCH   9  10
ATOM     10  C   UNL A   1      32.684  25.332  25.683  1.00  0.00     0.034 A 
ATOM     11  C   UNL A   1      32.803  20.817  24.720  1.00  0.00    -0.045 A 
ATOM     12  C   UNL A   1      31.419  21.020  24.769  1.00  0.00     0.006 A 
ATOM     13  C   UNL A   1      33.644  21.949  24.779  1.00  0.00     0.015 A 
ATOM     14  C   UNL A   1      30.863  22.291  24.941  1.00  0.00     0.027 A 
ATOM     15  C   UNL A   1      33.119  23.258  24.968  1.00  0.00     0.014 A 
ATOM     16  C   UNL A   1      31.730  23.385  25.081  1.00  0.00     0.050 A 
ATOM     17  C   UNL A   1      33.710  24.567  25.159  1.00  0.00     0.037 A 
ATOM     18  N   UNL A   1      31.474  24.720  25.347  1.00  0.00    -0.339 N 
BRANCH  11  19
ATOM     19  C   UNL A   1      33.329  19.387  24.612  1.00  0.00     0.013 C 
ATOM     20  C   UNL A   1      32.843  18.427  25.703  1.00  0.00     0.012 C 
ATOM     21  C   UNL A   1      33.008  18.768  23.240  1.00  0.00     0.012 C 
ENDBRANCH  11  19
BRANCH  17  22
ATOM     22  S   UNL A   1      35.460  24.801  25.144  1.00  0.00    -0.118 SA
BRANCH  22  23
ATOM     23  C   UNL A   1      36.553  23.364  25.574  1.00  0.00     0.012 C 
ATOM     24  C   UNL A   1      35.947  22.554  26.722  1.00  0.00     0.023 C 
ATOM     25  C   UNL A   1      37.103  22.371  24.530  1.00  0.00     0.023 C 
ATOM     26  C   UNL A   1      37.839  24.088  26.055  1.00  0.00     0.023 C 
ENDBRANCH  22  23
ENDBRANCH  17  22
BRANCH  18  27
ATOM     27  C   UNL A   1      30.160  25.360  25.109  1.00  0.00     0.158 C 
BRANCH  27  28
ATOM     28  C   UNL A   1      30.014  26.482  24.092  1.00  0.00    -0.028 A 
ATOM     29  C   UNL A   1      28.917  27.363  24.179  1.00  0.00     0.007 A 
ATOM     30  C   UNL A   1      30.993  26.757  23.118  1.00  0.00     0.007 A 
ATOM     31  C   UNL A   1      28.789  28.458  23.314  1.00  0.00     0.021 A 
ATOM     32  C   UNL A   1      30.865  27.854  22.249  1.00  0.00     0.021 A 
ATOM     33  C   UNL A   1      29.762  28.698  22.349  1.00  0.00     0.041 A 
ATOM     34  Cl  UNL A   1      29.572  30.012  21.250  1.00  0.00    -0.084 Cl
ENDBRANCH  27  28
ENDBRANCH  18  27
ENDBRANCH   9  10
ENDBRANCH   6   9
ENDBRANCH   4   6
ENDBRANCH   3   4
ENDBRANCH   2   3
ENDBRANCH   1   2
BRANCH   1  35
ATOM     35  O   UNL A   1      35.754  32.539  28.084  1.00  0.00    -0.374 OA
BRANCH  35  36
ATOM     36  C   UNL A   1      34.672  33.419  28.387  1.00  0.00     0.202 C 
BRANCH  36  37
ATOM     37  C   UNL A   1      34.427  33.723  29.865  1.00  0.00     0.261 C 
BRANCH  37  38
ATOM     38  O   UNL A   1      34.512  32.473  30.581  1.00  0.00    -0.460 OA
BRANCH  38  39
ATOM     39  C   UNL A   1      35.127  32.568  31.781  1.00  0.00     0.338 C 
ATOM     40  O   UNL A   1      34.619  32.947  32.822  1.00  0.00    -0.246 OA
BRANCH  39  41
ATOM     41  C   UNL A   1      36.391  31.807  31.681  1.00  0.00     0.060 A 
ATOM     42  C   UNL A   1      37.625  32.460  31.561  1.00  0.00     0.016 A 
ATOM     43  C   UNL A   1      36.269  30.435  31.402  1.00  0.00     0.016 A 
ATOM     44  C   UNL A   1      38.716  31.744  31.076  1.00  0.00     0.010 A 
ATOM     45  C   UNL A   1      37.360  29.724  30.903  1.00  0.00     0.010 A 
ATOM     46  C   UNL A   1      38.575  30.385  30.708  1.00  0.00    -0.014 A 
BRANCH  46  47
ATOM     47  C   UNL A   1      39.807  29.650  30.410  1.00  0.00     0.031 A 
ATOM     48  C   UNL A   1      40.556  29.412  31.668  1.00  0.00     0.074 A 
ATOM     49  C   UNL A   1      40.233  29.084  29.262  1.00  0.00     0.049 A 
ATOM     50  N   UNL A   1      41.723  29.855  31.997  1.00  0.00    -0.248 NA
ATOM     51  C   UNL A   1      39.827  28.731  32.752  1.00  0.00     0.031 C 
ATOM     52  C   UNL A   1      39.489  28.894  28.017  1.00  0.00     0.029 A 
ATOM     53  N   UNL A   1      41.433  28.463  29.002  1.00  0.00    -0.354 N 
ATOM     54  C   UNL A   1      41.941  29.366  33.278  1.00  0.00     0.074 A 
ATOM     55  C   UNL A   1      40.692  28.840  33.757  1.00  0.00     0.031 C 
ATOM     56  C   UNL A   1      40.172  28.046  27.213  1.00  0.00     0.029 A 
ATOM     57  C   UNL A   1      41.442  27.710  27.835  1.00  0.00     0.049 A 
ATOM     58  H   UNL A   1      42.217  28.545  29.592  1.00  0.00     0.167 HD
ATOM     59  C   UNL A   1      43.196  29.166  33.748  1.00  0.00     0.037 A 
ATOM     60  C   UNL A   1      42.389  26.819  27.443  1.00  0.00     0.037 A 
ATOM     61  C   UNL A   1      44.189  29.852  32.972  1.00  0.00     0.049 A 
ATOM     62  C   UNL A   1      43.657  27.123  28.144  1.00  0.00     0.074 A 
ATOM     63  C   UNL A   1      44.725  31.116  32.914  1.00  0.00     0.029 A 
ATOM     64  N   UNL A   1      44.538  29.207  31.821  1.00  0.00    -0.354 N 
ATOM     65  N   UNL A   1      44.389  28.175  27.913  1.00  0.00    -0.248 NA
ATOM     66  C   UNL A   1      44.039  26.338  29.316  1.00  0.00     0.031 C 
ATOM     67  C   UNL A   1      45.337  31.242  31.628  1.00  0.00     0.029 A 
ATOM     68  C   UNL A   1      45.156  30.050  30.936  1.00  0.00     0.049 A 
ATOM     69  H   UNL A   1      44.368  28.254  31.647  1.00  0.00     0.167 HD
ATOM     70  C   UNL A   1      45.027  28.407  29.111  1.00  0.00     0.074 A 
ATOM     71  C   UNL A   1      44.937  27.164  29.857  1.00  0.00     0.031 C 
ATOM     72  C   UNL A   1      45.246  29.680  29.544  1.00  0.00     0.037 A 
BRANCH  59  73
ATOM     73  C   UNL A   1      43.549  27.983  34.607  1.00  0.00     0.064 A 
ATOM     74  C   UNL A   1      43.502  26.690  34.065  1.00  0.00     0.173 A 
ATOM     75  C   UNL A   1      43.653  28.060  36.015  1.00  0.00     0.173 A 
ATOM     76  F   UNL A   1      43.341  26.511  32.746  1.00  0.00    -0.203 F 
ATOM     77  C   UNL A   1      43.545  25.554  34.879  1.00  0.00     0.198 A 
ATOM     78  C   UNL A   1      43.761  26.928  36.818  1.00  0.00     0.198 A 
ATOM     79  F   UNL A   1      43.539  29.223  36.672  1.00  0.00    -0.203 F 
ATOM     80  F   UNL A   1      43.399  24.339  34.334  1.00  0.00    -0.200 F 
ATOM     81  C   UNL A   1      43.685  25.674  36.252  1.00  0.00     0.200 A 
ATOM     82  F   UNL A   1      43.861  27.068  38.147  1.00  0.00    -0.200 F 
ATOM     83  F   UNL A   1      43.693  24.588  37.034  1.00  0.00    -0.200 F 
ENDBRANCH  59  73
BRANCH  60  84
ATOM     84  C   UNL A   1      42.244  25.561  26.662  1.00  0.00     0.064 A 
ATOM     85  C   UNL A   1      43.112  25.280  25.589  1.00  0.00     0.173 A 
ATOM     86  C   UNL A   1      41.478  24.483  27.142  1.00  0.00     0.173 A 
ATOM     87  F   UNL A   1      43.897  26.242  25.082  1.00  0.00    -0.203 F 
ATOM     88  C   UNL A   1      43.255  23.988  25.078  1.00  0.00     0.198 A 
ATOM     89  C   UNL A   1      41.611  23.195  26.618  1.00  0.00     0.198 A 
ATOM     90  F   UNL A   1      40.663  24.630  28.194  1.00  0.00    -0.203 F 
ATOM     91  F   UNL A   1      44.162  23.745  24.120  1.00  0.00    -0.200 F 
ATOM     92  C   UNL A   1      42.516  22.943  25.604  1.00  0.00     0.200 A 
ATOM     93  F   UNL A   1      40.910  22.187  27.155  1.00  0.00    -0.200 F 
ATOM     94  F   UNL A   1      42.710  21.690  25.170  1.00  0.00    -0.200 F 
ENDBRANCH  60  84
BRANCH  72  95
ATOM     95  C   UNL A   1      45.390  30.741  28.505  1.00  0.00     0.064 A 
ATOM     96  C   UNL A   1      44.325  31.497  27.988  1.00  0.00     0.173 A 
ATOM     97  C   UNL A   1      46.678  31.022  28.030  1.00  0.00     0.173 A 
ATOM     98  F   UNL A   1      43.077  31.333  28.450  1.00  0.00    -0.203 F 
ATOM     99  C   UNL A   1      44.542  32.454  26.999  1.00  0.00     0.198 A 
ATOM    100  C   UNL A   1      46.897  32.005  27.072  1.00  0.00     0.198 A 
ATOM    101  F   UNL A   1      47.735  30.350  28.516  1.00  0.00    -0.203 F 
ATOM    102  F   UNL A   1      43.508  33.142  26.491  1.00  0.00    -0.200 F 
ATOM    103  C   UNL A   1      45.827  32.711  26.546  1.00  0.00     0.200 A 
ATOM    104  F   UNL A   1      48.145  32.274  26.666  1.00  0.00    -0.200 F 
ATOM    105  F   UNL A   1      46.039  33.651  25.614  1.00  0.00    -0.200 F 
ENDBRANCH  72  95
ENDBRANCH  46  47
ENDBRANCH  39  41
ENDBRANCH  38  39
ENDBRANCH  37  38
ENDBRANCH  36  37
ENDBRANCH  35  36
ENDBRANCH   1  35
TORSDOF 21
ENDMDL
