MODEL 1
REMARK VINA RESULT:     -11.2      0.000      0.000
REMARK SMILES CC(=O)Nc1nc(C[N@@H+]2CCO[C@@H](CC(=O)OCCOCCOC(=O)c3ccc(-c4c5nc(c(-c6c(F)c(F)c(F)c(F)c6F)c6ccc([nH]6)c(-c6c(F)c(F)c(F)c(F)c6F)c6nc(c(-c7c(F)c(F)c(F)c(F)c7F)c7ccc4[nH]7)C=C6)C=C5)cc3)C2)cs1
REMARK SMILES IDX 19 1 18 2 17 3 15 4 16 5 14 6 13 7 9 8 10 9 89 10 11 12
REMARK SMILES IDX 12 13 8 14 7 15 5 16 6 17 91 18 90 19 4 20 1 21 2 22 3 23
REMARK SMILES IDX 20 25 21 26 22 27 23 28 24 29 25 30 26 31 27 32 88 33 28 34
REMARK SMILES IDX 87 35 29 36 30 37 31 38 81 39 32 40 86 41 80 42 82 43 33 44
REMARK SMILES IDX 85 45 79 46 78 47 34 49 66 50 46 51 65 52 47 53 50 54 64 55
REMARK SMILES IDX 83 56 48 57 49 58 63 60 84 61 51 62 35 63 36 64 44 65 37 66
REMARK SMILES IDX 38 67 42 68 45 69 39 70 40 71 43 72 41 73 67 74 68 75 76 76
REMARK SMILES IDX 69 77 70 78 74 79 77 80 71 81 72 82 75 83 73 84 52 85 53 86
REMARK SMILES IDX 61 87 54 88 55 89 59 90 62 91 56 92 57 93 60 94 58 95
REMARK H PARENT 9 11 4 24 82 48 50 59
REMARK Flexibility Score: inf
ROOT
ATOM      1  C   UNL A   1      43.827  19.182  25.009  1.00  0.00     0.202 C 
ENDROOT
BRANCH   1   2
ATOM      2  C   UNL A   1      42.926  19.672  26.146  1.00  0.00     0.261 C 
BRANCH   2   3
ATOM      3  O   UNL A   1      41.839  20.525  25.731  1.00  0.00    -0.463 OA
BRANCH   3   4
ATOM      4  C   UNL A   1      40.996  20.914  26.728  1.00  0.00     0.308 C 
ATOM      5  O   UNL A   1      40.797  20.282  27.758  1.00  0.00    -0.252 OA
BRANCH   4   6
ATOM      6  C   UNL A   1      40.213  22.145  26.379  1.00  0.00     0.160 C 
BRANCH   6   7
ATOM      7  C   UNL A   1      38.700  22.061  26.178  1.00  0.00     0.184 C 
ATOM      8  N   UNL A   1      36.691  23.314  25.203  1.00  0.00    -0.326 N 
ATOM      9  C   UNL A   1      36.602  22.241  24.213  1.00  0.00     0.291 C 
ATOM     10  C   UNL A   1      38.030  23.408  25.808  1.00  0.00     0.295 C 
ATOM     11  H   UNL A   1      36.611  24.182  24.673  1.00  0.00     0.348 HD
ATOM     12  C   UNL A   1      37.240  20.923  24.664  1.00  0.00     0.222 C 
ATOM     13  O   UNL A   1      38.584  21.117  25.086  1.00  0.00    -0.366 OA
BRANCH   8  14
ATOM     14  C   UNL A   1      35.519  23.546  26.050  1.00  0.00     0.320 C 
BRANCH  14  15
ATOM     15  C   UNL A   1      34.342  22.644  25.812  1.00  0.00     0.108 A 
ATOM     16  C   UNL A   1      33.250  20.740  26.054  1.00  0.00     0.189 A 
ATOM     17  N   UNL A   1      34.291  21.416  26.464  1.00  0.00    -0.219 NA
ATOM     18  S   UNL A   1      32.234  21.514  24.932  1.00  0.00    -0.105 S 
ATOM     19  C   UNL A   1      33.198  22.927  25.084  1.00  0.00     0.098 A 
BRANCH  16  20
ATOM     20  N   UNL A   1      32.899  19.461  26.360  1.00  0.00    -0.302 N 
ATOM     21  C   UNL A   1      33.895  18.452  24.330  1.00  0.00     0.114 C 
ATOM     22  C   UNL A   1      32.937  18.409  25.495  1.00  0.00     0.223 C 
ATOM     23  O   UNL A   1      32.273  17.401  25.739  1.00  0.00    -0.275 OA
ATOM     24  H   UNL A   1      32.592  19.282  27.278  1.00  0.00     0.172 HD
ENDBRANCH  16  20
ENDBRANCH  14  15
ENDBRANCH   8  14
ENDBRANCH   6   7
ENDBRANCH   4   6
ENDBRANCH   3   4
ENDBRANCH   2   3
ENDBRANCH   1   2
BRANCH   1  25
ATOM     25  O   UNL A   1      44.410  20.177  24.175  1.00  0.00    -0.374 OA
BRANCH  25  26
ATOM     26  C   UNL A   1      44.700  21.440  24.762  1.00  0.00     0.202 C 
BRANCH  26  27
ATOM     27  C   UNL A   1      44.150  22.660  24.031  1.00  0.00     0.261 C 
BRANCH  27  28
ATOM     28  O   UNL A   1      43.461  23.574  24.896  1.00  0.00    -0.460 OA
BRANCH  28  29
ATOM     29  C   UNL A   1      44.129  24.725  25.139  1.00  0.00     0.338 C 
ATOM     30  O   UNL A   1      45.159  25.121  24.613  1.00  0.00    -0.246 OA
BRANCH  29  31
ATOM     31  C   UNL A   1      43.366  25.550  26.085  1.00  0.00     0.060 A 
ATOM     32  C   UNL A   1      43.687  26.907  26.189  1.00  0.00     0.016 A 
ATOM     33  C   UNL A   1      42.448  24.963  26.957  1.00  0.00     0.016 A 
ATOM     34  C   UNL A   1      43.117  27.676  27.205  1.00  0.00     0.010 A 
ATOM     35  C   UNL A   1      41.877  25.736  27.973  1.00  0.00     0.010 A 
ATOM     36  C   UNL A   1      42.238  27.086  28.124  1.00  0.00    -0.014 A 
BRANCH  36  37
ATOM     37  C   UNL A   1      41.801  27.853  29.316  1.00  0.00     0.031 A 
ATOM     38  C   UNL A   1      40.540  28.670  29.248  1.00  0.00     0.074 A 
ATOM     39  C   UNL A   1      42.503  27.795  30.460  1.00  0.00     0.049 A 
ATOM     40  N   UNL A   1      39.962  29.386  30.178  1.00  0.00    -0.248 NA
ATOM     41  C   UNL A   1      39.838  28.682  27.955  1.00  0.00     0.031 C 
ATOM     42  C   UNL A   1      43.729  27.025  30.657  1.00  0.00     0.029 A 
ATOM     43  N   UNL A   1      42.281  28.395  31.674  1.00  0.00    -0.354 N 
ATOM     44  C   UNL A   1      38.826  29.927  29.589  1.00  0.00     0.074 A 
ATOM     45  C   UNL A   1      38.819  29.490  28.208  1.00  0.00     0.031 C 
ATOM     46  C   UNL A   1      44.150  27.193  31.922  1.00  0.00     0.029 A 
ATOM     47  C   UNL A   1      43.235  28.098  32.615  1.00  0.00     0.049 A 
ATOM     48  H   UNL A   1      41.511  28.981  31.854  1.00  0.00     0.167 HD
ATOM     49  C   UNL A   1      37.870  30.705  30.149  1.00  0.00     0.037 A 
ATOM     50  C   UNL A   1      43.355  28.513  33.891  1.00  0.00     0.037 A 
ATOM     51  C   UNL A   1      37.880  31.146  31.520  1.00  0.00     0.049 A 
ATOM     52  C   UNL A   1      42.311  29.426  34.475  1.00  0.00     0.074 A 
ATOM     53  C   UNL A   1      36.947  31.921  32.186  1.00  0.00     0.029 A 
ATOM     54  N   UNL A   1      38.883  30.855  32.432  1.00  0.00    -0.354 N 
ATOM     55  N   UNL A   1      41.221  29.901  33.922  1.00  0.00    -0.248 NA
ATOM     56  C   UNL A   1      42.512  29.857  35.866  1.00  0.00     0.031 C 
ATOM     57  C   UNL A   1      37.407  32.134  33.491  1.00  0.00     0.029 A 
ATOM     58  C   UNL A   1      38.604  31.454  33.650  1.00  0.00     0.049 A 
ATOM     59  H   UNL A   1      39.675  30.302  32.244  1.00  0.00     0.167 HD
ATOM     60  C   UNL A   1      40.593  30.659  34.901  1.00  0.00     0.074 A 
ATOM     61  C   UNL A   1      41.420  30.576  36.087  1.00  0.00     0.031 C 
ATOM     62  C   UNL A   1      39.435  31.359  34.824  1.00  0.00     0.037 A 
BRANCH  49  63
ATOM     63  C   UNL A   1      36.739  31.144  29.267  1.00  0.00     0.064 A 
ATOM     64  C   UNL A   1      36.643  32.462  28.797  1.00  0.00     0.173 A 
ATOM     65  C   UNL A   1      35.746  30.233  28.875  1.00  0.00     0.173 A 
ATOM     66  F   UNL A   1      37.559  33.374  29.154  1.00  0.00    -0.203 F 
ATOM     67  C   UNL A   1      35.577  32.860  27.993  1.00  0.00     0.198 A 
ATOM     68  C   UNL A   1      34.697  30.628  28.049  1.00  0.00     0.198 A 
ATOM     69  F   UNL A   1      35.795  28.959  29.293  1.00  0.00    -0.203 F 
ATOM     70  F   UNL A   1      35.479  34.137  27.596  1.00  0.00    -0.200 F 
ATOM     71  C   UNL A   1      34.608  31.942  27.615  1.00  0.00     0.200 A 
ATOM     72  F   UNL A   1      33.766  29.738  27.678  1.00  0.00    -0.200 F 
ATOM     73  F   UNL A   1      33.584  32.326  26.842  1.00  0.00    -0.200 F 
ENDBRANCH  49  63
BRANCH  50  74
ATOM     74  C   UNL A   1      44.503  28.049  34.711  1.00  0.00     0.064 A 
ATOM     75  C   UNL A   1      45.691  28.789  34.770  1.00  0.00     0.173 A 
ATOM     76  C   UNL A   1      44.432  26.863  35.455  1.00  0.00     0.173 A 
ATOM     77  F   UNL A   1      45.814  29.918  34.055  1.00  0.00    -0.203 F 
ATOM     78  C   UNL A   1      46.772  28.353  35.535  1.00  0.00     0.198 A 
ATOM     79  C   UNL A   1      45.504  26.441  36.238  1.00  0.00     0.198 A 
ATOM     80  F   UNL A   1      43.316  26.120  35.430  1.00  0.00    -0.203 F 
ATOM     81  F   UNL A   1      47.909  29.061  35.547  1.00  0.00    -0.200 F 
ATOM     82  C   UNL A   1      46.674  27.184  36.273  1.00  0.00     0.200 A 
ATOM     83  F   UNL A   1      45.403  25.315  36.957  1.00  0.00    -0.200 F 
ATOM     84  F   UNL A   1      47.711  26.769  37.014  1.00  0.00    -0.200 F 
ENDBRANCH  50  74
BRANCH  62  85
ATOM     85  C   UNL A   1      38.973  32.065  36.065  1.00  0.00     0.064 A 
ATOM     86  C   UNL A   1      38.186  31.419  37.029  1.00  0.00     0.173 A 
ATOM     87  C   UNL A   1      39.355  33.393  36.310  1.00  0.00     0.173 A 
ATOM     88  F   UNL A   1      37.781  30.155  36.833  1.00  0.00    -0.203 F 
ATOM     89  C   UNL A   1      37.779  32.084  38.183  1.00  0.00     0.198 A 
ATOM     90  C   UNL A   1      38.968  34.046  37.477  1.00  0.00     0.198 A 
ATOM     91  F   UNL A   1      40.113  34.054  35.422  1.00  0.00    -0.203 F 
ATOM     92  F   UNL A   1      36.991  31.461  39.071  1.00  0.00    -0.200 F 
ATOM     93  C   UNL A   1      38.176  33.394  38.409  1.00  0.00     0.200 A 
ATOM     94  F   UNL A   1      39.362  35.308  37.699  1.00  0.00    -0.200 F 
ATOM     95  F   UNL A   1      37.788  34.031  39.523  1.00  0.00    -0.200 F 
ENDBRANCH  62  85
ENDBRANCH  36  37
ENDBRANCH  29  31
ENDBRANCH  28  29
ENDBRANCH  27  28
ENDBRANCH  26  27
ENDBRANCH  25  26
ENDBRANCH   1  25
TORSDOF 18
ENDMDL
MODEL 2
REMARK VINA RESULT:     -11.0      0.643      7.329
REMARK SMILES CC(=O)Nc1nc(C[N@@H+]2CCO[C@@H](CC(=O)OCCOCCOC(=O)c3ccc(-c4c5nc(c(-c6c(F)c(F)c(F)c(F)c6F)c6ccc([nH]6)c(-c6c(F)c(F)c(F)c(F)c6F)c6nc(c(-c7c(F)c(F)c(F)c(F)c7F)c7ccc4[nH]7)C=C6)C=C5)cc3)C2)cs1
REMARK SMILES IDX 19 1 18 2 17 3 15 4 16 5 14 6 13 7 9 8 10 9 89 10 11 12
REMARK SMILES IDX 12 13 8 14 7 15 5 16 6 17 91 18 90 19 4 20 1 21 2 22 3 23
REMARK SMILES IDX 20 25 21 26 22 27 23 28 24 29 25 30 26 31 27 32 88 33 28 34
REMARK SMILES IDX 87 35 29 36 30 37 31 38 81 39 32 40 86 41 80 42 82 43 33 44
REMARK SMILES IDX 85 45 79 46 78 47 34 49 66 50 46 51 65 52 47 53 50 54 64 55
REMARK SMILES IDX 83 56 48 57 49 58 63 60 84 61 51 62 35 63 36 64 44 65 37 66
REMARK SMILES IDX 38 67 42 68 45 69 39 70 40 71 43 72 41 73 67 74 68 75 76 76
REMARK SMILES IDX 69 77 70 78 74 79 77 80 71 81 72 82 75 83 73 84 52 85 53 86
REMARK SMILES IDX 61 87 54 88 55 89 59 90 62 91 56 92 57 93 60 94 58 95
REMARK H PARENT 9 11 4 24 82 48 50 59
REMARK Flexibility Score: inf
ROOT
ATOM      1  C   UNL A   1      43.640  19.748  25.763  1.00  0.00     0.202 C 
ENDROOT
BRANCH   1   2
ATOM      2  C   UNL A   1      42.510  20.371  26.587  1.00  0.00     0.261 C 
BRANCH   2   3
ATOM      3  O   UNL A   1      41.600  21.201  25.835  1.00  0.00    -0.463 OA
BRANCH   3   4
ATOM      4  C   UNL A   1      40.280  21.006  26.107  1.00  0.00     0.308 C 
ATOM      5  O   UNL A   1      39.719  19.917  26.098  1.00  0.00    -0.252 OA
BRANCH   4   6
ATOM      6  C   UNL A   1      39.529  22.292  26.291  1.00  0.00     0.160 C 
BRANCH   6   7
ATOM      7  C   UNL A   1      38.032  22.355  25.989  1.00  0.00     0.184 C 
ATOM      8  N   UNL A   1      36.145  23.947  25.309  1.00  0.00    -0.326 N 
ATOM      9  C   UNL A   1      36.085  23.211  24.047  1.00  0.00     0.291 C 
ATOM     10  C   UNL A   1      37.440  23.787  25.989  1.00  0.00     0.295 C 
ATOM     11  H   UNL A   1      36.135  24.934  25.051  1.00  0.00     0.348 HD
ATOM     12  C   UNL A   1      36.640  21.785  24.129  1.00  0.00     0.222 C 
ATOM     13  O   UNL A   1      37.956  21.773  24.664  1.00  0.00    -0.366 OA
BRANCH   8  14
ATOM     14  C   UNL A   1      34.926  23.991  26.120  1.00  0.00     0.320 C 
BRANCH  14  15
ATOM     15  C   UNL A   1      33.912  22.917  25.849  1.00  0.00     0.108 A 
ATOM     16  C   UNL A   1      33.107  20.875  26.090  1.00  0.00     0.189 A 
ATOM     17  N   UNL A   1      34.011  21.709  26.532  1.00  0.00    -0.219 NA
ATOM     18  S   UNL A   1      32.048  21.463  24.897  1.00  0.00    -0.105 S 
ATOM     19  C   UNL A   1      32.779  23.008  25.056  1.00  0.00     0.098 A 
BRANCH  16  20
ATOM     20  N   UNL A   1      32.936  19.564  26.414  1.00  0.00    -0.302 N 
ATOM     21  C   UNL A   1      34.094  18.674  24.414  1.00  0.00     0.114 C 
ATOM     22  C   UNL A   1      33.135  18.515  25.569  1.00  0.00     0.223 C 
ATOM     23  O   UNL A   1      32.616  17.426  25.822  1.00  0.00    -0.275 OA
ATOM     24  H   UNL A   1      32.644  19.358  27.331  1.00  0.00     0.172 HD
ENDBRANCH  16  20
ENDBRANCH  14  15
ENDBRANCH   8  14
ENDBRANCH   6   7
ENDBRANCH   4   6
ENDBRANCH   3   4
ENDBRANCH   2   3
ENDBRANCH   1   2
BRANCH   1  25
ATOM     25  O   UNL A   1      43.870  20.294  24.469  1.00  0.00    -0.374 OA
BRANCH  25  26
ATOM     26  C   UNL A   1      44.930  21.233  24.331  1.00  0.00     0.202 C 
BRANCH  26  27
ATOM     27  C   UNL A   1      44.567  22.557  23.666  1.00  0.00     0.261 C 
BRANCH  27  28
ATOM     28  O   UNL A   1      43.819  23.432  24.523  1.00  0.00    -0.460 OA
BRANCH  28  29
ATOM     29  C   UNL A   1      44.512  24.506  24.967  1.00  0.00     0.338 C 
ATOM     30  O   UNL A   1      45.625  24.876  24.623  1.00  0.00    -0.246 OA
BRANCH  29  31
ATOM     31  C   UNL A   1      43.675  25.290  25.885  1.00  0.00     0.060 A 
ATOM     32  C   UNL A   1      43.888  26.670  25.961  1.00  0.00     0.016 A 
ATOM     33  C   UNL A   1      42.793  24.653  26.759  1.00  0.00     0.016 A 
ATOM     34  C   UNL A   1      43.247  27.415  26.951  1.00  0.00     0.010 A 
ATOM     35  C   UNL A   1      42.150  25.402  27.750  1.00  0.00     0.010 A 
ATOM     36  C   UNL A   1      42.404  26.779  27.874  1.00  0.00    -0.014 A 
BRANCH  36  37
ATOM     37  C   UNL A   1      41.893  27.536  29.043  1.00  0.00     0.031 A 
ATOM     38  C   UNL A   1      42.639  27.474  30.347  1.00  0.00     0.074 A 
ATOM     39  C   UNL A   1      40.792  28.300  28.933  1.00  0.00     0.049 A 
ATOM     40  N   UNL A   1      42.388  28.081  31.479  1.00  0.00    -0.248 NA
ATOM     41  C   UNL A   1      43.830  26.610  30.378  1.00  0.00     0.031 C 
ATOM     42  C   UNL A   1      39.994  28.457  27.720  1.00  0.00     0.029 A 
ATOM     43  N   UNL A   1      40.159  29.089  29.860  1.00  0.00    -0.354 N 
ATOM     44  C   UNL A   1      43.389  27.680  32.354  1.00  0.00     0.074 A 
ATOM     45  C   UNL A   1      44.229  26.745  31.634  1.00  0.00     0.031 C 
ATOM     46  C   UNL A   1      38.978  29.298  27.974  1.00  0.00     0.029 A 
ATOM     47  C   UNL A   1      39.043  29.721  29.372  1.00  0.00     0.049 A 
ATOM     48  H   UNL A   1      40.476  29.194  30.787  1.00  0.00     0.167 HD
ATOM     49  C   UNL A   1      43.597  28.065  33.636  1.00  0.00     0.037 A 
ATOM     50  C   UNL A   1      38.173  30.545  29.986  1.00  0.00     0.037 A 
ATOM     51  C   UNL A   1      42.759  28.990  34.354  1.00  0.00     0.049 A 
ATOM     52  C   UNL A   1      38.392  30.913  31.429  1.00  0.00     0.074 A 
ATOM     53  C   UNL A   1      42.899  29.457  35.649  1.00  0.00     0.029 A 
ATOM     54  N   UNL A   1      41.616  29.581  33.837  1.00  0.00    -0.354 N 
ATOM     55  N   UNL A   1      39.363  30.559  32.237  1.00  0.00    -0.248 NA
ATOM     56  C   UNL A   1      37.396  31.801  32.045  1.00  0.00     0.031 C 
ATOM     57  C   UNL A   1      41.815  30.298  35.929  1.00  0.00     0.029 A 
ATOM     58  C   UNL A   1      41.026  30.390  34.794  1.00  0.00     0.049 A 
ATOM     59  H   UNL A   1      41.275  29.447  32.923  1.00  0.00     0.167 HD
ATOM     60  C   UNL A   1      39.111  31.202  33.442  1.00  0.00     0.074 A 
ATOM     61  C   UNL A   1      37.900  31.974  33.259  1.00  0.00     0.031 C 
ATOM     62  C   UNL A   1      39.822  31.157  34.595  1.00  0.00     0.037 A 
BRANCH  49  63
ATOM     63  C   UNL A   1      44.775  27.469  34.348  1.00  0.00     0.064 A 
ATOM     64  C   UNL A   1      46.042  28.071  34.303  1.00  0.00     0.173 A 
ATOM     65  C   UNL A   1      44.634  26.290  35.095  1.00  0.00     0.173 A 
ATOM     66  F   UNL A   1      46.231  29.192  33.592  1.00  0.00    -0.203 F 
ATOM     67  C   UNL A   1      47.131  27.497  34.955  1.00  0.00     0.198 A 
ATOM     68  C   UNL A   1      45.719  25.733  35.767  1.00  0.00     0.198 A 
ATOM     69  F   UNL A   1      43.443  25.678  35.174  1.00  0.00    -0.203 F 
ATOM     70  F   UNL A   1      48.343  28.062  34.858  1.00  0.00    -0.200 F 
ATOM     71  C   UNL A   1      46.968  26.332  35.690  1.00  0.00     0.200 A 
ATOM     72  F   UNL A   1      45.559  24.613  36.485  1.00  0.00    -0.200 F 
ATOM     73  F   UNL A   1      48.017  25.781  36.317  1.00  0.00    -0.200 F 
ENDBRANCH  49  63
BRANCH  50  74
ATOM     74  C   UNL A   1      37.022  31.097  29.228  1.00  0.00     0.064 A 
ATOM     75  C   UNL A   1      35.914  30.297  28.917  1.00  0.00     0.173 A 
ATOM     76  C   UNL A   1      37.004  32.434  28.806  1.00  0.00     0.173 A 
ATOM     77  F   UNL A   1      35.898  29.006  29.280  1.00  0.00    -0.203 F 
ATOM     78  C   UNL A   1      34.834  30.812  28.202  1.00  0.00     0.198 A 
ATOM     79  C   UNL A   1      35.913  32.953  28.112  1.00  0.00     0.198 A 
ATOM     80  F   UNL A   1      38.041  33.239  29.079  1.00  0.00    -0.203 F 
ATOM     81  F   UNL A   1      33.803  30.017  27.887  1.00  0.00    -0.200 F 
ATOM     82  C   UNL A   1      34.833  32.141  27.806  1.00  0.00     0.200 A 
ATOM     83  F   UNL A   1      35.911  34.240  27.739  1.00  0.00    -0.200 F 
ATOM     84  F   UNL A   1      33.791  32.637  27.124  1.00  0.00    -0.200 F 
ENDBRANCH  50  74
BRANCH  62  85
ATOM     85  C   UNL A   1      39.328  31.991  35.741  1.00  0.00     0.064 A 
ATOM     86  C   UNL A   1      39.741  33.319  35.915  1.00  0.00     0.173 A 
ATOM     87  C   UNL A   1      38.402  31.465  36.654  1.00  0.00     0.173 A 
ATOM     88  F   UNL A   1      40.638  33.862  35.078  1.00  0.00    -0.203 F 
ATOM     89  C   UNL A   1      39.261  34.084  36.975  1.00  0.00     0.198 A 
ATOM     90  C   UNL A   1      37.905  32.240  37.698  1.00  0.00     0.198 A 
ATOM     91  F   UNL A   1      37.971  30.200  36.529  1.00  0.00    -0.203 F 
ATOM     92  F   UNL A   1      39.701  35.339  37.147  1.00  0.00    -0.200 F 
ATOM     93  C   UNL A   1      38.339  33.546  37.861  1.00  0.00     0.200 A 
ATOM     94  F   UNL A   1      37.005  31.723  38.546  1.00  0.00    -0.200 F 
ATOM     95  F   UNL A   1      37.874  34.287  38.878  1.00  0.00    -0.200 F 
ENDBRANCH  62  85
ENDBRANCH  36  37
ENDBRANCH  29  31
ENDBRANCH  28  29
ENDBRANCH  27  28
ENDBRANCH  26  27
ENDBRANCH  25  26
ENDBRANCH   1  25
TORSDOF 18
ENDMDL
MODEL 3
REMARK VINA RESULT:     -10.9      4.554      9.492
REMARK SMILES CC(=O)Nc1nc(C[N@@H+]2CCO[C@@H](CC(=O)OCCOCCOC(=O)c3ccc(-c4c5nc(c(-c6c(F)c(F)c(F)c(F)c6F)c6ccc([nH]6)c(-c6c(F)c(F)c(F)c(F)c6F)c6nc(c(-c7c(F)c(F)c(F)c(F)c7F)c7ccc4[nH]7)C=C6)C=C5)cc3)C2)cs1
REMARK SMILES IDX 19 1 18 2 17 3 15 4 16 5 14 6 13 7 9 8 10 9 89 10 11 12
REMARK SMILES IDX 12 13 8 14 7 15 5 16 6 17 91 18 90 19 4 20 1 21 2 22 3 23
REMARK SMILES IDX 20 25 21 26 22 27 23 28 24 29 25 30 26 31 27 32 88 33 28 34
REMARK SMILES IDX 87 35 29 36 30 37 31 38 81 39 32 40 86 41 80 42 82 43 33 44
REMARK SMILES IDX 85 45 79 46 78 47 34 49 66 50 46 51 65 52 47 53 50 54 64 55
REMARK SMILES IDX 83 56 48 57 49 58 63 60 84 61 51 62 35 63 36 64 44 65 37 66
REMARK SMILES IDX 38 67 42 68 45 69 39 70 40 71 43 72 41 73 67 74 68 75 76 76
REMARK SMILES IDX 69 77 70 78 74 79 77 80 71 81 72 82 75 83 73 84 52 85 53 86
REMARK SMILES IDX 61 87 54 88 55 89 59 90 62 91 56 92 57 93 60 94 58 95
REMARK H PARENT 9 11 4 24 82 48 50 59
REMARK Flexibility Score: inf
ROOT
ATOM      1  C   UNL A   1      31.892  29.191  24.613  1.00  0.00     0.202 C 
ENDROOT
BRANCH   1   2
ATOM      2  C   UNL A   1      30.981  28.030  24.205  1.00  0.00     0.261 C 
BRANCH   2   3
ATOM      3  O   UNL A   1      31.528  26.717  24.448  1.00  0.00    -0.463 OA
BRANCH   3   4
ATOM      4  C   UNL A   1      32.831  26.556  24.085  1.00  0.00     0.308 C 
ATOM      5  O   UNL A   1      33.258  26.692  22.945  1.00  0.00    -0.252 OA
BRANCH   4   6
ATOM      6  C   UNL A   1      33.689  26.053  25.208  1.00  0.00     0.160 C 
BRANCH   6   7
ATOM      7  C   UNL A   1      33.690  24.567  25.565  1.00  0.00     0.184 C 
ATOM      8  N   UNL A   1      33.442  22.222  24.567  1.00  0.00    -0.326 N 
ATOM      9  C   UNL A   1      34.852  22.017  24.896  1.00  0.00     0.291 C 
ATOM     10  C   UNL A   1      33.091  23.647  24.471  1.00  0.00     0.295 C 
ATOM     11  H   UNL A   1      33.334  21.887  23.608  1.00  0.00     0.348 HD
ATOM     12  C   UNL A   1      35.368  22.923  26.019  1.00  0.00     0.222 C 
ATOM     13  O   UNL A   1      35.102  24.291  25.743  1.00  0.00    -0.366 OA
BRANCH   8  14
ATOM     14  C   UNL A   1      32.473  21.297  25.158  1.00  0.00     0.320 C 
BRANCH  14  15
ATOM     15  C   UNL A   1      32.444  19.910  24.582  1.00  0.00     0.108 A 
ATOM     16  C   UNL A   1      32.407  17.710  24.767  1.00  0.00     0.189 A 
ATOM     17  N   UNL A   1      32.310  18.825  25.442  1.00  0.00    -0.219 NA
ATOM     18  S   UNL A   1      32.597  17.854  23.083  1.00  0.00    -0.105 S 
ATOM     19  C   UNL A   1      32.423  19.555  23.243  1.00  0.00     0.098 A 
BRANCH  16  20
ATOM     20  N   UNL A   1      32.438  16.434  25.241  1.00  0.00    -0.302 N 
ATOM     21  C   UNL A   1      34.907  16.236  25.218  1.00  0.00     0.114 C 
ATOM     22  C   UNL A   1      33.529  15.619  25.226  1.00  0.00     0.223 C 
ATOM     23  O   UNL A   1      33.376  14.401  25.329  1.00  0.00    -0.275 OA
ATOM     24  H   UNL A   1      31.607  16.072  25.624  1.00  0.00     0.172 HD
ENDBRANCH  16  20
ENDBRANCH  14  15
ENDBRANCH   8  14
ENDBRANCH   6   7
ENDBRANCH   4   6
ENDBRANCH   3   4
ENDBRANCH   2   3
ENDBRANCH   1   2
BRANCH   1  25
ATOM     25  O   UNL A   1      31.641  29.791  25.879  1.00  0.00    -0.374 OA
BRANCH  25  26
ATOM     26  C   UNL A   1      32.090  29.097  27.037  1.00  0.00     0.202 C 
BRANCH  26  27
ATOM     27  C   UNL A   1      33.581  29.200  27.342  1.00  0.00     0.261 C 
BRANCH  27  28
ATOM     28  O   UNL A   1      34.098  30.530  27.186  1.00  0.00    -0.460 OA
BRANCH  28  29
ATOM     29  C   UNL A   1      34.779  30.995  28.258  1.00  0.00     0.338 C 
ATOM     30  O   UNL A   1      34.412  31.824  29.078  1.00  0.00    -0.246 OA
BRANCH  29  31
ATOM     31  C   UNL A   1      36.044  30.262  28.398  1.00  0.00     0.060 A 
ATOM     32  C   UNL A   1      36.325  29.653  29.625  1.00  0.00     0.016 A 
ATOM     33  C   UNL A   1      36.999  30.295  27.381  1.00  0.00     0.016 A 
ATOM     34  C   UNL A   1      37.590  29.112  29.856  1.00  0.00     0.010 A 
ATOM     35  C   UNL A   1      38.266  29.750  27.613  1.00  0.00     0.010 A 
ATOM     36  C   UNL A   1      38.579  29.190  28.864  1.00  0.00    -0.014 A 
BRANCH  36  37
ATOM     37  C   UNL A   1      39.973  28.802  29.188  1.00  0.00     0.031 A 
ATOM     38  C   UNL A   1      40.804  29.696  30.067  1.00  0.00     0.074 A 
ATOM     39  C   UNL A   1      40.484  27.647  28.729  1.00  0.00     0.049 A 
ATOM     40  N   UNL A   1      42.028  29.532  30.500  1.00  0.00    -0.248 NA
ATOM     41  C   UNL A   1      40.167  30.943  30.519  1.00  0.00     0.031 C 
ATOM     42  C   UNL A   1      39.774  26.689  27.886  1.00  0.00     0.029 A 
ATOM     43  N   UNL A   1      41.722  27.084  28.914  1.00  0.00    -0.354 N 
ATOM     44  C   UNL A   1      42.307  30.647  31.278  1.00  0.00     0.074 A 
ATOM     45  C   UNL A   1      41.138  31.502  31.226  1.00  0.00     0.031 C 
ATOM     46  C   UNL A   1      40.586  25.650  27.629  1.00  0.00     0.029 A 
ATOM     47  C   UNL A   1      41.878  25.880  28.273  1.00  0.00     0.049 A 
ATOM     48  H   UNL A   1      42.430  27.502  29.455  1.00  0.00     0.167 HD
ATOM     49  C   UNL A   1      43.429  30.929  31.984  1.00  0.00     0.037 A 
ATOM     50  C   UNL A   1      42.945  25.061  28.213  1.00  0.00     0.037 A 
ATOM     51  C   UNL A   1      44.593  30.084  32.032  1.00  0.00     0.049 A 
ATOM     52  C   UNL A   1      44.201  25.423  28.958  1.00  0.00     0.074 A 
ATOM     53  C   UNL A   1      45.771  30.273  32.732  1.00  0.00     0.029 A 
ATOM     54  N   UNL A   1      44.727  28.890  31.339  1.00  0.00    -0.354 N 
ATOM     55  N   UNL A   1      44.442  26.461  29.722  1.00  0.00    -0.248 NA
ATOM     56  C   UNL A   1      45.335  24.495  28.834  1.00  0.00     0.031 C 
ATOM     57  C   UNL A   1      46.635  29.213  32.430  1.00  0.00     0.029 A 
ATOM     58  C   UNL A   1      45.978  28.342  31.577  1.00  0.00     0.049 A 
ATOM     59  H   UNL A   1      44.035  28.488  30.765  1.00  0.00     0.167 HD
ATOM     60  C   UNL A   1      45.738  26.297  30.193  1.00  0.00     0.074 A 
ATOM     61  C   UNL A   1      46.232  25.055  29.634  1.00  0.00     0.031 C 
ATOM     62  C   UNL A   1      46.453  27.102  31.017  1.00  0.00     0.037 A 
BRANCH  49  63
ATOM     63  C   UNL A   1      43.451  32.219  32.750  1.00  0.00     0.064 A 
ATOM     64  C   UNL A   1      44.026  33.381  32.214  1.00  0.00     0.173 A 
ATOM     65  C   UNL A   1      42.880  32.298  34.029  1.00  0.00     0.173 A 
ATOM     66  F   UNL A   1      44.597  33.353  31.001  1.00  0.00    -0.203 F 
ATOM     67  C   UNL A   1      44.056  34.567  32.943  1.00  0.00     0.198 A 
ATOM     68  C   UNL A   1      42.888  33.493  34.744  1.00  0.00     0.198 A 
ATOM     69  F   UNL A   1      42.313  31.217  34.585  1.00  0.00    -0.203 F 
ATOM     70  F   UNL A   1      44.654  35.652  32.431  1.00  0.00    -0.200 F 
ATOM     71  C   UNL A   1      43.483  34.624  34.205  1.00  0.00     0.200 A 
ATOM     72  F   UNL A   1      42.325  33.549  35.960  1.00  0.00    -0.200 F 
ATOM     73  F   UNL A   1      43.512  35.766  34.905  1.00  0.00    -0.200 F 
ENDBRANCH  49  63
BRANCH  50  74
ATOM     74  C   UNL A   1      42.862  23.801  27.431  1.00  0.00     0.064 A 
ATOM     75  C   UNL A   1      43.248  23.763  26.085  1.00  0.00     0.173 A 
ATOM     76  C   UNL A   1      42.401  22.613  28.015  1.00  0.00     0.173 A 
ATOM     77  F   UNL A   1      43.672  24.881  25.477  1.00  0.00    -0.203 F 
ATOM     78  C   UNL A   1      43.166  22.583  25.347  1.00  0.00     0.198 A 
ATOM     79  C   UNL A   1      42.343  21.429  27.283  1.00  0.00     0.198 A 
ATOM     80  F   UNL A   1      42.019  22.600  29.300  1.00  0.00    -0.203 F 
ATOM     81  F   UNL A   1      43.509  22.580  24.053  1.00  0.00    -0.200 F 
ATOM     82  C   UNL A   1      42.721  21.416  25.950  1.00  0.00     0.200 A 
ATOM     83  F   UNL A   1      41.920  20.301  27.871  1.00  0.00    -0.200 F 
ATOM     84  F   UNL A   1      42.649  20.280  25.242  1.00  0.00    -0.200 F 
ENDBRANCH  50  74
BRANCH  62  85
ATOM     85  C   UNL A   1      47.835  26.651  31.391  1.00  0.00     0.064 A 
ATOM     86  C   UNL A   1      48.060  25.803  32.484  1.00  0.00     0.173 A 
ATOM     87  C   UNL A   1      48.942  27.043  30.623  1.00  0.00     0.173 A 
ATOM     88  F   UNL A   1      47.037  25.414  33.259  1.00  0.00    -0.203 F 
ATOM     89  C   UNL A   1      49.348  25.382  32.809  1.00  0.00     0.198 A 
ATOM     90  C   UNL A   1      50.224  26.599  30.935  1.00  0.00     0.198 A 
ATOM     91  F   UNL A   1      48.779  27.850  29.563  1.00  0.00    -0.203 F 
ATOM     92  F   UNL A   1      49.545  24.605  33.884  1.00  0.00    -0.200 F 
ATOM     93  C   UNL A   1      50.426  25.774  32.030  1.00  0.00     0.200 A 
ATOM     94  F   UNL A   1      51.264  26.970  30.175  1.00  0.00    -0.200 F 
ATOM     95  F   UNL A   1      51.664  25.363  32.341  1.00  0.00    -0.200 F 
ENDBRANCH  62  85
ENDBRANCH  36  37
ENDBRANCH  29  31
ENDBRANCH  28  29
ENDBRANCH  27  28
ENDBRANCH  26  27
ENDBRANCH  25  26
ENDBRANCH   1  25
TORSDOF 18
ENDMDL
