MODEL 1
REMARK VINA RESULT:      -9.7      0.000      0.000
REMARK SMILES O=C(COC[C@@H]1CCCCO1)OCCOCCOC(=O)c1ccc(-c2c3nc(c(-c4c(F)c(F)c(F)c(F)c4F)c4ccc([nH]4)c(-c4c(F)c(F)c(F)c(F)c4F)c4nc(c(-c5c(F)c(F)c(F)c(F)c5F)c5ccc2[nH]5)C=C4)C=C3)cc1
REMARK SMILES IDX 14 1 13 2 12 3 2 4 1 5 3 6 4 7 5 8 6 9 7 10 11 11 8 12 10 13
REMARK SMILES IDX 9 14 15 15 16 16 17 17 18 18 19 19 20 20 21 21 22 22 83 23
REMARK SMILES IDX 23 24 82 25 24 26 25 27 26 28 76 29 27 30 81 31 75 32 77 33
REMARK SMILES IDX 28 34 80 35 74 36 73 37 29 39 61 40 41 41 60 42 42 43 45 44
REMARK SMILES IDX 59 45 78 46 43 47 44 48 58 50 79 51 46 52 30 53 31 54 39 55
REMARK SMILES IDX 32 56 33 57 37 58 40 59 34 60 35 61 38 62 36 63 62 64 63 65
REMARK SMILES IDX 71 66 64 67 65 68 69 69 72 70 66 71 67 72 70 73 68 74 47 75
REMARK SMILES IDX 48 76 56 77 49 78 50 79 54 80 57 81 51 82 52 83 55 84 53 85
REMARK H PARENT 77 38 45 49
REMARK Flexibility Score: inf
ROOT
ATOM      1  C   UNL A   1      41.997  19.284  26.133  1.00  0.00     0.202 C 
ENDROOT
BRANCH   1   2
ATOM      2  C   UNL A   1      43.216  18.394  26.382  1.00  0.00     0.261 C 
BRANCH   2   3
ATOM      3  O   UNL A   1      43.918  18.142  25.152  1.00  0.00    -0.462 OA
BRANCH   3   4
ATOM      4  C   UNL A   1      45.192  18.542  24.953  1.00  0.00     0.332 C 
ATOM      5  O   UNL A   1      46.128  17.854  25.355  1.00  0.00    -0.250 OA
BRANCH   4   6
ATOM      6  C   UNL A   1      45.436  19.869  24.244  1.00  0.00     0.282 C 
BRANCH   6   7
ATOM      7  O   UNL A   1      46.421  20.726  24.781  1.00  0.00    -0.367 OA
BRANCH   7   8
ATOM      8  C   UNL A   1      45.971  22.061  24.997  1.00  0.00     0.193 C 
BRANCH   8   9
ATOM      9  C   UNL A   1      44.469  22.205  25.337  1.00  0.00     0.144 C 
ATOM     10  C   UNL A   1      43.657  23.269  24.585  1.00  0.00     0.034 C 
ATOM     11  O   UNL A   1      44.257  22.318  26.753  1.00  0.00    -0.376 OA
ATOM     12  C   UNL A   1      43.789  24.679  25.162  1.00  0.00     0.005 C 
ATOM     13  C   UNL A   1      44.540  23.607  27.291  1.00  0.00     0.160 C 
ATOM     14  C   UNL A   1      43.633  24.659  26.675  1.00  0.00     0.029 C 
ENDBRANCH   8   9
ENDBRANCH   7   8
ENDBRANCH   6   7
ENDBRANCH   4   6
ENDBRANCH   3   4
ENDBRANCH   2   3
ENDBRANCH   1   2
BRANCH   1  15
ATOM     15  O   UNL A   1      41.316  19.752  27.298  1.00  0.00    -0.374 OA
BRANCH  15  16
ATOM     16  C   UNL A   1      41.268  21.175  27.475  1.00  0.00     0.202 C 
BRANCH  16  17
ATOM     17  C   UNL A   1      40.532  21.956  26.378  1.00  0.00     0.261 C 
BRANCH  17  18
ATOM     18  O   UNL A   1      39.236  22.382  26.831  1.00  0.00    -0.460 OA
BRANCH  18  19
ATOM     19  C   UNL A   1      38.712  23.452  26.185  1.00  0.00     0.338 C 
ATOM     20  O   UNL A   1      37.802  23.459  25.375  1.00  0.00    -0.246 OA
BRANCH  19  21
ATOM     21  C   UNL A   1      39.233  24.673  26.836  1.00  0.00     0.060 A 
ATOM     22  C   UNL A   1      38.946  24.858  28.197  1.00  0.00     0.016 A 
ATOM     23  C   UNL A   1      40.055  25.573  26.156  1.00  0.00     0.016 A 
ATOM     24  C   UNL A   1      39.489  25.937  28.888  1.00  0.00     0.010 A 
ATOM     25  C   UNL A   1      40.569  26.675  26.840  1.00  0.00     0.010 A 
ATOM     26  C   UNL A   1      40.277  26.867  28.202  1.00  0.00    -0.014 A 
BRANCH  26  27
ATOM     27  C   UNL A   1      40.662  28.138  28.851  1.00  0.00     0.031 A 
ATOM     28  C   UNL A   1      42.048  28.244  29.415  1.00  0.00     0.074 A 
ATOM     29  C   UNL A   1      39.784  29.148  28.971  1.00  0.00     0.049 A 
ATOM     30  N   UNL A   1      42.569  29.176  30.166  1.00  0.00    -0.248 NA
ATOM     31  C   UNL A   1      42.969  27.139  29.095  1.00  0.00     0.031 C 
ATOM     32  C   UNL A   1      38.429  29.161  28.422  1.00  0.00     0.029 A 
ATOM     33  N   UNL A   1      39.895  30.348  29.627  1.00  0.00    -0.354 N 
ATOM     34  C   UNL A   1      43.866  28.759  30.429  1.00  0.00     0.074 A 
ATOM     35  C   UNL A   1      44.056  27.491  29.765  1.00  0.00     0.031 C 
ATOM     36  C   UNL A   1      37.817  30.298  28.801  1.00  0.00     0.029 A 
ATOM     37  C   UNL A   1      38.723  31.066  29.653  1.00  0.00     0.049 A 
ATOM     38  H   UNL A   1      40.731  30.664  30.040  1.00  0.00     0.167 HD
ATOM     39  C   UNL A   1      44.809  29.385  31.170  1.00  0.00     0.037 A 
ATOM     40  C   UNL A   1      38.412  32.187  30.334  1.00  0.00     0.037 A 
ATOM     41  C   UNL A   1      44.607  30.653  31.816  1.00  0.00     0.049 A 
ATOM     42  C   UNL A   1      39.464  32.826  31.208  1.00  0.00     0.074 A 
ATOM     43  C   UNL A   1      45.515  31.403  32.541  1.00  0.00     0.029 A 
ATOM     44  N   UNL A   1      43.408  31.349  31.827  1.00  0.00    -0.354 N 
ATOM     45  N   UNL A   1      40.706  32.458  31.415  1.00  0.00    -0.248 NA
ATOM     46  C   UNL A   1      39.069  34.032  31.951  1.00  0.00     0.031 C 
ATOM     47  C   UNL A   1      44.848  32.523  33.044  1.00  0.00     0.029 A 
ATOM     48  C   UNL A   1      43.541  32.500  32.584  1.00  0.00     0.049 A 
ATOM     49  H   UNL A   1      42.586  31.066  31.364  1.00  0.00     0.167 HD
ATOM     50  C   UNL A   1      41.243  33.394  32.289  1.00  0.00     0.074 A 
ATOM     51  C   UNL A   1      40.200  34.360  32.558  1.00  0.00     0.031 C 
ATOM     52  C   UNL A   1      42.486  33.449  32.829  1.00  0.00     0.037 A 
BRANCH  39  53
ATOM     53  C   UNL A   1      46.129  28.701  31.356  1.00  0.00     0.064 A 
ATOM     54  C   UNL A   1      46.355  27.801  32.407  1.00  0.00     0.173 A 
ATOM     55  C   UNL A   1      47.158  28.897  30.422  1.00  0.00     0.173 A 
ATOM     56  F   UNL A   1      45.410  27.594  33.335  1.00  0.00    -0.203 F 
ATOM     57  C   UNL A   1      47.566  27.124  32.516  1.00  0.00     0.198 A 
ATOM     58  C   UNL A   1      48.357  28.199  30.521  1.00  0.00     0.198 A 
ATOM     59  F   UNL A   1      46.990  29.752  29.401  1.00  0.00    -0.203 F 
ATOM     60  F   UNL A   1      47.773  26.286  33.542  1.00  0.00    -0.200 F 
ATOM     61  C   UNL A   1      48.561  27.314  31.568  1.00  0.00     0.200 A 
ATOM     62  F   UNL A   1      49.312  28.377  29.598  1.00  0.00    -0.200 F 
ATOM     63  F   UNL A   1      49.718  26.644  31.664  1.00  0.00    -0.200 F 
ENDBRANCH  39  53
BRANCH  40  64
ATOM     64  C   UNL A   1      37.035  32.748  30.276  1.00  0.00     0.064 A 
ATOM     65  C   UNL A   1      36.633  33.581  29.221  1.00  0.00     0.173 A 
ATOM     66  C   UNL A   1      36.109  32.510  31.303  1.00  0.00     0.173 A 
ATOM     67  F   UNL A   1      37.490  33.864  28.229  1.00  0.00    -0.203 F 
ATOM     68  C   UNL A   1      35.373  34.178  29.213  1.00  0.00     0.198 A 
ATOM     69  C   UNL A   1      34.837  33.080  31.277  1.00  0.00     0.198 A 
ATOM     70  F   UNL A   1      36.441  31.727  32.339  1.00  0.00    -0.203 F 
ATOM     71  F   UNL A   1      35.042  35.022  28.227  1.00  0.00    -0.200 F 
ATOM     72  C   UNL A   1      34.475  33.924  30.238  1.00  0.00     0.200 A 
ATOM     73  F   UNL A   1      33.970  32.824  32.265  1.00  0.00    -0.200 F 
ATOM     74  F   UNL A   1      33.267  34.504  30.234  1.00  0.00    -0.200 F 
ENDBRANCH  40  64
BRANCH  52  75
ATOM     75  C   UNL A   1      42.793  34.598  33.743  1.00  0.00     0.064 A 
ATOM     76  C   UNL A   1      43.157  35.857  33.243  1.00  0.00     0.173 A 
ATOM     77  C   UNL A   1      42.656  34.458  35.133  1.00  0.00     0.173 A 
ATOM     78  F   UNL A   1      43.313  36.037  31.922  1.00  0.00    -0.203 F 
ATOM     79  C   UNL A   1      43.393  36.926  34.101  1.00  0.00     0.198 A 
ATOM     80  C   UNL A   1      42.861  35.538  35.986  1.00  0.00     0.198 A 
ATOM     81  F   UNL A   1      42.301  33.277  35.662  1.00  0.00    -0.203 F 
ATOM     82  F   UNL A   1      43.781  38.109  33.603  1.00  0.00    -0.200 F 
ATOM     83  C   UNL A   1      43.236  36.769  35.470  1.00  0.00     0.200 A 
ATOM     84  F   UNL A   1      42.692  35.389  37.307  1.00  0.00    -0.200 F 
ATOM     85  F   UNL A   1      43.449  37.804  36.293  1.00  0.00    -0.200 F 
ENDBRANCH  52  75
ENDBRANCH  26  27
ENDBRANCH  19  21
ENDBRANCH  18  19
ENDBRANCH  17  18
ENDBRANCH  16  17
ENDBRANCH  15  16
ENDBRANCH   1  15
TORSDOF 17
ENDMDL
MODEL 2
REMARK VINA RESULT:      -9.5      5.484     10.256
REMARK SMILES O=C(COC[C@@H]1CCCCO1)OCCOCCOC(=O)c1ccc(-c2c3nc(c(-c4c(F)c(F)c(F)c(F)c4F)c4ccc([nH]4)c(-c4c(F)c(F)c(F)c(F)c4F)c4nc(c(-c5c(F)c(F)c(F)c(F)c5F)c5ccc2[nH]5)C=C4)C=C3)cc1
REMARK SMILES IDX 14 1 13 2 12 3 2 4 1 5 3 6 4 7 5 8 6 9 7 10 11 11 8 12 10 13
REMARK SMILES IDX 9 14 15 15 16 16 17 17 18 18 19 19 20 20 21 21 22 22 83 23
REMARK SMILES IDX 23 24 82 25 24 26 25 27 26 28 76 29 27 30 81 31 75 32 77 33
REMARK SMILES IDX 28 34 80 35 74 36 73 37 29 39 61 40 41 41 60 42 42 43 45 44
REMARK SMILES IDX 59 45 78 46 43 47 44 48 58 50 79 51 46 52 30 53 31 54 39 55
REMARK SMILES IDX 32 56 33 57 37 58 40 59 34 60 35 61 38 62 36 63 62 64 63 65
REMARK SMILES IDX 71 66 64 67 65 68 69 69 72 70 66 71 67 72 70 73 68 74 47 75
REMARK SMILES IDX 48 76 56 77 49 78 50 79 54 80 57 81 51 82 52 83 55 84 53 85
REMARK H PARENT 77 38 45 49
REMARK Flexibility Score: inf
ROOT
ATOM      1  C   UNL A   1      33.099  29.742  25.873  1.00  0.00     0.202 C 
ENDROOT
BRANCH   1   2
ATOM      2  C   UNL A   1      33.253  28.584  24.885  1.00  0.00     0.261 C 
BRANCH   2   3
ATOM      3  O   UNL A   1      32.567  28.876  23.654  1.00  0.00    -0.462 OA
BRANCH   3   4
ATOM      4  C   UNL A   1      32.368  27.942  22.701  1.00  0.00     0.332 C 
ATOM      5  O   UNL A   1      33.320  27.484  22.072  1.00  0.00    -0.250 OA
BRANCH   4   6
ATOM      6  C   UNL A   1      30.941  27.492  22.409  1.00  0.00     0.282 C 
BRANCH   6   7
ATOM      7  O   UNL A   1      30.016  28.474  21.993  1.00  0.00    -0.367 OA
BRANCH   7   8
ATOM      8  C   UNL A   1      28.975  28.724  22.932  1.00  0.00     0.193 C 
BRANCH   8   9
ATOM      9  C   UNL A   1      27.811  29.600  22.411  1.00  0.00     0.144 C 
ATOM     10  C   UNL A   1      28.054  30.451  21.156  1.00  0.00     0.034 C 
ATOM     11  O   UNL A   1      27.244  30.400  23.460  1.00  0.00    -0.376 OA
ATOM     12  C   UNL A   1      28.760  31.780  21.428  1.00  0.00     0.005 C 
ATOM     13  C   UNL A   1      28.009  31.555  23.802  1.00  0.00     0.160 C 
ATOM     14  C   UNL A   1      28.127  32.494  22.613  1.00  0.00     0.029 C 
ENDBRANCH   8   9
ENDBRANCH   7   8
ENDBRANCH   6   7
ENDBRANCH   4   6
ENDBRANCH   3   4
ENDBRANCH   2   3
ENDBRANCH   1   2
BRANCH   1  15
ATOM     15  O   UNL A   1      31.891  30.496  25.770  1.00  0.00    -0.374 OA
BRANCH  15  16
ATOM     16  C   UNL A   1      31.536  31.285  26.914  1.00  0.00     0.202 C 
BRANCH  16  17
ATOM     17  C   UNL A   1      31.756  32.797  26.774  1.00  0.00     0.261 C 
BRANCH  17  18
ATOM     18  O   UNL A   1      33.112  33.151  27.089  1.00  0.00    -0.460 OA
BRANCH  18  19
ATOM     19  C   UNL A   1      33.265  34.050  28.093  1.00  0.00     0.338 C 
ATOM     20  O   UNL A   1      32.489  34.926  28.429  1.00  0.00    -0.246 OA
BRANCH  19  21
ATOM     21  C   UNL A   1      34.414  33.618  28.916  1.00  0.00     0.060 A 
ATOM     22  C   UNL A   1      35.641  34.269  28.716  1.00  0.00     0.016 A 
ATOM     23  C   UNL A   1      34.276  32.660  29.923  1.00  0.00     0.016 A 
ATOM     24  C   UNL A   1      36.732  33.974  29.526  1.00  0.00     0.010 A 
ATOM     25  C   UNL A   1      35.381  32.337  30.711  1.00  0.00     0.010 A 
ATOM     26  C   UNL A   1      36.614  32.983  30.506  1.00  0.00    -0.014 A 
BRANCH  26  27
ATOM     27  C   UNL A   1      37.814  32.487  31.211  1.00  0.00     0.031 A 
ATOM     28  C   UNL A   1      38.558  31.335  30.601  1.00  0.00     0.074 A 
ATOM     29  C   UNL A   1      38.199  33.021  32.382  1.00  0.00     0.049 A 
ATOM     30  N   UNL A   1      39.530  30.619  31.098  1.00  0.00    -0.248 NA
ATOM     31  C   UNL A   1      38.138  30.930  29.249  1.00  0.00     0.031 C 
ATOM     32  C   UNL A   1      37.571  34.167  33.037  1.00  0.00     0.029 A 
ATOM     33  N   UNL A   1      39.197  32.643  33.246  1.00  0.00    -0.354 N 
ATOM     34  C   UNL A   1      39.821  29.665  30.133  1.00  0.00     0.074 A 
ATOM     35  C   UNL A   1      38.922  29.887  29.023  1.00  0.00     0.031 C 
ATOM     36  C   UNL A   1      38.172  34.373  34.224  1.00  0.00     0.029 A 
ATOM     37  C   UNL A   1      39.193  33.347  34.426  1.00  0.00     0.049 A 
ATOM     38  H   UNL A   1      39.850  31.936  33.041  1.00  0.00     0.167 HD
ATOM     39  C   UNL A   1      40.753  28.688  30.181  1.00  0.00     0.037 A 
ATOM     40  C   UNL A   1      39.901  33.145  35.555  1.00  0.00     0.037 A 
ATOM     41  C   UNL A   1      41.647  28.488  31.289  1.00  0.00     0.049 A 
ATOM     42  C   UNL A   1      40.887  32.002  35.603  1.00  0.00     0.074 A 
ATOM     43  C   UNL A   1      42.669  27.566  31.414  1.00  0.00     0.029 A 
ATOM     44  N   UNL A   1      41.613  29.215  32.469  1.00  0.00    -0.354 N 
ATOM     45  N   UNL A   1      41.196  31.133  34.670  1.00  0.00    -0.248 NA
ATOM     46  C   UNL A   1      41.617  31.807  36.865  1.00  0.00     0.031 C 
ATOM     47  C   UNL A   1      43.213  27.692  32.695  1.00  0.00     0.029 A 
ATOM     48  C   UNL A   1      42.568  28.732  33.346  1.00  0.00     0.049 A 
ATOM     49  H   UNL A   1      41.000  29.964  32.654  1.00  0.00     0.167 HD
ATOM     50  C   UNL A   1      42.166  30.306  35.223  1.00  0.00     0.074 A 
ATOM     51  C   UNL A   1      42.412  30.790  36.564  1.00  0.00     0.031 C 
ATOM     52  C   UNL A   1      42.795  29.237  34.674  1.00  0.00     0.037 A 
BRANCH  39  53
ATOM     53  C   UNL A   1      40.839  27.737  29.026  1.00  0.00     0.064 A 
ATOM     54  C   UNL A   1      39.942  26.669  28.879  1.00  0.00     0.173 A 
ATOM     55  C   UNL A   1      41.788  27.945  28.014  1.00  0.00     0.173 A 
ATOM     56  F   UNL A   1      39.029  26.417  29.829  1.00  0.00    -0.203 F 
ATOM     57  C   UNL A   1      39.996  25.842  27.761  1.00  0.00     0.198 A 
ATOM     58  C   UNL A   1      41.822  27.132  26.886  1.00  0.00     0.198 A 
ATOM     59  F   UNL A   1      42.670  28.952  28.112  1.00  0.00    -0.203 F 
ATOM     60  F   UNL A   1      39.146  24.811  27.651  1.00  0.00    -0.200 F 
ATOM     61  C   UNL A   1      40.927  26.080  26.760  1.00  0.00     0.200 A 
ATOM     62  F   UNL A   1      42.715  27.371  25.917  1.00  0.00    -0.200 F 
ATOM     63  F   UNL A   1      40.963  25.296  25.674  1.00  0.00    -0.200 F 
ENDBRANCH  39  53
BRANCH  40  64
ATOM     64  C   UNL A   1      39.669  33.994  36.754  1.00  0.00     0.064 A 
ATOM     65  C   UNL A   1      40.375  35.190  36.947  1.00  0.00     0.173 A 
ATOM     66  C   UNL A   1      38.776  33.598  37.763  1.00  0.00     0.173 A 
ATOM     67  F   UNL A   1      41.261  35.599  36.028  1.00  0.00    -0.203 F 
ATOM     68  C   UNL A   1      40.221  35.939  38.113  1.00  0.00     0.198 A 
ATOM     69  C   UNL A   1      38.598  34.365  38.913  1.00  0.00     0.198 A 
ATOM     70  F   UNL A   1      38.079  32.460  37.634  1.00  0.00    -0.203 F 
ATOM     71  F   UNL A   1      40.958  37.042  38.299  1.00  0.00    -0.200 F 
ATOM     72  C   UNL A   1      39.330  35.528  39.093  1.00  0.00     0.200 A 
ATOM     73  F   UNL A   1      37.729  33.969  39.852  1.00  0.00    -0.200 F 
ATOM     74  F   UNL A   1      39.189  36.244  40.216  1.00  0.00    -0.200 F 
ENDBRANCH  40  64
BRANCH  52  75
ATOM     75  C   UNL A   1      43.821  28.533  35.513  1.00  0.00     0.064 A 
ATOM     76  C   UNL A   1      45.160  28.948  35.534  1.00  0.00     0.173 A 
ATOM     77  C   UNL A   1      43.447  27.474  36.354  1.00  0.00     0.173 A 
ATOM     78  F   UNL A   1      45.569  29.948  34.738  1.00  0.00    -0.203 F 
ATOM     79  C   UNL A   1      46.091  28.315  36.352  1.00  0.00     0.198 A 
ATOM     80  C   UNL A   1      44.373  26.866  37.195  1.00  0.00     0.198 A 
ATOM     81  F   UNL A   1      42.175  27.046  36.378  1.00  0.00    -0.203 F 
ATOM     82  F   UNL A   1      47.375  28.701  36.325  1.00  0.00    -0.200 F 
ATOM     83  C   UNL A   1      45.696  27.282  37.189  1.00  0.00     0.200 A 
ATOM     84  F   UNL A   1      43.986  25.879  38.015  1.00  0.00    -0.200 F 
ATOM     85  F   UNL A   1      46.591  26.684  37.986  1.00  0.00    -0.200 F 
ENDBRANCH  52  75
ENDBRANCH  26  27
ENDBRANCH  19  21
ENDBRANCH  18  19
ENDBRANCH  17  18
ENDBRANCH  16  17
ENDBRANCH  15  16
ENDBRANCH   1  15
TORSDOF 17
ENDMDL
MODEL 3
REMARK VINA RESULT:      -9.5      0.966      2.059
REMARK SMILES O=C(COC[C@@H]1CCCCO1)OCCOCCOC(=O)c1ccc(-c2c3nc(c(-c4c(F)c(F)c(F)c(F)c4F)c4ccc([nH]4)c(-c4c(F)c(F)c(F)c(F)c4F)c4nc(c(-c5c(F)c(F)c(F)c(F)c5F)c5ccc2[nH]5)C=C4)C=C3)cc1
REMARK SMILES IDX 14 1 13 2 12 3 2 4 1 5 3 6 4 7 5 8 6 9 7 10 11 11 8 12 10 13
REMARK SMILES IDX 9 14 15 15 16 16 17 17 18 18 19 19 20 20 21 21 22 22 83 23
REMARK SMILES IDX 23 24 82 25 24 26 25 27 26 28 76 29 27 30 81 31 75 32 77 33
REMARK SMILES IDX 28 34 80 35 74 36 73 37 29 39 61 40 41 41 60 42 42 43 45 44
REMARK SMILES IDX 59 45 78 46 43 47 44 48 58 50 79 51 46 52 30 53 31 54 39 55
REMARK SMILES IDX 32 56 33 57 37 58 40 59 34 60 35 61 38 62 36 63 62 64 63 65
REMARK SMILES IDX 71 66 64 67 65 68 69 69 72 70 66 71 67 72 70 73 68 74 47 75
REMARK SMILES IDX 48 76 56 77 49 78 50 79 54 80 57 81 51 82 52 83 55 84 53 85
REMARK H PARENT 77 38 45 49
REMARK Flexibility Score: inf
ROOT
ATOM      1  C   UNL A   1      42.651  18.119  26.472  1.00  0.00     0.202 C 
ENDROOT
BRANCH   1   2
ATOM      2  C   UNL A   1      44.133  18.187  26.099  1.00  0.00     0.261 C 
BRANCH   2   3
ATOM      3  O   UNL A   1      44.289  18.429  24.689  1.00  0.00    -0.462 OA
BRANCH   3   4
ATOM      4  C   UNL A   1      45.412  18.967  24.170  1.00  0.00     0.332 C 
ATOM      5  O   UNL A   1      45.680  18.816  22.979  1.00  0.00    -0.250 OA
BRANCH   4   6
ATOM      6  C   UNL A   1      46.345  19.739  25.095  1.00  0.00     0.282 C 
BRANCH   6   7
ATOM      7  O   UNL A   1      45.872  20.954  25.636  1.00  0.00    -0.367 OA
BRANCH   7   8
ATOM      8  C   UNL A   1      45.738  22.000  24.678  1.00  0.00     0.193 C 
BRANCH   8   9
ATOM      9  C   UNL A   1      46.055  23.421  25.202  1.00  0.00     0.144 C 
ATOM     10  C   UNL A   1      46.044  23.650  26.721  1.00  0.00     0.034 C 
ATOM     11  O   UNL A   1      45.264  24.417  24.537  1.00  0.00    -0.376 OA
ATOM     12  C   UNL A   1      44.652  23.886  27.307  1.00  0.00     0.005 C 
ATOM     13  C   UNL A   1      43.918  24.508  25.000  1.00  0.00     0.160 C 
ATOM     14  C   UNL A   1      43.879  24.893  26.469  1.00  0.00     0.029 C 
ENDBRANCH   8   9
ENDBRANCH   7   8
ENDBRANCH   6   7
ENDBRANCH   4   6
ENDBRANCH   3   4
ENDBRANCH   2   3
ENDBRANCH   1   2
BRANCH   1  15
ATOM     15  O   UNL A   1      41.807  19.096  25.861  1.00  0.00    -0.374 OA
BRANCH  15  16
ATOM     16  C   UNL A   1      41.111  19.979  26.753  1.00  0.00     0.202 C 
BRANCH  16  17
ATOM     17  C   UNL A   1      39.954  20.774  26.131  1.00  0.00     0.261 C 
BRANCH  17  18
ATOM     18  O   UNL A   1      40.207  22.186  26.198  1.00  0.00    -0.460 OA
BRANCH  18  19
ATOM     19  C   UNL A   1      39.110  22.981  26.151  1.00  0.00     0.338 C 
ATOM     20  O   UNL A   1      37.987  22.677  25.786  1.00  0.00    -0.246 OA
BRANCH  19  21
ATOM     21  C   UNL A   1      39.418  24.223  26.890  1.00  0.00     0.060 A 
ATOM     22  C   UNL A   1      40.166  25.208  26.225  1.00  0.00     0.016 A 
ATOM     23  C   UNL A   1      38.916  24.459  28.171  1.00  0.00     0.016 A 
ATOM     24  C   UNL A   1      40.405  26.436  26.833  1.00  0.00     0.010 A 
ATOM     25  C   UNL A   1      39.188  25.677  28.795  1.00  0.00     0.010 A 
ATOM     26  C   UNL A   1      39.943  26.662  28.133  1.00  0.00    -0.014 A 
BRANCH  26  27
ATOM     27  C   UNL A   1      40.387  27.855  28.883  1.00  0.00     0.031 A 
ATOM     28  C   UNL A   1      41.736  27.809  29.539  1.00  0.00     0.074 A 
ATOM     29  C   UNL A   1      39.589  28.929  29.012  1.00  0.00     0.049 A 
ATOM     30  N   UNL A   1      42.280  28.648  30.378  1.00  0.00    -0.248 NA
ATOM     31  C   UNL A   1      42.582  26.649  29.208  1.00  0.00     0.031 C 
ATOM     32  C   UNL A   1      38.280  29.091  28.381  1.00  0.00     0.029 A 
ATOM     33  N   UNL A   1      39.754  30.076  29.748  1.00  0.00    -0.354 N 
ATOM     34  C   UNL A   1      43.518  28.106  30.695  1.00  0.00     0.074 A 
ATOM     35  C   UNL A   1      43.646  26.866  29.965  1.00  0.00     0.031 C 
ATOM     36  C   UNL A   1      37.740  30.253  28.792  1.00  0.00     0.029 A 
ATOM     37  C   UNL A   1      38.647  30.890  29.746  1.00  0.00     0.049 A 
ATOM     38  H   UNL A   1      40.583  30.294  30.231  1.00  0.00     0.167 HD
ATOM     39  C   UNL A   1      44.456  28.605  31.532  1.00  0.00     0.037 A 
ATOM     40  C   UNL A   1      38.384  31.992  30.475  1.00  0.00     0.037 A 
ATOM     41  C   UNL A   1      44.317  29.846  32.242  1.00  0.00     0.049 A 
ATOM     42  C   UNL A   1      39.424  32.486  31.452  1.00  0.00     0.074 A 
ATOM     43  C   UNL A   1      45.232  30.472  33.068  1.00  0.00     0.029 A 
ATOM     44  N   UNL A   1      43.182  30.641  32.222  1.00  0.00    -0.354 N 
ATOM     45  N   UNL A   1      40.614  32.001  31.712  1.00  0.00    -0.248 NA
ATOM     46  C   UNL A   1      39.080  33.678  32.242  1.00  0.00     0.031 C 
ATOM     47  C   UNL A   1      44.628  31.615  33.597  1.00  0.00     0.029 A 
ATOM     48  C   UNL A   1      43.357  31.731  33.056  1.00  0.00     0.049 A 
ATOM     49  H   UNL A   1      42.372  30.458  31.692  1.00  0.00     0.167 HD
ATOM     50  C   UNL A   1      41.166  32.836  32.675  1.00  0.00     0.074 A 
ATOM     51  C   UNL A   1      40.191  33.872  32.939  1.00  0.00     0.031 C 
ATOM     52  C   UNL A   1      42.370  32.752  33.294  1.00  0.00     0.037 A 
BRANCH  39  53
ATOM     53  C   UNL A   1      45.700  27.800  31.756  1.00  0.00     0.064 A 
ATOM     54  C   UNL A   1      45.745  26.749  32.683  1.00  0.00     0.173 A 
ATOM     55  C   UNL A   1      46.841  28.040  30.975  1.00  0.00     0.173 A 
ATOM     56  F   UNL A   1      44.686  26.492  33.465  1.00  0.00    -0.203 F 
ATOM     57  C   UNL A   1      46.890  25.969  32.822  1.00  0.00     0.198 A 
ATOM     58  C   UNL A   1      47.974  27.243  31.100  1.00  0.00     0.198 A 
ATOM     59  F   UNL A   1      46.848  29.037  30.077  1.00  0.00    -0.203 F 
ATOM     60  F   UNL A   1      46.921  24.985  33.732  1.00  0.00    -0.200 F 
ATOM     61  C   UNL A   1      47.998  26.208  32.023  1.00  0.00     0.200 A 
ATOM     62  F   UNL A   1      49.040  27.469  30.320  1.00  0.00    -0.200 F 
ATOM     63  F   UNL A   1      49.092  25.443  32.144  1.00  0.00    -0.200 F 
ENDBRANCH  39  53
BRANCH  40  64
ATOM     64  C   UNL A   1      37.065  32.673  30.366  1.00  0.00     0.064 A 
ATOM     65  C   UNL A   1      36.044  32.435  31.297  1.00  0.00     0.173 A 
ATOM     66  C   UNL A   1      36.778  33.533  29.295  1.00  0.00     0.173 A 
ATOM     67  F   UNL A   1      36.257  31.599  32.324  1.00  0.00    -0.203 F 
ATOM     68  C   UNL A   1      34.781  33.006  31.144  1.00  0.00     0.198 A 
ATOM     69  C   UNL A   1      35.525  34.130  29.161  1.00  0.00     0.198 A 
ATOM     70  F   UNL A   1      37.715  33.792  28.371  1.00  0.00    -0.203 F 
ATOM     71  F   UNL A   1      33.805  32.707  32.013  1.00  0.00    -0.200 F 
ATOM     72  C   UNL A   1      34.524  33.855  30.079  1.00  0.00     0.200 A 
ATOM     73  F   UNL A   1      35.285  34.957  28.136  1.00  0.00    -0.200 F 
ATOM     74  F   UNL A   1      33.307  34.395  29.929  1.00  0.00    -0.200 F 
ENDBRANCH  40  64
BRANCH  52  75
ATOM     75  C   UNL A   1      42.708  33.816  34.297  1.00  0.00     0.064 A 
ATOM     76  C   UNL A   1      42.438  33.649  35.663  1.00  0.00     0.173 A 
ATOM     77  C   UNL A   1      43.368  34.988  33.895  1.00  0.00     0.173 A 
ATOM     78  F   UNL A   1      41.798  32.552  36.094  1.00  0.00    -0.203 F 
ATOM     79  C   UNL A   1      42.799  34.625  36.587  1.00  0.00     0.198 A 
ATOM     80  C   UNL A   1      43.756  35.946  34.825  1.00  0.00     0.198 A 
ATOM     81  F   UNL A   1      43.657  35.191  32.600  1.00  0.00    -0.203 F 
ATOM     82  F   UNL A   1      42.494  34.463  37.882  1.00  0.00    -0.200 F 
ATOM     83  C   UNL A   1      43.466  35.768  36.169  1.00  0.00     0.200 A 
ATOM     84  F   UNL A   1      44.416  37.041  34.422  1.00  0.00    -0.200 F 
ATOM     85  F   UNL A   1      43.826  36.699  37.063  1.00  0.00    -0.200 F 
ENDBRANCH  52  75
ENDBRANCH  26  27
ENDBRANCH  19  21
ENDBRANCH  18  19
ENDBRANCH  17  18
ENDBRANCH  16  17
ENDBRANCH  15  16
ENDBRANCH   1  15
TORSDOF 17
ENDMDL
