MODEL 1
REMARK VINA RESULT:     -12.6      0.000      0.000
REMARK SMILES C[C@H]1[C@H](C(=O)OCCOCCOC(=O)c2ccc(-c3c4nc(c(-c5c(F)c(F)c(F)c(F)c5F)c5ccc([nH]5)c(-c5c(F)c(F)c(F)c(F)c5F)c5nc(c(-c6c(F)c(F)c(F)c(F)c6F)c6ccc3[nH]6)C=C5)C=C4)cc2)CCN1C(=O)c1ccc2ccccc2c1
REMARK SMILES IDX 9 1 8 2 7 3 6 4 4 5 5 6 3 7 1 8 2 9 80 10 78 11 79 12 81 13
REMARK SMILES IDX 82 14 83 15 84 16 92 17 85 18 91 19 86 20 90 21 87 22 89 23
REMARK SMILES IDX 88 24 10 25 11 26 12 27 13 28 14 29 15 30 16 31 77 32 17 33
REMARK SMILES IDX 76 34 18 35 19 36 20 37 70 38 21 39 75 40 69 41 71 42 22 43
REMARK SMILES IDX 74 44 68 45 67 46 23 48 55 49 35 50 54 51 36 52 39 53 53 54
REMARK SMILES IDX 72 55 37 56 38 57 52 59 73 60 40 61 24 62 25 63 33 64 26 65
REMARK SMILES IDX 27 66 31 67 34 68 28 69 29 70 32 71 30 72 56 73 57 74 65 75
REMARK SMILES IDX 58 76 59 77 63 78 66 79 60 80 61 81 64 82 62 83 41 84 42 85
REMARK SMILES IDX 50 86 43 87 44 88 48 89 51 90 45 91 46 92 49 93 47 94
REMARK H PARENT 71 47 39 58
REMARK Flexibility Score: inf
ROOT
ATOM      1  O   UNL A   1      32.992  28.472  25.269  1.00  0.00    -0.374 OA
ENDROOT
BRANCH   1   2
ATOM      2  C   UNL A   1      33.715  27.927  24.167  1.00  0.00     0.202 C 
BRANCH   2   3
ATOM      3  C   UNL A   1      33.106  28.120  22.775  1.00  0.00     0.261 C 
BRANCH   3   4
ATOM      4  O   UNL A   1      32.286  27.004  22.380  1.00  0.00    -0.463 OA
BRANCH   4   5
ATOM      5  C   UNL A   1      30.950  27.158  22.574  1.00  0.00     0.311 C 
ATOM      6  O   UNL A   1      30.264  28.036  22.066  1.00  0.00    -0.252 OA
BRANCH   5   7
ATOM      7  C   UNL A   1      30.374  26.162  23.554  1.00  0.00     0.123 C 
ATOM      8  C   UNL A   1      30.848  23.709  23.236  1.00  0.00     0.032 C 
ATOM      9  C   UNL A   1      31.274  24.978  23.982  1.00  0.00     0.096 C 
ATOM     10  N   UNL A   1      31.075  24.881  25.438  1.00  0.00    -0.335 N 
ATOM     11  C   UNL A   1      30.020  26.892  24.846  1.00  0.00     0.039 C 
ATOM     12  C   UNL A   1      30.046  25.799  25.886  1.00  0.00     0.121 C 
BRANCH  10  13
ATOM     13  C   UNL A   1      31.777  24.153  26.382  1.00  0.00     0.254 C 
ATOM     14  O   UNL A   1      31.265  23.705  27.405  1.00  0.00    -0.269 OA
BRANCH  13  15
ATOM     15  C   UNL A   1      33.176  23.776  26.129  1.00  0.00     0.040 A 
ATOM     16  C   UNL A   1      34.067  24.808  25.826  1.00  0.00     0.014 A 
ATOM     17  C   UNL A   1      33.558  22.440  25.987  1.00  0.00     0.022 A 
ATOM     18  C   UNL A   1      35.366  24.508  25.423  1.00  0.00     0.009 A 
ATOM     19  C   UNL A   1      34.862  22.126  25.555  1.00  0.00    -0.018 A 
ATOM     20  C   UNL A   1      35.777  23.174  25.281  1.00  0.00    -0.018 A 
ATOM     21  C   UNL A   1      35.280  20.799  25.352  1.00  0.00     0.009 A 
ATOM     22  C   UNL A   1      37.074  22.867  24.840  1.00  0.00     0.009 A 
ATOM     23  C   UNL A   1      36.574  20.510  24.912  1.00  0.00     0.001 A 
ATOM     24  C   UNL A   1      37.471  21.543  24.660  1.00  0.00     0.001 A 
ENDBRANCH  13  15
ENDBRANCH  10  13
ENDBRANCH   5   7
ENDBRANCH   4   5
ENDBRANCH   3   4
ENDBRANCH   2   3
ENDBRANCH   1   2
BRANCH   1  25
ATOM     25  C   UNL A   1      32.469  29.791  25.141  1.00  0.00     0.202 C 
BRANCH  25  26
ATOM     26  C   UNL A   1      31.865  30.428  26.398  1.00  0.00     0.261 C 
BRANCH  26  27
ATOM     27  O   UNL A   1      32.789  30.457  27.500  1.00  0.00    -0.460 OA
BRANCH  27  28
ATOM     28  C   UNL A   1      33.536  31.586  27.563  1.00  0.00     0.338 C 
ATOM     29  O   UNL A   1      33.136  32.739  27.553  1.00  0.00    -0.246 OA
BRANCH  28  30
ATOM     30  C   UNL A   1      34.955  31.264  27.807  1.00  0.00     0.060 A 
ATOM     31  C   UNL A   1      35.297  29.909  27.885  1.00  0.00     0.016 A 
ATOM     32  C   UNL A   1      35.905  32.250  28.075  1.00  0.00     0.016 A 
ATOM     33  C   UNL A   1      36.566  29.536  28.317  1.00  0.00     0.010 A 
ATOM     34  C   UNL A   1      37.182  31.875  28.512  1.00  0.00     0.010 A 
ATOM     35  C   UNL A   1      37.497  30.516  28.688  1.00  0.00    -0.014 A 
BRANCH  35  36
ATOM     36  C   UNL A   1      38.708  30.090  29.433  1.00  0.00     0.031 A 
ATOM     37  C   UNL A   1      38.907  30.581  30.843  1.00  0.00     0.074 A 
ATOM     38  C   UNL A   1      39.571  29.208  28.900  1.00  0.00     0.049 A 
ATOM     39  N   UNL A   1      39.839  30.273  31.709  1.00  0.00    -0.248 NA
ATOM     40  C   UNL A   1      37.918  31.549  31.346  1.00  0.00     0.031 C 
ATOM     41  C   UNL A   1      39.473  28.639  27.558  1.00  0.00     0.029 A 
ATOM     42  N   UNL A   1      40.693  28.625  29.434  1.00  0.00    -0.354 N 
ATOM     43  C   UNL A   1      39.546  31.002  32.855  1.00  0.00     0.074 A 
ATOM     44  C   UNL A   1      38.376  31.801  32.562  1.00  0.00     0.031 C 
ATOM     45  C   UNL A   1      40.491  27.781  27.374  1.00  0.00     0.029 A 
ATOM     46  C   UNL A   1      41.319  27.754  28.579  1.00  0.00     0.049 A 
ATOM     47  H   UNL A   1      41.017  28.814  30.344  1.00  0.00     0.167 HD
ATOM     48  C   UNL A   1      40.184  30.994  34.050  1.00  0.00     0.037 A 
ATOM     49  C   UNL A   1      42.435  27.020  28.751  1.00  0.00     0.037 A 
ATOM     50  C   UNL A   1      41.344  30.195  34.346  1.00  0.00     0.049 A 
ATOM     51  C   UNL A   1      43.152  27.061  30.076  1.00  0.00     0.074 A 
ATOM     52  C   UNL A   1      42.053  30.106  35.531  1.00  0.00     0.029 A 
ATOM     53  N   UNL A   1      41.970  29.350  33.441  1.00  0.00    -0.354 N 
ATOM     54  N   UNL A   1      42.847  27.725  31.165  1.00  0.00    -0.248 NA
ATOM     55  C   UNL A   1      44.364  26.238  30.198  1.00  0.00     0.031 C 
ATOM     56  C   UNL A   1      43.134  29.239  35.331  1.00  0.00     0.029 A 
ATOM     57  C   UNL A   1      43.069  28.750  34.036  1.00  0.00     0.049 A 
ATOM     58  H   UNL A   1      41.676  29.198  32.514  1.00  0.00     0.167 HD
ATOM     59  C   UNL A   1      43.807  27.378  32.107  1.00  0.00     0.074 A 
ATOM     60  C   UNL A   1      44.696  26.432  31.466  1.00  0.00     0.031 C 
ATOM     61  C   UNL A   1      43.940  27.805  33.387  1.00  0.00     0.037 A 
BRANCH  48  62
ATOM     62  C   UNL A   1      39.647  31.893  35.127  1.00  0.00     0.064 A 
ATOM     63  C   UNL A   1      40.055  33.230  35.240  1.00  0.00     0.173 A 
ATOM     64  C   UNL A   1      38.693  31.417  36.038  1.00  0.00     0.173 A 
ATOM     65  F   UNL A   1      40.977  33.729  34.403  1.00  0.00    -0.203 F 
ATOM     66  C   UNL A   1      39.546  34.051  36.244  1.00  0.00     0.198 A 
ATOM     67  C   UNL A   1      38.165  32.248  37.022  1.00  0.00     0.198 A 
ATOM     68  F   UNL A   1      38.268  30.146  35.972  1.00  0.00    -0.203 F 
ATOM     69  F   UNL A   1      39.984  35.312  36.363  1.00  0.00    -0.200 F 
ATOM     70  C   UNL A   1      38.597  33.562  37.129  1.00  0.00     0.200 A 
ATOM     71  F   UNL A   1      37.241  31.777  37.871  1.00  0.00    -0.200 F 
ATOM     72  F   UNL A   1      38.104  34.354  38.091  1.00  0.00    -0.200 F 
ENDBRANCH  48  62
BRANCH  49  73
ATOM     73  C   UNL A   1      42.940  26.168  27.643  1.00  0.00     0.064 A 
ATOM     74  C   UNL A   1      43.883  26.652  26.725  1.00  0.00     0.173 A 
ATOM     75  C   UNL A   1      42.475  24.856  27.470  1.00  0.00     0.173 A 
ATOM     76  F   UNL A   1      44.338  27.909  26.835  1.00  0.00    -0.203 F 
ATOM     77  C   UNL A   1      44.324  25.865  25.664  1.00  0.00     0.198 A 
ATOM     78  C   UNL A   1      42.938  24.060  26.424  1.00  0.00     0.198 A 
ATOM     79  F   UNL A   1      41.572  24.346  28.319  1.00  0.00    -0.203 F 
ATOM     80  F   UNL A   1      45.189  26.369  24.773  1.00  0.00    -0.200 F 
ATOM     81  C   UNL A   1      43.856  24.568  25.518  1.00  0.00     0.200 A 
ATOM     82  F   UNL A   1      42.492  22.803  26.293  1.00  0.00    -0.200 F 
ATOM     83  F   UNL A   1      44.283  23.810  24.499  1.00  0.00    -0.200 F 
ENDBRANCH  49  73
BRANCH  61  84
ATOM     84  C   UNL A   1      45.067  27.223  34.192  1.00  0.00     0.064 A 
ATOM     85  C   UNL A   1      46.323  27.844  34.258  1.00  0.00     0.173 A 
ATOM     86  C   UNL A   1      44.879  26.041  34.926  1.00  0.00     0.173 A 
ATOM     87  F   UNL A   1      46.558  28.968  33.564  1.00  0.00    -0.203 F 
ATOM     88  C   UNL A   1      47.360  27.285  35.002  1.00  0.00     0.198 A 
ATOM     89  C   UNL A   1      45.909  25.502  35.692  1.00  0.00     0.198 A 
ATOM     90  F   UNL A   1      43.695  25.413  34.904  1.00  0.00    -0.203 F 
ATOM     91  F   UNL A   1      48.567  27.866  35.006  1.00  0.00    -0.200 F 
ATOM     92  C   UNL A   1      47.151  26.119  35.722  1.00  0.00     0.200 A 
ATOM     93  F   UNL A   1      45.700  24.383  36.399  1.00  0.00    -0.200 F 
ATOM     94  F   UNL A   1      48.148  25.583  36.438  1.00  0.00    -0.200 F 
ENDBRANCH  61  84
ENDBRANCH  35  36
ENDBRANCH  28  30
ENDBRANCH  27  28
ENDBRANCH  26  27
ENDBRANCH  25  26
ENDBRANCH   1  25
TORSDOF 16
ENDMDL
MODEL 2
REMARK VINA RESULT:     -12.4      1.250      2.023
REMARK SMILES C[C@H]1[C@H](C(=O)OCCOCCOC(=O)c2ccc(-c3c4nc(c(-c5c(F)c(F)c(F)c(F)c5F)c5ccc([nH]5)c(-c5c(F)c(F)c(F)c(F)c5F)c5nc(c(-c6c(F)c(F)c(F)c(F)c6F)c6ccc3[nH]6)C=C5)C=C4)cc2)CCN1C(=O)c1ccc2ccccc2c1
REMARK SMILES IDX 9 1 8 2 7 3 6 4 4 5 5 6 3 7 1 8 2 9 80 10 78 11 79 12 81 13
REMARK SMILES IDX 82 14 83 15 84 16 92 17 85 18 91 19 86 20 90 21 87 22 89 23
REMARK SMILES IDX 88 24 10 25 11 26 12 27 13 28 14 29 15 30 16 31 77 32 17 33
REMARK SMILES IDX 76 34 18 35 19 36 20 37 70 38 21 39 75 40 69 41 71 42 22 43
REMARK SMILES IDX 74 44 68 45 67 46 23 48 55 49 35 50 54 51 36 52 39 53 53 54
REMARK SMILES IDX 72 55 37 56 38 57 52 59 73 60 40 61 24 62 25 63 33 64 26 65
REMARK SMILES IDX 27 66 31 67 34 68 28 69 29 70 32 71 30 72 56 73 57 74 65 75
REMARK SMILES IDX 58 76 59 77 63 78 66 79 60 80 61 81 64 82 62 83 41 84 42 85
REMARK SMILES IDX 50 86 43 87 44 88 48 89 51 90 45 91 46 92 49 93 47 94
REMARK H PARENT 71 47 39 58
REMARK Flexibility Score: inf
ROOT
ATOM      1  O   UNL A   1      30.495  30.170  24.505  1.00  0.00    -0.374 OA
ENDROOT
BRANCH   1   2
ATOM      2  C   UNL A   1      30.293  29.120  23.562  1.00  0.00     0.202 C 
BRANCH   2   3
ATOM      3  C   UNL A   1      31.512  28.670  22.752  1.00  0.00     0.261 C 
BRANCH   3   4
ATOM      4  O   UNL A   1      31.269  27.442  22.038  1.00  0.00    -0.463 OA
BRANCH   4   5
ATOM      5  C   UNL A   1      32.310  26.570  21.997  1.00  0.00     0.311 C 
ATOM      6  O   UNL A   1      33.448  26.853  21.643  1.00  0.00    -0.252 OA
BRANCH   5   7
ATOM      7  C   UNL A   1      31.919  25.160  22.373  1.00  0.00     0.123 C 
ATOM      8  C   UNL A   1      33.643  23.329  22.233  1.00  0.00     0.032 C 
ATOM      9  C   UNL A   1      32.948  24.322  23.170  1.00  0.00     0.096 C 
ATOM     10  N   UNL A   1      32.144  23.661  24.212  1.00  0.00    -0.335 N 
ATOM     11  C   UNL A   1      30.670  25.211  23.246  1.00  0.00     0.039 C 
ATOM     12  C   UNL A   1      30.729  23.917  24.022  1.00  0.00     0.121 C 
BRANCH  10  13
ATOM     13  C   UNL A   1      32.549  22.965  25.337  1.00  0.00     0.254 C 
ATOM     14  O   UNL A   1      32.355  23.362  26.484  1.00  0.00    -0.269 OA
BRANCH  13  15
ATOM     15  C   UNL A   1      33.139  21.624  25.198  1.00  0.00     0.040 A 
ATOM     16  C   UNL A   1      34.514  21.509  25.418  1.00  0.00     0.014 A 
ATOM     17  C   UNL A   1      32.411  20.557  24.667  1.00  0.00     0.022 A 
ATOM     18  C   UNL A   1      35.161  20.305  25.151  1.00  0.00     0.009 A 
ATOM     19  C   UNL A   1      33.061  19.343  24.370  1.00  0.00    -0.018 A 
ATOM     20  C   UNL A   1      34.450  19.216  24.626  1.00  0.00    -0.018 A 
ATOM     21  C   UNL A   1      32.382  18.256  23.791  1.00  0.00     0.009 A 
ATOM     22  C   UNL A   1      35.106  18.012  24.322  1.00  0.00     0.009 A 
ATOM     23  C   UNL A   1      33.050  17.065  23.494  1.00  0.00     0.001 A 
ATOM     24  C   UNL A   1      34.409  16.943  23.762  1.00  0.00     0.001 A 
ENDBRANCH  13  15
ENDBRANCH  10  13
ENDBRANCH   5   7
ENDBRANCH   4   5
ENDBRANCH   3   4
ENDBRANCH   2   3
ENDBRANCH   1   2
BRANCH   1  25
ATOM     25  C   UNL A   1      31.619  30.081  25.375  1.00  0.00     0.202 C 
BRANCH  25  26
ATOM     26  C   UNL A   1      31.759  31.167  26.448  1.00  0.00     0.261 C 
BRANCH  26  27
ATOM     27  O   UNL A   1      32.835  30.900  27.365  1.00  0.00    -0.460 OA
BRANCH  27  28
ATOM     28  C   UNL A   1      33.617  31.977  27.625  1.00  0.00     0.338 C 
ATOM     29  O   UNL A   1      33.260  33.135  27.765  1.00  0.00    -0.246 OA
BRANCH  28  30
ATOM     30  C   UNL A   1      35.010  31.563  27.882  1.00  0.00     0.060 A 
ATOM     31  C   UNL A   1      35.257  30.190  27.994  1.00  0.00     0.016 A 
ATOM     32  C   UNL A   1      36.026  32.487  28.129  1.00  0.00     0.016 A 
ATOM     33  C   UNL A   1      36.496  29.740  28.440  1.00  0.00     0.010 A 
ATOM     34  C   UNL A   1      37.272  32.035  28.580  1.00  0.00     0.010 A 
ATOM     35  C   UNL A   1      37.492  30.662  28.790  1.00  0.00    -0.014 A 
BRANCH  35  36
ATOM     36  C   UNL A   1      38.670  30.172  29.550  1.00  0.00     0.031 A 
ATOM     37  C   UNL A   1      38.855  30.619  30.976  1.00  0.00     0.074 A 
ATOM     38  C   UNL A   1      39.511  29.271  29.012  1.00  0.00     0.049 A 
ATOM     39  N   UNL A   1      39.755  30.254  31.853  1.00  0.00    -0.248 NA
ATOM     40  C   UNL A   1      37.892  31.610  31.482  1.00  0.00     0.031 C 
ATOM     41  C   UNL A   1      39.422  28.741  27.654  1.00  0.00     0.029 A 
ATOM     42  N   UNL A   1      40.598  28.633  29.554  1.00  0.00    -0.354 N 
ATOM     43  C   UNL A   1      39.464  30.964  33.012  1.00  0.00     0.074 A 
ATOM     44  C   UNL A   1      38.332  31.814  32.715  1.00  0.00     0.031 C 
ATOM     45  C   UNL A   1      40.411  27.850  27.469  1.00  0.00     0.029 A 
ATOM     46  C   UNL A   1      41.210  27.761  28.690  1.00  0.00     0.049 A 
ATOM     47  H   UNL A   1      40.908  28.786  30.476  1.00  0.00     0.167 HD
ATOM     48  C   UNL A   1      40.074  30.901  34.219  1.00  0.00     0.037 A 
ATOM     49  C   UNL A   1      42.294  26.980  28.867  1.00  0.00     0.037 A 
ATOM     50  C   UNL A   1      41.197  30.052  34.518  1.00  0.00     0.049 A 
ATOM     51  C   UNL A   1      42.981  26.961  30.207  1.00  0.00     0.074 A 
ATOM     52  C   UNL A   1      41.875  29.905  35.716  1.00  0.00     0.029 A 
ATOM     53  N   UNL A   1      41.810  29.206  33.606  1.00  0.00    -0.354 N 
ATOM     54  N   UNL A   1      42.677  27.608  31.307  1.00  0.00    -0.248 NA
ATOM     55  C   UNL A   1      44.158  26.089  30.334  1.00  0.00     0.031 C 
ATOM     56  C   UNL A   1      42.927  29.003  35.516  1.00  0.00     0.029 A 
ATOM     57  C   UNL A   1      42.873  28.550  34.208  1.00  0.00     0.049 A 
ATOM     58  H   UNL A   1      41.532  29.089  32.669  1.00  0.00     0.167 HD
ATOM     59  C   UNL A   1      43.602  27.201  32.260  1.00  0.00     0.074 A 
ATOM     60  C   UNL A   1      44.470  26.238  31.614  1.00  0.00     0.031 C 
ATOM     61  C   UNL A   1      43.722  27.590  33.554  1.00  0.00     0.037 A 
BRANCH  48  62
ATOM     62  C   UNL A   1      39.547  31.792  35.307  1.00  0.00     0.064 A 
ATOM     63  C   UNL A   1      38.618  31.330  36.251  1.00  0.00     0.173 A 
ATOM     64  C   UNL A   1      39.999  33.114  35.423  1.00  0.00     0.173 A 
ATOM     65  F   UNL A   1      38.143  30.078  36.175  1.00  0.00    -0.203 F 
ATOM     66  C   UNL A   1      38.140  32.169  37.256  1.00  0.00     0.198 A 
ATOM     67  C   UNL A   1      39.541  33.942  36.445  1.00  0.00     0.198 A 
ATOM     68  F   UNL A   1      40.890  33.605  34.547  1.00  0.00    -0.203 F 
ATOM     69  F   UNL A   1      37.218  31.722  38.118  1.00  0.00    -0.200 F 
ATOM     70  C   UNL A   1      38.608  33.471  37.356  1.00  0.00     0.200 A 
ATOM     71  F   UNL A   1      40.001  35.197  36.546  1.00  0.00    -0.200 F 
ATOM     72  F   UNL A   1      38.151  34.275  38.325  1.00  0.00    -0.200 F 
ENDBRANCH  48  62
BRANCH  49  73
ATOM     73  C   UNL A   1      42.791  26.138  27.748  1.00  0.00     0.064 A 
ATOM     74  C   UNL A   1      43.779  26.606  26.870  1.00  0.00     0.173 A 
ATOM     75  C   UNL A   1      42.274  24.854  27.524  1.00  0.00     0.173 A 
ATOM     76  F   UNL A   1      44.285  27.838  27.028  1.00  0.00    -0.203 F 
ATOM     77  C   UNL A   1      44.215  25.830  25.798  1.00  0.00     0.198 A 
ATOM     78  C   UNL A   1      42.730  24.068  26.468  1.00  0.00     0.198 A 
ATOM     79  F   UNL A   1      41.327  24.361  28.334  1.00  0.00    -0.203 F 
ATOM     80  F   UNL A   1      45.125  26.320  24.945  1.00  0.00    -0.200 F 
ATOM     81  C   UNL A   1      43.695  24.560  25.601  1.00  0.00     0.200 A 
ATOM     82  F   UNL A   1      42.233  22.837  26.288  1.00  0.00    -0.200 F 
ATOM     83  F   UNL A   1      44.116  23.813  24.572  1.00  0.00    -0.200 F 
ENDBRANCH  49  73
BRANCH  61  84
ATOM     84  C   UNL A   1      44.809  26.945  34.366  1.00  0.00     0.064 A 
ATOM     85  C   UNL A   1      46.085  27.516  34.477  1.00  0.00     0.173 A 
ATOM     86  C   UNL A   1      44.560  25.752  35.064  1.00  0.00     0.173 A 
ATOM     87  F   UNL A   1      46.376  28.648  33.819  1.00  0.00    -0.203 F 
ATOM     88  C   UNL A   1      47.083  26.899  35.228  1.00  0.00     0.198 A 
ATOM     89  C   UNL A   1      45.551  25.155  35.838  1.00  0.00     0.198 A 
ATOM     90  F   UNL A   1      43.354  25.170  34.999  1.00  0.00    -0.203 F 
ATOM     91  F   UNL A   1      48.310  27.435  35.274  1.00  0.00    -0.200 F 
ATOM     92  C   UNL A   1      46.814  25.723  35.912  1.00  0.00     0.200 A 
ATOM     93  F   UNL A   1      45.285  24.026  36.509  1.00  0.00    -0.200 F 
ATOM     94  F   UNL A   1      47.774  25.132  36.635  1.00  0.00    -0.200 F 
ENDBRANCH  61  84
ENDBRANCH  35  36
ENDBRANCH  28  30
ENDBRANCH  27  28
ENDBRANCH  26  27
ENDBRANCH  25  26
ENDBRANCH   1  25
TORSDOF 16
ENDMDL
MODEL 3
REMARK VINA RESULT:     -12.3      0.573      7.292
REMARK SMILES C[C@H]1[C@H](C(=O)OCCOCCOC(=O)c2ccc(-c3c4nc(c(-c5c(F)c(F)c(F)c(F)c5F)c5ccc([nH]5)c(-c5c(F)c(F)c(F)c(F)c5F)c5nc(c(-c6c(F)c(F)c(F)c(F)c6F)c6ccc3[nH]6)C=C5)C=C4)cc2)CCN1C(=O)c1ccc2ccccc2c1
REMARK SMILES IDX 9 1 8 2 7 3 6 4 4 5 5 6 3 7 1 8 2 9 80 10 78 11 79 12 81 13
REMARK SMILES IDX 82 14 83 15 84 16 92 17 85 18 91 19 86 20 90 21 87 22 89 23
REMARK SMILES IDX 88 24 10 25 11 26 12 27 13 28 14 29 15 30 16 31 77 32 17 33
REMARK SMILES IDX 76 34 18 35 19 36 20 37 70 38 21 39 75 40 69 41 71 42 22 43
REMARK SMILES IDX 74 44 68 45 67 46 23 48 55 49 35 50 54 51 36 52 39 53 53 54
REMARK SMILES IDX 72 55 37 56 38 57 52 59 73 60 40 61 24 62 25 63 33 64 26 65
REMARK SMILES IDX 27 66 31 67 34 68 28 69 29 70 32 71 30 72 56 73 57 74 65 75
REMARK SMILES IDX 58 76 59 77 63 78 66 79 60 80 61 81 64 82 62 83 41 84 42 85
REMARK SMILES IDX 50 86 43 87 44 88 48 89 51 90 45 91 46 92 49 93 47 94
REMARK H PARENT 71 47 39 58
REMARK Flexibility Score: inf
ROOT
ATOM      1  O   UNL A   1      33.125  28.400  24.929  1.00  0.00    -0.374 OA
ENDROOT
BRANCH   1   2
ATOM      2  C   UNL A   1      33.875  27.946  23.804  1.00  0.00     0.202 C 
BRANCH   2   3
ATOM      3  C   UNL A   1      33.174  27.979  22.444  1.00  0.00     0.261 C 
BRANCH   3   4
ATOM      4  O   UNL A   1      32.284  26.862  22.263  1.00  0.00    -0.463 OA
BRANCH   4   5
ATOM      5  C   UNL A   1      30.974  27.104  22.531  1.00  0.00     0.311 C 
ATOM      6  O   UNL A   1      30.321  28.027  22.060  1.00  0.00    -0.252 OA
BRANCH   5   7
ATOM      7  C   UNL A   1      30.387  26.147  23.543  1.00  0.00     0.123 C 
ATOM      8  C   UNL A   1      30.775  23.674  23.264  1.00  0.00     0.032 C 
ATOM      9  C   UNL A   1      31.258  24.942  23.975  1.00  0.00     0.096 C 
ATOM     10  N   UNL A   1      31.089  24.881  25.437  1.00  0.00    -0.335 N 
ATOM     11  C   UNL A   1      30.086  26.913  24.827  1.00  0.00     0.039 C 
ATOM     12  C   UNL A   1      30.100  25.840  25.889  1.00  0.00     0.121 C 
BRANCH  10  13
ATOM     13  C   UNL A   1      31.787  24.149  26.380  1.00  0.00     0.254 C 
ATOM     14  O   UNL A   1      31.268  23.680  27.391  1.00  0.00    -0.269 OA
BRANCH  13  15
ATOM     15  C   UNL A   1      33.194  23.792  26.140  1.00  0.00     0.040 A 
ATOM     16  C   UNL A   1      34.068  24.834  25.819  1.00  0.00     0.014 A 
ATOM     17  C   UNL A   1      33.601  22.461  26.026  1.00  0.00     0.022 A 
ATOM     18  C   UNL A   1      35.374  24.549  25.428  1.00  0.00     0.009 A 
ATOM     19  C   UNL A   1      34.912  22.162  25.605  1.00  0.00    -0.018 A 
ATOM     20  C   UNL A   1      35.809  23.221  25.314  1.00  0.00    -0.018 A 
ATOM     21  C   UNL A   1      35.355  20.839  25.430  1.00  0.00     0.009 A 
ATOM     22  C   UNL A   1      37.113  22.929  24.884  1.00  0.00     0.009 A 
ATOM     23  C   UNL A   1      36.656  20.565  25.002  1.00  0.00     0.001 A 
ATOM     24  C   UNL A   1      37.535  21.609  24.732  1.00  0.00     0.001 A 
ENDBRANCH  13  15
ENDBRANCH  10  13
ENDBRANCH   5   7
ENDBRANCH   4   5
ENDBRANCH   3   4
ENDBRANCH   2   3
ENDBRANCH   1   2
BRANCH   1  25
ATOM     25  C   UNL A   1      32.521  29.688  24.856  1.00  0.00     0.202 C 
BRANCH  25  26
ATOM     26  C   UNL A   1      31.722  30.155  26.078  1.00  0.00     0.261 C 
BRANCH  26  27
ATOM     27  O   UNL A   1      32.533  30.254  27.262  1.00  0.00    -0.460 OA
BRANCH  27  28
ATOM     28  C   UNL A   1      33.280  31.384  27.326  1.00  0.00     0.338 C 
ATOM     29  O   UNL A   1      32.895  32.533  27.189  1.00  0.00    -0.246 OA
BRANCH  28  30
ATOM     30  C   UNL A   1      34.660  31.077  27.747  1.00  0.00     0.060 A 
ATOM     31  C   UNL A   1      35.008  29.726  27.860  1.00  0.00     0.016 A 
ATOM     32  C   UNL A   1      35.555  32.073  28.139  1.00  0.00     0.016 A 
ATOM     33  C   UNL A   1      36.216  29.366  28.448  1.00  0.00     0.010 A 
ATOM     34  C   UNL A   1      36.771  31.711  28.733  1.00  0.00     0.010 A 
ATOM     35  C   UNL A   1      37.079  30.354  28.940  1.00  0.00    -0.014 A 
BRANCH  35  36
ATOM     36  C   UNL A   1      38.192  29.939  29.831  1.00  0.00     0.031 A 
ATOM     37  C   UNL A   1      39.227  28.981  29.305  1.00  0.00     0.074 A 
ATOM     38  C   UNL A   1      38.331  30.476  31.056  1.00  0.00     0.049 A 
ATOM     39  N   UNL A   1      40.327  28.550  29.870  1.00  0.00    -0.248 NA
ATOM     40  C   UNL A   1      38.994  28.437  27.958  1.00  0.00     0.031 C 
ATOM     41  C   UNL A   1      37.412  31.434  31.666  1.00  0.00     0.029 A 
ATOM     42  N   UNL A   1      39.313  30.300  31.999  1.00  0.00    -0.354 N 
ATOM     43  C   UNL A   1      40.915  27.693  28.948  1.00  0.00     0.074 A 
ATOM     44  C   UNL A   1      40.032  27.629  27.805  1.00  0.00     0.031 C 
ATOM     45  C   UNL A   1      37.877  31.768  32.882  1.00  0.00     0.029 A 
ATOM     46  C   UNL A   1      39.116  31.036  33.140  1.00  0.00     0.049 A 
ATOM     47  H   UNL A   1      40.085  29.704  31.868  1.00  0.00     0.167 HD
ATOM     48  C   UNL A   1      42.094  27.032  29.039  1.00  0.00     0.037 A 
ATOM     49  C   UNL A   1      39.854  31.108  34.264  1.00  0.00     0.037 A 
ATOM     50  C   UNL A   1      42.977  27.098  30.173  1.00  0.00     0.049 A 
ATOM     51  C   UNL A   1      41.140  30.329  34.358  1.00  0.00     0.074 A 
ATOM     52  C   UNL A   1      44.201  26.477  30.354  1.00  0.00     0.029 A 
ATOM     53  N   UNL A   1      42.726  27.829  31.325  1.00  0.00    -0.354 N 
ATOM     54  N   UNL A   1      41.706  29.550  33.467  1.00  0.00    -0.248 NA
ATOM     55  C   UNL A   1      41.897  30.450  35.612  1.00  0.00     0.031 C 
ATOM     56  C   UNL A   1      44.670  26.797  31.633  1.00  0.00     0.029 A 
ATOM     57  C   UNL A   1      43.763  27.658  32.229  1.00  0.00     0.049 A 
ATOM     58  H   UNL A   1      41.930  28.387  31.478  1.00  0.00     0.167 HD
ATOM     59  C   UNL A   1      42.895  29.115  34.038  1.00  0.00     0.074 A 
ATOM     60  C   UNL A   1      42.977  29.728  35.347  1.00  0.00     0.031 C 
ATOM     61  C   UNL A   1      43.834  28.281  33.525  1.00  0.00     0.037 A 
BRANCH  48  62
ATOM     62  C   UNL A   1      42.489  26.161  27.881  1.00  0.00     0.064 A 
ATOM     63  C   UNL A   1      41.990  24.859  27.734  1.00  0.00     0.173 A 
ATOM     64  C   UNL A   1      43.356  26.647  26.891  1.00  0.00     0.173 A 
ATOM     65  F   UNL A   1      41.170  24.341  28.661  1.00  0.00    -0.203 F 
ATOM     66  C   UNL A   1      42.365  24.065  26.653  1.00  0.00     0.198 A 
ATOM     67  C   UNL A   1      43.708  25.862  25.797  1.00  0.00     0.198 A 
ATOM     68  F   UNL A   1      43.861  27.888  26.982  1.00  0.00    -0.203 F 
ATOM     69  F   UNL A   1      41.914  22.807  26.558  1.00  0.00    -0.200 F 
ATOM     70  C   UNL A   1      43.218  24.570  25.682  1.00  0.00     0.200 A 
ATOM     71  F   UNL A   1      44.523  26.354  24.854  1.00  0.00    -0.200 F 
ATOM     72  F   UNL A   1      43.574  23.807  24.640  1.00  0.00    -0.200 F 
ENDBRANCH  48  62
BRANCH  49  73
ATOM     73  C   UNL A   1      39.404  31.963  35.393  1.00  0.00     0.064 A 
ATOM     74  C   UNL A   1      39.853  33.285  35.529  1.00  0.00     0.173 A 
ATOM     75  C   UNL A   1      38.527  31.468  36.370  1.00  0.00     0.173 A 
ATOM     76  F   UNL A   1      40.712  33.794  34.634  1.00  0.00    -0.203 F 
ATOM     77  C   UNL A   1      39.460  34.070  36.610  1.00  0.00     0.198 A 
ATOM     78  C   UNL A   1      38.113  32.264  37.436  1.00  0.00     0.198 A 
ATOM     79  F   UNL A   1      38.070  30.211  36.287  1.00  0.00    -0.203 F 
ATOM     80  F   UNL A   1      39.943  35.314  36.742  1.00  0.00    -0.200 F 
ATOM     81  C   UNL A   1      38.587  33.562  37.559  1.00  0.00     0.200 A 
ATOM     82  F   UNL A   1      37.260  31.773  38.345  1.00  0.00    -0.200 F 
ATOM     83  F   UNL A   1      38.207  34.319  38.597  1.00  0.00    -0.200 F 
ENDBRANCH  49  73
BRANCH  61  84
ATOM     84  C   UNL A   1      45.049  28.014  34.367  1.00  0.00     0.064 A 
ATOM     85  C   UNL A   1      45.108  26.930  35.254  1.00  0.00     0.173 A 
ATOM     86  C   UNL A   1      46.179  28.842  34.265  1.00  0.00     0.173 A 
ATOM     87  F   UNL A   1      44.050  26.118  35.398  1.00  0.00    -0.203 F 
ATOM     88  C   UNL A   1      46.240  26.703  36.033  1.00  0.00     0.198 A 
ATOM     89  C   UNL A   1      47.320  28.594  35.023  1.00  0.00     0.198 A 
ATOM     90  F   UNL A   1      46.177  29.887  33.424  1.00  0.00    -0.203 F 
ATOM     91  F   UNL A   1      46.253  25.694  36.914  1.00  0.00    -0.200 F 
ATOM     92  C   UNL A   1      47.346  27.532  35.913  1.00  0.00     0.200 A 
ATOM     93  F   UNL A   1      48.392  29.388  34.895  1.00  0.00    -0.200 F 
ATOM     94  F   UNL A   1      48.435  27.311  36.662  1.00  0.00    -0.200 F 
ENDBRANCH  61  84
ENDBRANCH  35  36
ENDBRANCH  28  30
ENDBRANCH  27  28
ENDBRANCH  26  27
ENDBRANCH  25  26
ENDBRANCH   1  25
TORSDOF 16
ENDMDL
