MODEL 1
REMARK VINA RESULT:     -10.4      0.000      0.000
REMARK SMILES CCC(CC)NC(=O)NC[C@H]1CC[C@H](C(=O)OCCOCCOC(=O)c2ccc(-c3c4nc(c(-c5c(F)c(F)c(F)c(F)c5F)c5ccc([nH]5)c(-c5c(F)c(F)c(F)c(F)c5F)c5nc(c(-c6c(F)c(F)c(F)c(F)c6F)c6ccc3[nH]6)C=C5)C=C4)cc2)O1
REMARK SMILES IDX 19 1 18 2 17 3 15 4 16 5 14 6 11 7 12 8 89 9 13 10 10 11
REMARK SMILES IDX 9 12 6 13 7 14 8 16 3 18 2 19 1 20 4 21 5 22 20 23 21 24
REMARK SMILES IDX 22 25 23 26 24 27 25 28 26 29 27 30 88 31 28 32 87 33 29 34
REMARK SMILES IDX 30 35 31 36 81 37 32 38 86 39 80 40 82 41 33 42 85 43 79 44
REMARK SMILES IDX 78 45 34 47 66 48 46 49 65 50 47 51 50 52 64 53 83 54 48 55
REMARK SMILES IDX 49 56 63 58 84 59 51 60 35 61 36 62 44 63 37 64 38 65 42 66
REMARK SMILES IDX 45 67 39 68 40 69 43 70 41 71 67 72 68 73 76 74 69 75 70 76
REMARK SMILES IDX 74 77 77 78 71 79 72 80 75 81 73 82 52 83 53 84 61 85 54 86
REMARK SMILES IDX 55 87 59 88 62 89 56 90 57 91 60 92 58 93
REMARK H PARENT 6 15 9 17 82 46 50 57
REMARK Flexibility Score: inf
ROOT
ATOM      1  C   UNL A   1      32.449  29.743  26.377  1.00  0.00     0.202 C 
ENDROOT
BRANCH   1   2
ATOM      2  C   UNL A   1      32.692  29.609  24.873  1.00  0.00     0.261 C 
BRANCH   2   3
ATOM      3  O   UNL A   1      31.435  29.643  24.174  1.00  0.00    -0.461 OA
BRANCH   3   4
ATOM      4  C   UNL A   1      31.149  28.568  23.389  1.00  0.00     0.335 C 
ATOM      5  O   UNL A   1      30.732  28.638  22.238  1.00  0.00    -0.249 OA
BRANCH   4   6
ATOM      6  C   UNL A   1      31.443  27.236  24.102  1.00  0.00     0.228 C 
ATOM      7  C   UNL A   1      30.349  25.256  23.471  1.00  0.00     0.138 C 
ATOM      8  C   UNL A   1      29.478  25.986  24.483  1.00  0.00     0.037 C 
ATOM      9  O   UNL A   1      31.444  26.147  23.170  1.00  0.00    -0.361 OA
ATOM     10  C   UNL A   1      30.488  26.833  25.216  1.00  0.00     0.047 C 
BRANCH   7  11
ATOM     11  C   UNL A   1      30.906  23.929  24.028  1.00  0.00     0.149 C 
BRANCH  11  12
ATOM     12  N   UNL A   1      30.468  23.684  25.389  1.00  0.00    -0.336 N 
ATOM     13  N   UNL A   1      31.452  21.632  26.036  1.00  0.00    -0.335 N 
ATOM     14  C   UNL A   1      30.653  22.681  26.254  1.00  0.00     0.315 C 
ATOM     15  H   UNL A   1      31.364  20.938  26.730  1.00  0.00     0.165 HD
ATOM     16  O   UNL A   1      30.037  22.729  27.322  1.00  0.00    -0.249 OA
ATOM     17  H   UNL A   1      29.917  24.413  25.755  1.00  0.00     0.165 HD
BRANCH  13  18
ATOM     18  C   UNL A   1      32.426  21.277  25.005  1.00  0.00     0.083 C 
BRANCH  18  19
ATOM     19  C   UNL A   1      33.807  21.841  25.382  1.00  0.00     0.021 C 
ATOM     20  C   UNL A   1      34.554  22.450  24.205  1.00  0.00     0.006 C 
ENDBRANCH  18  19
BRANCH  18  21
ATOM     21  C   UNL A   1      32.397  19.762  24.732  1.00  0.00     0.021 C 
ATOM     22  C   UNL A   1      32.419  19.356  23.265  1.00  0.00     0.006 C 
ENDBRANCH  18  21
ENDBRANCH  13  18
ENDBRANCH  11  12
ENDBRANCH   7  11
ENDBRANCH   4   6
ENDBRANCH   3   4
ENDBRANCH   2   3
ENDBRANCH   1   2
BRANCH   1  23
ATOM     23  O   UNL A   1      32.720  31.031  26.935  1.00  0.00    -0.374 OA
BRANCH  23  24
ATOM     24  C   UNL A   1      31.664  31.989  26.935  1.00  0.00     0.202 C 
BRANCH  24  25
ATOM     25  C   UNL A   1      32.087  33.457  27.087  1.00  0.00     0.261 C 
BRANCH  25  26
ATOM     26  O   UNL A   1      32.648  33.743  28.383  1.00  0.00    -0.460 OA
BRANCH  26  27
ATOM     27  C   UNL A   1      33.805  34.447  28.352  1.00  0.00     0.338 C 
ATOM     28  O   UNL A   1      33.934  35.657  28.222  1.00  0.00    -0.246 OA
BRANCH  27  29
ATOM     29  C   UNL A   1      34.956  33.577  28.651  1.00  0.00     0.060 A 
ATOM     30  C   UNL A   1      34.697  32.385  29.339  1.00  0.00     0.016 A 
ATOM     31  C   UNL A   1      36.268  33.966  28.377  1.00  0.00     0.016 A 
ATOM     32  C   UNL A   1      35.752  31.601  29.801  1.00  0.00     0.010 A 
ATOM     33  C   UNL A   1      37.328  33.179  28.848  1.00  0.00     0.010 A 
ATOM     34  C   UNL A   1      37.075  32.013  29.594  1.00  0.00    -0.014 A 
BRANCH  34  35
ATOM     35  C   UNL A   1      38.174  31.295  30.287  1.00  0.00     0.031 A 
ATOM     36  C   UNL A   1      38.455  31.599  31.734  1.00  0.00     0.074 A 
ATOM     37  C   UNL A   1      38.886  30.347  29.652  1.00  0.00     0.049 A 
ATOM     38  N   UNL A   1      39.363  31.092  32.529  1.00  0.00    -0.248 NA
ATOM     39  C   UNL A   1      37.595  32.610  32.370  1.00  0.00     0.031 C 
ATOM     40  C   UNL A   1      38.690  29.934  28.265  1.00  0.00     0.029 A 
ATOM     41  N   UNL A   1      39.921  29.561  30.097  1.00  0.00    -0.354 N 
ATOM     42  C   UNL A   1      39.187  31.722  33.754  1.00  0.00     0.074 A 
ATOM     43  C   UNL A   1      38.103  32.668  33.592  1.00  0.00     0.031 C 
ATOM     44  C   UNL A   1      39.583  28.976  27.966  1.00  0.00     0.029 A 
ATOM     45  C   UNL A   1      40.430  28.727  29.133  1.00  0.00     0.049 A 
ATOM     46  H   UNL A   1      40.266  29.594  31.018  1.00  0.00     0.167 HD
ATOM     47  C   UNL A   1      39.861  31.523  34.912  1.00  0.00     0.037 A 
ATOM     48  C   UNL A   1      41.470  27.873  29.182  1.00  0.00     0.037 A 
ATOM     49  C   UNL A   1      40.931  30.576  35.081  1.00  0.00     0.049 A 
ATOM     50  C   UNL A   1      42.239  27.709  30.467  1.00  0.00     0.074 A 
ATOM     51  C   UNL A   1      41.654  30.285  36.225  1.00  0.00     0.029 A 
ATOM     52  N   UNL A   1      41.437  29.770  34.072  1.00  0.00    -0.354 N 
ATOM     53  N   UNL A   1      42.047  28.288  31.626  1.00  0.00    -0.248 NA
ATOM     54  C   UNL A   1      43.370  26.768  30.449  1.00  0.00     0.031 C 
ATOM     55  C   UNL A   1      42.629  29.337  35.899  1.00  0.00     0.029 A 
ATOM     56  C   UNL A   1      42.481  29.000  34.562  1.00  0.00     0.049 A 
ATOM     57  H   UNL A   1      41.106  29.748  33.146  1.00  0.00     0.167 HD
ATOM     58  C   UNL A   1      43.011  27.767  32.480  1.00  0.00     0.074 A 
ATOM     59  C   UNL A   1      43.781  26.815  31.709  1.00  0.00     0.031 C 
ATOM     60  C   UNL A   1      43.237  28.052  33.785  1.00  0.00     0.037 A 
BRANCH  47  61
ATOM     61  C   UNL A   1      39.473  32.362  36.094  1.00  0.00     0.064 A 
ATOM     62  C   UNL A   1      38.459  31.966  36.978  1.00  0.00     0.173 A 
ATOM     63  C   UNL A   1      40.158  33.556  36.369  1.00  0.00     0.173 A 
ATOM     64  F   UNL A   1      37.767  30.840  36.751  1.00  0.00    -0.203 F 
ATOM     65  C   UNL A   1      38.133  32.745  38.085  1.00  0.00     0.198 A 
ATOM     66  C   UNL A   1      39.845  34.318  37.491  1.00  0.00     0.198 A 
ATOM     67  F   UNL A   1      41.138  33.976  35.555  1.00  0.00    -0.203 F 
ATOM     68  F   UNL A   1      37.136  32.366  38.898  1.00  0.00    -0.200 F 
ATOM     69  C   UNL A   1      38.829  33.915  38.345  1.00  0.00     0.200 A 
ATOM     70  F   UNL A   1      40.527  35.444  37.745  1.00  0.00    -0.200 F 
ATOM     71  F   UNL A   1      38.520  34.659  39.416  1.00  0.00    -0.200 F 
ENDBRANCH  47  61
BRANCH  48  72
ATOM     72  C   UNL A   1      41.858  27.111  27.966  1.00  0.00     0.064 A 
ATOM     73  C   UNL A   1      42.734  27.653  27.018  1.00  0.00     0.173 A 
ATOM     74  C   UNL A   1      41.345  25.827  27.725  1.00  0.00     0.173 A 
ATOM     75  F   UNL A   1      43.228  28.888  27.192  1.00  0.00    -0.203 F 
ATOM     76  C   UNL A   1      43.072  26.947  25.865  1.00  0.00     0.198 A 
ATOM     77  C   UNL A   1      41.705  25.112  26.585  1.00  0.00     0.198 A 
ATOM     78  F   UNL A   1      40.500  25.266  28.602  1.00  0.00    -0.203 F 
ATOM     79  F   UNL A   1      43.878  27.506  24.952  1.00  0.00    -0.200 F 
ATOM     80  C   UNL A   1      42.562  25.675  25.653  1.00  0.00     0.200 A 
ATOM     81  F   UNL A   1      41.217  23.879  26.389  1.00  0.00    -0.200 F 
ATOM     82  F   UNL A   1      42.891  24.995  24.546  1.00  0.00    -0.200 F 
ENDBRANCH  48  72
BRANCH  60  83
ATOM     83  C   UNL A   1      44.342  27.307  34.476  1.00  0.00     0.064 A 
ATOM     84  C   UNL A   1      45.639  27.833  34.567  1.00  0.00     0.173 A 
ATOM     85  C   UNL A   1      44.089  26.073  35.096  1.00  0.00     0.173 A 
ATOM     86  F   UNL A   1      45.936  29.003  33.979  1.00  0.00    -0.203 F 
ATOM     87  C   UNL A   1      46.647  27.141  35.234  1.00  0.00     0.198 A 
ATOM     88  C   UNL A   1      45.092  25.398  35.785  1.00  0.00     0.198 A 
ATOM     89  F   UNL A   1      42.863  25.531  35.046  1.00  0.00    -0.203 F 
ATOM     90  F   UNL A   1      47.888  27.643  35.273  1.00  0.00    -0.200 F 
ATOM     91  C   UNL A   1      46.370  25.928  35.849  1.00  0.00     0.200 A 
ATOM     92  F   UNL A   1      44.819  24.232  36.390  1.00  0.00    -0.200 F 
ATOM     93  F   UNL A   1      47.340  25.268  36.497  1.00  0.00    -0.200 F 
ENDBRANCH  60  83
ENDBRANCH  34  35
ENDBRANCH  27  29
ENDBRANCH  26  27
ENDBRANCH  25  26
ENDBRANCH  24  25
ENDBRANCH  23  24
ENDBRANCH   1  23
TORSDOF 19
ENDMDL
MODEL 2
REMARK VINA RESULT:     -10.3      1.617      2.765
REMARK SMILES CCC(CC)NC(=O)NC[C@H]1CC[C@H](C(=O)OCCOCCOC(=O)c2ccc(-c3c4nc(c(-c5c(F)c(F)c(F)c(F)c5F)c5ccc([nH]5)c(-c5c(F)c(F)c(F)c(F)c5F)c5nc(c(-c6c(F)c(F)c(F)c(F)c6F)c6ccc3[nH]6)C=C5)C=C4)cc2)O1
REMARK SMILES IDX 19 1 18 2 17 3 15 4 16 5 14 6 11 7 12 8 89 9 13 10 10 11
REMARK SMILES IDX 9 12 6 13 7 14 8 16 3 18 2 19 1 20 4 21 5 22 20 23 21 24
REMARK SMILES IDX 22 25 23 26 24 27 25 28 26 29 27 30 88 31 28 32 87 33 29 34
REMARK SMILES IDX 30 35 31 36 81 37 32 38 86 39 80 40 82 41 33 42 85 43 79 44
REMARK SMILES IDX 78 45 34 47 66 48 46 49 65 50 47 51 50 52 64 53 83 54 48 55
REMARK SMILES IDX 49 56 63 58 84 59 51 60 35 61 36 62 44 63 37 64 38 65 42 66
REMARK SMILES IDX 45 67 39 68 40 69 43 70 41 71 67 72 68 73 76 74 69 75 70 76
REMARK SMILES IDX 74 77 77 78 71 79 72 80 75 81 73 82 52 83 53 84 61 85 54 86
REMARK SMILES IDX 55 87 59 88 62 89 56 90 57 91 60 92 58 93
REMARK H PARENT 6 15 9 17 82 46 50 57
REMARK Flexibility Score: inf
ROOT
ATOM      1  C   UNL A   1      34.390  30.275  27.843  1.00  0.00     0.202 C 
ENDROOT
BRANCH   1   2
ATOM      2  C   UNL A   1      34.645  28.915  27.191  1.00  0.00     0.261 C 
BRANCH   2   3
ATOM      3  O   UNL A   1      34.179  28.935  25.830  1.00  0.00    -0.461 OA
BRANCH   3   4
ATOM      4  C   UNL A   1      33.249  27.999  25.494  1.00  0.00     0.335 C 
ATOM      5  O   UNL A   1      32.038  28.155  25.598  1.00  0.00    -0.249 OA
BRANCH   4   6
ATOM      6  C   UNL A   1      33.892  26.720  24.932  1.00  0.00     0.228 C 
ATOM      7  C   UNL A   1      32.689  25.276  23.523  1.00  0.00     0.138 C 
ATOM      8  C   UNL A   1      32.399  24.892  24.966  1.00  0.00     0.037 C 
ATOM      9  O   UNL A   1      33.472  26.487  23.581  1.00  0.00    -0.361 OA
ATOM     10  C   UNL A   1      33.612  25.427  25.685  1.00  0.00     0.047 C 
BRANCH   7  11
ATOM     11  C   UNL A   1      33.486  24.186  22.775  1.00  0.00     0.149 C 
BRANCH  11  12
ATOM     12  N   UNL A   1      32.641  23.082  22.361  1.00  0.00    -0.336 N 
ATOM     13  N   UNL A   1      33.166  21.278  23.798  1.00  0.00    -0.335 N 
ATOM     14  C   UNL A   1      32.520  21.811  22.756  1.00  0.00     0.315 C 
ATOM     15  H   UNL A   1      33.047  20.302  23.859  1.00  0.00     0.165 HD
ATOM     16  O   UNL A   1      31.764  21.082  22.109  1.00  0.00    -0.249 OA
ATOM     17  H   UNL A   1      32.023  23.321  21.633  1.00  0.00     0.165 HD
BRANCH  13  18
ATOM     18  C   UNL A   1      34.009  21.810  24.867  1.00  0.00     0.083 C 
BRANCH  18  19
ATOM     19  C   UNL A   1      33.431  21.401  26.233  1.00  0.00     0.021 C 
ATOM     20  C   UNL A   1      34.066  22.137  27.403  1.00  0.00     0.006 C 
ENDBRANCH  18  19
BRANCH  18  21
ATOM     21  C   UNL A   1      35.481  21.417  24.642  1.00  0.00     0.021 C 
ATOM     22  C   UNL A   1      36.414  22.555  24.253  1.00  0.00     0.006 C 
ENDBRANCH  18  21
ENDBRANCH  13  18
ENDBRANCH  11  12
ENDBRANCH   7  11
ENDBRANCH   4   6
ENDBRANCH   3   4
ENDBRANCH   2   3
ENDBRANCH   1   2
BRANCH   1  23
ATOM     23  O   UNL A   1      33.774  31.256  27.006  1.00  0.00    -0.374 OA
BRANCH  23  24
ATOM     24  C   UNL A   1      32.387  31.518  27.202  1.00  0.00     0.202 C 
BRANCH  24  25
ATOM     25  C   UNL A   1      31.982  32.998  27.252  1.00  0.00     0.261 C 
BRANCH  25  26
ATOM     26  O   UNL A   1      33.117  33.885  27.267  1.00  0.00    -0.460 OA
BRANCH  26  27
ATOM     27  C   UNL A   1      33.221  34.646  28.382  1.00  0.00     0.338 C 
ATOM     28  O   UNL A   1      32.463  35.536  28.747  1.00  0.00    -0.246 OA
BRANCH  27  29
ATOM     29  C   UNL A   1      34.323  34.174  29.238  1.00  0.00     0.060 A 
ATOM     30  C   UNL A   1      35.629  34.413  28.794  1.00  0.00     0.016 A 
ATOM     31  C   UNL A   1      34.093  33.412  30.386  1.00  0.00     0.016 A 
ATOM     32  C   UNL A   1      36.711  33.848  29.466  1.00  0.00     0.010 A 
ATOM     33  C   UNL A   1      35.183  32.839  31.057  1.00  0.00     0.010 A 
ATOM     34  C   UNL A   1      36.493  33.024  30.578  1.00  0.00    -0.014 A 
BRANCH  34  35
ATOM     35  C   UNL A   1      37.628  32.249  31.139  1.00  0.00     0.031 A 
ATOM     36  C   UNL A   1      38.110  32.553  32.531  1.00  0.00     0.074 A 
ATOM     37  C   UNL A   1      38.195  31.251  30.437  1.00  0.00     0.049 A 
ATOM     38  N   UNL A   1      39.082  32.002  33.214  1.00  0.00    -0.248 NA
ATOM     39  C   UNL A   1      37.401  33.622  33.252  1.00  0.00     0.031 C 
ATOM     40  C   UNL A   1      37.798  30.833  29.095  1.00  0.00     0.029 A 
ATOM     41  N   UNL A   1      39.230  30.409  30.762  1.00  0.00    -0.354 N 
ATOM     42  C   UNL A   1      39.103  32.656  34.438  1.00  0.00     0.074 A 
ATOM     43  C   UNL A   1      38.065  33.665  34.397  1.00  0.00     0.031 C 
ATOM     44  C   UNL A   1      38.587  29.818  28.704  1.00  0.00     0.029 A 
ATOM     45  C   UNL A   1      39.561  29.533  29.758  1.00  0.00     0.049 A 
ATOM     46  H   UNL A   1      39.692  30.432  31.630  1.00  0.00     0.167 HD
ATOM     47  C   UNL A   1      39.908  32.432  35.505  1.00  0.00     0.037 A 
ATOM     48  C   UNL A   1      40.547  28.618  29.691  1.00  0.00     0.037 A 
ATOM     49  C   UNL A   1      40.933  31.423  35.554  1.00  0.00     0.049 A 
ATOM     50  C   UNL A   1      41.464  28.424  30.870  1.00  0.00     0.074 A 
ATOM     51  C   UNL A   1      41.779  31.104  36.602  1.00  0.00     0.029 A 
ATOM     52  N   UNL A   1      41.257  30.575  34.505  1.00  0.00    -0.354 N 
ATOM     53  N   UNL A   1      41.458  29.028  32.032  1.00  0.00    -0.248 NA
ATOM     54  C   UNL A   1      42.526  27.416  30.726  1.00  0.00     0.031 C 
ATOM     55  C   UNL A   1      42.647  30.093  36.173  1.00  0.00     0.029 A 
ATOM     56  C   UNL A   1      42.308  29.750  34.873  1.00  0.00     0.049 A 
ATOM     57  H   UNL A   1      40.808  30.562  33.630  1.00  0.00     0.167 HD
ATOM     58  C   UNL A   1      42.491  28.460  32.766  1.00  0.00     0.074 A 
ATOM     59  C   UNL A   1      43.098  27.453  31.922  1.00  0.00     0.031 C 
ATOM     60  C   UNL A   1      42.900  28.747  34.026  1.00  0.00     0.037 A 
BRANCH  47  61
ATOM     61  C   UNL A   1      39.726  33.308  36.708  1.00  0.00     0.064 A 
ATOM     62  C   UNL A   1      40.478  34.479  36.886  1.00  0.00     0.173 A 
ATOM     63  C   UNL A   1      38.756  32.996  37.672  1.00  0.00     0.173 A 
ATOM     64  F   UNL A   1      41.426  34.814  35.999  1.00  0.00    -0.203 F 
ATOM     65  C   UNL A   1      40.276  35.295  37.997  1.00  0.00     0.198 A 
ATOM     66  C   UNL A   1      38.540  33.827  38.767  1.00  0.00     0.198 A 
ATOM     67  F   UNL A   1      38.010  31.888  37.545  1.00  0.00    -0.203 F 
ATOM     68  F   UNL A   1      41.029  36.391  38.166  1.00  0.00    -0.200 F 
ATOM     69  C   UNL A   1      39.304  34.974  38.931  1.00  0.00     0.200 A 
ATOM     70  F   UNL A   1      37.592  33.520  39.664  1.00  0.00    -0.200 F 
ATOM     71  F   UNL A   1      39.105  35.765  39.994  1.00  0.00    -0.200 F 
ENDBRANCH  47  61
BRANCH  48  72
ATOM     72  C   UNL A   1      40.729  27.818  28.451  1.00  0.00     0.064 A 
ATOM     73  C   UNL A   1      40.083  26.587  28.280  1.00  0.00     0.173 A 
ATOM     74  C   UNL A   1      41.568  28.267  27.419  1.00  0.00     0.173 A 
ATOM     75  F   UNL A   1      39.294  26.105  29.251  1.00  0.00    -0.203 F 
ATOM     76  C   UNL A   1      40.280  25.827  27.129  1.00  0.00     0.198 A 
ATOM     77  C   UNL A   1      41.742  27.518  26.258  1.00  0.00     0.198 A 
ATOM     78  F   UNL A   1      42.211  29.438  27.538  1.00  0.00    -0.203 F 
ATOM     79  F   UNL A   1      39.684  24.633  27.008  1.00  0.00    -0.200 F 
ATOM     80  C   UNL A   1      41.104  26.296  26.117  1.00  0.00     0.200 A 
ATOM     81  F   UNL A   1      42.532  27.979  25.279  1.00  0.00    -0.200 F 
ATOM     82  F   UNL A   1      41.289  25.566  25.009  1.00  0.00    -0.200 F 
ENDBRANCH  48  72
BRANCH  60  83
ATOM     83  C   UNL A   1      44.040  27.945  34.584  1.00  0.00     0.064 A 
ATOM     84  C   UNL A   1      43.835  26.690  35.176  1.00  0.00     0.173 A 
ATOM     85  C   UNL A   1      45.358  28.418  34.484  1.00  0.00     0.173 A 
ATOM     86  F   UNL A   1      42.593  26.200  35.308  1.00  0.00    -0.203 F 
ATOM     87  C   UNL A   1      44.907  25.947  35.665  1.00  0.00     0.198 A 
ATOM     88  C   UNL A   1      46.428  27.660  34.950  1.00  0.00     0.198 A 
ATOM     89  F   UNL A   1      45.608  29.608  33.919  1.00  0.00    -0.203 F 
ATOM     90  F   UNL A   1      44.684  24.769  36.264  1.00  0.00    -0.200 F 
ATOM     91  C   UNL A   1      46.202  26.429  35.545  1.00  0.00     0.200 A 
ATOM     92  F   UNL A   1      47.680  28.122  34.821  1.00  0.00    -0.200 F 
ATOM     93  F   UNL A   1      47.232  25.708  36.011  1.00  0.00    -0.200 F 
ENDBRANCH  60  83
ENDBRANCH  34  35
ENDBRANCH  27  29
ENDBRANCH  26  27
ENDBRANCH  25  26
ENDBRANCH  24  25
ENDBRANCH  23  24
ENDBRANCH   1  23
TORSDOF 19
ENDMDL
MODEL 3
REMARK VINA RESULT:     -10.3      2.028      4.058
REMARK SMILES CCC(CC)NC(=O)NC[C@H]1CC[C@H](C(=O)OCCOCCOC(=O)c2ccc(-c3c4nc(c(-c5c(F)c(F)c(F)c(F)c5F)c5ccc([nH]5)c(-c5c(F)c(F)c(F)c(F)c5F)c5nc(c(-c6c(F)c(F)c(F)c(F)c6F)c6ccc3[nH]6)C=C5)C=C4)cc2)O1
REMARK SMILES IDX 19 1 18 2 17 3 15 4 16 5 14 6 11 7 12 8 89 9 13 10 10 11
REMARK SMILES IDX 9 12 6 13 7 14 8 16 3 18 2 19 1 20 4 21 5 22 20 23 21 24
REMARK SMILES IDX 22 25 23 26 24 27 25 28 26 29 27 30 88 31 28 32 87 33 29 34
REMARK SMILES IDX 30 35 31 36 81 37 32 38 86 39 80 40 82 41 33 42 85 43 79 44
REMARK SMILES IDX 78 45 34 47 66 48 46 49 65 50 47 51 50 52 64 53 83 54 48 55
REMARK SMILES IDX 49 56 63 58 84 59 51 60 35 61 36 62 44 63 37 64 38 65 42 66
REMARK SMILES IDX 45 67 39 68 40 69 43 70 41 71 67 72 68 73 76 74 69 75 70 76
REMARK SMILES IDX 74 77 77 78 71 79 72 80 75 81 73 82 52 83 53 84 61 85 54 86
REMARK SMILES IDX 55 87 59 88 62 89 56 90 57 91 60 92 58 93
REMARK H PARENT 6 15 9 17 82 46 50 57
REMARK Flexibility Score: inf
ROOT
ATOM      1  C   UNL A   1      31.924  29.222  27.245  1.00  0.00     0.202 C 
ENDROOT
BRANCH   1   2
ATOM      2  C   UNL A   1      32.891  28.039  27.320  1.00  0.00     0.261 C 
BRANCH   2   3
ATOM      3  O   UNL A   1      33.779  28.066  26.188  1.00  0.00    -0.461 OA
BRANCH   3   4
ATOM      4  C   UNL A   1      33.513  27.181  25.189  1.00  0.00     0.335 C 
ATOM      5  O   UNL A   1      33.875  26.010  25.183  1.00  0.00    -0.249 OA
BRANCH   4   6
ATOM      6  C   UNL A   1      32.668  27.810  24.067  1.00  0.00     0.228 C 
ATOM      7  C   UNL A   1      30.470  27.091  23.656  1.00  0.00     0.138 C 
ATOM      8  C   UNL A   1      31.423  26.191  22.884  1.00  0.00     0.037 C 
ATOM      9  O   UNL A   1      31.300  27.945  24.472  1.00  0.00    -0.361 OA
ATOM     10  C   UNL A   1      32.639  27.071  22.737  1.00  0.00     0.047 C 
BRANCH   7  11
ATOM     11  C   UNL A   1      29.602  27.962  22.722  1.00  0.00     0.149 C 
BRANCH  11  12
ATOM     12  N   UNL A   1      28.190  27.854  23.036  1.00  0.00    -0.336 N 
ATOM     13  N   UNL A   1      27.289  30.024  22.760  1.00  0.00    -0.335 N 
ATOM     14  C   UNL A   1      27.187  28.737  23.105  1.00  0.00     0.315 C 
ATOM     15  H   UNL A   1      26.486  30.544  22.994  1.00  0.00     0.165 HD
ATOM     16  O   UNL A   1      26.099  28.331  23.519  1.00  0.00    -0.249 OA
ATOM     17  H   UNL A   1      27.909  26.934  23.244  1.00  0.00     0.165 HD
BRANCH  13  18
ATOM     18  C   UNL A   1      28.318  30.839  22.115  1.00  0.00     0.083 C 
BRANCH  18  19
ATOM     19  C   UNL A   1      28.005  30.975  20.615  1.00  0.00     0.021 C 
ATOM     20  C   UNL A   1      27.742  32.409  20.180  1.00  0.00     0.006 C 
ENDBRANCH  18  19
BRANCH  18  21
ATOM     21  C   UNL A   1      28.499  32.173  22.864  1.00  0.00     0.021 C 
ATOM     22  C   UNL A   1      29.375  32.116  24.108  1.00  0.00     0.006 C 
ENDBRANCH  18  21
ENDBRANCH  13  18
ENDBRANCH  11  12
ENDBRANCH   7  11
ENDBRANCH   4   6
ENDBRANCH   3   4
ENDBRANCH   2   3
ENDBRANCH   1   2
BRANCH   1  23
ATOM     23  O   UNL A   1      32.532  30.516  27.219  1.00  0.00    -0.374 OA
BRANCH  23  24
ATOM     24  C   UNL A   1      31.841  31.560  26.537  1.00  0.00     0.202 C 
BRANCH  24  25
ATOM     25  C   UNL A   1      31.854  32.934  27.222  1.00  0.00     0.261 C 
BRANCH  25  26
ATOM     26  O   UNL A   1      33.139  33.581  27.146  1.00  0.00    -0.460 OA
BRANCH  26  27
ATOM     27  C   UNL A   1      33.666  33.927  28.344  1.00  0.00     0.338 C 
ATOM     28  O   UNL A   1      33.181  34.681  29.178  1.00  0.00    -0.246 OA
BRANCH  27  29
ATOM     29  C   UNL A   1      34.885  33.149  28.626  1.00  0.00     0.060 A 
ATOM     30  C   UNL A   1      34.717  31.855  29.135  1.00  0.00     0.016 A 
ATOM     31  C   UNL A   1      36.161  33.705  28.511  1.00  0.00     0.016 A 
ATOM     32  C   UNL A   1      35.820  31.130  29.579  1.00  0.00     0.010 A 
ATOM     33  C   UNL A   1      37.269  32.976  28.965  1.00  0.00     0.010 A 
ATOM     34  C   UNL A   1      37.099  31.701  29.535  1.00  0.00    -0.014 A 
BRANCH  34  35
ATOM     35  C   UNL A   1      38.223  31.014  30.220  1.00  0.00     0.031 A 
ATOM     36  C   UNL A   1      38.501  31.322  31.666  1.00  0.00     0.074 A 
ATOM     37  C   UNL A   1      38.960  30.090  29.578  1.00  0.00     0.049 A 
ATOM     38  N   UNL A   1      39.429  30.839  32.455  1.00  0.00    -0.248 NA
ATOM     39  C   UNL A   1      37.615  32.303  32.310  1.00  0.00     0.031 C 
ATOM     40  C   UNL A   1      38.769  29.676  28.190  1.00  0.00     0.029 A 
ATOM     41  N   UNL A   1      40.020  29.335  30.015  1.00  0.00    -0.354 N 
ATOM     42  C   UNL A   1      39.240  31.460  33.683  1.00  0.00     0.074 A 
ATOM     43  C   UNL A   1      38.128  32.373  33.530  1.00  0.00     0.031 C 
ATOM     44  C   UNL A   1      39.689  28.746  27.884  1.00  0.00     0.029 A 
ATOM     45  C   UNL A   1      40.549  28.519  29.045  1.00  0.00     0.049 A 
ATOM     46  H   UNL A   1      40.368  29.375  30.934  1.00  0.00     0.167 HD
ATOM     47  C   UNL A   1      39.925  31.278  34.837  1.00  0.00     0.037 A 
ATOM     48  C   UNL A   1      41.615  27.697  29.086  1.00  0.00     0.037 A 
ATOM     49  C   UNL A   1      41.025  30.363  34.997  1.00  0.00     0.049 A 
ATOM     50  C   UNL A   1      42.396  27.552  30.367  1.00  0.00     0.074 A 
ATOM     51  C   UNL A   1      41.762  30.091  36.137  1.00  0.00     0.029 A 
ATOM     52  N   UNL A   1      41.550  29.576  33.983  1.00  0.00    -0.354 N 
ATOM     53  N   UNL A   1      42.192  28.122  31.529  1.00  0.00    -0.248 NA
ATOM     54  C   UNL A   1      43.554  26.646  30.340  1.00  0.00     0.031 C 
ATOM     55  C   UNL A   1      42.764  29.173  35.802  1.00  0.00     0.029 A 
ATOM     56  C   UNL A   1      42.620  28.837  34.465  1.00  0.00     0.049 A 
ATOM     57  H   UNL A   1      41.214  29.547  33.059  1.00  0.00     0.167 HD
ATOM     58  C   UNL A   1      43.175  27.627  32.376  1.00  0.00     0.074 A 
ATOM     59  C   UNL A   1      43.970  26.701  31.597  1.00  0.00     0.031 C 
ATOM     60  C   UNL A   1      43.399  27.914  33.681  1.00  0.00     0.037 A 
BRANCH  47  61
ATOM     61  C   UNL A   1      39.519  32.101  36.023  1.00  0.00     0.064 A 
ATOM     62  C   UNL A   1      40.152  33.316  36.328  1.00  0.00     0.173 A 
ATOM     63  C   UNL A   1      38.453  31.692  36.838  1.00  0.00     0.173 A 
ATOM     64  F   UNL A   1      41.184  33.744  35.587  1.00  0.00    -0.203 F 
ATOM     65  C   UNL A   1      39.742  34.081  37.417  1.00  0.00     0.198 A 
ATOM     66  C   UNL A   1      38.031  32.472  37.910  1.00  0.00     0.198 A 
ATOM     67  F   UNL A   1      37.814  30.539  36.587  1.00  0.00    -0.203 F 
ATOM     68  F   UNL A   1      40.383  35.221  37.712  1.00  0.00    -0.200 F 
ATOM     69  C   UNL A   1      38.679  33.663  38.202  1.00  0.00     0.200 A 
ATOM     70  F   UNL A   1      36.996  32.071  38.663  1.00  0.00    -0.200 F 
ATOM     71  F   UNL A   1      38.280  34.405  39.245  1.00  0.00    -0.200 F 
ENDBRANCH  47  61
BRANCH  48  72
ATOM     72  C   UNL A   1      42.020  26.951  27.866  1.00  0.00     0.064 A 
ATOM     73  C   UNL A   1      41.519  25.671  27.599  1.00  0.00     0.173 A 
ATOM     74  C   UNL A   1      42.930  27.502  26.951  1.00  0.00     0.173 A 
ATOM     75  F   UNL A   1      40.669  25.091  28.459  1.00  0.00    -0.203 F 
ATOM     76  C   UNL A   1      41.923  24.963  26.469  1.00  0.00     0.198 A 
ATOM     77  C   UNL A   1      43.312  26.804  25.808  1.00  0.00     0.198 A 
ATOM     78  F   UNL A   1      43.440  28.724  27.165  1.00  0.00    -0.203 F 
ATOM     79  F   UNL A   1      41.462  23.722  26.258  1.00  0.00    -0.200 F 
ATOM     80  C   UNL A   1      42.814  25.533  25.571  1.00  0.00     0.200 A 
ATOM     81  F   UNL A   1      44.165  27.363  24.939  1.00  0.00    -0.200 F 
ATOM     82  F   UNL A   1      43.199  24.852  24.483  1.00  0.00    -0.200 F 
ENDBRANCH  48  72
BRANCH  60  83
ATOM     83  C   UNL A   1      44.531  27.201  34.364  1.00  0.00     0.064 A 
ATOM     84  C   UNL A   1      44.350  25.952  34.976  1.00  0.00     0.173 A 
ATOM     85  C   UNL A   1      45.821  27.752  34.365  1.00  0.00     0.173 A 
ATOM     86  F   UNL A   1      43.132  25.389  35.015  1.00  0.00    -0.203 F 
ATOM     87  C   UNL A   1      45.415  25.291  35.582  1.00  0.00     0.198 A 
ATOM     88  C   UNL A   1      46.889  27.076  34.947  1.00  0.00     0.198 A 
ATOM     89  F   UNL A   1      46.049  28.941  33.785  1.00  0.00    -0.203 F 
ATOM     90  F   UNL A   1      45.211  24.119  36.197  1.00  0.00    -0.200 F 
ATOM     91  C   UNL A   1      46.685  25.851  35.561  1.00  0.00     0.200 A 
ATOM     92  F   UNL A   1      48.118  27.612  34.914  1.00  0.00    -0.200 F 
ATOM     93  F   UNL A   1      47.711  25.209  36.138  1.00  0.00    -0.200 F 
ENDBRANCH  60  83
ENDBRANCH  34  35
ENDBRANCH  27  29
ENDBRANCH  26  27
ENDBRANCH  25  26
ENDBRANCH  24  25
ENDBRANCH  23  24
ENDBRANCH   1  23
TORSDOF 19
ENDMDL
