MODEL 1
REMARK VINA RESULT:     -11.5      0.000      0.000
REMARK SMILES Nc1nc(Nc2ccc(C(=O)OCCOCCOC(=O)c3ccc(-c4c5nc(c(-c6c(F)c(F)c(F)c(F)c6F)c6ccc([nH]6)c(-c6c(F)c(F)c(F)c(F)c6F)c6nc(c(-c7c(F)c(F)c(F)c(F)c7F)c7ccc4[nH]7)C=C6)C=C5)cc3)cc2)ccc1[N+](=O)[O-]
REMARK SMILES IDX 14 1 13 2 12 3 10 4 11 5 9 6 6 7 7 8 85 9 8 10 84 11 5 12
REMARK SMILES IDX 4 14 2 15 3 16 88 17 87 18 86 19 1 20 89 23 90 24 91 25
REMARK SMILES IDX 15 26 16 27 17 28 18 29 19 30 20 31 21 32 22 33 83 34 23 35
REMARK SMILES IDX 82 36 24 37 25 38 26 39 76 40 27 41 81 42 75 43 77 44 28 45
REMARK SMILES IDX 80 46 74 47 73 48 29 50 61 51 41 52 60 53 42 54 45 55 59 56
REMARK SMILES IDX 78 57 43 58 44 59 58 61 79 62 46 63 30 64 31 65 39 66 32 67
REMARK SMILES IDX 33 68 37 69 40 70 34 71 35 72 38 73 36 74 62 75 63 76 71 77
REMARK SMILES IDX 64 78 65 79 69 80 72 81 66 82 67 83 70 84 68 85 47 86 48 87
REMARK SMILES IDX 56 88 49 89 50 90 54 91 57 92 51 93 52 94 55 95 53 96
REMARK H PARENT 5 13 1 21 1 22 77 49 45 60
REMARK Flexibility Score: inf
ROOT
ATOM      1  C   UNL A   1      42.960  19.264  25.662  1.00  0.00     0.202 C 
ENDROOT
BRANCH   1   2
ATOM      2  C   UNL A   1      41.591  19.535  26.291  1.00  0.00     0.261 C 
BRANCH   2   3
ATOM      3  O   UNL A   1      41.076  20.809  25.875  1.00  0.00    -0.460 OA
BRANCH   3   4
ATOM      4  C   UNL A   1      40.393  21.484  26.830  1.00  0.00     0.338 C 
ATOM      5  O   UNL A   1      40.763  21.705  27.974  1.00  0.00    -0.246 OA
BRANCH   4   6
ATOM      6  C   UNL A   1      39.156  22.069  26.268  1.00  0.00     0.060 A 
ATOM      7  C   UNL A   1      36.913  23.109  24.944  1.00  0.00     0.040 A 
ATOM      8  C   UNL A   1      37.235  21.752  24.826  1.00  0.00     0.027 A 
ATOM      9  C   UNL A   1      37.682  23.917  25.796  1.00  0.00     0.027 A 
ATOM     10  C   UNL A   1      38.356  21.237  25.475  1.00  0.00     0.018 A 
ATOM     11  C   UNL A   1      38.794  23.402  26.468  1.00  0.00     0.018 A 
BRANCH   7  12
ATOM     12  N   UNL A   1      35.979  23.670  24.047  1.00  0.00    -0.340 N 
ATOM     13  H   UNL A   1      36.249  23.791  23.108  1.00  0.00     0.168 HD
BRANCH  12  14
ATOM     14  C   UNL A   1      34.679  24.067  24.424  1.00  0.00     0.133 A 
ATOM     15  C   UNL A   1      32.366  24.012  24.028  1.00  0.00     0.204 A 
ATOM     16  N   UNL A   1      33.622  23.695  23.662  1.00  0.00    -0.207 NA
ATOM     17  C   UNL A   1      32.124  24.742  25.183  1.00  0.00     0.311 A 
ATOM     18  C   UNL A   1      33.207  25.166  25.964  1.00  0.00     0.093 A 
ATOM     19  C   UNL A   1      34.501  24.832  25.569  1.00  0.00     0.054 A 
BRANCH  15  20
ATOM     20  N   UNL A   1      31.414  23.628  23.108  1.00  0.00    -0.378 N 
ATOM     21  H   UNL A   1      30.478  23.911  23.221  1.00  0.00     0.158 HD
ATOM     22  H   UNL A   1      31.670  23.071  22.337  1.00  0.00     0.158 HD
ENDBRANCH  15  20
BRANCH  17  23
ATOM     23  N   UNL A   1      30.768  25.051  25.615  1.00  0.00     0.066 N 
ATOM     24  O   UNL A   1      30.184  25.979  25.034  1.00  0.00    -0.258 OA
ATOM     25  O   UNL A   1      30.286  24.409  26.561  1.00  0.00    -0.258 OA
ENDBRANCH  17  23
ENDBRANCH  12  14
ENDBRANCH   7  12
ENDBRANCH   4   6
ENDBRANCH   3   4
ENDBRANCH   2   3
ENDBRANCH   1   2
BRANCH   1  26
ATOM     26  O   UNL A   1      43.505  20.321  24.874  1.00  0.00    -0.374 OA
BRANCH  26  27
ATOM     27  C   UNL A   1      44.817  20.774  25.214  1.00  0.00     0.202 C 
BRANCH  27  28
ATOM     28  C   UNL A   1      44.899  22.164  25.856  1.00  0.00     0.261 C 
BRANCH  28  29
ATOM     29  O   UNL A   1      43.819  23.011  25.424  1.00  0.00    -0.460 OA
BRANCH  29  30
ATOM     30  C   UNL A   1      44.151  24.308  25.230  1.00  0.00     0.338 C 
ATOM     31  O   UNL A   1      44.861  24.770  24.347  1.00  0.00    -0.246 OA
BRANCH  30  32
ATOM     32  C   UNL A   1      43.386  25.166  26.153  1.00  0.00     0.060 A 
ATOM     33  C   UNL A   1      43.784  26.504  26.272  1.00  0.00     0.016 A 
ATOM     34  C   UNL A   1      42.346  24.664  26.939  1.00  0.00     0.016 A 
ATOM     35  C   UNL A   1      43.179  27.333  27.213  1.00  0.00     0.010 A 
ATOM     36  C   UNL A   1      41.744  25.495  27.890  1.00  0.00     0.010 A 
ATOM     37  C   UNL A   1      42.181  26.822  28.055  1.00  0.00    -0.014 A 
BRANCH  37  38
ATOM     38  C   UNL A   1      41.708  27.633  29.202  1.00  0.00     0.031 A 
ATOM     39  C   UNL A   1      42.445  27.544  30.511  1.00  0.00     0.074 A 
ATOM     40  C   UNL A   1      40.661  28.468  29.072  1.00  0.00     0.049 A 
ATOM     41  N   UNL A   1      42.192  28.134  31.651  1.00  0.00    -0.248 NA
ATOM     42  C   UNL A   1      43.630  26.671  30.536  1.00  0.00     0.031 C 
ATOM     43  C   UNL A   1      39.899  28.679  27.845  1.00  0.00     0.029 A 
ATOM     44  N   UNL A   1      40.060  29.292  29.990  1.00  0.00    -0.354 N 
ATOM     45  C   UNL A   1      43.185  27.711  32.524  1.00  0.00     0.074 A 
ATOM     46  C   UNL A   1      44.025  26.785  31.795  1.00  0.00     0.031 C 
ATOM     47  C   UNL A   1      38.923  29.573  28.086  1.00  0.00     0.029 A 
ATOM     48  C   UNL A   1      38.975  29.970  29.493  1.00  0.00     0.049 A 
ATOM     49  H   UNL A   1      40.376  29.388  30.918  1.00  0.00     0.167 HD
ATOM     50  C   UNL A   1      43.387  28.071  33.814  1.00  0.00     0.037 A 
ATOM     51  C   UNL A   1      38.113  30.800  30.111  1.00  0.00     0.037 A 
ATOM     52  C   UNL A   1      42.547  28.986  34.541  1.00  0.00     0.049 A 
ATOM     53  C   UNL A   1      38.305  31.110  31.574  1.00  0.00     0.074 A 
ATOM     54  C   UNL A   1      42.662  29.406  35.856  1.00  0.00     0.029 A 
ATOM     55  N   UNL A   1      41.434  29.621  34.015  1.00  0.00    -0.354 N 
ATOM     56  N   UNL A   1      39.252  30.713  32.389  1.00  0.00    -0.248 NA
ATOM     57  C   UNL A   1      37.306  31.988  32.202  1.00  0.00     0.031 C 
ATOM     58  C   UNL A   1      41.593  30.264  36.136  1.00  0.00     0.029 A 
ATOM     59  C   UNL A   1      40.841  30.416  34.983  1.00  0.00     0.049 A 
ATOM     60  H   UNL A   1      41.111  29.522  33.090  1.00  0.00     0.167 HD
ATOM     61  C   UNL A   1      38.985  31.318  33.610  1.00  0.00     0.074 A 
ATOM     62  C   UNL A   1      37.791  32.118  33.428  1.00  0.00     0.031 C 
ATOM     63  C   UNL A   1      39.665  31.221  34.779  1.00  0.00     0.037 A 
BRANCH  50  64
ATOM     64  C   UNL A   1      44.558  27.463  34.528  1.00  0.00     0.064 A 
ATOM     65  C   UNL A   1      45.808  28.098  34.556  1.00  0.00     0.173 A 
ATOM     66  C   UNL A   1      44.418  26.255  35.226  1.00  0.00     0.173 A 
ATOM     67  F   UNL A   1      45.996  29.249  33.892  1.00  0.00    -0.203 F 
ATOM     68  C   UNL A   1      46.882  27.536  35.241  1.00  0.00     0.198 A 
ATOM     69  C   UNL A   1      45.486  25.708  35.932  1.00  0.00     0.198 A 
ATOM     70  F   UNL A   1      43.242  25.609  35.232  1.00  0.00    -0.203 F 
ATOM     71  F   UNL A   1      48.078  28.139  35.222  1.00  0.00    -0.200 F 
ATOM     72  C   UNL A   1      46.718  26.345  35.934  1.00  0.00     0.200 A 
ATOM     73  F   UNL A   1      45.324  24.563  36.610  1.00  0.00    -0.200 F 
ATOM     74  F   UNL A   1      47.750  25.809  36.601  1.00  0.00    -0.200 F 
ENDBRANCH  50  64
BRANCH  51  75
ATOM     75  C   UNL A   1      36.975  31.394  29.360  1.00  0.00     0.064 A 
ATOM     76  C   UNL A   1      36.953  32.760  29.044  1.00  0.00     0.173 A 
ATOM     77  C   UNL A   1      35.870  30.618  28.983  1.00  0.00     0.173 A 
ATOM     78  F   UNL A   1      37.974  33.547  29.410  1.00  0.00    -0.203 F 
ATOM     79  C   UNL A   1      35.857  33.331  28.402  1.00  0.00     0.198 A 
ATOM     80  C   UNL A   1      34.787  31.185  28.314  1.00  0.00     0.198 A 
ATOM     81  F   UNL A   1      35.839  29.308  29.264  1.00  0.00    -0.203 F 
ATOM     82  F   UNL A   1      35.837  34.650  28.163  1.00  0.00    -0.200 F 
ATOM     83  C   UNL A   1      34.776  32.544  28.033  1.00  0.00     0.200 A 
ATOM     84  F   UNL A   1      33.748  30.420  27.951  1.00  0.00    -0.200 F 
ATOM     85  F   UNL A   1      33.721  33.096  27.420  1.00  0.00    -0.200 F 
ENDBRANCH  51  75
BRANCH  63  86
ATOM     86  C   UNL A   1      39.167  32.036  35.938  1.00  0.00     0.064 A 
ATOM     87  C   UNL A   1      39.575  33.363  36.135  1.00  0.00     0.173 A 
ATOM     88  C   UNL A   1      38.239  31.492  36.839  1.00  0.00     0.173 A 
ATOM     89  F   UNL A   1      40.471  33.923  35.310  1.00  0.00    -0.203 F 
ATOM     90  C   UNL A   1      39.091  34.107  37.207  1.00  0.00     0.198 A 
ATOM     91  C   UNL A   1      37.735  32.249  37.892  1.00  0.00     0.198 A 
ATOM     92  F   UNL A   1      37.811  30.229  36.690  1.00  0.00    -0.203 F 
ATOM     93  F   UNL A   1      39.530  35.359  37.404  1.00  0.00    -0.200 F 
ATOM     94  C   UNL A   1      38.167  33.553  38.080  1.00  0.00     0.200 A 
ATOM     95  F   UNL A   1      36.833  31.715  38.727  1.00  0.00    -0.200 F 
ATOM     96  F   UNL A   1      37.698  34.274  39.108  1.00  0.00    -0.200 F 
ENDBRANCH  63  86
ENDBRANCH  37  38
ENDBRANCH  30  32
ENDBRANCH  29  30
ENDBRANCH  28  29
ENDBRANCH  27  28
ENDBRANCH  26  27
ENDBRANCH   1  26
TORSDOF 18
ENDMDL
MODEL 2
REMARK VINA RESULT:     -11.1      4.662      9.432
REMARK SMILES Nc1nc(Nc2ccc(C(=O)OCCOCCOC(=O)c3ccc(-c4c5nc(c(-c6c(F)c(F)c(F)c(F)c6F)c6ccc([nH]6)c(-c6c(F)c(F)c(F)c(F)c6F)c6nc(c(-c7c(F)c(F)c(F)c(F)c7F)c7ccc4[nH]7)C=C6)C=C5)cc3)cc2)ccc1[N+](=O)[O-]
REMARK SMILES IDX 14 1 13 2 12 3 10 4 11 5 9 6 6 7 7 8 85 9 8 10 84 11 5 12
REMARK SMILES IDX 4 14 2 15 3 16 88 17 87 18 86 19 1 20 89 23 90 24 91 25
REMARK SMILES IDX 15 26 16 27 17 28 18 29 19 30 20 31 21 32 22 33 83 34 23 35
REMARK SMILES IDX 82 36 24 37 25 38 26 39 76 40 27 41 81 42 75 43 77 44 28 45
REMARK SMILES IDX 80 46 74 47 73 48 29 50 61 51 41 52 60 53 42 54 45 55 59 56
REMARK SMILES IDX 78 57 43 58 44 59 58 61 79 62 46 63 30 64 31 65 39 66 32 67
REMARK SMILES IDX 33 68 37 69 40 70 34 71 35 72 38 73 36 74 62 75 63 76 71 77
REMARK SMILES IDX 64 78 65 79 69 80 72 81 66 82 67 83 70 84 68 85 47 86 48 87
REMARK SMILES IDX 56 88 49 89 50 90 54 91 57 92 51 93 52 94 55 95 53 96
REMARK H PARENT 5 13 1 21 1 22 77 49 45 60
REMARK Flexibility Score: inf
ROOT
ATOM      1  C   UNL A   1      36.070  21.537  24.961  1.00  0.00     0.202 C 
ENDROOT
BRANCH   1   2
ATOM      2  C   UNL A   1      35.066  20.381  24.951  1.00  0.00     0.261 C 
BRANCH   2   3
ATOM      3  O   UNL A   1      33.955  20.657  25.818  1.00  0.00    -0.460 OA
BRANCH   3   4
ATOM      4  C   UNL A   1      32.764  20.791  25.188  1.00  0.00     0.338 C 
ATOM      5  O   UNL A   1      31.955  19.903  24.957  1.00  0.00    -0.246 OA
BRANCH   4   6
ATOM      6  C   UNL A   1      32.476  22.217  24.921  1.00  0.00     0.060 A 
ATOM      7  C   UNL A   1      32.168  24.925  24.259  1.00  0.00     0.040 A 
ATOM      8  C   UNL A   1      32.186  23.951  23.255  1.00  0.00     0.027 A 
ATOM      9  C   UNL A   1      32.225  24.517  25.601  1.00  0.00     0.027 A 
ATOM     10  C   UNL A   1      32.350  22.606  23.582  1.00  0.00     0.018 A 
ATOM     11  C   UNL A   1      32.366  23.168  25.938  1.00  0.00     0.018 A 
BRANCH   7  12
ATOM     12  N   UNL A   1      32.316  26.282  23.899  1.00  0.00    -0.340 N 
ATOM     13  H   UNL A   1      33.221  26.669  23.904  1.00  0.00     0.168 HD
BRANCH  12  14
ATOM     14  C   UNL A   1      31.236  27.113  23.533  1.00  0.00     0.133 A 
ATOM     15  C   UNL A   1      30.454  29.000  22.378  1.00  0.00     0.204 A 
ATOM     16  N   UNL A   1      31.471  28.220  22.789  1.00  0.00    -0.207 NA
ATOM     17  C   UNL A   1      29.143  28.700  22.722  1.00  0.00     0.311 A 
ATOM     18  C   UNL A   1      28.885  27.579  23.521  1.00  0.00     0.093 A 
ATOM     19  C   UNL A   1      29.951  26.784  23.941  1.00  0.00     0.054 A 
BRANCH  15  20
ATOM     20  N   UNL A   1      30.867  30.125  21.698  1.00  0.00    -0.378 N 
ATOM     21  H   UNL A   1      30.385  30.417  20.890  1.00  0.00     0.158 HD
ATOM     22  H   UNL A   1      31.643  30.639  22.019  1.00  0.00     0.158 HD
ENDBRANCH  15  20
BRANCH  17  23
ATOM     23  N   UNL A   1      28.030  29.509  22.246  1.00  0.00     0.066 N 
ATOM     24  O   UNL A   1      28.084  29.918  21.076  1.00  0.00    -0.258 OA
ATOM     25  O   UNL A   1      27.115  29.784  23.037  1.00  0.00    -0.258 OA
ENDBRANCH  17  23
ENDBRANCH  12  14
ENDBRANCH   7  12
ENDBRANCH   4   6
ENDBRANCH   3   4
ENDBRANCH   2   3
ENDBRANCH   1   2
BRANCH   1  26
ATOM     26  O   UNL A   1      37.435  21.175  25.166  1.00  0.00    -0.374 OA
BRANCH  26  27
ATOM     27  C   UNL A   1      37.862  19.922  24.629  1.00  0.00     0.202 C 
BRANCH  27  28
ATOM     28  C   UNL A   1      38.912  19.165  25.451  1.00  0.00     0.261 C 
BRANCH  28  29
ATOM     29  O   UNL A   1      39.752  20.067  26.195  1.00  0.00    -0.460 OA
BRANCH  29  30
ATOM     30  C   UNL A   1      41.070  19.763  26.181  1.00  0.00     0.338 C 
ATOM     31  O   UNL A   1      41.588  18.715  25.820  1.00  0.00    -0.246 OA
BRANCH  30  32
ATOM     32  C   UNL A   1      41.865  20.961  26.508  1.00  0.00     0.060 A 
ATOM     33  C   UNL A   1      42.075  21.247  27.862  1.00  0.00     0.016 A 
ATOM     34  C   UNL A   1      42.338  21.827  25.518  1.00  0.00     0.016 A 
ATOM     35  C   UNL A   1      42.716  22.426  28.237  1.00  0.00     0.010 A 
ATOM     36  C   UNL A   1      42.974  23.016  25.896  1.00  0.00     0.010 A 
ATOM     37  C   UNL A   1      43.133  23.336  27.256  1.00  0.00    -0.014 A 
BRANCH  37  38
ATOM     38  C   UNL A   1      43.598  24.685  27.661  1.00  0.00     0.031 A 
ATOM     39  C   UNL A   1      42.577  25.736  28.002  1.00  0.00     0.074 A 
ATOM     40  C   UNL A   1      44.911  24.961  27.763  1.00  0.00     0.049 A 
ATOM     41  N   UNL A   1      42.752  26.986  28.348  1.00  0.00    -0.248 NA
ATOM     42  C   UNL A   1      41.166  25.319  27.946  1.00  0.00     0.031 C 
ATOM     43  C   UNL A   1      45.994  24.014  27.510  1.00  0.00     0.029 A 
ATOM     44  N   UNL A   1      45.552  26.124  28.108  1.00  0.00    -0.354 N 
ATOM     45  C   UNL A   1      41.479  27.501  28.556  1.00  0.00     0.074 A 
ATOM     46  C   UNL A   1      40.538  26.441  28.262  1.00  0.00     0.031 C 
ATOM     47  C   UNL A   1      47.171  24.636  27.701  1.00  0.00     0.029 A 
ATOM     48  C   UNL A   1      46.921  26.032  28.058  1.00  0.00     0.049 A 
ATOM     49  H   UNL A   1      45.076  26.946  28.364  1.00  0.00     0.167 HD
ATOM     50  C   UNL A   1      41.127  28.742  28.967  1.00  0.00     0.037 A 
ATOM     51  C   UNL A   1      47.861  26.975  28.260  1.00  0.00     0.037 A 
ATOM     52  C   UNL A   1      42.062  29.798  29.253  1.00  0.00     0.049 A 
ATOM     53  C   UNL A   1      47.438  28.375  28.625  1.00  0.00     0.074 A 
ATOM     54  C   UNL A   1      41.803  31.094  29.665  1.00  0.00     0.029 A 
ATOM     55  N   UNL A   1      43.439  29.678  29.152  1.00  0.00    -0.354 N 
ATOM     56  N   UNL A   1      46.234  28.852  28.829  1.00  0.00    -0.248 NA
ATOM     57  C   UNL A   1      48.509  29.370  28.790  1.00  0.00     0.031 C 
ATOM     58  C   UNL A   1      43.023  31.771  29.774  1.00  0.00     0.029 A 
ATOM     59  C   UNL A   1      44.044  30.883  29.476  1.00  0.00     0.049 A 
ATOM     60  H   UNL A   1      43.918  28.859  28.888  1.00  0.00     0.167 HD
ATOM     61  C   UNL A   1      46.403  30.185  29.180  1.00  0.00     0.074 A 
ATOM     62  C   UNL A   1      47.828  30.441  29.170  1.00  0.00     0.031 C 
ATOM     63  C   UNL A   1      45.465  31.115  29.482  1.00  0.00     0.037 A 
BRANCH  50  64
ATOM     64  C   UNL A   1      39.663  29.031  29.123  1.00  0.00     0.064 A 
ATOM     65  C   UNL A   1      38.876  29.428  28.032  1.00  0.00     0.173 A 
ATOM     66  C   UNL A   1      39.032  28.869  30.365  1.00  0.00     0.173 A 
ATOM     67  F   UNL A   1      39.435  29.611  26.826  1.00  0.00    -0.203 F 
ATOM     68  C   UNL A   1      37.513  29.671  28.183  1.00  0.00     0.198 A 
ATOM     69  C   UNL A   1      37.665  29.087  30.507  1.00  0.00     0.198 A 
ATOM     70  F   UNL A   1      39.741  28.489  31.438  1.00  0.00    -0.203 F 
ATOM     71  F   UNL A   1      36.787  30.087  27.137  1.00  0.00    -0.200 F 
ATOM     72  C   UNL A   1      36.908  29.494  29.419  1.00  0.00     0.200 A 
ATOM     73  F   UNL A   1      37.079  28.905  31.699  1.00  0.00    -0.200 F 
ATOM     74  F   UNL A   1      35.594  29.719  29.562  1.00  0.00    -0.200 F 
ENDBRANCH  50  64
BRANCH  51  75
ATOM     75  C   UNL A   1      49.303  26.640  28.112  1.00  0.00     0.064 A 
ATOM     76  C   UNL A   1      50.097  26.358  29.232  1.00  0.00     0.173 A 
ATOM     77  C   UNL A   1      49.923  26.640  26.854  1.00  0.00     0.173 A 
ATOM     78  F   UNL A   1      49.555  26.376  30.458  1.00  0.00    -0.203 F 
ATOM     79  C   UNL A   1      51.462  26.112  29.101  1.00  0.00     0.198 A 
ATOM     80  C   UNL A   1      51.282  26.365  26.722  1.00  0.00     0.198 A 
ATOM     81  F   UNL A   1      49.209  26.907  25.752  1.00  0.00    -0.203 F 
ATOM     82  F   UNL A   1      52.210  25.901  30.194  1.00  0.00    -0.200 F 
ATOM     83  C   UNL A   1      52.053  26.112  27.847  1.00  0.00     0.200 A 
ATOM     84  F   UNL A   1      51.848  26.356  25.508  1.00  0.00    -0.200 F 
ATOM     85  F   UNL A   1      53.367  25.880  27.723  1.00  0.00    -0.200 F 
ENDBRANCH  51  75
BRANCH  63  86
ATOM     86  C   UNL A   1      45.947  32.481  29.876  1.00  0.00     0.064 A 
ATOM     87  C   UNL A   1      46.167  33.489  28.926  1.00  0.00     0.173 A 
ATOM     88  C   UNL A   1      46.154  32.795  31.229  1.00  0.00     0.173 A 
ATOM     89  F   UNL A   1      45.998  33.232  27.621  1.00  0.00    -0.203 F 
ATOM     90  C   UNL A   1      46.600  34.753  29.314  1.00  0.00     0.198 A 
ATOM     91  C   UNL A   1      46.558  34.070  31.614  1.00  0.00     0.198 A 
ATOM     92  F   UNL A   1      45.950  31.869  32.177  1.00  0.00    -0.203 F 
ATOM     93  F   UNL A   1      46.850  35.688  28.384  1.00  0.00    -0.200 F 
ATOM     94  C   UNL A   1      46.789  35.045  30.656  1.00  0.00     0.200 A 
ATOM     95  F   UNL A   1      46.727  34.353  32.912  1.00  0.00    -0.200 F 
ATOM     96  F   UNL A   1      47.200  36.266  31.027  1.00  0.00    -0.200 F 
ENDBRANCH  63  86
ENDBRANCH  37  38
ENDBRANCH  30  32
ENDBRANCH  29  30
ENDBRANCH  28  29
ENDBRANCH  27  28
ENDBRANCH  26  27
ENDBRANCH   1  26
TORSDOF 18
ENDMDL
MODEL 3
REMARK VINA RESULT:     -11.1      4.920      7.597
REMARK SMILES Nc1nc(Nc2ccc(C(=O)OCCOCCOC(=O)c3ccc(-c4c5nc(c(-c6c(F)c(F)c(F)c(F)c6F)c6ccc([nH]6)c(-c6c(F)c(F)c(F)c(F)c6F)c6nc(c(-c7c(F)c(F)c(F)c(F)c7F)c7ccc4[nH]7)C=C6)C=C5)cc3)cc2)ccc1[N+](=O)[O-]
REMARK SMILES IDX 14 1 13 2 12 3 10 4 11 5 9 6 6 7 7 8 85 9 8 10 84 11 5 12
REMARK SMILES IDX 4 14 2 15 3 16 88 17 87 18 86 19 1 20 89 23 90 24 91 25
REMARK SMILES IDX 15 26 16 27 17 28 18 29 19 30 20 31 21 32 22 33 83 34 23 35
REMARK SMILES IDX 82 36 24 37 25 38 26 39 76 40 27 41 81 42 75 43 77 44 28 45
REMARK SMILES IDX 80 46 74 47 73 48 29 50 61 51 41 52 60 53 42 54 45 55 59 56
REMARK SMILES IDX 78 57 43 58 44 59 58 61 79 62 46 63 30 64 31 65 39 66 32 67
REMARK SMILES IDX 33 68 37 69 40 70 34 71 35 72 38 73 36 74 62 75 63 76 71 77
REMARK SMILES IDX 64 78 65 79 69 80 72 81 66 82 67 83 70 84 68 85 47 86 48 87
REMARK SMILES IDX 56 88 49 89 50 90 54 91 57 92 51 93 52 94 55 95 53 96
REMARK H PARENT 5 13 1 21 1 22 77 49 45 60
REMARK Flexibility Score: inf
ROOT
ATOM      1  C   UNL A   1      37.021  23.123  24.959  1.00  0.00     0.202 C 
ENDROOT
BRANCH   1   2
ATOM      2  C   UNL A   1      35.820  23.706  25.708  1.00  0.00     0.261 C 
BRANCH   2   3
ATOM      3  O   UNL A   1      35.312  24.870  25.038  1.00  0.00    -0.460 OA
BRANCH   3   4
ATOM      4  C   UNL A   1      33.963  24.989  25.055  1.00  0.00     0.338 C 
ATOM      5  O   UNL A   1      33.317  25.924  25.505  1.00  0.00    -0.246 OA
BRANCH   4   6
ATOM      6  C   UNL A   1      33.334  23.875  24.310  1.00  0.00     0.060 A 
ATOM      7  C   UNL A   1      32.241  21.591  23.104  1.00  0.00     0.040 A 
ATOM      8  C   UNL A   1      31.837  21.972  24.388  1.00  0.00     0.027 A 
ATOM      9  C   UNL A   1      33.139  22.413  22.403  1.00  0.00     0.027 A 
ATOM     10  C   UNL A   1      32.388  23.101  24.992  1.00  0.00     0.018 A 
ATOM     11  C   UNL A   1      33.678  23.560  22.994  1.00  0.00     0.018 A 
BRANCH   7  12
ATOM     12  N   UNL A   1      31.918  20.298  22.640  1.00  0.00    -0.340 N 
ATOM     13  H   UNL A   1      31.335  20.219  21.851  1.00  0.00     0.168 HD
BRANCH  12  14
ATOM     14  C   UNL A   1      32.385  19.113  23.247  1.00  0.00     0.133 A 
ATOM     15  C   UNL A   1      32.710  17.845  25.195  1.00  0.00     0.204 A 
ATOM     16  N   UNL A   1      32.322  18.986  24.594  1.00  0.00    -0.207 NA
ATOM     17  C   UNL A   1      33.198  16.780  24.452  1.00  0.00     0.311 A 
ATOM     18  C   UNL A   1      33.303  16.907  23.061  1.00  0.00     0.093 A 
ATOM     19  C   UNL A   1      32.901  18.097  22.455  1.00  0.00     0.054 A 
BRANCH  15  20
ATOM     20  N   UNL A   1      32.656  17.905  26.571  1.00  0.00    -0.378 N 
ATOM     21  H   UNL A   1      31.859  18.272  27.017  1.00  0.00     0.158 HD
ATOM     22  H   UNL A   1      33.414  17.580  27.108  1.00  0.00     0.158 HD
ENDBRANCH  15  20
BRANCH  17  23
ATOM     23  N   UNL A   1      33.576  15.524  25.084  1.00  0.00     0.066 N 
ATOM     24  O   UNL A   1      32.659  14.797  25.498  1.00  0.00    -0.258 OA
ATOM     25  O   UNL A   1      34.782  15.266  25.217  1.00  0.00    -0.258 OA
ENDBRANCH  17  23
ENDBRANCH  12  14
ENDBRANCH   7  12
ENDBRANCH   4   6
ENDBRANCH   3   4
ENDBRANCH   2   3
ENDBRANCH   1   2
BRANCH   1  26
ATOM     26  O   UNL A   1      36.821  21.842  24.362  1.00  0.00    -0.374 OA
BRANCH  26  27
ATOM     27  C   UNL A   1      37.130  20.698  25.162  1.00  0.00     0.202 C 
BRANCH  27  28
ATOM     28  C   UNL A   1      38.584  20.215  25.105  1.00  0.00     0.261 C 
BRANCH  28  29
ATOM     29  O   UNL A   1      39.160  20.116  26.420  1.00  0.00    -0.460 OA
BRANCH  29  30
ATOM     30  C   UNL A   1      40.491  20.350  26.481  1.00  0.00     0.338 C 
ATOM     31  O   UNL A   1      41.392  19.634  26.064  1.00  0.00    -0.246 OA
BRANCH  30  32
ATOM     32  C   UNL A   1      40.740  21.715  26.981  1.00  0.00     0.060 A 
ATOM     33  C   UNL A   1      40.143  22.775  26.289  1.00  0.00     0.016 A 
ATOM     34  C   UNL A   1      41.593  21.962  28.060  1.00  0.00     0.016 A 
ATOM     35  C   UNL A   1      40.434  24.092  26.639  1.00  0.00     0.010 A 
ATOM     36  C   UNL A   1      41.892  23.285  28.405  1.00  0.00     0.010 A 
ATOM     37  C   UNL A   1      41.342  24.354  27.675  1.00  0.00    -0.014 A 
BRANCH  37  38
ATOM     38  C   UNL A   1      41.827  25.739  27.889  1.00  0.00     0.031 A 
ATOM     39  C   UNL A   1      43.180  26.127  27.359  1.00  0.00     0.074 A 
ATOM     40  C   UNL A   1      41.058  26.651  28.510  1.00  0.00     0.049 A 
ATOM     41  N   UNL A   1      43.818  27.266  27.457  1.00  0.00    -0.248 NA
ATOM     42  C   UNL A   1      43.914  25.089  26.616  1.00  0.00     0.031 C 
ATOM     43  C   UNL A   1      39.711  26.410  29.022  1.00  0.00     0.029 A 
ATOM     44  N   UNL A   1      41.306  27.965  28.816  1.00  0.00    -0.354 N 
ATOM     45  C   UNL A   1      45.020  27.085  26.786  1.00  0.00     0.074 A 
ATOM     46  C   UNL A   1      45.042  25.716  26.316  1.00  0.00     0.031 C 
ATOM     47  C   UNL A   1      39.251  27.541  29.587  1.00  0.00     0.029 A 
ATOM     48  C   UNL A   1      40.284  28.572  29.503  1.00  0.00     0.049 A 
ATOM     49  H   UNL A   1      42.138  28.429  28.568  1.00  0.00     0.167 HD
ATOM     50  C   UNL A   1      46.010  27.983  26.570  1.00  0.00     0.037 A 
ATOM     51  C   UNL A   1      40.204  29.813  30.021  1.00  0.00     0.037 A 
ATOM     52  C   UNL A   1      45.991  29.342  27.043  1.00  0.00     0.049 A 
ATOM     53  C   UNL A   1      41.362  30.763  29.847  1.00  0.00     0.074 A 
ATOM     54  C   UNL A   1      46.953  30.325  26.885  1.00  0.00     0.029 A 
ATOM     55  N   UNL A   1      44.956  29.908  27.770  1.00  0.00    -0.354 N 
ATOM     56  N   UNL A   1      42.491  30.586  29.204  1.00  0.00    -0.248 NA
ATOM     57  C   UNL A   1      41.232  32.087  30.473  1.00  0.00     0.031 C 
ATOM     58  C   UNL A   1      46.516  31.475  27.552  1.00  0.00     0.029 A 
ATOM     59  C   UNL A   1      45.263  31.222  28.085  1.00  0.00     0.049 A 
ATOM     60  H   UNL A   1      44.126  29.445  28.026  1.00  0.00     0.167 HD
ATOM     61  C   UNL A   1      43.186  31.784  29.316  1.00  0.00     0.074 A 
ATOM     62  C   UNL A   1      42.349  32.684  30.081  1.00  0.00     0.031 C 
ATOM     63  C   UNL A   1      44.409  32.110  28.830  1.00  0.00     0.037 A 
BRANCH  50  64
ATOM     64  C   UNL A   1      47.209  27.519  25.795  1.00  0.00     0.064 A 
ATOM     65  C   UNL A   1      47.288  27.680  24.404  1.00  0.00     0.173 A 
ATOM     66  C   UNL A   1      48.305  26.945  26.454  1.00  0.00     0.173 A 
ATOM     67  F   UNL A   1      46.259  28.211  23.726  1.00  0.00    -0.203 F 
ATOM     68  C   UNL A   1      48.414  27.267  23.698  1.00  0.00     0.198 A 
ATOM     69  C   UNL A   1      49.441  26.556  25.749  1.00  0.00     0.198 A 
ATOM     70  F   UNL A   1      48.279  26.771  27.784  1.00  0.00    -0.203 F 
ATOM     71  F   UNL A   1      48.454  27.394  22.365  1.00  0.00    -0.200 F 
ATOM     72  C   UNL A   1      49.493  26.711  24.373  1.00  0.00     0.200 A 
ATOM     73  F   UNL A   1      50.486  26.030  26.403  1.00  0.00    -0.200 F 
ATOM     74  F   UNL A   1      50.581  26.321  23.693  1.00  0.00    -0.200 F 
ENDBRANCH  50  64
BRANCH  51  75
ATOM     75  C   UNL A   1      38.990  30.237  30.768  1.00  0.00     0.064 A 
ATOM     76  C   UNL A   1      37.887  30.787  30.100  1.00  0.00     0.173 A 
ATOM     77  C   UNL A   1      38.926  30.141  32.165  1.00  0.00     0.173 A 
ATOM     78  F   UNL A   1      37.914  30.926  28.766  1.00  0.00    -0.203 F 
ATOM     79  C   UNL A   1      36.777  31.248  30.804  1.00  0.00     0.198 A 
ATOM     80  C   UNL A   1      37.803  30.576  32.866  1.00  0.00     0.198 A 
ATOM     81  F   UNL A   1      39.955  29.626  32.852  1.00  0.00    -0.203 F 
ATOM     82  F   UNL A   1      35.760  31.822  30.145  1.00  0.00    -0.200 F 
ATOM     83  C   UNL A   1      36.733  31.139  32.185  1.00  0.00     0.200 A 
ATOM     84  F   UNL A   1      37.760  30.459  34.200  1.00  0.00    -0.200 F 
ATOM     85  F   UNL A   1      35.667  31.587  32.862  1.00  0.00    -0.200 F 
ENDBRANCH  51  75
BRANCH  63  86
ATOM     86  C   UNL A   1      44.894  33.511  29.065  1.00  0.00     0.064 A 
ATOM     87  C   UNL A   1      45.694  33.839  30.169  1.00  0.00     0.173 A 
ATOM     88  C   UNL A   1      44.587  34.530  28.150  1.00  0.00     0.173 A 
ATOM     89  F   UNL A   1      46.003  32.903  31.080  1.00  0.00    -0.203 F 
ATOM     90  C   UNL A   1      46.147  35.141  30.362  1.00  0.00     0.198 A 
ATOM     91  C   UNL A   1      45.066  35.824  28.331  1.00  0.00     0.198 A 
ATOM     92  F   UNL A   1      43.832  34.267  27.073  1.00  0.00    -0.203 F 
ATOM     93  F   UNL A   1      46.871  35.442  31.450  1.00  0.00    -0.200 F 
ATOM     94  C   UNL A   1      45.839  36.130  29.441  1.00  0.00     0.200 A 
ATOM     95  F   UNL A   1      44.778  36.775  27.433  1.00  0.00    -0.200 F 
ATOM     96  F   UNL A   1      46.282  37.382  29.626  1.00  0.00    -0.200 F 
ENDBRANCH  63  86
ENDBRANCH  37  38
ENDBRANCH  30  32
ENDBRANCH  29  30
ENDBRANCH  28  29
ENDBRANCH  27  28
ENDBRANCH  26  27
ENDBRANCH   1  26
TORSDOF 18
ENDMDL
