MODEL 1
REMARK VINA RESULT:     -10.5      0.000      0.000
REMARK SMILES CC[C@](C)(NC(=O)NCc1ccco1)C(=O)OCCOCCOC(=O)c1ccc(-c2c3nc(c(-c4c(F)c(F)c(F)c(F)c4F)c4ccc([nH]4)c(-c4c(F)c(F)c(F)c(F)c4F)c4nc(c(-c5c(F)c(F)c(F)c(F)c5F)c5ccc2[nH]5)C=C4)C=C3)cc1
REMARK SMILES IDX 19 1 18 2 17 3 15 4 16 5 3 6 4 7 2 8 1 9 5 10 6 11 7 13 8 14
REMARK SMILES IDX 9 16 10 17 11 18 14 19 12 20 13 21 20 22 21 23 22 24 23 25
REMARK SMILES IDX 24 26 25 27 26 28 27 29 88 30 28 31 87 32 29 33 30 34 31 35
REMARK SMILES IDX 81 36 32 37 86 38 80 39 82 40 33 41 85 42 79 43 78 44 34 46
REMARK SMILES IDX 66 47 46 48 65 49 47 50 50 51 64 52 83 53 48 54 49 55 63 57
REMARK SMILES IDX 84 58 51 59 35 60 36 61 44 62 37 63 38 64 42 65 45 66 39 67
REMARK SMILES IDX 40 68 43 69 41 70 67 71 68 72 76 73 69 74 70 75 74 76 77 77
REMARK SMILES IDX 71 78 72 79 75 80 73 81 52 82 53 83 61 84 54 85 55 86 59 87
REMARK SMILES IDX 62 88 56 89 57 90 60 91 58 92
REMARK H PARENT 5 12 8 15 82 45 50 56
REMARK Flexibility Score: inf
ROOT
ATOM      1  C   UNL A   1      33.332  29.788  27.351  1.00  0.00     0.202 C 
ENDROOT
BRANCH   1   2
ATOM      2  C   UNL A   1      34.012  28.588  26.692  1.00  0.00     0.261 C 
BRANCH   2   3
ATOM      3  O   UNL A   1      33.085  28.071  25.725  1.00  0.00    -0.462 OA
BRANCH   3   4
ATOM      4  C   UNL A   1      33.547  27.630  24.536  1.00  0.00     0.331 C 
ATOM      5  O   UNL A   1      34.030  28.370  23.688  1.00  0.00    -0.249 OA
BRANCH   4   6
ATOM      6  C   UNL A   1      33.358  26.072  24.385  1.00  0.00     0.136 C 
ATOM      7  C   UNL A   1      31.963  25.847  25.025  1.00  0.00     0.047 C 
BRANCH   6   8
ATOM      8  C   UNL A   1      34.404  25.237  25.184  1.00  0.00     0.037 C 
ATOM      9  C   UNL A   1      33.862  24.145  26.096  1.00  0.00     0.007 C 
ENDBRANCH   6   8
BRANCH   6  10
ATOM     10  N   UNL A   1      33.255  25.509  22.979  1.00  0.00    -0.322 N 
ATOM     11  C   UNL A   1      32.845  25.958  21.770  1.00  0.00     0.316 C 
ATOM     12  H   UNL A   1      33.568  24.577  22.936  1.00  0.00     0.166 HD
ATOM     13  O   UNL A   1      33.277  25.385  20.768  1.00  0.00    -0.249 OA
ATOM     14  N   UNL A   1      31.994  26.998  21.621  1.00  0.00    -0.331 N 
ATOM     15  H   UNL A   1      32.130  27.621  20.871  1.00  0.00     0.165 HD
BRANCH  14  16
ATOM     16  C   UNL A   1      30.908  27.218  22.514  1.00  0.00     0.193 C 
BRANCH  16  17
ATOM     17  C   UNL A   1      30.339  28.562  22.668  1.00  0.00     0.122 A 
ATOM     18  C   UNL A   1      30.273  29.325  23.818  1.00  0.00     0.047 A 
ATOM     19  O   UNL A   1      29.692  29.177  21.648  1.00  0.00    -0.467 OA
ATOM     20  C   UNL A   1      29.526  30.468  23.497  1.00  0.00     0.042 A 
ATOM     21  C   UNL A   1      29.230  30.351  22.161  1.00  0.00     0.195 A 
ENDBRANCH  16  17
ENDBRANCH  14  16
ENDBRANCH   6  10
ENDBRANCH   4   6
ENDBRANCH   3   4
ENDBRANCH   2   3
ENDBRANCH   1   2
BRANCH   1  22
ATOM     22  O   UNL A   1      32.805  30.727  26.408  1.00  0.00    -0.374 OA
BRANCH  22  23
ATOM     23  C   UNL A   1      31.769  31.601  26.859  1.00  0.00     0.202 C 
BRANCH  23  24
ATOM     24  C   UNL A   1      32.099  33.094  26.839  1.00  0.00     0.261 C 
BRANCH  24  25
ATOM     25  O   UNL A   1      32.412  33.645  28.132  1.00  0.00    -0.460 OA
BRANCH  25  26
ATOM     26  C   UNL A   1      33.576  34.334  28.180  1.00  0.00     0.338 C 
ATOM     27  O   UNL A   1      33.726  35.530  27.999  1.00  0.00    -0.246 OA
BRANCH  26  28
ATOM     28  C   UNL A   1      34.711  33.463  28.554  1.00  0.00     0.060 A 
ATOM     29  C   UNL A   1      34.428  32.351  29.353  1.00  0.00     0.016 A 
ATOM     30  C   UNL A   1      36.039  33.808  28.279  1.00  0.00     0.016 A 
ATOM     31  C   UNL A   1      35.468  31.624  29.936  1.00  0.00     0.010 A 
ATOM     32  C   UNL A   1      37.082  33.072  28.865  1.00  0.00     0.010 A 
ATOM     33  C   UNL A   1      36.804  32.000  29.732  1.00  0.00    -0.014 A 
BRANCH  33  34
ATOM     34  C   UNL A   1      37.876  31.312  30.506  1.00  0.00     0.031 A 
ATOM     35  C   UNL A   1      38.753  30.290  29.841  1.00  0.00     0.074 A 
ATOM     36  C   UNL A   1      38.123  31.648  31.785  1.00  0.00     0.049 A 
ATOM     37  N   UNL A   1      39.774  29.634  30.335  1.00  0.00    -0.248 NA
ATOM     38  C   UNL A   1      38.445  29.964  28.443  1.00  0.00     0.031 C 
ATOM     39  C   UNL A   1      37.356  32.629  32.537  1.00  0.00     0.029 A 
ATOM     40  N   UNL A   1      39.079  31.221  32.675  1.00  0.00    -0.354 N 
ATOM     41  C   UNL A   1      40.233  28.821  29.309  1.00  0.00     0.074 A 
ATOM     42  C   UNL A   1      39.357  29.039  28.176  1.00  0.00     0.031 C 
ATOM     43  C   UNL A   1      37.872  32.746  33.771  1.00  0.00     0.029 A 
ATOM     44  C   UNL A   1      38.993  31.823  33.908  1.00  0.00     0.049 A 
ATOM     45  H   UNL A   1      39.761  30.547  32.451  1.00  0.00     0.167 HD
ATOM     46  C   UNL A   1      41.297  27.983  29.309  1.00  0.00     0.037 A 
ATOM     47  C   UNL A   1      39.721  31.651  35.028  1.00  0.00     0.037 A 
ATOM     48  C   UNL A   1      42.169  27.761  30.435  1.00  0.00     0.049 A 
ATOM     49  C   UNL A   1      40.864  30.673  35.012  1.00  0.00     0.074 A 
ATOM     50  C   UNL A   1      43.278  26.935  30.515  1.00  0.00     0.029 A 
ATOM     51  N   UNL A   1      42.030  28.360  31.677  1.00  0.00    -0.354 N 
ATOM     52  N   UNL A   1      41.310  29.941  34.022  1.00  0.00    -0.248 NA
ATOM     53  C   UNL A   1      41.609  30.501  36.268  1.00  0.00     0.031 C 
ATOM     54  C   UNL A   1      43.781  26.999  31.819  1.00  0.00     0.029 A 
ATOM     55  C   UNL A   1      43.020  27.905  32.536  1.00  0.00     0.049 A 
ATOM     56  H   UNL A   1      41.332  29.012  31.915  1.00  0.00     0.167 HD
ATOM     57  C   UNL A   1      42.395  29.237  34.527  1.00  0.00     0.074 A 
ATOM     58  C   UNL A   1      42.560  29.654  35.903  1.00  0.00     0.031 C 
ATOM     59  C   UNL A   1      43.179  28.323  33.906  1.00  0.00     0.037 A 
BRANCH  46  60
ATOM     60  C   UNL A   1      41.574  27.224  28.046  1.00  0.00     0.064 A 
ATOM     61  C   UNL A   1      42.449  27.723  27.069  1.00  0.00     0.173 A 
ATOM     62  C   UNL A   1      41.002  25.961  27.835  1.00  0.00     0.173 A 
ATOM     63  F   UNL A   1      43.010  28.931  27.219  1.00  0.00    -0.203 F 
ATOM     64  C   UNL A   1      42.727  26.991  25.917  1.00  0.00     0.198 A 
ATOM     65  C   UNL A   1      41.304  25.220  26.694  1.00  0.00     0.198 A 
ATOM     66  F   UNL A   1      40.164  25.437  28.741  1.00  0.00    -0.203 F 
ATOM     67  F   UNL A   1      43.537  27.502  24.980  1.00  0.00    -0.200 F 
ATOM     68  C   UNL A   1      42.162  25.738  25.735  1.00  0.00     0.200 A 
ATOM     69  F   UNL A   1      40.768  24.004  26.527  1.00  0.00    -0.200 F 
ATOM     70  F   UNL A   1      42.440  25.029  24.632  1.00  0.00    -0.200 F 
ENDBRANCH  46  60
BRANCH  47  71
ATOM     71  C   UNL A   1      39.395  32.407  36.268  1.00  0.00     0.064 A 
ATOM     72  C   UNL A   1      38.420  31.948  37.166  1.00  0.00     0.173 A 
ATOM     73  C   UNL A   1      40.018  33.631  36.557  1.00  0.00     0.173 A 
ATOM     74  F   UNL A   1      37.779  30.795  36.924  1.00  0.00    -0.203 F 
ATOM     75  C   UNL A   1      38.059  32.697  38.284  1.00  0.00     0.198 A 
ATOM     76  C   UNL A   1      39.680  34.363  37.693  1.00  0.00     0.198 A 
ATOM     77  F   UNL A   1      40.958  34.117  35.734  1.00  0.00    -0.203 F 
ATOM     78  F   UNL A   1      37.082  32.263  39.091  1.00  0.00    -0.200 F 
ATOM     79  C   UNL A   1      38.692  33.902  38.549  1.00  0.00     0.200 A 
ATOM     80  F   UNL A   1      40.305  35.519  37.953  1.00  0.00    -0.200 F 
ATOM     81  F   UNL A   1      38.342  34.623  39.623  1.00  0.00    -0.200 F 
ENDBRANCH  47  71
BRANCH  59  82
ATOM     82  C   UNL A   1      44.303  27.732  34.705  1.00  0.00     0.064 A 
ATOM     83  C   UNL A   1      44.143  26.546  35.438  1.00  0.00     0.173 A 
ATOM     84  C   UNL A   1      45.561  28.355  34.734  1.00  0.00     0.173 A 
ATOM     85  F   UNL A   1      42.955  25.922  35.459  1.00  0.00    -0.203 F 
ATOM     86  C   UNL A   1      45.188  26.024  36.195  1.00  0.00     0.198 A 
ATOM     87  C   UNL A   1      46.614  27.813  35.466  1.00  0.00     0.198 A 
ATOM     88  F   UNL A   1      45.769  29.489  34.048  1.00  0.00    -0.203 F 
ATOM     89  F   UNL A   1      44.993  24.924  36.935  1.00  0.00    -0.200 F 
ATOM     90  C   UNL A   1      46.424  26.654  36.204  1.00  0.00     0.200 A 
ATOM     91  F   UNL A   1      47.809  28.417  35.464  1.00  0.00    -0.200 F 
ATOM     92  F   UNL A   1      47.429  26.152  36.934  1.00  0.00    -0.200 F 
ENDBRANCH  59  82
ENDBRANCH  33  34
ENDBRANCH  26  28
ENDBRANCH  25  26
ENDBRANCH  24  25
ENDBRANCH  23  24
ENDBRANCH  22  23
ENDBRANCH   1  22
TORSDOF 18
ENDMDL
MODEL 2
REMARK VINA RESULT:     -10.5      4.484      7.730
REMARK SMILES CC[C@](C)(NC(=O)NCc1ccco1)C(=O)OCCOCCOC(=O)c1ccc(-c2c3nc(c(-c4c(F)c(F)c(F)c(F)c4F)c4ccc([nH]4)c(-c4c(F)c(F)c(F)c(F)c4F)c4nc(c(-c5c(F)c(F)c(F)c(F)c5F)c5ccc2[nH]5)C=C4)C=C3)cc1
REMARK SMILES IDX 19 1 18 2 17 3 15 4 16 5 3 6 4 7 2 8 1 9 5 10 6 11 7 13 8 14
REMARK SMILES IDX 9 16 10 17 11 18 14 19 12 20 13 21 20 22 21 23 22 24 23 25
REMARK SMILES IDX 24 26 25 27 26 28 27 29 88 30 28 31 87 32 29 33 30 34 31 35
REMARK SMILES IDX 81 36 32 37 86 38 80 39 82 40 33 41 85 42 79 43 78 44 34 46
REMARK SMILES IDX 66 47 46 48 65 49 47 50 50 51 64 52 83 53 48 54 49 55 63 57
REMARK SMILES IDX 84 58 51 59 35 60 36 61 44 62 37 63 38 64 42 65 45 66 39 67
REMARK SMILES IDX 40 68 43 69 41 70 67 71 68 72 76 73 69 74 70 75 74 76 77 77
REMARK SMILES IDX 71 78 72 79 75 80 73 81 52 82 53 83 61 84 54 85 55 86 59 87
REMARK SMILES IDX 62 88 56 89 57 90 60 91 58 92
REMARK H PARENT 5 12 8 15 82 45 50 56
REMARK Flexibility Score: inf
ROOT
ATOM      1  C   UNL A   1      34.872  24.315  25.387  1.00  0.00     0.202 C 
ENDROOT
BRANCH   1   2
ATOM      2  C   UNL A   1      33.593  24.572  26.184  1.00  0.00     0.261 C 
BRANCH   2   3
ATOM      3  O   UNL A   1      33.336  25.982  26.105  1.00  0.00    -0.462 OA
BRANCH   3   4
ATOM      4  C   UNL A   1      32.099  26.411  25.775  1.00  0.00     0.331 C 
ATOM      5  O   UNL A   1      31.111  26.206  26.469  1.00  0.00    -0.249 OA
BRANCH   4   6
ATOM      6  C   UNL A   1      32.102  27.169  24.393  1.00  0.00     0.136 C 
ATOM      7  C   UNL A   1      32.833  28.491  24.746  1.00  0.00     0.047 C 
BRANCH   6   8
ATOM      8  C   UNL A   1      30.674  27.523  23.874  1.00  0.00     0.037 C 
ATOM      9  C   UNL A   1      30.359  28.999  23.679  1.00  0.00     0.007 C 
ENDBRANCH   6   8
BRANCH   6  10
ATOM     10  N   UNL A   1      32.897  26.556  23.255  1.00  0.00    -0.322 N 
ATOM     11  C   UNL A   1      32.653  25.699  22.238  1.00  0.00     0.316 C 
ATOM     12  H   UNL A   1      33.833  26.862  23.258  1.00  0.00     0.166 HD
ATOM     13  O   UNL A   1      33.405  25.734  21.263  1.00  0.00    -0.249 OA
ATOM     14  N   UNL A   1      31.627  24.818  22.248  1.00  0.00    -0.331 N 
ATOM     15  H   UNL A   1      31.148  24.634  21.408  1.00  0.00     0.165 HD
BRANCH  14  16
ATOM     16  C   UNL A   1      31.217  24.150  23.436  1.00  0.00     0.193 C 
BRANCH  16  17
ATOM     17  C   UNL A   1      31.713  22.801  23.735  1.00  0.00     0.122 A 
ATOM     18  C   UNL A   1      32.287  21.899  22.859  1.00  0.00     0.047 A 
ATOM     19  O   UNL A   1      31.550  22.243  24.958  1.00  0.00    -0.467 OA
ATOM     20  C   UNL A   1      32.472  20.709  23.577  1.00  0.00     0.042 A 
ATOM     21  C   UNL A   1      32.046  20.979  24.855  1.00  0.00     0.195 A 
ENDBRANCH  16  17
ENDBRANCH  14  16
ENDBRANCH   6  10
ENDBRANCH   4   6
ENDBRANCH   3   4
ENDBRANCH   2   3
ENDBRANCH   1   2
BRANCH   1  22
ATOM     22  O   UNL A   1      35.666  23.251  25.919  1.00  0.00    -0.374 OA
BRANCH  22  23
ATOM     23  C   UNL A   1      35.759  22.052  25.149  1.00  0.00     0.202 C 
BRANCH  23  24
ATOM     24  C   UNL A   1      36.872  21.083  25.554  1.00  0.00     0.261 C 
BRANCH  24  25
ATOM     25  O   UNL A   1      38.171  21.428  25.035  1.00  0.00    -0.460 OA
BRANCH  25  26
ATOM     26  C   UNL A   1      39.196  21.178  25.882  1.00  0.00     0.338 C 
ATOM     27  O   UNL A   1      39.770  20.114  26.040  1.00  0.00    -0.246 OA
BRANCH  26  28
ATOM     28  C   UNL A   1      39.624  22.398  26.599  1.00  0.00     0.060 A 
ATOM     29  C   UNL A   1      39.127  23.620  26.136  1.00  0.00     0.016 A 
ATOM     30  C   UNL A   1      40.614  22.374  27.588  1.00  0.00     0.016 A 
ATOM     31  C   UNL A   1      39.664  24.819  26.606  1.00  0.00     0.010 A 
ATOM     32  C   UNL A   1      41.150  23.583  28.061  1.00  0.00     0.010 A 
ATOM     33  C   UNL A   1      40.709  24.814  27.543  1.00  0.00    -0.014 A 
BRANCH  33  34
ATOM     34  C   UNL A   1      41.375  26.102  27.891  1.00  0.00     0.031 A 
ATOM     35  C   UNL A   1      42.777  26.377  27.430  1.00  0.00     0.074 A 
ATOM     36  C   UNL A   1      40.709  27.062  28.557  1.00  0.00     0.049 A 
ATOM     37  N   UNL A   1      43.497  27.462  27.582  1.00  0.00    -0.248 NA
ATOM     38  C   UNL A   1      43.458  25.299  26.701  1.00  0.00     0.031 C 
ATOM     39  C   UNL A   1      39.346  26.923  29.047  1.00  0.00     0.029 A 
ATOM     40  N   UNL A   1      41.068  28.335  28.930  1.00  0.00    -0.354 N 
ATOM     41  C   UNL A   1      44.712  27.199  26.967  1.00  0.00     0.074 A 
ATOM     42  C   UNL A   1      44.647  25.840  26.471  1.00  0.00     0.031 C 
ATOM     43  C   UNL A   1      38.970  28.065  29.644  1.00  0.00     0.029 A 
ATOM     44  C   UNL A   1      40.080  29.011  29.606  1.00  0.00     0.049 A 
ATOM     45  H   UNL A   1      41.949  28.725  28.731  1.00  0.00     0.167 HD
ATOM     46  C   UNL A   1      45.777  28.022  26.818  1.00  0.00     0.037 A 
ATOM     47  C   UNL A   1      40.065  30.244  30.147  1.00  0.00     0.037 A 
ATOM     48  C   UNL A   1      45.847  29.374  27.312  1.00  0.00     0.049 A 
ATOM     49  C   UNL A   1      41.283  31.116  30.009  1.00  0.00     0.074 A 
ATOM     50  C   UNL A   1      46.887  30.282  27.194  1.00  0.00     0.029 A 
ATOM     51  N   UNL A   1      44.843  30.013  28.024  1.00  0.00    -0.354 N 
ATOM     52  N   UNL A   1      42.411  30.867  29.391  1.00  0.00    -0.248 NA
ATOM     53  C   UNL A   1      41.226  32.442  30.641  1.00  0.00     0.031 C 
ATOM     54  C   UNL A   1      46.531  31.451  27.874  1.00  0.00     0.029 A 
ATOM     55  C   UNL A   1      45.249  31.293  28.371  1.00  0.00     0.049 A 
ATOM     56  H   UNL A   1      43.971  29.615  28.251  1.00  0.00     0.167 HD
ATOM     57  C   UNL A   1      43.188  32.007  29.542  1.00  0.00     0.074 A 
ATOM     58  C   UNL A   1      42.391  32.962  30.284  1.00  0.00     0.031 C 
ATOM     59  C   UNL A   1      44.451  32.239  29.109  1.00  0.00     0.037 A 
BRANCH  46  60
ATOM     60  C   UNL A   1      46.971  27.477  26.094  1.00  0.00     0.064 A 
ATOM     61  C   UNL A   1      47.117  27.622  24.707  1.00  0.00     0.173 A 
ATOM     62  C   UNL A   1      48.007  26.851  26.803  1.00  0.00     0.173 A 
ATOM     63  F   UNL A   1      46.149  28.202  23.983  1.00  0.00    -0.203 F 
ATOM     64  C   UNL A   1      48.249  27.143  24.052  1.00  0.00     0.198 A 
ATOM     65  C   UNL A   1      49.150  26.398  26.149  1.00  0.00     0.198 A 
ATOM     66  F   UNL A   1      47.919  26.692  28.132  1.00  0.00    -0.203 F 
ATOM     67  F   UNL A   1      48.351  27.260  22.721  1.00  0.00    -0.200 F 
ATOM     68  C   UNL A   1      49.268  26.540  24.774  1.00  0.00     0.200 A 
ATOM     69  F   UNL A   1      50.140  25.828  26.850  1.00  0.00    -0.200 F 
ATOM     70  F   UNL A   1      50.363  26.092  24.145  1.00  0.00    -0.200 F 
ENDBRANCH  46  60
BRANCH  47  71
ATOM     71  C   UNL A   1      38.866  30.737  30.878  1.00  0.00     0.064 A 
ATOM     72  C   UNL A   1      38.752  30.593  32.269  1.00  0.00     0.173 A 
ATOM     73  C   UNL A   1      37.787  31.319  30.196  1.00  0.00     0.173 A 
ATOM     74  F   UNL A   1      39.745  30.021  32.966  1.00  0.00    -0.203 F 
ATOM     75  C   UNL A   1      37.594  30.981  32.942  1.00  0.00     0.198 A 
ATOM     76  C   UNL A   1      36.644  31.738  30.873  1.00  0.00     0.198 A 
ATOM     77  F   UNL A   1      37.843  31.483  28.866  1.00  0.00    -0.203 F 
ATOM     78  F   UNL A   1      37.489  30.775  34.261  1.00  0.00    -0.200 F 
ATOM     79  C   UNL A   1      36.543  31.557  32.244  1.00  0.00     0.200 A 
ATOM     80  F   UNL A   1      35.638  32.307  30.197  1.00  0.00    -0.200 F 
ATOM     81  F   UNL A   1      35.430  31.927  32.891  1.00  0.00    -0.200 F 
ENDBRANCH  47  71
BRANCH  59  82
ATOM     82  C   UNL A   1      45.038  33.588  29.406  1.00  0.00     0.064 A 
ATOM     83  C   UNL A   1      45.773  33.831  30.577  1.00  0.00     0.173 A 
ATOM     84  C   UNL A   1      44.871  34.651  28.505  1.00  0.00     0.173 A 
ATOM     85  F   UNL A   1      45.945  32.854  31.480  1.00  0.00    -0.203 F 
ATOM     86  C   UNL A   1      46.288  35.095  30.850  1.00  0.00     0.198 A 
ATOM     87  C   UNL A   1      45.416  35.905  28.765  1.00  0.00     0.198 A 
ATOM     88  F   UNL A   1      44.180  34.472  27.369  1.00  0.00    -0.203 F 
ATOM     89  F   UNL A   1      46.934  35.318  32.002  1.00  0.00    -0.200 F 
ATOM     90  C   UNL A   1      46.116  36.129  29.941  1.00  0.00     0.200 A 
ATOM     91  F   UNL A   1      45.257  36.900  27.882  1.00  0.00    -0.200 F 
ATOM     92  F   UNL A   1      46.612  37.345  30.206  1.00  0.00    -0.200 F 
ENDBRANCH  59  82
ENDBRANCH  33  34
ENDBRANCH  26  28
ENDBRANCH  25  26
ENDBRANCH  24  25
ENDBRANCH  23  24
ENDBRANCH  22  23
ENDBRANCH   1  22
TORSDOF 18
ENDMDL
MODEL 3
REMARK VINA RESULT:     -10.4      0.857      7.419
REMARK SMILES CC[C@](C)(NC(=O)NCc1ccco1)C(=O)OCCOCCOC(=O)c1ccc(-c2c3nc(c(-c4c(F)c(F)c(F)c(F)c4F)c4ccc([nH]4)c(-c4c(F)c(F)c(F)c(F)c4F)c4nc(c(-c5c(F)c(F)c(F)c(F)c5F)c5ccc2[nH]5)C=C4)C=C3)cc1
REMARK SMILES IDX 19 1 18 2 17 3 15 4 16 5 3 6 4 7 2 8 1 9 5 10 6 11 7 13 8 14
REMARK SMILES IDX 9 16 10 17 11 18 14 19 12 20 13 21 20 22 21 23 22 24 23 25
REMARK SMILES IDX 24 26 25 27 26 28 27 29 88 30 28 31 87 32 29 33 30 34 31 35
REMARK SMILES IDX 81 36 32 37 86 38 80 39 82 40 33 41 85 42 79 43 78 44 34 46
REMARK SMILES IDX 66 47 46 48 65 49 47 50 50 51 64 52 83 53 48 54 49 55 63 57
REMARK SMILES IDX 84 58 51 59 35 60 36 61 44 62 37 63 38 64 42 65 45 66 39 67
REMARK SMILES IDX 40 68 43 69 41 70 67 71 68 72 76 73 69 74 70 75 74 76 77 77
REMARK SMILES IDX 71 78 72 79 75 80 73 81 52 82 53 83 61 84 54 85 55 86 59 87
REMARK SMILES IDX 62 88 56 89 57 90 60 91 58 92
REMARK H PARENT 5 12 8 15 82 45 50 56
REMARK Flexibility Score: inf
ROOT
ATOM      1  C   UNL A   1      33.037  30.293  27.025  1.00  0.00     0.202 C 
ENDROOT
BRANCH   1   2
ATOM      2  C   UNL A   1      33.193  28.848  27.501  1.00  0.00     0.261 C 
BRANCH   2   3
ATOM      3  O   UNL A   1      33.075  28.017  26.336  1.00  0.00    -0.462 OA
BRANCH   3   4
ATOM      4  C   UNL A   1      32.009  27.199  26.213  1.00  0.00     0.331 C 
ATOM      5  O   UNL A   1      31.132  27.107  27.062  1.00  0.00    -0.249 OA
BRANCH   4   6
ATOM      6  C   UNL A   1      32.063  26.380  24.867  1.00  0.00     0.136 C 
ATOM      7  C   UNL A   1      30.560  26.157  24.558  1.00  0.00     0.047 C 
BRANCH   6   8
ATOM      8  C   UNL A   1      32.745  24.985  25.014  1.00  0.00     0.037 C 
ATOM      9  C   UNL A   1      34.230  24.976  25.348  1.00  0.00     0.007 C 
ENDBRANCH   6   8
BRANCH   6  10
ATOM     10  N   UNL A   1      32.631  27.074  23.643  1.00  0.00    -0.322 N 
ATOM     11  C   UNL A   1      32.759  28.350  23.210  1.00  0.00     0.316 C 
ATOM     12  H   UNL A   1      33.001  26.430  22.997  1.00  0.00     0.166 HD
ATOM     13  O   UNL A   1      33.629  28.587  22.371  1.00  0.00    -0.249 OA
ATOM     14  N   UNL A   1      31.983  29.361  23.659  1.00  0.00    -0.331 N 
ATOM     15  H   UNL A   1      32.385  30.250  23.788  1.00  0.00     0.165 HD
BRANCH  14  16
ATOM     16  C   UNL A   1      30.602  29.180  23.952  1.00  0.00     0.193 C 
BRANCH  16  17
ATOM     17  C   UNL A   1      29.578  29.769  23.081  1.00  0.00     0.122 A 
ATOM     18  C   UNL A   1      28.267  30.068  23.401  1.00  0.00     0.047 A 
ATOM     19  O   UNL A   1      29.813  29.993  21.766  1.00  0.00    -0.467 OA
ATOM     20  C   UNL A   1      27.651  30.484  22.211  1.00  0.00     0.042 A 
ATOM     21  C   UNL A   1      28.639  30.459  21.256  1.00  0.00     0.195 A 
ENDBRANCH  16  17
ENDBRANCH  14  16
ENDBRANCH   6  10
ENDBRANCH   4   6
ENDBRANCH   3   4
ENDBRANCH   2   3
ENDBRANCH   1   2
BRANCH   1  22
ATOM     22  O   UNL A   1      31.693  30.627  26.663  1.00  0.00    -0.374 OA
BRANCH  22  23
ATOM     23  C   UNL A   1      31.381  32.011  26.500  1.00  0.00     0.202 C 
BRANCH  23  24
ATOM     24  C   UNL A   1      32.485  32.995  26.888  1.00  0.00     0.261 C 
BRANCH  24  25
ATOM     25  O   UNL A   1      32.164  33.822  28.023  1.00  0.00    -0.460 OA
BRANCH  25  26
ATOM     26  C   UNL A   1      33.199  34.558  28.490  1.00  0.00     0.338 C 
ATOM     27  O   UNL A   1      33.194  35.752  28.736  1.00  0.00    -0.246 OA
BRANCH  26  28
ATOM     28  C   UNL A   1      34.391  33.723  28.748  1.00  0.00     0.060 A 
ATOM     29  C   UNL A   1      34.218  32.592  29.553  1.00  0.00     0.016 A 
ATOM     30  C   UNL A   1      35.677  34.117  28.360  1.00  0.00     0.016 A 
ATOM     31  C   UNL A   1      35.329  31.895  30.030  1.00  0.00     0.010 A 
ATOM     32  C   UNL A   1      36.792  33.410  28.840  1.00  0.00     0.010 A 
ATOM     33  C   UNL A   1      36.629  32.319  29.712  1.00  0.00    -0.014 A 
BRANCH  33  34
ATOM     34  C   UNL A   1      37.789  31.659  30.377  1.00  0.00     0.031 A 
ATOM     35  C   UNL A   1      38.132  31.988  31.802  1.00  0.00     0.074 A 
ATOM     36  C   UNL A   1      38.497  30.710  29.739  1.00  0.00     0.049 A 
ATOM     37  N   UNL A   1      39.063  31.471  32.565  1.00  0.00    -0.248 NA
ATOM     38  C   UNL A   1      37.324  33.027  32.454  1.00  0.00     0.031 C 
ATOM     39  C   UNL A   1      38.257  30.294  28.366  1.00  0.00     0.029 A 
ATOM     40  N   UNL A   1      39.544  29.920  30.149  1.00  0.00    -0.354 N 
ATOM     41  C   UNL A   1      38.953  32.118  33.786  1.00  0.00     0.074 A 
ATOM     42  C   UNL A   1      37.888  33.091  33.653  1.00  0.00     0.031 C 
ATOM     43  C   UNL A   1      39.118  29.315  28.042  1.00  0.00     0.029 A 
ATOM     44  C   UNL A   1      39.993  29.055  29.179  1.00  0.00     0.049 A 
ATOM     45  H   UNL A   1      39.935  29.968  31.050  1.00  0.00     0.167 HD
ATOM     46  C   UNL A   1      39.665  31.908  34.919  1.00  0.00     0.037 A 
ATOM     47  C   UNL A   1      41.000  28.159  29.192  1.00  0.00     0.037 A 
ATOM     48  C   UNL A   1      40.727  30.944  35.056  1.00  0.00     0.049 A 
ATOM     49  C   UNL A   1      41.807  27.986  30.450  1.00  0.00     0.074 A 
ATOM     50  C   UNL A   1      41.493  30.660  36.175  1.00  0.00     0.029 A 
ATOM     51  N   UNL A   1      41.179  30.112  34.044  1.00  0.00    -0.354 N 
ATOM     52  N   UNL A   1      41.665  28.578  31.609  1.00  0.00    -0.248 NA
ATOM     53  C   UNL A   1      42.911  27.018  30.402  1.00  0.00     0.031 C 
ATOM     54  C   UNL A   1      42.439  29.690  35.826  1.00  0.00     0.029 A 
ATOM     55  C   UNL A   1      42.228  29.330  34.506  1.00  0.00     0.049 A 
ATOM     56  H   UNL A   1      40.811  30.080  33.132  1.00  0.00     0.167 HD
ATOM     57  C   UNL A   1      42.645  28.043  32.433  1.00  0.00     0.074 A 
ATOM     58  C   UNL A   1      43.356  27.055  31.649  1.00  0.00     0.031 C 
ATOM     59  C   UNL A   1      42.932  28.349  33.721  1.00  0.00     0.037 A 
BRANCH  46  60
ATOM     60  C   UNL A   1      39.325  32.753  36.111  1.00  0.00     0.064 A 
ATOM     61  C   UNL A   1      38.425  32.309  37.091  1.00  0.00     0.173 A 
ATOM     62  C   UNL A   1      39.948  33.995  36.303  1.00  0.00     0.173 A 
ATOM     63  F   UNL A   1      37.795  31.134  36.947  1.00  0.00    -0.203 F 
ATOM     64  C   UNL A   1      38.147  33.087  38.212  1.00  0.00     0.198 A 
ATOM     65  C   UNL A   1      39.688  34.758  37.439  1.00  0.00     0.198 A 
ATOM     66  F   UNL A   1      40.821  34.462  35.399  1.00  0.00    -0.203 F 
ATOM     67  F   UNL A   1      37.256  32.660  39.118  1.00  0.00    -0.200 F 
ATOM     68  C   UNL A   1      38.785  34.306  38.390  1.00  0.00     0.200 A 
ATOM     69  F   UNL A   1      40.316  35.929  37.615  1.00  0.00    -0.200 F 
ATOM     70  F   UNL A   1      38.527  35.048  39.475  1.00  0.00    -0.200 F 
ENDBRANCH  46  60
BRANCH  47  71
ATOM     71  C   UNL A   1      41.318  27.359  27.978  1.00  0.00     0.064 A 
ATOM     72  C   UNL A   1      40.774  26.080  27.786  1.00  0.00     0.173 A 
ATOM     73  C   UNL A   1      42.212  27.837  27.007  1.00  0.00     0.173 A 
ATOM     74  F   UNL A   1      39.933  25.568  28.695  1.00  0.00    -0.203 F 
ATOM     75  C   UNL A   1      41.136  25.300  26.689  1.00  0.00     0.198 A 
ATOM     76  C   UNL A   1      42.547  27.069  25.894  1.00  0.00     0.198 A 
ATOM     77  F   UNL A   1      42.760  29.053  27.140  1.00  0.00    -0.203 F 
ATOM     78  F   UNL A   1      40.649  24.059  26.563  1.00  0.00    -0.200 F 
ATOM     79  C   UNL A   1      42.020  25.796  25.742  1.00  0.00     0.200 A 
ATOM     80  F   UNL A   1      43.389  27.560  24.974  1.00  0.00    -0.200 F 
ATOM     81  F   UNL A   1      42.369  25.045  24.690  1.00  0.00    -0.200 F 
ENDBRANCH  47  71
BRANCH  59  82
ATOM     82  C   UNL A   1      44.050  27.585  34.371  1.00  0.00     0.064 A 
ATOM     83  C   UNL A   1      43.827  26.361  35.020  1.00  0.00     0.173 A 
ATOM     84  C   UNL A   1      45.363  28.080  34.338  1.00  0.00     0.173 A 
ATOM     85  F   UNL A   1      42.587  25.855  35.097  1.00  0.00    -0.203 F 
ATOM     86  C   UNL A   1      44.870  25.679  35.641  1.00  0.00     0.198 A 
ATOM     87  C   UNL A   1      46.410  27.379  34.930  1.00  0.00     0.198 A 
ATOM     88  F   UNL A   1      45.632  29.243  33.726  1.00  0.00    -0.203 F 
ATOM     89  F   UNL A   1      44.623  24.543  36.307  1.00  0.00    -0.200 F 
ATOM     90  C   UNL A   1      46.161  26.184  35.589  1.00  0.00     0.200 A 
ATOM     91  F   UNL A   1      47.657  27.862  34.870  1.00  0.00    -0.200 F 
ATOM     92  F   UNL A   1      47.164  25.527  36.187  1.00  0.00    -0.200 F 
ENDBRANCH  59  82
ENDBRANCH  33  34
ENDBRANCH  26  28
ENDBRANCH  25  26
ENDBRANCH  24  25
ENDBRANCH  23  24
ENDBRANCH  22  23
ENDBRANCH   1  22
TORSDOF 18
ENDMDL
