MODEL 1
REMARK VINA RESULT:     -12.2      0.000      0.000
REMARK SMILES Cc1c(Cl)cc2c(c1C)O[C@@H](C(F)(F)F)C(C(=O)OCCOCCOC(=O)c1ccc(-c3c4nc(c(-c5c(F)c(F)c(F)c(F)c5F)c5ccc([nH]5)c(-c5c(F)c(F)c(F)c(F)c5F)c5nc(c(-c6c(F)c(F)c(F)c(F)c6F)c6ccc3[nH]6)C=C5)C=C4)cc1)=C2
REMARK SMILES IDX 23 1 22 2 21 3 20 4 19 5 17 6 18 7 16 8 1 9 2 10 3 11 8 12
REMARK SMILES IDX 4 13 5 14 7 15 9 16 6 17 10 18 91 19 11 20 12 21 13 22 14 23
REMARK SMILES IDX 15 24 24 25 25 26 26 27 27 28 28 29 29 30 90 31 30 32 89 33
REMARK SMILES IDX 31 34 32 35 33 36 83 37 34 38 88 39 82 40 84 41 35 42 87 43
REMARK SMILES IDX 81 44 80 45 36 47 68 48 48 49 67 50 49 51 52 52 66 53 85 54
REMARK SMILES IDX 50 55 51 56 65 58 86 59 53 60 37 61 38 62 46 63 39 64 40 65
REMARK SMILES IDX 44 66 47 67 41 68 42 69 45 70 43 71 69 72 70 73 78 74 71 75
REMARK SMILES IDX 72 76 76 77 79 78 73 79 74 80 77 81 75 82 54 83 55 84 63 85
REMARK SMILES IDX 56 86 57 87 61 88 64 89 58 90 59 91 62 92 60 93
REMARK H PARENT 84 46 52 57
REMARK Flexibility Score: inf
ROOT
ATOM      1  C   UNL A   1      31.717  30.321  25.754  1.00  0.00     0.202 C 
ENDROOT
BRANCH   1   2
ATOM      2  O   UNL A   1      32.986  29.714  25.490  1.00  0.00    -0.374 OA
BRANCH   2   3
ATOM      3  C   UNL A   1      33.165  29.104  24.214  1.00  0.00     0.202 C 
BRANCH   3   4
ATOM      4  C   UNL A   1      31.950  28.366  23.646  1.00  0.00     0.261 C 
BRANCH   4   5
ATOM      5  O   UNL A   1      32.119  26.942  23.751  1.00  0.00    -0.460 OA
BRANCH   5   6
ATOM      6  C   UNL A   1      31.772  26.421  24.944  1.00  0.00     0.338 C 
ATOM      7  O   UNL A   1      30.940  26.872  25.716  1.00  0.00    -0.246 OA
BRANCH   6   8
ATOM      8  C   UNL A   1      32.461  25.137  25.165  1.00  0.00     0.087 C 
ATOM      9  C   UNL A   1      37.068  20.529  25.001  1.00  0.00     0.046 C 
ATOM     10  C   UNL A   1      36.159  21.715  25.209  1.00  0.00    -0.026 A 
ATOM     11  C   UNL A   1      36.703  22.938  25.655  1.00  0.00     0.045 A 
ATOM     12  C   UNL A   1      34.760  21.635  24.986  1.00  0.00    -0.004 A 
ATOM     13  Cl  UNL A   1      38.378  23.112  26.056  1.00  0.00    -0.084 Cl
ATOM     14  C   UNL A   1      35.909  24.077  25.776  1.00  0.00     0.032 A 
ATOM     15  C   UNL A   1      33.976  22.805  25.087  1.00  0.00     0.131 A 
ATOM     16  C   UNL A   1      34.063  20.350  24.611  1.00  0.00     0.049 C 
ATOM     17  C   UNL A   1      34.555  24.020  25.457  1.00  0.00     0.019 A 
ATOM     18  O   UNL A   1      32.653  22.710  24.725  1.00  0.00    -0.475 OA
ATOM     19  C   UNL A   1      33.776  25.242  25.397  1.00  0.00     0.027 C 
ATOM     20  C   UNL A   1      31.756  23.813  25.053  1.00  0.00     0.316 C 
BRANCH  20  21
ATOM     21  C   UNL A   1      30.918  23.424  26.288  1.00  0.00     0.430 C 
ATOM     22  F   UNL A   1      29.886  24.274  26.501  1.00  0.00    -0.167 F 
ATOM     23  F   UNL A   1      30.402  22.177  26.185  1.00  0.00    -0.167 F 
ATOM     24  F   UNL A   1      31.673  23.423  27.416  1.00  0.00    -0.167 F 
ENDBRANCH  20  21
ENDBRANCH   6   8
ENDBRANCH   5   6
ENDBRANCH   4   5
ENDBRANCH   3   4
ENDBRANCH   2   3
ENDBRANCH   1   2
BRANCH   1  25
ATOM     25  C   UNL A   1      31.744  31.662  26.498  1.00  0.00     0.261 C 
BRANCH  25  26
ATOM     26  O   UNL A   1      32.657  31.615  27.614  1.00  0.00    -0.460 OA
BRANCH  26  27
ATOM     27  C   UNL A   1      33.539  32.634  27.683  1.00  0.00     0.338 C 
ATOM     28  O   UNL A   1      33.298  33.834  27.643  1.00  0.00    -0.246 OA
BRANCH  27  29
ATOM     29  C   UNL A   1      34.867  32.110  28.049  1.00  0.00     0.060 A 
ATOM     30  C   UNL A   1      34.983  30.728  28.240  1.00  0.00     0.016 A 
ATOM     31  C   UNL A   1      35.961  32.953  28.260  1.00  0.00     0.016 A 
ATOM     32  C   UNL A   1      36.184  30.185  28.687  1.00  0.00     0.010 A 
ATOM     33  C   UNL A   1      37.162  32.406  28.727  1.00  0.00     0.010 A 
ATOM     34  C   UNL A   1      37.265  31.026  28.977  1.00  0.00    -0.014 A 
BRANCH  34  35
ATOM     35  C   UNL A   1      38.424  30.464  29.713  1.00  0.00     0.031 A 
ATOM     36  C   UNL A   1      38.642  30.881  31.140  1.00  0.00     0.074 A 
ATOM     37  C   UNL A   1      39.218  29.536  29.151  1.00  0.00     0.049 A 
ATOM     38  N   UNL A   1      39.546  30.475  31.996  1.00  0.00    -0.248 NA
ATOM     39  C   UNL A   1      37.709  31.884  31.682  1.00  0.00     0.031 C 
ATOM     40  C   UNL A   1      39.078  29.017  27.793  1.00  0.00     0.029 A 
ATOM     41  N   UNL A   1      40.295  28.856  29.663  1.00  0.00    -0.354 N 
ATOM     42  C   UNL A   1      39.280  31.160  33.175  1.00  0.00     0.074 A 
ATOM     43  C   UNL A   1      38.163  32.041  32.915  1.00  0.00     0.031 C 
ATOM     44  C   UNL A   1      40.027  28.090  27.581  1.00  0.00     0.029 A 
ATOM     45  C   UNL A   1      40.858  27.969  28.779  1.00  0.00     0.049 A 
ATOM     46  H   UNL A   1      40.633  28.992  30.578  1.00  0.00     0.167 HD
ATOM     47  C   UNL A   1      39.900  31.047  34.372  1.00  0.00     0.037 A 
ATOM     48  C   UNL A   1      41.926  27.158  28.923  1.00  0.00     0.037 A 
ATOM     49  C   UNL A   1      41.010  30.170  34.631  1.00  0.00     0.049 A 
ATOM     50  C   UNL A   1      42.668  27.135  30.235  1.00  0.00     0.074 A 
ATOM     51  C   UNL A   1      41.688  29.969  35.819  1.00  0.00     0.029 A 
ATOM     52  N   UNL A   1      41.608  29.355  33.683  1.00  0.00    -0.354 N 
ATOM     53  N   UNL A   1      42.389  27.756  31.354  1.00  0.00    -0.248 NA
ATOM     54  C   UNL A   1      43.879  26.301  30.300  1.00  0.00     0.031 C 
ATOM     55  C   UNL A   1      42.731  29.072  35.578  1.00  0.00     0.029 A 
ATOM     56  C   UNL A   1      42.675  28.679  34.250  1.00  0.00     0.049 A 
ATOM     57  H   UNL A   1      41.317  29.269  32.746  1.00  0.00     0.167 HD
ATOM     58  C   UNL A   1      43.376  27.381  32.257  1.00  0.00     0.074 A 
ATOM     59  C   UNL A   1      44.252  26.462  31.563  1.00  0.00     0.031 C 
ATOM     60  C   UNL A   1      43.542  27.770  33.546  1.00  0.00     0.037 A 
BRANCH  47  61
ATOM     61  C   UNL A   1      39.394  31.895  35.500  1.00  0.00     0.064 A 
ATOM     62  C   UNL A   1      38.493  31.389  36.447  1.00  0.00     0.173 A 
ATOM     63  C   UNL A   1      39.862  33.206  35.669  1.00  0.00     0.173 A 
ATOM     64  F   UNL A   1      38.009  30.144  36.322  1.00  0.00    -0.203 F 
ATOM     65  C   UNL A   1      38.065  32.171  37.516  1.00  0.00     0.198 A 
ATOM     66  C   UNL A   1      39.451  33.977  36.753  1.00  0.00     0.198 A 
ATOM     67  F   UNL A   1      40.728  33.734  34.792  1.00  0.00    -0.203 F 
ATOM     68  F   UNL A   1      37.179  31.679  38.392  1.00  0.00    -0.200 F 
ATOM     69  C   UNL A   1      38.551  33.461  37.673  1.00  0.00     0.200 A 
ATOM     70  F   UNL A   1      39.931  35.218  36.910  1.00  0.00    -0.200 F 
ATOM     71  F   UNL A   1      38.149  34.208  38.711  1.00  0.00    -0.200 F 
ENDBRANCH  47  61
BRANCH  48  72
ATOM     72  C   UNL A   1      42.360  26.299  27.790  1.00  0.00     0.064 A 
ATOM     73  C   UNL A   1      43.363  26.721  26.908  1.00  0.00     0.173 A 
ATOM     74  C   UNL A   1      41.779  25.041  27.565  1.00  0.00     0.173 A 
ATOM     75  F   UNL A   1      43.929  27.927  27.065  1.00  0.00    -0.203 F 
ATOM     76  C   UNL A   1      43.765  25.921  25.839  1.00  0.00     0.198 A 
ATOM     77  C   UNL A   1      42.200  24.232  26.512  1.00  0.00     0.198 A 
ATOM     78  F   UNL A   1      40.811  24.593  28.377  1.00  0.00    -0.203 F 
ATOM     79  F   UNL A   1      44.702  26.363  24.989  1.00  0.00    -0.200 F 
ATOM     80  C   UNL A   1      43.189  24.675  25.646  1.00  0.00     0.200 A 
ATOM     81  F   UNL A   1      41.646  23.024  26.336  1.00  0.00    -0.200 F 
ATOM     82  F   UNL A   1      43.581  23.903  24.624  1.00  0.00    -0.200 F 
ENDBRANCH  48  72
BRANCH  60  83
ATOM     83  C   UNL A   1      44.718  27.222  34.299  1.00  0.00     0.064 A 
ATOM     84  C   UNL A   1      44.647  25.982  34.950  1.00  0.00     0.173 A 
ATOM     85  C   UNL A   1      45.956  27.883  34.275  1.00  0.00     0.173 A 
ATOM     86  F   UNL A   1      43.484  25.318  35.010  1.00  0.00    -0.203 F 
ATOM     87  C   UNL A   1      45.773  25.424  35.549  1.00  0.00     0.198 A 
ATOM     88  C   UNL A   1      47.085  27.310  34.852  1.00  0.00     0.198 A 
ATOM     89  F   UNL A   1      46.076  29.068  33.657  1.00  0.00    -0.203 F 
ATOM     90  F   UNL A   1      45.678  24.246  36.180  1.00  0.00    -0.200 F 
ATOM     91  C   UNL A   1      46.993  26.081  35.488  1.00  0.00     0.200 A 
ATOM     92  F   UNL A   1      48.267  27.938  34.777  1.00  0.00    -0.200 F 
ATOM     93  F   UNL A   1      48.081  25.529  36.041  1.00  0.00    -0.200 F 
ENDBRANCH  60  83
ENDBRANCH  34  35
ENDBRANCH  27  29
ENDBRANCH  26  27
ENDBRANCH  25  26
ENDBRANCH   1  25
TORSDOF 15
ENDMDL
MODEL 2
REMARK VINA RESULT:     -12.2      0.679      1.756
REMARK SMILES Cc1c(Cl)cc2c(c1C)O[C@@H](C(F)(F)F)C(C(=O)OCCOCCOC(=O)c1ccc(-c3c4nc(c(-c5c(F)c(F)c(F)c(F)c5F)c5ccc([nH]5)c(-c5c(F)c(F)c(F)c(F)c5F)c5nc(c(-c6c(F)c(F)c(F)c(F)c6F)c6ccc3[nH]6)C=C5)C=C4)cc1)=C2
REMARK SMILES IDX 23 1 22 2 21 3 20 4 19 5 17 6 18 7 16 8 1 9 2 10 3 11 8 12
REMARK SMILES IDX 4 13 5 14 7 15 9 16 6 17 10 18 91 19 11 20 12 21 13 22 14 23
REMARK SMILES IDX 15 24 24 25 25 26 26 27 27 28 28 29 29 30 90 31 30 32 89 33
REMARK SMILES IDX 31 34 32 35 33 36 83 37 34 38 88 39 82 40 84 41 35 42 87 43
REMARK SMILES IDX 81 44 80 45 36 47 68 48 48 49 67 50 49 51 52 52 66 53 85 54
REMARK SMILES IDX 50 55 51 56 65 58 86 59 53 60 37 61 38 62 46 63 39 64 40 65
REMARK SMILES IDX 44 66 47 67 41 68 42 69 45 70 43 71 69 72 70 73 78 74 71 75
REMARK SMILES IDX 72 76 76 77 79 78 73 79 74 80 77 81 75 82 54 83 55 84 63 85
REMARK SMILES IDX 56 86 57 87 61 88 64 89 58 90 59 91 62 92 60 93
REMARK H PARENT 84 46 52 57
REMARK Flexibility Score: inf
ROOT
ATOM      1  C   UNL A   1      31.740  29.848  25.353  1.00  0.00     0.202 C 
ENDROOT
BRANCH   1   2
ATOM      2  O   UNL A   1      30.662  29.696  24.424  1.00  0.00    -0.374 OA
BRANCH   2   3
ATOM      3  C   UNL A   1      30.528  28.431  23.780  1.00  0.00     0.202 C 
BRANCH   3   4
ATOM      4  C   UNL A   1      30.884  27.206  24.626  1.00  0.00     0.261 C 
BRANCH   4   5
ATOM      5  O   UNL A   1      31.900  26.417  23.984  1.00  0.00    -0.460 OA
BRANCH   5   6
ATOM      6  C   UNL A   1      33.090  26.410  24.617  1.00  0.00     0.338 C 
ATOM      7  O   UNL A   1      33.711  27.390  24.999  1.00  0.00    -0.246 OA
BRANCH   6   8
ATOM      8  C   UNL A   1      33.514  25.028  24.900  1.00  0.00     0.087 C 
ATOM      9  C   UNL A   1      37.119  19.598  24.966  1.00  0.00     0.046 C 
ATOM     10  C   UNL A   1      36.464  20.948  25.115  1.00  0.00    -0.026 A 
ATOM     11  C   UNL A   1      37.241  22.060  25.504  1.00  0.00     0.045 A 
ATOM     12  C   UNL A   1      35.074  21.135  24.893  1.00  0.00    -0.004 A 
ATOM     13  Cl  UNL A   1      38.921  21.918  25.899  1.00  0.00    -0.084 Cl
ATOM     14  C   UNL A   1      36.689  23.337  25.569  1.00  0.00     0.032 A 
ATOM     15  C   UNL A   1      34.537  22.441  24.937  1.00  0.00     0.131 A 
ATOM     16  C   UNL A   1      34.135  19.997  24.578  1.00  0.00     0.049 C 
ATOM     17  C   UNL A   1      35.347  23.534  25.249  1.00  0.00     0.019 A 
ATOM     18  O   UNL A   1      33.219  22.592  24.577  1.00  0.00    -0.475 OA
ATOM     19  C   UNL A   1      34.825  24.881  25.129  1.00  0.00     0.027 C 
ATOM     20  C   UNL A   1      32.560  23.865  24.850  1.00  0.00     0.316 C 
BRANCH  20  21
ATOM     21  C   UNL A   1      31.671  23.708  26.100  1.00  0.00     0.430 C 
ATOM     22  F   UNL A   1      30.388  24.073  25.871  1.00  0.00    -0.167 F 
ATOM     23  F   UNL A   1      31.655  22.435  26.561  1.00  0.00    -0.167 F 
ATOM     24  F   UNL A   1      32.125  24.471  27.127  1.00  0.00    -0.167 F 
ENDBRANCH  20  21
ENDBRANCH   6   8
ENDBRANCH   5   6
ENDBRANCH   4   5
ENDBRANCH   3   4
ENDBRANCH   2   3
ENDBRANCH   1   2
BRANCH   1  25
ATOM     25  C   UNL A   1      31.736  31.128  26.199  1.00  0.00     0.261 C 
BRANCH  25  26
ATOM     26  O   UNL A   1      32.638  31.008  27.318  1.00  0.00    -0.460 OA
BRANCH  26  27
ATOM     27  C   UNL A   1      33.404  32.093  27.563  1.00  0.00     0.338 C 
ATOM     28  O   UNL A   1      33.037  33.256  27.667  1.00  0.00    -0.246 OA
BRANCH  27  29
ATOM     29  C   UNL A   1      34.766  31.662  27.922  1.00  0.00     0.060 A 
ATOM     30  C   UNL A   1      34.969  30.295  28.152  1.00  0.00     0.016 A 
ATOM     31  C   UNL A   1      35.809  32.575  28.092  1.00  0.00     0.016 A 
ATOM     32  C   UNL A   1      36.207  29.840  28.596  1.00  0.00     0.010 A 
ATOM     33  C   UNL A   1      37.048  32.116  28.555  1.00  0.00     0.010 A 
ATOM     34  C   UNL A   1      37.239  30.753  28.843  1.00  0.00    -0.014 A 
BRANCH  34  35
ATOM     35  C   UNL A   1      38.440  30.285  29.576  1.00  0.00     0.031 A 
ATOM     36  C   UNL A   1      38.652  30.756  30.988  1.00  0.00     0.074 A 
ATOM     37  C   UNL A   1      39.282  29.391  29.029  1.00  0.00     0.049 A 
ATOM     38  N   UNL A   1      39.591  30.431  31.840  1.00  0.00    -0.248 NA
ATOM     39  C   UNL A   1      37.667  31.716  31.515  1.00  0.00     0.031 C 
ATOM     40  C   UNL A   1      39.154  28.823  27.689  1.00  0.00     0.029 A 
ATOM     41  N   UNL A   1      40.406  28.793  29.543  1.00  0.00    -0.354 N 
ATOM     42  C   UNL A   1      39.301  31.133  33.003  1.00  0.00     0.074 A 
ATOM     43  C   UNL A   1      38.128  31.937  32.736  1.00  0.00     0.031 C 
ATOM     44  C   UNL A   1      40.156  27.950  27.488  1.00  0.00     0.029 A 
ATOM     45  C   UNL A   1      41.009  27.915  28.676  1.00  0.00     0.049 A 
ATOM     46  H   UNL A   1      40.746  28.976  30.449  1.00  0.00     0.167 HD
ATOM     47  C   UNL A   1      39.943  31.094  34.193  1.00  0.00     0.037 A 
ATOM     48  C   UNL A   1      42.127  27.175  28.826  1.00  0.00     0.037 A 
ATOM     49  C   UNL A   1      41.108  30.294  34.459  1.00  0.00     0.049 A 
ATOM     50  C   UNL A   1      42.887  27.236  30.126  1.00  0.00     0.074 A 
ATOM     51  C   UNL A   1      41.814  30.170  35.642  1.00  0.00     0.029 A 
ATOM     52  N   UNL A   1      41.741  29.490  33.526  1.00  0.00    -0.354 N 
ATOM     53  N   UNL A   1      42.586  27.872  31.232  1.00  0.00    -0.248 NA
ATOM     54  C   UNL A   1      44.148  26.480  30.196  1.00  0.00     0.031 C 
ATOM     55  C   UNL A   1      42.906  29.331  35.410  1.00  0.00     0.029 A 
ATOM     56  C   UNL A   1      42.856  28.897  34.095  1.00  0.00     0.049 A 
ATOM     57  H   UNL A   1      41.443  29.358  32.596  1.00  0.00     0.167 HD
ATOM     58  C   UNL A   1      43.607  27.586  32.129  1.00  0.00     0.074 A 
ATOM     59  C   UNL A   1      44.528  26.701  31.448  1.00  0.00     0.031 C 
ATOM     60  C   UNL A   1      43.766  28.022  33.403  1.00  0.00     0.037 A 
BRANCH  47  61
ATOM     61  C   UNL A   1      39.402  31.943  35.304  1.00  0.00     0.064 A 
ATOM     62  C   UNL A   1      38.541  31.413  36.276  1.00  0.00     0.173 A 
ATOM     63  C   UNL A   1      39.796  33.282  35.432  1.00  0.00     0.173 A 
ATOM     64  F   UNL A   1      38.128  30.139  36.189  1.00  0.00    -0.203 F 
ATOM     65  C   UNL A   1      38.081  32.199  37.328  1.00  0.00     0.198 A 
ATOM     66  C   UNL A   1      39.354  34.058  36.500  1.00  0.00     0.198 A 
ATOM     67  F   UNL A   1      40.622  33.834  34.530  1.00  0.00    -0.203 F 
ATOM     68  F   UNL A   1      37.234  31.681  38.228  1.00  0.00    -0.200 F 
ATOM     69  C   UNL A   1      38.495  33.518  37.445  1.00  0.00     0.200 A 
ATOM     70  F   UNL A   1      39.765  35.328  36.618  1.00  0.00    -0.200 F 
ATOM     71  F   UNL A   1      38.062  34.268  38.467  1.00  0.00    -0.200 F 
ENDBRANCH  47  61
BRANCH  48  72
ATOM     72  C   UNL A   1      42.596  26.312  27.712  1.00  0.00     0.064 A 
ATOM     73  C   UNL A   1      42.118  25.003  27.562  1.00  0.00     0.173 A 
ATOM     74  C   UNL A   1      43.533  26.775  26.775  1.00  0.00     0.173 A 
ATOM     75  F   UNL A   1      41.242  24.506  28.448  1.00  0.00    -0.203 F 
ATOM     76  C   UNL A   1      42.564  24.187  26.523  1.00  0.00     0.198 A 
ATOM     77  C   UNL A   1      43.959  25.967  25.723  1.00  0.00     0.198 A 
ATOM     78  F   UNL A   1      44.026  28.017  26.877  1.00  0.00    -0.203 F 
ATOM     79  F   UNL A   1      42.118  22.928  26.424  1.00  0.00    -0.200 F 
ATOM     80  C   UNL A   1      43.478  24.673  25.601  1.00  0.00     0.200 A 
ATOM     81  F   UNL A   1      44.835  26.445  24.828  1.00  0.00    -0.200 F 
ATOM     82  F   UNL A   1      43.901  23.892  24.597  1.00  0.00    -0.200 F 
ENDBRANCH  48  72
BRANCH  60  83
ATOM     83  C   UNL A   1      44.984  27.569  34.154  1.00  0.00     0.064 A 
ATOM     84  C   UNL A   1      46.143  28.357  34.197  1.00  0.00     0.173 A 
ATOM     85  C   UNL A   1      44.955  26.398  34.928  1.00  0.00     0.173 A 
ATOM     86  F   UNL A   1      46.223  29.479  33.466  1.00  0.00    -0.203 F 
ATOM     87  C   UNL A   1      47.228  27.990  34.988  1.00  0.00     0.198 A 
ATOM     88  C   UNL A   1      46.032  26.049  35.737  1.00  0.00     0.198 A 
ATOM     89  F   UNL A   1      43.866  25.615  34.927  1.00  0.00    -0.203 F 
ATOM     90  F   UNL A   1      48.332  28.750  35.001  1.00  0.00    -0.200 F 
ATOM     91  C   UNL A   1      47.167  26.844  35.767  1.00  0.00     0.200 A 
ATOM     92  F   UNL A   1      45.964  24.950  36.503  1.00  0.00    -0.200 F 
ATOM     93  F   UNL A   1      48.202  26.508  36.549  1.00  0.00    -0.200 F 
ENDBRANCH  60  83
ENDBRANCH  34  35
ENDBRANCH  27  29
ENDBRANCH  26  27
ENDBRANCH  25  26
ENDBRANCH   1  25
TORSDOF 15
ENDMDL
MODEL 3
REMARK VINA RESULT:     -12.0      1.448      1.925
REMARK SMILES Cc1c(Cl)cc2c(c1C)O[C@@H](C(F)(F)F)C(C(=O)OCCOCCOC(=O)c1ccc(-c3c4nc(c(-c5c(F)c(F)c(F)c(F)c5F)c5ccc([nH]5)c(-c5c(F)c(F)c(F)c(F)c5F)c5nc(c(-c6c(F)c(F)c(F)c(F)c6F)c6ccc3[nH]6)C=C5)C=C4)cc1)=C2
REMARK SMILES IDX 23 1 22 2 21 3 20 4 19 5 17 6 18 7 16 8 1 9 2 10 3 11 8 12
REMARK SMILES IDX 4 13 5 14 7 15 9 16 6 17 10 18 91 19 11 20 12 21 13 22 14 23
REMARK SMILES IDX 15 24 24 25 25 26 26 27 27 28 28 29 29 30 90 31 30 32 89 33
REMARK SMILES IDX 31 34 32 35 33 36 83 37 34 38 88 39 82 40 84 41 35 42 87 43
REMARK SMILES IDX 81 44 80 45 36 47 68 48 48 49 67 50 49 51 52 52 66 53 85 54
REMARK SMILES IDX 50 55 51 56 65 58 86 59 53 60 37 61 38 62 46 63 39 64 40 65
REMARK SMILES IDX 44 66 47 67 41 68 42 69 45 70 43 71 69 72 70 73 78 74 71 75
REMARK SMILES IDX 72 76 76 77 79 78 73 79 74 80 77 81 75 82 54 83 55 84 63 85
REMARK SMILES IDX 56 86 57 87 61 88 64 89 58 90 59 91 62 92 60 93
REMARK H PARENT 84 46 52 57
REMARK Flexibility Score: inf
ROOT
ATOM      1  C   UNL A   1      31.445  30.005  25.413  1.00  0.00     0.202 C 
ENDROOT
BRANCH   1   2
ATOM      2  O   UNL A   1      31.654  28.682  25.916  1.00  0.00    -0.374 OA
BRANCH   2   3
ATOM      3  C   UNL A   1      31.318  27.595  25.056  1.00  0.00     0.202 C 
BRANCH   3   4
ATOM      4  C   UNL A   1      30.574  26.428  25.709  1.00  0.00     0.261 C 
BRANCH   4   5
ATOM      5  O   UNL A   1      31.447  25.680  26.572  1.00  0.00    -0.460 OA
BRANCH   5   6
ATOM      6  C   UNL A   1      31.118  24.380  26.716  1.00  0.00     0.338 C 
ATOM      7  O   UNL A   1      30.077  23.946  27.185  1.00  0.00    -0.246 OA
BRANCH   6   8
ATOM      8  C   UNL A   1      32.153  23.519  26.119  1.00  0.00     0.087 C 
ATOM      9  C   UNL A   1      35.466  18.167  24.424  1.00  0.00     0.046 C 
ATOM     10  C   UNL A   1      34.524  19.326  24.641  1.00  0.00    -0.026 A 
ATOM     11  C   UNL A   1      33.157  19.180  24.321  1.00  0.00     0.045 A 
ATOM     12  C   UNL A   1      34.974  20.574  25.144  1.00  0.00    -0.004 A 
ATOM     13  Cl  UNL A   1      32.526  17.735  23.605  1.00  0.00    -0.084 Cl
ATOM     14  C   UNL A   1      32.243  20.197  24.588  1.00  0.00     0.032 A 
ATOM     15  C   UNL A   1      34.031  21.584  25.433  1.00  0.00     0.131 A 
ATOM     16  C   UNL A   1      36.429  20.869  25.418  1.00  0.00     0.049 C 
ATOM     17  C   UNL A   1      32.673  21.383  25.178  1.00  0.00     0.019 A 
ATOM     18  O   UNL A   1      34.494  22.721  26.050  1.00  0.00    -0.475 OA
ATOM     19  C   UNL A   1      31.699  22.357  25.630  1.00  0.00     0.027 C 
ATOM     20  C   UNL A   1      33.613  23.881  26.134  1.00  0.00     0.316 C 
BRANCH  20  21
ATOM     21  C   UNL A   1      34.033  24.905  25.061  1.00  0.00     0.430 C 
ATOM     22  F   UNL A   1      33.132  25.001  24.056  1.00  0.00    -0.167 F 
ATOM     23  F   UNL A   1      34.201  26.146  25.574  1.00  0.00    -0.167 F 
ATOM     24  F   UNL A   1      35.223  24.570  24.498  1.00  0.00    -0.167 F 
ENDBRANCH  20  21
ENDBRANCH   6   8
ENDBRANCH   5   6
ENDBRANCH   4   5
ENDBRANCH   3   4
ENDBRANCH   2   3
ENDBRANCH   1   2
BRANCH   1  25
ATOM     25  C   UNL A   1      31.664  31.155  26.404  1.00  0.00     0.261 C 
BRANCH  25  26
ATOM     26  O   UNL A   1      32.803  30.896  27.250  1.00  0.00    -0.460 OA
BRANCH  26  27
ATOM     27  C   UNL A   1      33.539  31.980  27.577  1.00  0.00     0.338 C 
ATOM     28  O   UNL A   1      33.145  33.128  27.740  1.00  0.00    -0.246 OA
BRANCH  27  29
ATOM     29  C   UNL A   1      34.901  31.556  27.946  1.00  0.00     0.060 A 
ATOM     30  C   UNL A   1      35.107  30.193  28.191  1.00  0.00     0.016 A 
ATOM     31  C   UNL A   1      35.942  32.473  28.108  1.00  0.00     0.016 A 
ATOM     32  C   UNL A   1      36.344  29.745  28.644  1.00  0.00     0.010 A 
ATOM     33  C   UNL A   1      37.180  32.023  28.581  1.00  0.00     0.010 A 
ATOM     34  C   UNL A   1      37.373  30.664  28.885  1.00  0.00    -0.014 A 
BRANCH  34  35
ATOM     35  C   UNL A   1      38.573  30.206  29.627  1.00  0.00     0.031 A 
ATOM     36  C   UNL A   1      38.780  30.697  31.033  1.00  0.00     0.074 A 
ATOM     37  C   UNL A   1      39.417  29.307  29.093  1.00  0.00     0.049 A 
ATOM     38  N   UNL A   1      39.717  30.384  31.892  1.00  0.00    -0.248 NA
ATOM     39  C   UNL A   1      37.793  31.661  31.545  1.00  0.00     0.031 C 
ATOM     40  C   UNL A   1      39.294  28.722  27.761  1.00  0.00     0.029 A 
ATOM     41  N   UNL A   1      40.540  28.717  29.618  1.00  0.00    -0.354 N 
ATOM     42  C   UNL A   1      39.423  31.101  33.045  1.00  0.00     0.074 A 
ATOM     43  C   UNL A   1      38.250  31.899  32.765  1.00  0.00     0.031 C 
ATOM     44  C   UNL A   1      40.297  27.848  27.574  1.00  0.00     0.029 A 
ATOM     45  C   UNL A   1      41.147  27.829  28.765  1.00  0.00     0.049 A 
ATOM     46  H   UNL A   1      40.879  28.912  30.522  1.00  0.00     0.167 HD
ATOM     47  C   UNL A   1      40.062  31.077  34.237  1.00  0.00     0.037 A 
ATOM     48  C   UNL A   1      42.266  27.093  28.927  1.00  0.00     0.037 A 
ATOM     49  C   UNL A   1      41.228  30.283  34.516  1.00  0.00     0.049 A 
ATOM     50  C   UNL A   1      43.023  27.172  30.228  1.00  0.00     0.074 A 
ATOM     51  C   UNL A   1      41.931  30.175  35.702  1.00  0.00     0.029 A 
ATOM     52  N   UNL A   1      41.865  29.467  33.595  1.00  0.00    -0.354 N 
ATOM     53  N   UNL A   1      42.718  27.822  31.325  1.00  0.00    -0.248 NA
ATOM     54  C   UNL A   1      44.284  26.418  30.311  1.00  0.00     0.031 C 
ATOM     55  C   UNL A   1      43.025  29.335  35.485  1.00  0.00     0.029 A 
ATOM     56  C   UNL A   1      42.978  28.883  34.175  1.00  0.00     0.049 A 
ATOM     57  H   UNL A   1      41.569  29.323  32.667  1.00  0.00     0.167 HD
ATOM     58  C   UNL A   1      43.737  27.548  32.228  1.00  0.00     0.074 A 
ATOM     59  C   UNL A   1      44.660  26.656  31.561  1.00  0.00     0.031 C 
ATOM     60  C   UNL A   1      43.892  28.000  33.497  1.00  0.00     0.037 A 
BRANCH  47  61
ATOM     61  C   UNL A   1      39.517  31.940  35.335  1.00  0.00     0.064 A 
ATOM     62  C   UNL A   1      38.599  31.440  36.269  1.00  0.00     0.173 A 
ATOM     63  C   UNL A   1      39.964  33.260  35.492  1.00  0.00     0.173 A 
ATOM     64  F   UNL A   1      38.134  30.186  36.155  1.00  0.00    -0.203 F 
ATOM     65  C   UNL A   1      38.134  32.236  37.312  1.00  0.00     0.198 A 
ATOM     66  C   UNL A   1      39.516  34.045  36.549  1.00  0.00     0.198 A 
ATOM     67  F   UNL A   1      40.846  33.782  34.626  1.00  0.00    -0.203 F 
ATOM     68  F   UNL A   1      37.232  31.749  38.174  1.00  0.00    -0.200 F 
ATOM     69  C   UNL A   1      38.600  33.535  37.457  1.00  0.00     0.200 A 
ATOM     70  F   UNL A   1      39.976  35.295  36.695  1.00  0.00    -0.200 F 
ATOM     71  F   UNL A   1      38.162  34.295  38.470  1.00  0.00    -0.200 F 
ENDBRANCH  47  61
BRANCH  48  72
ATOM     72  C   UNL A   1      42.739  26.216  27.825  1.00  0.00     0.064 A 
ATOM     73  C   UNL A   1      43.607  26.701  26.838  1.00  0.00     0.173 A 
ATOM     74  C   UNL A   1      42.333  24.875  27.735  1.00  0.00     0.173 A 
ATOM     75  F   UNL A   1      44.001  27.983  26.865  1.00  0.00    -0.203 F 
ATOM     76  C   UNL A   1      44.045  25.883  25.798  1.00  0.00     0.198 A 
ATOM     77  C   UNL A   1      42.792  24.051  26.710  1.00  0.00     0.198 A 
ATOM     78  F   UNL A   1      41.499  24.363  28.651  1.00  0.00    -0.203 F 
ATOM     79  F   UNL A   1      44.846  26.381  24.847  1.00  0.00    -0.200 F 
ATOM     80  C   UNL A   1      43.643  24.557  25.739  1.00  0.00     0.200 A 
ATOM     81  F   UNL A   1      42.409  22.768  26.663  1.00  0.00    -0.200 F 
ATOM     82  F   UNL A   1      44.071  23.767  24.744  1.00  0.00    -0.200 F 
ENDBRANCH  48  72
BRANCH  60  83
ATOM     83  C   UNL A   1      45.109  27.559  34.257  1.00  0.00     0.064 A 
ATOM     84  C   UNL A   1      45.114  26.359  34.982  1.00  0.00     0.173 A 
ATOM     85  C   UNL A   1      46.310  28.278  34.165  1.00  0.00     0.173 A 
ATOM     86  F   UNL A   1      43.987  25.642  35.107  1.00  0.00    -0.203 F 
ATOM     87  C   UNL A   1      46.277  25.895  35.589  1.00  0.00     0.198 A 
ATOM     88  C   UNL A   1      47.478  27.798  34.751  1.00  0.00     0.198 A 
ATOM     89  F   UNL A   1      46.359  29.428  33.475  1.00  0.00    -0.203 F 
ATOM     90  F   UNL A   1      46.255  24.755  36.292  1.00  0.00    -0.200 F 
ATOM     91  C   UNL A   1      47.461  26.608  35.462  1.00  0.00     0.200 A 
ATOM     92  F   UNL A   1      48.625  28.478  34.613  1.00  0.00    -0.200 F 
ATOM     93  F   UNL A   1      48.586  26.145  36.023  1.00  0.00    -0.200 F 
ENDBRANCH  60  83
ENDBRANCH  34  35
ENDBRANCH  27  29
ENDBRANCH  26  27
ENDBRANCH  25  26
ENDBRANCH   1  25
TORSDOF 15
ENDMDL
