MODEL 1
REMARK VINA RESULT:     -12.2      0.000      0.000
REMARK SMILES Cc1ccc(C)c(Oc2cccc(F)c2C(=O)OCCOCCOC(=O)c2ccc(-c3c4nc(c(-c5c(F)c(F)c(F)c(F)c5F)c5ccc([nH]5)c(-c5c(F)c(F)c(F)c(F)c5F)c5nc(c(-c6c(F)c(F)c(F)c(F)c6F)c6ccc3[nH]6)C=C5)C=C4)cc2)c1
REMARK SMILES IDX 21 1 20 2 19 3 18 4 16 5 17 6 15 7 9 8 10 9 11 10 13 11
REMARK SMILES IDX 12 12 14 13 8 14 7 15 1 16 2 17 3 18 90 19 4 20 5 21 6 22
REMARK SMILES IDX 22 23 23 24 24 25 25 26 26 27 27 28 28 29 89 30 29 31 88 32
REMARK SMILES IDX 30 33 31 34 32 35 82 36 33 37 87 38 81 39 83 40 34 41 86 42
REMARK SMILES IDX 80 43 79 44 35 46 67 47 47 48 66 49 48 50 51 51 65 52 84 53
REMARK SMILES IDX 49 54 50 55 64 57 85 58 52 59 36 60 37 61 45 62 38 63 39 64
REMARK SMILES IDX 43 65 46 66 40 67 41 68 44 69 42 70 68 71 69 72 77 73 70 74
REMARK SMILES IDX 71 75 75 76 78 77 72 78 73 79 76 80 74 81 53 82 54 83 62 84
REMARK SMILES IDX 55 85 56 86 60 87 63 88 57 89 58 90 61 91 59 92
REMARK H PARENT 83 45 51 56
REMARK Flexibility Score: inf
ROOT
ATOM      1  O   UNL A   1      32.305  28.321  25.443  1.00  0.00    -0.374 OA
ENDROOT
BRANCH   1   2
ATOM      2  C   UNL A   1      31.299  27.490  24.928  1.00  0.00     0.202 C 
BRANCH   2   3
ATOM      3  C   UNL A   1      31.026  26.474  26.024  1.00  0.00     0.261 C 
BRANCH   3   4
ATOM      4  O   UNL A   1      31.427  25.170  25.553  1.00  0.00    -0.459 OA
BRANCH   4   5
ATOM      5  C   UNL A   1      32.035  24.268  26.363  1.00  0.00     0.345 C 
ATOM      6  O   UNL A   1      31.666  23.852  27.446  1.00  0.00    -0.246 OA
BRANCH   5   7
ATOM      7  C   UNL A   1      33.317  23.811  25.861  1.00  0.00     0.138 A 
ATOM      8  C   UNL A   1      33.512  22.467  25.412  1.00  0.00     0.144 A 
ATOM      9  C   UNL A   1      34.767  22.178  24.881  1.00  0.00     0.048 A 
ATOM     10  C   UNL A   1      35.806  23.133  24.906  1.00  0.00     0.007 A 
ATOM     11  C   UNL A   1      34.356  24.755  25.857  1.00  0.00     0.141 A 
ATOM     12  C   UNL A   1      35.606  24.413  25.405  1.00  0.00     0.040 A 
ATOM     13  F   UNL A   1      34.192  26.026  26.260  1.00  0.00    -0.206 F 
BRANCH   8  14
ATOM     14  O   UNL A   1      32.452  21.560  25.286  1.00  0.00    -0.456 OA
BRANCH  14  15
ATOM     15  C   UNL A   1      32.531  20.267  24.755  1.00  0.00     0.130 A 
ATOM     16  C   UNL A   1      33.491  16.611  25.478  1.00  0.00     0.044 C 
ATOM     17  C   UNL A   1      32.915  17.826  24.826  1.00  0.00    -0.047 A 
ATOM     18  C   UNL A   1      32.470  17.678  23.521  1.00  0.00     0.004 A 
ATOM     19  C   UNL A   1      32.899  19.108  25.443  1.00  0.00     0.050 A 
ATOM     20  C   UNL A   1      32.159  18.807  22.795  1.00  0.00     0.007 A 
ATOM     21  C   UNL A   1      32.250  20.097  23.375  1.00  0.00    -0.008 A 
ATOM     22  C   UNL A   1      32.195  21.227  22.386  1.00  0.00     0.048 C 
ENDBRANCH  14  15
ENDBRANCH   8  14
ENDBRANCH   5   7
ENDBRANCH   4   5
ENDBRANCH   3   4
ENDBRANCH   2   3
ENDBRANCH   1   2
BRANCH   1  23
ATOM     23  C   UNL A   1      32.306  28.690  26.805  1.00  0.00     0.202 C 
BRANCH  23  24
ATOM     24  C   UNL A   1      32.648  30.165  26.860  1.00  0.00     0.261 C 
BRANCH  24  25
ATOM     25  O   UNL A   1      34.097  30.365  26.893  1.00  0.00    -0.460 OA
BRANCH  25  26
ATOM     26  C   UNL A   1      34.591  31.192  27.876  1.00  0.00     0.338 C 
ATOM     27  O   UNL A   1      34.206  32.336  28.058  1.00  0.00    -0.246 OA
BRANCH  26  28
ATOM     28  C   UNL A   1      35.778  30.567  28.578  1.00  0.00     0.060 A 
ATOM     29  C   UNL A   1      36.736  31.364  29.242  1.00  0.00     0.016 A 
ATOM     30  C   UNL A   1      36.135  29.279  28.223  1.00  0.00     0.016 A 
ATOM     31  C   UNL A   1      38.099  30.951  29.336  1.00  0.00     0.010 A 
ATOM     32  C   UNL A   1      37.491  28.959  28.211  1.00  0.00     0.010 A 
ATOM     33  C   UNL A   1      38.531  29.799  28.670  1.00  0.00    -0.014 A 
BRANCH  33  34
ATOM     34  C   UNL A   1      39.915  29.156  28.702  1.00  0.00     0.031 A 
ATOM     35  C   UNL A   1      40.127  28.879  30.135  1.00  0.00     0.074 A 
ATOM     36  C   UNL A   1      40.889  28.765  27.803  1.00  0.00     0.049 A 
ATOM     37  N   UNL A   1      40.762  29.710  30.895  1.00  0.00    -0.248 NA
ATOM     38  C   UNL A   1      39.312  27.903  30.883  1.00  0.00     0.031 C 
ATOM     39  C   UNL A   1      41.003  29.035  26.374  1.00  0.00     0.029 A 
ATOM     40  N   UNL A   1      42.030  27.954  27.954  1.00  0.00    -0.354 N 
ATOM     41  C   UNL A   1      40.676  29.143  32.144  1.00  0.00     0.074 A 
ATOM     42  C   UNL A   1      39.514  28.306  32.139  1.00  0.00     0.031 C 
ATOM     43  C   UNL A   1      41.848  28.179  25.742  1.00  0.00     0.029 A 
ATOM     44  C   UNL A   1      42.575  27.422  26.740  1.00  0.00     0.049 A 
ATOM     45  H   UNL A   1      42.427  27.765  28.835  1.00  0.00     0.167 HD
ATOM     46  C   UNL A   1      41.814  29.015  32.868  1.00  0.00     0.037 A 
ATOM     47  C   UNL A   1      43.689  26.641  26.505  1.00  0.00     0.037 A 
ATOM     48  C   UNL A   1      42.868  29.826  32.309  1.00  0.00     0.049 A 
ATOM     49  C   UNL A   1      44.620  26.992  27.590  1.00  0.00     0.074 A 
ATOM     50  C   UNL A   1      43.078  31.187  32.203  1.00  0.00     0.029 A 
ATOM     51  N   UNL A   1      43.572  29.232  31.289  1.00  0.00    -0.354 N 
ATOM     52  N   UNL A   1      45.233  28.141  27.613  1.00  0.00    -0.248 NA
ATOM     53  C   UNL A   1      44.591  26.264  28.853  1.00  0.00     0.031 C 
ATOM     54  C   UNL A   1      43.878  31.392  31.043  1.00  0.00     0.029 A 
ATOM     55  C   UNL A   1      44.223  30.158  30.510  1.00  0.00     0.049 A 
ATOM     56  H   UNL A   1      43.605  28.261  31.135  1.00  0.00     0.167 HD
ATOM     57  C   UNL A   1      45.159  28.493  28.942  1.00  0.00     0.074 A 
ATOM     58  C   UNL A   1      44.956  27.252  29.672  1.00  0.00     0.031 C 
ATOM     59  C   UNL A   1      44.890  29.780  29.288  1.00  0.00     0.037 A 
BRANCH  46  60
ATOM     60  C   UNL A   1      42.060  27.842  33.765  1.00  0.00     0.064 A 
ATOM     61  C   UNL A   1      42.857  26.725  33.420  1.00  0.00     0.173 A 
ATOM     62  C   UNL A   1      41.635  27.904  35.096  1.00  0.00     0.173 A 
ATOM     63  F   UNL A   1      43.494  26.636  32.245  1.00  0.00    -0.203 F 
ATOM     64  C   UNL A   1      43.122  25.693  34.310  1.00  0.00     0.198 A 
ATOM     65  C   UNL A   1      41.961  26.901  36.010  1.00  0.00     0.198 A 
ATOM     66  F   UNL A   1      40.938  28.962  35.534  1.00  0.00    -0.203 F 
ATOM     67  F   UNL A   1      43.852  24.644  33.908  1.00  0.00    -0.200 F 
ATOM     68  C   UNL A   1      42.685  25.787  35.612  1.00  0.00     0.200 A 
ATOM     69  F   UNL A   1      41.602  27.031  37.293  1.00  0.00    -0.200 F 
ATOM     70  F   UNL A   1      43.005  24.831  36.492  1.00  0.00    -0.200 F 
ENDBRANCH  46  60
BRANCH  47  71
ATOM     71  C   UNL A   1      44.070  25.553  25.499  1.00  0.00     0.064 A 
ATOM     72  C   UNL A   1      43.352  24.356  25.386  1.00  0.00     0.173 A 
ATOM     73  C   UNL A   1      45.392  25.480  24.986  1.00  0.00     0.173 A 
ATOM     74  F   UNL A   1      42.052  24.342  25.682  1.00  0.00    -0.203 F 
ATOM     75  C   UNL A   1      43.968  23.123  25.091  1.00  0.00     0.198 A 
ATOM     76  C   UNL A   1      46.007  24.257  24.645  1.00  0.00     0.198 A 
ATOM     77  F   UNL A   1      46.171  26.569  24.955  1.00  0.00    -0.203 F 
ATOM     78  F   UNL A   1      43.282  21.980  25.241  1.00  0.00    -0.200 F 
ATOM     79  C   UNL A   1      45.311  23.069  24.769  1.00  0.00     0.200 A 
ATOM     80  F   UNL A   1      47.311  24.225  24.333  1.00  0.00    -0.200 F 
ATOM     81  F   UNL A   1      45.941  21.890  24.643  1.00  0.00    -0.200 F 
ENDBRANCH  47  71
BRANCH  59  82
ATOM     82  C   UNL A   1      45.282  30.839  28.301  1.00  0.00     0.064 A 
ATOM     83  C   UNL A   1      46.572  31.368  28.421  1.00  0.00     0.173 A 
ATOM     84  C   UNL A   1      44.465  31.356  27.282  1.00  0.00     0.173 A 
ATOM     85  F   UNL A   1      47.390  30.922  29.386  1.00  0.00    -0.203 F 
ATOM     86  C   UNL A   1      47.027  32.368  27.570  1.00  0.00     0.198 A 
ATOM     87  C   UNL A   1      44.934  32.338  26.410  1.00  0.00     0.198 A 
ATOM     88  F   UNL A   1      43.205  30.936  27.126  1.00  0.00    -0.203 F 
ATOM     89  F   UNL A   1      48.257  32.872  27.741  1.00  0.00    -0.200 F 
ATOM     90  C   UNL A   1      46.213  32.847  26.559  1.00  0.00     0.200 A 
ATOM     91  F   UNL A   1      44.142  32.804  25.430  1.00  0.00    -0.200 F 
ATOM     92  F   UNL A   1      46.659  33.805  25.735  1.00  0.00    -0.200 F 
ENDBRANCH  59  82
ENDBRANCH  33  34
ENDBRANCH  26  28
ENDBRANCH  25  26
ENDBRANCH  24  25
ENDBRANCH  23  24
ENDBRANCH   1  23
TORSDOF 16
ENDMDL
MODEL 2
REMARK VINA RESULT:     -12.2      1.397      2.947
REMARK SMILES Cc1ccc(C)c(Oc2cccc(F)c2C(=O)OCCOCCOC(=O)c2ccc(-c3c4nc(c(-c5c(F)c(F)c(F)c(F)c5F)c5ccc([nH]5)c(-c5c(F)c(F)c(F)c(F)c5F)c5nc(c(-c6c(F)c(F)c(F)c(F)c6F)c6ccc3[nH]6)C=C5)C=C4)cc2)c1
REMARK SMILES IDX 21 1 20 2 19 3 18 4 16 5 17 6 15 7 9 8 10 9 11 10 13 11
REMARK SMILES IDX 12 12 14 13 8 14 7 15 1 16 2 17 3 18 90 19 4 20 5 21 6 22
REMARK SMILES IDX 22 23 23 24 24 25 25 26 26 27 27 28 28 29 89 30 29 31 88 32
REMARK SMILES IDX 30 33 31 34 32 35 82 36 33 37 87 38 81 39 83 40 34 41 86 42
REMARK SMILES IDX 80 43 79 44 35 46 67 47 47 48 66 49 48 50 51 51 65 52 84 53
REMARK SMILES IDX 49 54 50 55 64 57 85 58 52 59 36 60 37 61 45 62 38 63 39 64
REMARK SMILES IDX 43 65 46 66 40 67 41 68 44 69 42 70 68 71 69 72 77 73 70 74
REMARK SMILES IDX 71 75 75 76 78 77 72 78 73 79 76 80 74 81 53 82 54 83 62 84
REMARK SMILES IDX 55 85 56 86 60 87 63 88 57 89 58 90 61 91 59 92
REMARK H PARENT 83 45 51 56
REMARK Flexibility Score: inf
ROOT
ATOM      1  O   UNL A   1      32.135  29.058  27.274  1.00  0.00    -0.374 OA
ENDROOT
BRANCH   1   2
ATOM      2  C   UNL A   1      32.621  27.856  26.738  1.00  0.00     0.202 C 
BRANCH   2   3
ATOM      3  C   UNL A   1      31.409  26.942  26.659  1.00  0.00     0.261 C 
BRANCH   3   4
ATOM      4  O   UNL A   1      31.865  25.593  26.421  1.00  0.00    -0.459 OA
BRANCH   4   5
ATOM      5  C   UNL A   1      31.004  24.573  26.185  1.00  0.00     0.345 C 
ATOM      6  O   UNL A   1      29.898  24.390  26.660  1.00  0.00    -0.246 OA
BRANCH   5   7
ATOM      7  C   UNL A   1      31.534  23.561  25.290  1.00  0.00     0.138 A 
ATOM      8  C   UNL A   1      31.192  23.533  23.902  1.00  0.00     0.144 A 
ATOM      9  C   UNL A   1      31.831  22.559  23.137  1.00  0.00     0.048 A 
ATOM     10  C   UNL A   1      32.666  21.593  23.738  1.00  0.00     0.007 A 
ATOM     11  C   UNL A   1      32.386  22.606  25.867  1.00  0.00     0.141 A 
ATOM     12  C   UNL A   1      32.932  21.607  25.101  1.00  0.00     0.040 A 
ATOM     13  F   UNL A   1      32.731  22.621  27.165  1.00  0.00    -0.206 F 
BRANCH   8  14
ATOM     14  O   UNL A   1      30.456  24.557  23.292  1.00  0.00    -0.456 OA
BRANCH  14  15
ATOM     15  C   UNL A   1      30.841  25.898  23.185  1.00  0.00     0.130 A 
ATOM     16  C   UNL A   1      33.817  28.306  22.784  1.00  0.00     0.044 C 
ATOM     17  C   UNL A   1      32.425  27.761  22.826  1.00  0.00    -0.047 A 
ATOM     18  C   UNL A   1      31.395  28.690  22.829  1.00  0.00     0.004 A 
ATOM     19  C   UNL A   1      32.134  26.375  22.958  1.00  0.00     0.050 A 
ATOM     20  C   UNL A   1      30.117  28.260  23.111  1.00  0.00     0.007 A 
ATOM     21  C   UNL A   1      29.843  26.892  23.354  1.00  0.00    -0.008 A 
ATOM     22  C   UNL A   1      28.491  26.628  23.956  1.00  0.00     0.048 C 
ENDBRANCH  14  15
ENDBRANCH   8  14
ENDBRANCH   5   7
ENDBRANCH   4   5
ENDBRANCH   3   4
ENDBRANCH   2   3
ENDBRANCH   1   2
BRANCH   1  23
ATOM     23  C   UNL A   1      31.977  30.198  26.457  1.00  0.00     0.202 C 
BRANCH  23  24
ATOM     24  C   UNL A   1      32.822  31.296  27.071  1.00  0.00     0.261 C 
BRANCH  24  25
ATOM     25  O   UNL A   1      34.218  30.877  27.194  1.00  0.00    -0.460 OA
BRANCH  25  26
ATOM     26  C   UNL A   1      35.058  31.705  27.902  1.00  0.00     0.338 C 
ATOM     27  O   UNL A   1      35.003  32.924  27.863  1.00  0.00    -0.246 OA
BRANCH  26  28
ATOM     28  C   UNL A   1      36.155  30.920  28.590  1.00  0.00     0.060 A 
ATOM     29  C   UNL A   1      37.122  31.565  29.392  1.00  0.00     0.016 A 
ATOM     30  C   UNL A   1      36.447  29.657  28.107  1.00  0.00     0.016 A 
ATOM     31  C   UNL A   1      38.446  31.046  29.510  1.00  0.00     0.010 A 
ATOM     32  C   UNL A   1      37.777  29.242  28.130  1.00  0.00     0.010 A 
ATOM     33  C   UNL A   1      38.841  29.947  28.738  1.00  0.00    -0.014 A 
BRANCH  33  34
ATOM     34  C   UNL A   1      40.174  29.206  28.769  1.00  0.00     0.031 A 
ATOM     35  C   UNL A   1      40.360  28.901  30.200  1.00  0.00     0.074 A 
ATOM     36  C   UNL A   1      41.121  28.752  27.870  1.00  0.00     0.049 A 
ATOM     37  N   UNL A   1      41.051  29.679  30.969  1.00  0.00    -0.248 NA
ATOM     38  C   UNL A   1      39.474  27.982  30.938  1.00  0.00     0.031 C 
ATOM     39  C   UNL A   1      41.260  29.025  26.444  1.00  0.00     0.029 A 
ATOM     40  N   UNL A   1      42.199  27.859  28.017  1.00  0.00    -0.354 N 
ATOM     41  C   UNL A   1      40.920  29.109  32.213  1.00  0.00     0.074 A 
ATOM     42  C   UNL A   1      39.700  28.358  32.198  1.00  0.00     0.031 C 
ATOM     43  C   UNL A   1      42.042  28.115  25.807  1.00  0.00     0.029 A 
ATOM     44  C   UNL A   1      42.708  27.300  26.801  1.00  0.00     0.049 A 
ATOM     45  H   UNL A   1      42.579  27.634  28.898  1.00  0.00     0.167 HD
ATOM     46  C   UNL A   1      42.042  28.892  32.940  1.00  0.00     0.037 A 
ATOM     47  C   UNL A   1      43.764  26.441  26.562  1.00  0.00     0.037 A 
ATOM     48  C   UNL A   1      43.154  29.629  32.391  1.00  0.00     0.049 A 
ATOM     49  C   UNL A   1      44.714  26.715  27.653  1.00  0.00     0.074 A 
ATOM     50  C   UNL A   1      43.463  30.973  32.297  1.00  0.00     0.029 A 
ATOM     51  N   UNL A   1      43.818  28.994  31.369  1.00  0.00    -0.354 N 
ATOM     52  N   UNL A   1      45.409  27.817  27.689  1.00  0.00    -0.248 NA
ATOM     53  C   UNL A   1      44.627  25.980  28.910  1.00  0.00     0.031 C 
ATOM     54  C   UNL A   1      44.280  31.129  31.142  1.00  0.00     0.029 A 
ATOM     55  C   UNL A   1      44.537  29.877  30.599  1.00  0.00     0.049 A 
ATOM     56  H   UNL A   1      43.780  28.024  31.206  1.00  0.00     0.167 HD
ATOM     57  C   UNL A   1      45.356  28.162  29.020  1.00  0.00     0.074 A 
ATOM     58  C   UNL A   1      45.060  26.932  29.739  1.00  0.00     0.031 C 
ATOM     59  C   UNL A   1      45.179  29.462  29.376  1.00  0.00     0.037 A 
BRANCH  46  60
ATOM     60  C   UNL A   1      42.199  27.697  33.827  1.00  0.00     0.064 A 
ATOM     61  C   UNL A   1      42.978  26.560  33.507  1.00  0.00     0.173 A 
ATOM     62  C   UNL A   1      41.702  27.751  35.133  1.00  0.00     0.173 A 
ATOM     63  F   UNL A   1      43.677  26.469  32.368  1.00  0.00    -0.203 F 
ATOM     64  C   UNL A   1      43.158  25.505  34.392  1.00  0.00     0.198 A 
ATOM     65  C   UNL A   1      41.943  26.723  36.045  1.00  0.00     0.198 A 
ATOM     66  F   UNL A   1      41.016  28.825  35.551  1.00  0.00    -0.203 F 
ATOM     67  F   UNL A   1      43.875  24.439  34.011  1.00  0.00    -0.200 F 
ATOM     68  C   UNL A   1      42.652  25.592  35.668  1.00  0.00     0.200 A 
ATOM     69  F   UNL A   1      41.516  26.844  37.308  1.00  0.00    -0.200 F 
ATOM     70  F   UNL A   1      42.890  24.612  36.547  1.00  0.00    -0.200 F 
ENDBRANCH  46  60
BRANCH  47  71
ATOM     71  C   UNL A   1      44.069  25.337  25.549  1.00  0.00     0.064 A 
ATOM     72  C   UNL A   1      43.295  24.173  25.457  1.00  0.00     0.173 A 
ATOM     73  C   UNL A   1      45.372  25.204  25.000  1.00  0.00     0.173 A 
ATOM     74  F   UNL A   1      42.005  24.217  25.787  1.00  0.00    -0.203 F 
ATOM     75  C   UNL A   1      43.848  22.914  25.147  1.00  0.00     0.198 A 
ATOM     76  C   UNL A   1      45.922  23.955  24.645  1.00  0.00     0.198 A 
ATOM     77  F   UNL A   1      46.198  26.258  24.946  1.00  0.00    -0.203 F 
ATOM     78  F   UNL A   1      43.116  21.803  25.318  1.00  0.00    -0.200 F 
ATOM     79  C   UNL A   1      45.178  22.800  24.790  1.00  0.00     0.200 A 
ATOM     80  F   UNL A   1      47.215  23.865  24.298  1.00  0.00    -0.200 F 
ATOM     81  F   UNL A   1      45.751  21.594  24.649  1.00  0.00    -0.200 F 
ENDBRANCH  47  71
BRANCH  59  82
ATOM     82  C   UNL A   1      45.650  30.498  28.400  1.00  0.00     0.064 A 
ATOM     83  C   UNL A   1      46.997  30.871  28.476  1.00  0.00     0.173 A 
ATOM     84  C   UNL A   1      44.858  31.135  27.431  1.00  0.00     0.173 A 
ATOM     85  F   UNL A   1      47.797  30.305  29.393  1.00  0.00    -0.203 F 
ATOM     86  C   UNL A   1      47.530  31.837  27.631  1.00  0.00     0.198 A 
ATOM     87  C   UNL A   1      45.402  32.083  26.563  1.00  0.00     0.198 A 
ATOM     88  F   UNL A   1      43.553  30.868  27.320  1.00  0.00    -0.203 F 
ATOM     89  F   UNL A   1      48.816  32.192  27.759  1.00  0.00    -0.200 F 
ATOM     90  C   UNL A   1      46.736  32.437  26.669  1.00  0.00     0.200 A 
ATOM     91  F   UNL A   1      44.630  32.666  25.632  1.00  0.00    -0.200 F 
ATOM     92  F   UNL A   1      47.257  33.361  25.850  1.00  0.00    -0.200 F 
ENDBRANCH  59  82
ENDBRANCH  33  34
ENDBRANCH  26  28
ENDBRANCH  25  26
ENDBRANCH  24  25
ENDBRANCH  23  24
ENDBRANCH   1  23
TORSDOF 16
ENDMDL
MODEL 3
REMARK VINA RESULT:     -12.1      3.965      9.699
REMARK SMILES Cc1ccc(C)c(Oc2cccc(F)c2C(=O)OCCOCCOC(=O)c2ccc(-c3c4nc(c(-c5c(F)c(F)c(F)c(F)c5F)c5ccc([nH]5)c(-c5c(F)c(F)c(F)c(F)c5F)c5nc(c(-c6c(F)c(F)c(F)c(F)c6F)c6ccc3[nH]6)C=C5)C=C4)cc2)c1
REMARK SMILES IDX 21 1 20 2 19 3 18 4 16 5 17 6 15 7 9 8 10 9 11 10 13 11
REMARK SMILES IDX 12 12 14 13 8 14 7 15 1 16 2 17 3 18 90 19 4 20 5 21 6 22
REMARK SMILES IDX 22 23 23 24 24 25 25 26 26 27 27 28 28 29 89 30 29 31 88 32
REMARK SMILES IDX 30 33 31 34 32 35 82 36 33 37 87 38 81 39 83 40 34 41 86 42
REMARK SMILES IDX 80 43 79 44 35 46 67 47 47 48 66 49 48 50 51 51 65 52 84 53
REMARK SMILES IDX 49 54 50 55 64 57 85 58 52 59 36 60 37 61 45 62 38 63 39 64
REMARK SMILES IDX 43 65 46 66 40 67 41 68 44 69 42 70 68 71 69 72 77 73 70 74
REMARK SMILES IDX 71 75 75 76 78 77 72 78 73 79 76 80 74 81 53 82 54 83 62 84
REMARK SMILES IDX 55 85 56 86 60 87 63 88 57 89 58 90 61 91 59 92
REMARK H PARENT 83 45 51 56
REMARK Flexibility Score: inf
ROOT
ATOM      1  O   UNL A   1      44.166  20.520  24.458  1.00  0.00    -0.374 OA
ENDROOT
BRANCH   1   2
ATOM      2  C   UNL A   1      43.886  20.018  25.738  1.00  0.00     0.202 C 
BRANCH   2   3
ATOM      3  C   UNL A   1      42.396  19.722  25.729  1.00  0.00     0.261 C 
BRANCH   3   4
ATOM      4  O   UNL A   1      41.681  20.947  25.996  1.00  0.00    -0.459 OA
BRANCH   4   5
ATOM      5  C   UNL A   1      41.041  21.165  27.171  1.00  0.00     0.345 C 
ATOM      6  O   UNL A   1      40.776  20.364  28.049  1.00  0.00    -0.246 OA
BRANCH   5   7
ATOM      7  C   UNL A   1      40.577  22.530  27.334  1.00  0.00     0.138 A 
ATOM      8  C   UNL A   1      39.401  23.008  26.675  1.00  0.00     0.144 A 
ATOM      9  C   UNL A   1      39.020  24.313  26.978  1.00  0.00     0.048 A 
ATOM     10  C   UNL A   1      39.826  25.137  27.793  1.00  0.00     0.007 A 
ATOM     11  C   UNL A   1      41.354  23.357  28.161  1.00  0.00     0.141 A 
ATOM     12  C   UNL A   1      40.997  24.665  28.371  1.00  0.00     0.040 A 
ATOM     13  F   UNL A   1      42.454  22.926  28.801  1.00  0.00    -0.206 F 
BRANCH   8  14
ATOM     14  O   UNL A   1      38.547  22.157  25.960  1.00  0.00    -0.456 OA
BRANCH  14  15
ATOM     15  C   UNL A   1      37.262  22.472  25.505  1.00  0.00     0.130 A 
ATOM     16  C   UNL A   1      34.520  25.171  25.408  1.00  0.00     0.044 C 
ATOM     17  C   UNL A   1      35.313  23.940  25.109  1.00  0.00    -0.047 A 
ATOM     18  C   UNL A   1      34.682  22.964  24.351  1.00  0.00     0.004 A 
ATOM     19  C   UNL A   1      36.612  23.701  25.639  1.00  0.00     0.050 A 
ATOM     20  C   UNL A   1      35.268  21.722  24.252  1.00  0.00     0.007 A 
ATOM     21  C   UNL A   1      36.511  21.447  24.874  1.00  0.00    -0.008 A 
ATOM     22  C   UNL A   1      36.857  19.987  24.950  1.00  0.00     0.048 C 
ENDBRANCH  14  15
ENDBRANCH   8  14
ENDBRANCH   5   7
ENDBRANCH   4   5
ENDBRANCH   3   4
ENDBRANCH   2   3
ENDBRANCH   1   2
BRANCH   1  23
ATOM     23  C   UNL A   1      45.248  21.400  24.251  1.00  0.00     0.202 C 
BRANCH  23  24
ATOM     24  C   UNL A   1      45.093  22.528  25.251  1.00  0.00     0.261 C 
BRANCH  24  25
ATOM     25  O   UNL A   1      44.338  23.640  24.675  1.00  0.00    -0.460 OA
BRANCH  25  26
ATOM     26  C   UNL A   1      44.735  24.911  25.021  1.00  0.00     0.338 C 
ATOM     27  O   UNL A   1      45.830  25.378  24.750  1.00  0.00    -0.246 OA
BRANCH  26  28
ATOM     28  C   UNL A   1      43.717  25.583  25.917  1.00  0.00     0.060 A 
ATOM     29  C   UNL A   1      42.585  26.232  25.378  1.00  0.00     0.016 A 
ATOM     30  C   UNL A   1      44.105  25.911  27.204  1.00  0.00     0.016 A 
ATOM     31  C   UNL A   1      41.998  27.355  26.036  1.00  0.00     0.010 A 
ATOM     32  C   UNL A   1      43.600  27.085  27.758  1.00  0.00     0.010 A 
ATOM     33  C   UNL A   1      42.608  27.903  27.170  1.00  0.00    -0.014 A 
BRANCH  33  34
ATOM     34  C   UNL A   1      42.107  29.046  28.049  1.00  0.00     0.031 A 
ATOM     35  C   UNL A   1      43.100  30.111  27.818  1.00  0.00     0.074 A 
ATOM     36  C   UNL A   1      41.034  29.313  28.877  1.00  0.00     0.049 A 
ATOM     37  N   UNL A   1      44.113  30.270  28.607  1.00  0.00    -0.248 NA
ATOM     38  C   UNL A   1      43.266  30.773  26.509  1.00  0.00     0.031 C 
ATOM     39  C   UNL A   1      40.000  28.417  29.384  1.00  0.00     0.029 A 
ATOM     40  N   UNL A   1      40.566  30.513  29.444  1.00  0.00    -0.354 N 
ATOM     41  C   UNL A   1      44.829  31.286  28.020  1.00  0.00     0.074 A 
ATOM     42  C   UNL A   1      44.496  31.275  26.627  1.00  0.00     0.031 C 
ATOM     43  C   UNL A   1      38.901  29.079  29.829  1.00  0.00     0.029 A 
ATOM     44  C   UNL A   1      39.207  30.493  29.900  1.00  0.00     0.049 A 
ATOM     45  H   UNL A   1      41.134  31.314  29.523  1.00  0.00     0.167 HD
ATOM     46  C   UNL A   1      45.214  32.329  28.794  1.00  0.00     0.037 A 
ATOM     47  C   UNL A   1      38.443  31.452  30.534  1.00  0.00     0.037 A 
ATOM     48  C   UNL A   1      45.083  32.000  30.193  1.00  0.00     0.049 A 
ATOM     49  C   UNL A   1      39.416  32.261  31.286  1.00  0.00     0.074 A 
ATOM     50  C   UNL A   1      45.733  31.122  31.037  1.00  0.00     0.029 A 
ATOM     51  N   UNL A   1      43.829  32.206  30.717  1.00  0.00    -0.354 N 
ATOM     52  N   UNL A   1      40.005  31.796  32.351  1.00  0.00    -0.248 NA
ATOM     53  C   UNL A   1      40.047  33.421  30.669  1.00  0.00     0.031 C 
ATOM     54  C   UNL A   1      44.801  30.756  32.049  1.00  0.00     0.029 A 
ATOM     55  C   UNL A   1      43.631  31.481  31.867  1.00  0.00     0.049 A 
ATOM     56  H   UNL A   1      43.155  32.801  30.316  1.00  0.00     0.167 HD
ATOM     57  C   UNL A   1      41.301  32.235  32.193  1.00  0.00     0.074 A 
ATOM     58  C   UNL A   1      41.228  33.372  31.288  1.00  0.00     0.031 C 
ATOM     59  C   UNL A   1      42.337  31.412  32.502  1.00  0.00     0.037 A 
BRANCH  46  60
ATOM     60  C   UNL A   1      45.262  33.732  28.274  1.00  0.00     0.064 A 
ATOM     61  C   UNL A   1      46.434  34.371  27.806  1.00  0.00     0.173 A 
ATOM     62  C   UNL A   1      44.062  34.419  28.062  1.00  0.00     0.173 A 
ATOM     63  F   UNL A   1      47.620  33.750  27.762  1.00  0.00    -0.203 F 
ATOM     64  C   UNL A   1      46.420  35.648  27.261  1.00  0.00     0.198 A 
ATOM     65  C   UNL A   1      44.042  35.673  27.450  1.00  0.00     0.198 A 
ATOM     66  F   UNL A   1      42.893  33.859  28.405  1.00  0.00    -0.203 F 
ATOM     67  F   UNL A   1      47.572  36.213  26.873  1.00  0.00    -0.200 F 
ATOM     68  C   UNL A   1      45.221  36.295  27.070  1.00  0.00     0.200 A 
ATOM     69  F   UNL A   1      42.869  36.267  27.195  1.00  0.00    -0.200 F 
ATOM     70  F   UNL A   1      45.199  37.494  26.474  1.00  0.00    -0.200 F 
ENDBRANCH  46  60
BRANCH  47  71
ATOM     71  C   UNL A   1      36.963  31.840  30.545  1.00  0.00     0.064 A 
ATOM     72  C   UNL A   1      36.401  32.667  29.564  1.00  0.00     0.173 A 
ATOM     73  C   UNL A   1      36.216  31.792  31.751  1.00  0.00     0.173 A 
ATOM     74  F   UNL A   1      36.918  32.670  28.336  1.00  0.00    -0.203 F 
ATOM     75  C   UNL A   1      35.381  33.598  29.847  1.00  0.00     0.198 A 
ATOM     76  C   UNL A   1      35.165  32.690  32.030  1.00  0.00     0.198 A 
ATOM     77  F   UNL A   1      36.590  30.982  32.751  1.00  0.00    -0.203 F 
ATOM     78  F   UNL A   1      35.058  34.531  28.938  1.00  0.00    -0.200 F 
ATOM     79  C   UNL A   1      34.798  33.643  31.099  1.00  0.00     0.200 A 
ATOM     80  F   UNL A   1      34.610  32.716  33.251  1.00  0.00    -0.200 F 
ATOM     81  F   UNL A   1      33.944  34.626  31.425  1.00  0.00    -0.200 F 
ENDBRANCH  47  71
BRANCH  59  82
ATOM     82  C   UNL A   1      42.074  30.355  33.533  1.00  0.00     0.064 A 
ATOM     83  C   UNL A   1      42.258  30.719  34.872  1.00  0.00     0.173 A 
ATOM     84  C   UNL A   1      41.679  29.033  33.273  1.00  0.00     0.173 A 
ATOM     85  F   UNL A   1      42.649  31.966  35.178  1.00  0.00    -0.203 F 
ATOM     86  C   UNL A   1      42.061  29.810  35.904  1.00  0.00     0.198 A 
ATOM     87  C   UNL A   1      41.452  28.129  34.311  1.00  0.00     0.198 A 
ATOM     88  F   UNL A   1      41.523  28.592  32.020  1.00  0.00    -0.203 F 
ATOM     89  F   UNL A   1      42.280  30.189  37.170  1.00  0.00    -0.200 F 
ATOM     90  C   UNL A   1      41.649  28.518  35.626  1.00  0.00     0.200 A 
ATOM     91  F   UNL A   1      41.056  26.876  34.041  1.00  0.00    -0.200 F 
ATOM     92  F   UNL A   1      41.452  27.647  36.625  1.00  0.00    -0.200 F 
ENDBRANCH  59  82
ENDBRANCH  33  34
ENDBRANCH  26  28
ENDBRANCH  25  26
ENDBRANCH  24  25
ENDBRANCH  23  24
ENDBRANCH   1  23
TORSDOF 16
ENDMDL
