MODEL 1
REMARK VINA RESULT:     -12.7      0.000      0.000
REMARK SMILES CCc1ccc2c(CC(=O)OCCOCCOC(=O)c3ccc(-c4c5nc(c(-c6c(F)c(F)c(F)c(F)c6F)c6ccc([nH]6)c(-c6c(F)c(F)c(F)c(F)c6F)c6nc(c(-c7c(F)c(F)c(F)c(F)c7F)c7ccc4[nH]7)C=C6)C=C5)cc3)c(C(=O)c3cc(C)ccn3)[nH]c2c1
REMARK SMILES IDX 13 1 12 2 11 3 9 4 10 5 8 6 7 7 3 8 4 9 95 10 5 11 94 12
REMARK SMILES IDX 6 13 93 14 83 15 2 17 1 18 84 19 85 20 86 21 87 22 92 23
REMARK SMILES IDX 88 24 91 25 89 26 90 27 14 28 15 29 16 30 17 31 18 32 19 33
REMARK SMILES IDX 20 34 21 35 82 36 22 37 81 38 23 39 24 40 25 41 75 42 26 43
REMARK SMILES IDX 80 44 74 45 76 46 27 47 79 48 73 49 72 50 28 52 60 53 40 54
REMARK SMILES IDX 59 55 41 56 44 57 58 58 77 59 42 60 43 61 57 63 78 64 45 65
REMARK SMILES IDX 29 66 30 67 38 68 31 69 32 70 36 71 39 72 33 73 34 74 37 75
REMARK SMILES IDX 35 76 61 77 62 78 70 79 63 80 64 81 68 82 71 83 65 84 66 85
REMARK SMILES IDX 69 86 67 87 46 88 47 89 55 90 48 91 49 92 53 93 56 94 50 95
REMARK SMILES IDX 51 96 54 97 52 98
REMARK H PARENT 93 16 76 51 44 62
REMARK Flexibility Score: inf
ROOT
ATOM      1  C   UNL A   1      32.526  28.773  25.441  1.00  0.00     0.202 C 
ENDROOT
BRANCH   1   2
ATOM      2  C   UNL A   1      32.948  27.397  25.977  1.00  0.00     0.261 C 
BRANCH   2   3
ATOM      3  O   UNL A   1      33.795  26.659  25.071  1.00  0.00    -0.463 OA
BRANCH   3   4
ATOM      4  C   UNL A   1      33.933  25.337  25.371  1.00  0.00     0.310 C 
ATOM      5  O   UNL A   1      33.410  24.800  26.346  1.00  0.00    -0.252 OA
BRANCH   4   6
ATOM      6  C   UNL A   1      34.669  24.523  24.325  1.00  0.00     0.161 C 
BRANCH   6   7
ATOM      7  C   UNL A   1      33.868  23.549  23.503  1.00  0.00     0.000 A 
ATOM      8  C   UNL A   1      32.838  19.493  24.063  1.00  0.00    -0.046 A 
ATOM      9  C   UNL A   1      33.791  20.007  24.949  1.00  0.00     0.004 A 
ATOM     10  C   UNL A   1      32.369  20.286  23.002  1.00  0.00     0.030 A 
ATOM     11  C   UNL A   1      34.258  21.321  24.826  1.00  0.00     0.011 A 
ATOM     12  C   UNL A   1      32.828  21.608  22.916  1.00  0.00     0.046 A 
ATOM     13  C   UNL A   1      33.739  22.152  23.813  1.00  0.00     0.004 A 
ATOM     14  N   UNL A   1      32.495  22.603  22.029  1.00  0.00    -0.352 N 
ATOM     15  C   UNL A   1      32.980  23.825  22.454  1.00  0.00     0.093 A 
ATOM     16  H   UNL A   1      31.981  22.464  21.202  1.00  0.00     0.167 HD
BRANCH   8  17
ATOM     17  C   UNL A   1      32.260  18.116  24.289  1.00  0.00     0.032 C 
ATOM     18  C   UNL A   1      33.357  17.068  24.440  1.00  0.00     0.009 C 
ENDBRANCH   8  17
BRANCH  15  19
ATOM     19  C   UNL A   1      32.586  25.118  21.889  1.00  0.00     0.227 C 
ATOM     20  O   UNL A   1      33.108  25.601  20.886  1.00  0.00    -0.285 OA
BRANCH  19  21
ATOM     21  C   UNL A   1      31.464  25.887  22.510  1.00  0.00     0.113 A 
ATOM     22  C   UNL A   1      31.206  27.209  22.175  1.00  0.00     0.036 A 
ATOM     23  N   UNL A   1      30.734  25.194  23.421  1.00  0.00    -0.253 NA
ATOM     24  C   UNL A   1      30.154  27.859  22.834  1.00  0.00    -0.047 A 
ATOM     25  C   UNL A   1      29.736  25.840  24.049  1.00  0.00     0.112 A 
ATOM     26  C   UNL A   1      29.785  29.278  22.522  1.00  0.00     0.044 C 
ATOM     27  C   UNL A   1      29.415  27.158  23.794  1.00  0.00     0.023 A 
ENDBRANCH  19  21
ENDBRANCH  15  19
ENDBRANCH   6   7
ENDBRANCH   4   6
ENDBRANCH   3   4
ENDBRANCH   2   3
ENDBRANCH   1   2
BRANCH   1  28
ATOM     28  O   UNL A   1      31.567  29.505  26.204  1.00  0.00    -0.374 OA
BRANCH  28  29
ATOM     29  C   UNL A   1      31.255  30.823  25.763  1.00  0.00     0.202 C 
BRANCH  29  30
ATOM     30  C   UNL A   1      31.765  31.977  26.627  1.00  0.00     0.261 C 
BRANCH  30  31
ATOM     31  O   UNL A   1      32.834  31.641  27.514  1.00  0.00    -0.460 OA
BRANCH  31  32
ATOM     32  C   UNL A   1      33.669  32.658  27.786  1.00  0.00     0.338 C 
ATOM     33  O   UNL A   1      33.409  33.853  27.913  1.00  0.00    -0.246 OA
BRANCH  32  34
ATOM     34  C   UNL A   1      35.009  32.124  28.006  1.00  0.00     0.060 A 
ATOM     35  C   UNL A   1      35.147  30.742  28.162  1.00  0.00     0.016 A 
ATOM     36  C   UNL A   1      36.086  32.991  28.202  1.00  0.00     0.016 A 
ATOM     37  C   UNL A   1      36.362  30.226  28.597  1.00  0.00     0.010 A 
ATOM     38  C   UNL A   1      37.306  32.470  28.632  1.00  0.00     0.010 A 
ATOM     39  C   UNL A   1      37.428  31.093  28.884  1.00  0.00    -0.014 A 
BRANCH  39  40
ATOM     40  C   UNL A   1      38.594  30.559  29.620  1.00  0.00     0.031 A 
ATOM     41  C   UNL A   1      38.789  30.957  31.056  1.00  0.00     0.074 A 
ATOM     42  C   UNL A   1      39.413  29.668  29.035  1.00  0.00     0.049 A 
ATOM     43  N   UNL A   1      39.672  30.537  31.924  1.00  0.00    -0.248 NA
ATOM     44  C   UNL A   1      37.857  31.967  31.589  1.00  0.00     0.031 C 
ATOM     45  C   UNL A   1      39.300  29.205  27.654  1.00  0.00     0.029 A 
ATOM     46  N   UNL A   1      40.488  28.983  29.538  1.00  0.00    -0.354 N 
ATOM     47  C   UNL A   1      39.399  31.221  33.102  1.00  0.00     0.074 A 
ATOM     48  C   UNL A   1      38.297  32.116  32.829  1.00  0.00     0.031 C 
ATOM     49  C   UNL A   1      40.262  28.296  27.421  1.00  0.00     0.029 A 
ATOM     50  C   UNL A   1      41.061  28.127  28.633  1.00  0.00     0.049 A 
ATOM     51  H   UNL A   1      40.817  29.096  30.459  1.00  0.00     0.167 HD
ATOM     52  C   UNL A   1      40.004  31.098  34.307  1.00  0.00     0.037 A 
ATOM     53  C   UNL A   1      42.108  27.294  28.779  1.00  0.00     0.037 A 
ATOM     54  C   UNL A   1      41.102  30.206  34.567  1.00  0.00     0.049 A 
ATOM     55  C   UNL A   1      42.780  27.194  30.123  1.00  0.00     0.074 A 
ATOM     56  C   UNL A   1      41.794  30.004  35.748  1.00  0.00     0.029 A 
ATOM     57  N   UNL A   1      41.669  29.365  33.621  1.00  0.00    -0.354 N 
ATOM     58  N   UNL A   1      42.495  27.820  31.239  1.00  0.00    -0.248 NA
ATOM     59  C   UNL A   1      43.906  26.258  30.230  1.00  0.00     0.031 C 
ATOM     60  C   UNL A   1      42.805  29.066  35.505  1.00  0.00     0.029 A 
ATOM     61  C   UNL A   1      42.712  28.651  34.186  1.00  0.00     0.049 A 
ATOM     62  H   UNL A   1      41.374  29.288  32.684  1.00  0.00     0.167 HD
ATOM     63  C   UNL A   1      43.386  27.335  32.187  1.00  0.00     0.074 A 
ATOM     64  C   UNL A   1      44.210  26.350  31.516  1.00  0.00     0.031 C 
ATOM     65  C   UNL A   1      43.512  27.671  33.495  1.00  0.00     0.037 A 
BRANCH  52  66
ATOM     66  C   UNL A   1      39.497  31.963  35.424  1.00  0.00     0.064 A 
ATOM     67  C   UNL A   1      38.558  31.488  36.354  1.00  0.00     0.173 A 
ATOM     68  C   UNL A   1      39.961  33.277  35.575  1.00  0.00     0.173 A 
ATOM     69  F   UNL A   1      38.069  30.244  36.245  1.00  0.00    -0.203 F 
ATOM     70  C   UNL A   1      38.084  32.307  37.376  1.00  0.00     0.198 A 
ATOM     71  C   UNL A   1      39.505  34.085  36.614  1.00  0.00     0.198 A 
ATOM     72  F   UNL A   1      40.858  33.781  34.714  1.00  0.00    -0.203 F 
ATOM     73  F   UNL A   1      37.152  31.849  38.223  1.00  0.00    -0.200 F 
ATOM     74  C   UNL A   1      38.561  33.602  37.508  1.00  0.00     0.200 A 
ATOM     75  F   UNL A   1      39.972  35.334  36.744  1.00  0.00    -0.200 F 
ATOM     76  F   UNL A   1      38.104  34.390  38.492  1.00  0.00    -0.200 F 
ENDBRANCH  52  66
BRANCH  53  77
ATOM     77  C   UNL A   1      42.560  26.469  27.630  1.00  0.00     0.064 A 
ATOM     78  C   UNL A   1      43.564  26.921  26.761  1.00  0.00     0.173 A 
ATOM     79  C   UNL A   1      41.999  25.209  27.378  1.00  0.00     0.173 A 
ATOM     80  F   UNL A   1      44.117  28.128  26.949  1.00  0.00    -0.203 F 
ATOM     81  C   UNL A   1      43.978  26.151  25.677  1.00  0.00     0.198 A 
ATOM     82  C   UNL A   1      42.432  24.427  26.308  1.00  0.00     0.198 A 
ATOM     83  F   UNL A   1      41.037  24.729  28.180  1.00  0.00    -0.203 F 
ATOM     84  F   UNL A   1      44.910  26.624  24.838  1.00  0.00    -0.200 F 
ATOM     85  C   UNL A   1      43.415  24.902  25.455  1.00  0.00     0.200 A 
ATOM     86  F   UNL A   1      41.895  23.217  26.105  1.00  0.00    -0.200 F 
ATOM     87  F   UNL A   1      43.818  24.160  24.414  1.00  0.00    -0.200 F 
ENDBRANCH  53  77
BRANCH  65  88
ATOM     88  C   UNL A   1      44.553  26.940  34.289  1.00  0.00     0.064 A 
ATOM     89  C   UNL A   1      45.857  27.437  34.425  1.00  0.00     0.173 A 
ATOM     90  C   UNL A   1      44.233  25.741  34.943  1.00  0.00     0.173 A 
ATOM     91  F   UNL A   1      46.215  28.573  33.808  1.00  0.00    -0.203 F 
ATOM     92  C   UNL A   1      46.814  26.741  35.160  1.00  0.00     0.198 A 
ATOM     93  C   UNL A   1      45.184  25.063  35.701  1.00  0.00     0.198 A 
ATOM     94  F   UNL A   1      42.996  25.229  34.851  1.00  0.00    -0.203 F 
ATOM     95  F   UNL A   1      48.068  27.207  35.233  1.00  0.00    -0.200 F 
ATOM     96  C   UNL A   1      46.475  25.559  35.801  1.00  0.00     0.200 A 
ATOM     97  F   UNL A   1      44.851  23.927  36.330  1.00  0.00    -0.200 F 
ATOM     98  F   UNL A   1      47.396  24.892  36.509  1.00  0.00    -0.200 F 
ENDBRANCH  65  88
ENDBRANCH  39  40
ENDBRANCH  32  34
ENDBRANCH  31  32
ENDBRANCH  30  31
ENDBRANCH  29  30
ENDBRANCH  28  29
ENDBRANCH   1  28
TORSDOF 18
ENDMDL
MODEL 2
REMARK VINA RESULT:     -12.3      1.325      4.022
REMARK SMILES CCc1ccc2c(CC(=O)OCCOCCOC(=O)c3ccc(-c4c5nc(c(-c6c(F)c(F)c(F)c(F)c6F)c6ccc([nH]6)c(-c6c(F)c(F)c(F)c(F)c6F)c6nc(c(-c7c(F)c(F)c(F)c(F)c7F)c7ccc4[nH]7)C=C6)C=C5)cc3)c(C(=O)c3cc(C)ccn3)[nH]c2c1
REMARK SMILES IDX 13 1 12 2 11 3 9 4 10 5 8 6 7 7 3 8 4 9 95 10 5 11 94 12
REMARK SMILES IDX 6 13 93 14 83 15 2 17 1 18 84 19 85 20 86 21 87 22 92 23
REMARK SMILES IDX 88 24 91 25 89 26 90 27 14 28 15 29 16 30 17 31 18 32 19 33
REMARK SMILES IDX 20 34 21 35 82 36 22 37 81 38 23 39 24 40 25 41 75 42 26 43
REMARK SMILES IDX 80 44 74 45 76 46 27 47 79 48 73 49 72 50 28 52 60 53 40 54
REMARK SMILES IDX 59 55 41 56 44 57 58 58 77 59 42 60 43 61 57 63 78 64 45 65
REMARK SMILES IDX 29 66 30 67 38 68 31 69 32 70 36 71 39 72 33 73 34 74 37 75
REMARK SMILES IDX 35 76 61 77 62 78 70 79 63 80 64 81 68 82 71 83 65 84 66 85
REMARK SMILES IDX 69 86 67 87 46 88 47 89 55 90 48 91 49 92 53 93 56 94 50 95
REMARK SMILES IDX 51 96 54 97 52 98
REMARK H PARENT 93 16 76 51 44 62
REMARK Flexibility Score: inf
ROOT
ATOM      1  C   UNL A   1      32.263  28.739  26.693  1.00  0.00     0.202 C 
ENDROOT
BRANCH   1   2
ATOM      2  C   UNL A   1      31.206  27.648  26.920  1.00  0.00     0.261 C 
BRANCH   2   3
ATOM      3  O   UNL A   1      31.495  26.412  26.235  1.00  0.00    -0.463 OA
BRANCH   3   4
ATOM      4  C   UNL A   1      30.399  25.750  25.767  1.00  0.00     0.310 C 
ATOM      5  O   UNL A   1      29.467  25.383  26.482  1.00  0.00    -0.252 OA
BRANCH   4   6
ATOM      6  C   UNL A   1      30.332  25.622  24.259  1.00  0.00     0.161 C 
BRANCH   6   7
ATOM      7  C   UNL A   1      30.652  26.842  23.436  1.00  0.00     0.000 A 
ATOM      8  C   UNL A   1      28.374  30.209  22.294  1.00  0.00    -0.046 A 
ATOM      9  C   UNL A   1      27.659  29.163  22.886  1.00  0.00     0.004 A 
ATOM     10  C   UNL A   1      29.743  30.052  22.018  1.00  0.00     0.030 A 
ATOM     11  C   UNL A   1      28.294  27.969  23.253  1.00  0.00     0.011 A 
ATOM     12  C   UNL A   1      30.364  28.862  22.420  1.00  0.00     0.046 A 
ATOM     13  C   UNL A   1      29.682  27.829  23.050  1.00  0.00     0.004 A 
ATOM     14  N   UNL A   1      31.679  28.475  22.328  1.00  0.00    -0.352 N 
ATOM     15  C   UNL A   1      31.913  27.337  23.075  1.00  0.00     0.093 A 
ATOM     16  H   UNL A   1      32.363  28.946  21.799  1.00  0.00     0.167 HD
BRANCH   8  17
ATOM     17  C   UNL A   1      27.695  31.530  22.020  1.00  0.00     0.032 C 
ATOM     18  C   UNL A   1      27.985  32.023  20.606  1.00  0.00     0.009 C 
ENDBRANCH   8  17
BRANCH  15  19
ATOM     19  C   UNL A   1      33.242  26.817  23.404  1.00  0.00     0.227 C 
ATOM     20  O   UNL A   1      34.169  27.531  23.781  1.00  0.00    -0.285 OA
BRANCH  19  21
ATOM     21  C   UNL A   1      33.499  25.345  23.339  1.00  0.00     0.113 A 
ATOM     22  C   UNL A   1      33.976  24.634  24.431  1.00  0.00     0.036 A 
ATOM     23  N   UNL A   1      33.235  24.774  22.136  1.00  0.00    -0.253 NA
ATOM     24  C   UNL A   1      34.219  23.264  24.265  1.00  0.00    -0.047 A 
ATOM     25  C   UNL A   1      33.485  23.460  21.996  1.00  0.00     0.112 A 
ATOM     26  C   UNL A   1      34.712  22.409  25.393  1.00  0.00     0.044 C 
ATOM     27  C   UNL A   1      33.975  22.674  23.020  1.00  0.00     0.023 A 
ENDBRANCH  19  21
ENDBRANCH  15  19
ENDBRANCH   6   7
ENDBRANCH   4   6
ENDBRANCH   3   4
ENDBRANCH   2   3
ENDBRANCH   1   2
BRANCH   1  28
ATOM     28  O   UNL A   1      32.026  30.013  27.293  1.00  0.00    -0.374 OA
BRANCH  28  29
ATOM     29  C   UNL A   1      31.766  31.105  26.416  1.00  0.00     0.202 C 
BRANCH  29  30
ATOM     30  C   UNL A   1      31.766  32.502  27.038  1.00  0.00     0.261 C 
BRANCH  30  31
ATOM     31  O   UNL A   1      33.021  33.185  26.990  1.00  0.00    -0.460 OA
BRANCH  31  32
ATOM     32  C   UNL A   1      33.523  33.508  28.194  1.00  0.00     0.338 C 
ATOM     33  O   UNL A   1      33.018  34.201  29.075  1.00  0.00    -0.246 OA
BRANCH  32  34
ATOM     34  C   UNL A   1      34.798  32.822  28.374  1.00  0.00     0.060 A 
ATOM     35  C   UNL A   1      34.773  31.472  28.732  1.00  0.00     0.016 A 
ATOM     36  C   UNL A   1      35.994  33.544  28.335  1.00  0.00     0.016 A 
ATOM     37  C   UNL A   1      35.950  30.853  29.132  1.00  0.00     0.010 A 
ATOM     38  C   UNL A   1      37.175  32.918  28.731  1.00  0.00     0.010 A 
ATOM     39  C   UNL A   1      37.145  31.588  29.184  1.00  0.00    -0.014 A 
BRANCH  39  40
ATOM     40  C   UNL A   1      38.306  31.001  29.886  1.00  0.00     0.031 A 
ATOM     41  C   UNL A   1      38.526  31.345  31.333  1.00  0.00     0.074 A 
ATOM     42  C   UNL A   1      39.096  30.112  29.262  1.00  0.00     0.049 A 
ATOM     43  N   UNL A   1      39.408  30.875  32.176  1.00  0.00    -0.248 NA
ATOM     44  C   UNL A   1      37.625  32.358  31.911  1.00  0.00     0.031 C 
ATOM     45  C   UNL A   1      38.956  29.699  27.867  1.00  0.00     0.029 A 
ATOM     46  N   UNL A   1      40.159  29.385  29.729  1.00  0.00    -0.354 N 
ATOM     47  C   UNL A   1      39.165  31.524  33.379  1.00  0.00     0.074 A 
ATOM     48  C   UNL A   1      38.081  32.454  33.151  1.00  0.00     0.031 C 
ATOM     49  C   UNL A   1      39.893  28.776  27.592  1.00  0.00     0.029 A 
ATOM     50  C   UNL A   1      40.702  28.546  28.788  1.00  0.00     0.049 A 
ATOM     51  H   UNL A   1      40.501  29.458  30.649  1.00  0.00     0.167 HD
ATOM     52  C   UNL A   1      39.779  31.345  34.573  1.00  0.00     0.037 A 
ATOM     53  C   UNL A   1      41.730  27.684  28.893  1.00  0.00     0.037 A 
ATOM     54  C   UNL A   1      40.859  30.418  34.789  1.00  0.00     0.049 A 
ATOM     55  C   UNL A   1      42.413  27.522  30.225  1.00  0.00     0.074 A 
ATOM     56  C   UNL A   1      41.558  30.159  35.954  1.00  0.00     0.029 A 
ATOM     57  N   UNL A   1      41.395  29.597  33.807  1.00  0.00    -0.354 N 
ATOM     58  N   UNL A   1      42.156  28.115  31.365  1.00  0.00    -0.248 NA
ATOM     59  C   UNL A   1      43.517  26.556  30.287  1.00  0.00     0.031 C 
ATOM     60  C   UNL A   1      42.544  29.206  35.667  1.00  0.00     0.029 A 
ATOM     61  C   UNL A   1      42.426  28.839  34.336  1.00  0.00     0.049 A 
ATOM     62  H   UNL A   1      41.087  29.560  32.872  1.00  0.00     0.167 HD
ATOM     63  C   UNL A   1      43.045  27.577  32.285  1.00  0.00     0.074 A 
ATOM     64  C   UNL A   1      43.838  26.596  31.571  1.00  0.00     0.031 C 
ATOM     65  C   UNL A   1      43.194  27.864  33.603  1.00  0.00     0.037 A 
BRANCH  52  66
ATOM     66  C   UNL A   1      39.306  32.182  35.724  1.00  0.00     0.064 A 
ATOM     67  C   UNL A   1      39.787  33.484  35.934  1.00  0.00     0.173 A 
ATOM     68  C   UNL A   1      38.353  31.684  36.623  1.00  0.00     0.173 A 
ATOM     69  F   UNL A   1      40.713  34.002  35.112  1.00  0.00    -0.203 F 
ATOM     70  C   UNL A   1      39.351  34.244  37.016  1.00  0.00     0.198 A 
ATOM     71  C   UNL A   1      37.899  32.456  37.690  1.00  0.00     0.198 A 
ATOM     72  F   UNL A   1      37.860  30.446  36.470  1.00  0.00    -0.203 F 
ATOM     73  F   UNL A   1      39.860  35.467  37.225  1.00  0.00    -0.200 F 
ATOM     74  C   UNL A   1      38.404  33.733  37.890  1.00  0.00     0.200 A 
ATOM     75  F   UNL A   1      36.979  31.963  38.530  1.00  0.00    -0.200 F 
ATOM     76  F   UNL A   1      37.985  34.464  38.932  1.00  0.00    -0.200 F 
ENDBRANCH  52  66
BRANCH  53  77
ATOM     77  C   UNL A   1      42.149  26.889  27.711  1.00  0.00     0.064 A 
ATOM     78  C   UNL A   1      43.089  27.386  26.797  1.00  0.00     0.173 A 
ATOM     79  C   UNL A   1      41.619  25.612  27.473  1.00  0.00     0.173 A 
ATOM     80  F   UNL A   1      43.608  28.610  26.971  1.00  0.00    -0.203 F 
ATOM     81  C   UNL A   1      43.471  26.643  25.682  1.00  0.00     0.198 A 
ATOM     82  C   UNL A   1      42.022  24.858  26.371  1.00  0.00     0.198 A 
ATOM     83  F   UNL A   1      40.719  25.090  28.318  1.00  0.00    -0.203 F 
ATOM     84  F   UNL A   1      44.340  27.159  24.802  1.00  0.00    -0.200 F 
ATOM     85  C   UNL A   1      42.942  25.378  25.474  1.00  0.00     0.200 A 
ATOM     86  F   UNL A   1      41.518  23.632  26.181  1.00  0.00    -0.200 F 
ATOM     87  F   UNL A   1      43.314  24.662  24.403  1.00  0.00    -0.200 F 
ENDBRANCH  53  77
BRANCH  65  88
ATOM     88  C   UNL A   1      44.225  27.081  34.358  1.00  0.00     0.064 A 
ATOM     89  C   UNL A   1      45.552  27.523  34.463  1.00  0.00     0.173 A 
ATOM     90  C   UNL A   1      43.875  25.888  35.008  1.00  0.00     0.173 A 
ATOM     91  F   UNL A   1      45.940  28.651  33.849  1.00  0.00    -0.203 F 
ATOM     92  C   UNL A   1      46.499  26.780  35.164  1.00  0.00     0.198 A 
ATOM     93  C   UNL A   1      44.817  25.164  35.731  1.00  0.00     0.198 A 
ATOM     94  F   UNL A   1      42.615  25.428  34.945  1.00  0.00    -0.203 F 
ATOM     95  F   UNL A   1      47.773  27.193  35.207  1.00  0.00    -0.200 F 
ATOM     96  C   UNL A   1      46.130  25.604  35.801  1.00  0.00     0.200 A 
ATOM     97  F   UNL A   1      44.456  24.034  36.356  1.00  0.00    -0.200 F 
ATOM     98  F   UNL A   1      47.042  24.892  36.475  1.00  0.00    -0.200 F 
ENDBRANCH  65  88
ENDBRANCH  39  40
ENDBRANCH  32  34
ENDBRANCH  31  32
ENDBRANCH  30  31
ENDBRANCH  29  30
ENDBRANCH  28  29
ENDBRANCH   1  28
TORSDOF 18
ENDMDL
MODEL 3
REMARK VINA RESULT:     -12.1      1.658      4.038
REMARK SMILES CCc1ccc2c(CC(=O)OCCOCCOC(=O)c3ccc(-c4c5nc(c(-c6c(F)c(F)c(F)c(F)c6F)c6ccc([nH]6)c(-c6c(F)c(F)c(F)c(F)c6F)c6nc(c(-c7c(F)c(F)c(F)c(F)c7F)c7ccc4[nH]7)C=C6)C=C5)cc3)c(C(=O)c3cc(C)ccn3)[nH]c2c1
REMARK SMILES IDX 13 1 12 2 11 3 9 4 10 5 8 6 7 7 3 8 4 9 95 10 5 11 94 12
REMARK SMILES IDX 6 13 93 14 83 15 2 17 1 18 84 19 85 20 86 21 87 22 92 23
REMARK SMILES IDX 88 24 91 25 89 26 90 27 14 28 15 29 16 30 17 31 18 32 19 33
REMARK SMILES IDX 20 34 21 35 82 36 22 37 81 38 23 39 24 40 25 41 75 42 26 43
REMARK SMILES IDX 80 44 74 45 76 46 27 47 79 48 73 49 72 50 28 52 60 53 40 54
REMARK SMILES IDX 59 55 41 56 44 57 58 58 77 59 42 60 43 61 57 63 78 64 45 65
REMARK SMILES IDX 29 66 30 67 38 68 31 69 32 70 36 71 39 72 33 73 34 74 37 75
REMARK SMILES IDX 35 76 61 77 62 78 70 79 63 80 64 81 68 82 71 83 65 84 66 85
REMARK SMILES IDX 69 86 67 87 46 88 47 89 55 90 48 91 49 92 53 93 56 94 50 95
REMARK SMILES IDX 51 96 54 97 52 98
REMARK H PARENT 93 16 76 51 44 62
REMARK Flexibility Score: inf
ROOT
ATOM      1  C   UNL A   1      32.965  27.466  26.278  1.00  0.00     0.202 C 
ENDROOT
BRANCH   1   2
ATOM      2  C   UNL A   1      32.441  26.091  25.841  1.00  0.00     0.261 C 
BRANCH   2   3
ATOM      3  O   UNL A   1      32.894  25.006  26.677  1.00  0.00    -0.463 OA
BRANCH   3   4
ATOM      4  C   UNL A   1      32.374  23.787  26.359  1.00  0.00     0.310 C 
ATOM      5  O   UNL A   1      31.488  23.233  27.008  1.00  0.00    -0.252 OA
BRANCH   4   6
ATOM      6  C   UNL A   1      32.865  23.210  25.047  1.00  0.00     0.161 C 
BRANCH   6   7
ATOM      7  C   UNL A   1      34.061  22.295  25.086  1.00  0.00     0.000 A 
ATOM      8  C   UNL A   1      38.129  22.931  26.019  1.00  0.00    -0.046 A 
ATOM      9  C   UNL A   1      37.349  24.084  25.879  1.00  0.00     0.004 A 
ATOM     10  C   UNL A   1      37.570  21.671  25.746  1.00  0.00     0.030 A 
ATOM     11  C   UNL A   1      36.000  24.005  25.511  1.00  0.00     0.011 A 
ATOM     12  C   UNL A   1      36.211  21.613  25.409  1.00  0.00     0.046 A 
ATOM     13  C   UNL A   1      35.408  22.742  25.309  1.00  0.00     0.004 A 
ATOM     14  N   UNL A   1      35.409  20.527  25.152  1.00  0.00    -0.352 N 
ATOM     15  C   UNL A   1      34.078  20.893  25.116  1.00  0.00     0.093 A 
ATOM     16  H   UNL A   1      35.740  19.610  25.013  1.00  0.00     0.167 HD
BRANCH   8  17
ATOM     17  C   UNL A   1      39.545  23.034  26.534  1.00  0.00     0.032 C 
ATOM     18  C   UNL A   1      40.080  21.674  26.971  1.00  0.00     0.009 C 
ENDBRANCH   8  17
BRANCH  15  19
ATOM     19  C   UNL A   1      32.955  19.952  25.127  1.00  0.00     0.227 C 
ATOM     20  O   UNL A   1      31.785  20.304  25.266  1.00  0.00    -0.285 OA
BRANCH  19  21
ATOM     21  C   UNL A   1      33.209  18.495  24.911  1.00  0.00     0.113 A 
ATOM     22  C   UNL A   1      32.494  17.517  25.590  1.00  0.00     0.036 A 
ATOM     23  N   UNL A   1      34.187  18.213  24.014  1.00  0.00    -0.253 NA
ATOM     24  C   UNL A   1      32.824  16.177  25.348  1.00  0.00    -0.047 A 
ATOM     25  C   UNL A   1      34.495  16.921  23.805  1.00  0.00     0.112 A 
ATOM     26  C   UNL A   1      32.093  15.052  26.015  1.00  0.00     0.044 C 
ATOM     27  C   UNL A   1      33.850  15.881  24.444  1.00  0.00     0.023 A 
ENDBRANCH  19  21
ENDBRANCH  15  19
ENDBRANCH   6   7
ENDBRANCH   4   6
ENDBRANCH   3   4
ENDBRANCH   2   3
ENDBRANCH   1   2
BRANCH   1  28
ATOM     28  O   UNL A   1      32.000  28.431  26.699  1.00  0.00    -0.374 OA
BRANCH  28  29
ATOM     29  C   UNL A   1      31.772  29.541  25.835  1.00  0.00     0.202 C 
BRANCH  29  30
ATOM     30  C   UNL A   1      32.023  30.931  26.421  1.00  0.00     0.261 C 
BRANCH  30  31
ATOM     31  O   UNL A   1      32.837  30.954  27.595  1.00  0.00    -0.460 OA
BRANCH  31  32
ATOM     32  C   UNL A   1      33.623  32.039  27.703  1.00  0.00     0.338 C 
ATOM     33  O   UNL A   1      33.301  33.226  27.689  1.00  0.00    -0.246 OA
BRANCH  32  34
ATOM     34  C   UNL A   1      34.997  31.606  27.934  1.00  0.00     0.060 A 
ATOM     35  C   UNL A   1      35.232  30.243  28.133  1.00  0.00     0.016 A 
ATOM     36  C   UNL A   1      36.012  32.553  28.098  1.00  0.00     0.016 A 
ATOM     37  C   UNL A   1      36.480  29.827  28.579  1.00  0.00     0.010 A 
ATOM     38  C   UNL A   1      37.266  32.131  28.538  1.00  0.00     0.010 A 
ATOM     39  C   UNL A   1      37.483  30.774  28.834  1.00  0.00    -0.014 A 
BRANCH  39  40
ATOM     40  C   UNL A   1      38.686  30.346  29.580  1.00  0.00     0.031 A 
ATOM     41  C   UNL A   1      38.844  30.783  31.010  1.00  0.00     0.074 A 
ATOM     42  C   UNL A   1      39.574  29.513  29.013  1.00  0.00     0.049 A 
ATOM     43  N   UNL A   1      39.755  30.449  31.887  1.00  0.00    -0.248 NA
ATOM     44  C   UNL A   1      37.834  31.725  31.524  1.00  0.00     0.031 C 
ATOM     45  C   UNL A   1      39.502  29.018  27.640  1.00  0.00     0.029 A 
ATOM     46  N   UNL A   1      40.698  28.923  29.530  1.00  0.00    -0.354 N 
ATOM     47  C   UNL A   1      39.425  31.129  33.052  1.00  0.00     0.074 A 
ATOM     48  C   UNL A   1      38.256  31.930  32.762  1.00  0.00     0.031 C 
ATOM     49  C   UNL A   1      40.533  28.184  27.425  1.00  0.00     0.029 A 
ATOM     50  C   UNL A   1      41.339  28.099  28.641  1.00  0.00     0.049 A 
ATOM     51  H   UNL A   1      41.013  29.077  30.449  1.00  0.00     0.167 HD
ATOM     52  C   UNL A   1      40.033  31.075  34.261  1.00  0.00     0.037 A 
ATOM     53  C   UNL A   1      42.448  27.354  28.803  1.00  0.00     0.037 A 
ATOM     54  C   UNL A   1      41.198  30.276  34.539  1.00  0.00     0.049 A 
ATOM     55  C   UNL A   1      43.121  27.329  30.150  1.00  0.00     0.074 A 
ATOM     56  C   UNL A   1      41.899  30.150  35.724  1.00  0.00     0.029 A 
ATOM     57  N   UNL A   1      41.832  29.466  33.608  1.00  0.00    -0.354 N 
ATOM     58  N   UNL A   1      42.784  27.950  31.255  1.00  0.00    -0.248 NA
ATOM     59  C   UNL A   1      44.317  26.487  30.276  1.00  0.00     0.031 C 
ATOM     60  C   UNL A   1      42.982  29.290  35.499  1.00  0.00     0.029 A 
ATOM     61  C   UNL A   1      42.926  28.846  34.187  1.00  0.00     0.049 A 
ATOM     62  H   UNL A   1      41.547  29.351  32.672  1.00  0.00     0.167 HD
ATOM     63  C   UNL A   1      43.707  27.553  32.213  1.00  0.00     0.074 A 
ATOM     64  C   UNL A   1      44.608  26.625  31.561  1.00  0.00     0.031 C 
ATOM     65  C   UNL A   1      43.802  27.920  33.515  1.00  0.00     0.037 A 
BRANCH  52  66
ATOM     66  C   UNL A   1      39.456  31.916  35.361  1.00  0.00     0.064 A 
ATOM     67  C   UNL A   1      39.800  33.269  35.510  1.00  0.00     0.173 A 
ATOM     68  C   UNL A   1      38.541  31.368  36.272  1.00  0.00     0.173 A 
ATOM     69  F   UNL A   1      40.683  33.837  34.676  1.00  0.00    -0.203 F 
ATOM     70  C   UNL A   1      39.269  34.033  36.547  1.00  0.00     0.198 A 
ATOM     71  C   UNL A   1      37.992  32.142  37.291  1.00  0.00     0.198 A 
ATOM     72  F   UNL A   1      38.178  30.080  36.175  1.00  0.00    -0.203 F 
ATOM     73  F   UNL A   1      39.648  35.310  36.699  1.00  0.00    -0.200 F 
ATOM     74  C   UNL A   1      38.362  33.472  37.432  1.00  0.00     0.200 A 
ATOM     75  F   UNL A   1      37.111  31.600  38.143  1.00  0.00    -0.200 F 
ATOM     76  F   UNL A   1      37.852  34.208  38.429  1.00  0.00    -0.200 F 
ENDBRANCH  52  66
BRANCH  53  77
ATOM     77  C   UNL A   1      42.967  26.547  27.670  1.00  0.00     0.064 A 
ATOM     78  C   UNL A   1      42.667  25.183  27.551  1.00  0.00     0.173 A 
ATOM     79  C   UNL A   1      43.773  27.126  26.678  1.00  0.00     0.173 A 
ATOM     80  F   UNL A   1      41.918  24.580  28.486  1.00  0.00    -0.203 F 
ATOM     81  C   UNL A   1      43.166  24.425  26.494  1.00  0.00     0.198 A 
ATOM     82  C   UNL A   1      44.249  26.373  25.606  1.00  0.00     0.198 A 
ATOM     83  F   UNL A   1      44.087  28.428  26.743  1.00  0.00    -0.203 F 
ATOM     84  F   UNL A   1      42.898  23.114  26.427  1.00  0.00    -0.200 F 
ATOM     85  C   UNL A   1      43.951  25.023  25.519  1.00  0.00     0.200 A 
ATOM     86  F   UNL A   1      44.997  26.957  24.660  1.00  0.00    -0.200 F 
ATOM     87  F   UNL A   1      44.426  24.294  24.499  1.00  0.00    -0.200 F 
ENDBRANCH  53  77
BRANCH  65  88
ATOM     88  C   UNL A   1      44.895  27.287  34.323  1.00  0.00     0.064 A 
ATOM     89  C   UNL A   1      46.178  27.848  34.393  1.00  0.00     0.173 A 
ATOM     90  C   UNL A   1      44.646  26.118  35.059  1.00  0.00     0.173 A 
ATOM     91  F   UNL A   1      46.468  28.958  33.697  1.00  0.00    -0.203 F 
ATOM     92  C   UNL A   1      47.183  27.243  35.143  1.00  0.00     0.198 A 
ATOM     93  C   UNL A   1      45.645  25.532  35.830  1.00  0.00     0.198 A 
ATOM     94  F   UNL A   1      43.432  25.547  35.033  1.00  0.00    -0.203 F 
ATOM     95  F   UNL A   1      48.416  27.767  35.153  1.00  0.00    -0.200 F 
ATOM     96  C   UNL A   1      46.914  26.089  35.865  1.00  0.00     0.200 A 
ATOM     97  F   UNL A   1      45.380  24.424  36.537  1.00  0.00    -0.200 F 
ATOM     98  F   UNL A   1      47.882  25.509  36.587  1.00  0.00    -0.200 F 
ENDBRANCH  65  88
ENDBRANCH  39  40
ENDBRANCH  32  34
ENDBRANCH  31  32
ENDBRANCH  30  31
ENDBRANCH  29  30
ENDBRANCH  28  29
ENDBRANCH   1  28
TORSDOF 18
ENDMDL
