MODEL 1
REMARK VINA RESULT:     -11.9      0.000      0.000
REMARK SMILES Cc1ccsc1C(=O)NNC(=O)[C@@H]1[C@@H](C(=O)OCCOCCOC(=O)c2ccc(-c3c4nc(c(-c5c(F)c(F)c(F)c(F)c5F)c5ccc([nH]5)c(-c5c(F)c(F)c(F)c(F)c5F)c5nc(c(-c6c(F)c(F)c(F)c(F)c6F)c6ccc3[nH]6)C=C5)C=C4)cc2)[C@H]2C=C[C@@H]1C2
REMARK SMILES IDX 19 1 18 2 17 3 15 4 16 5 14 6 13 7 92 8 89 9 91 10 93 11
REMARK SMILES IDX 90 12 11 13 10 14 12 16 9 17 7 18 8 19 6 21 1 22 2 23 3 24
REMARK SMILES IDX 4 25 5 26 20 27 21 28 22 29 23 30 24 31 25 32 26 33 27 34
REMARK SMILES IDX 88 35 28 36 87 37 29 38 30 39 31 40 81 41 32 42 86 43 80 44
REMARK SMILES IDX 82 45 33 46 85 47 79 48 78 49 34 51 66 52 46 53 65 54 47 55
REMARK SMILES IDX 50 56 64 57 83 58 48 59 49 60 63 62 84 63 51 64 35 65 36 66
REMARK SMILES IDX 44 67 37 68 38 69 42 70 45 71 39 72 40 73 43 74 41 75 67 76
REMARK SMILES IDX 68 77 76 78 69 79 70 80 74 81 77 82 71 83 72 84 75 85 73 86
REMARK SMILES IDX 52 87 53 88 61 89 54 90 55 91 59 92 62 93 56 94 57 95 60 96
REMARK SMILES IDX 58 97
REMARK H PARENT 10 15 9 20 82 50 50 61
REMARK Flexibility Score: inf
ROOT
ATOM      1  C   UNL A   1      32.683  28.633  26.929  1.00  0.00     0.202 C 
ENDROOT
BRANCH   1   2
ATOM      2  C   UNL A   1      32.543  27.119  26.771  1.00  0.00     0.261 C 
BRANCH   2   3
ATOM      3  O   UNL A   1      33.539  26.580  25.889  1.00  0.00    -0.463 OA
BRANCH   3   4
ATOM      4  C   UNL A   1      33.409  25.261  25.628  1.00  0.00     0.310 C 
ATOM      5  O   UNL A   1      32.606  24.507  26.168  1.00  0.00    -0.252 OA
BRANCH   4   6
ATOM      6  C   UNL A   1      34.381  24.739  24.608  1.00  0.00     0.119 C 
ATOM      7  C   UNL A   1      33.629  23.928  23.532  1.00  0.00     0.102 C 
ATOM      8  C   UNL A   1      34.656  22.825  23.171  1.00  0.00     0.025 C 
ATOM      9  C   UNL A   1      35.556  23.806  24.987  1.00  0.00     0.027 C 
ATOM     10  C   UNL A   1      34.582  21.828  24.324  1.00  0.00    -0.027 C 
ATOM     11  C   UNL A   1      36.017  23.412  23.571  1.00  0.00     0.017 C 
ATOM     12  C   UNL A   1      35.092  22.434  25.411  1.00  0.00    -0.027 C 
BRANCH   7  13
ATOM     13  C   UNL A   1      32.949  24.805  22.491  1.00  0.00     0.242 C 
ATOM     14  N   UNL A   1      31.603  25.038  22.472  1.00  0.00    -0.267 N 
ATOM     15  H   UNL A   1      31.177  25.194  21.598  1.00  0.00     0.191 HD
ATOM     16  O   UNL A   1      33.623  25.269  21.564  1.00  0.00    -0.273 OA
BRANCH  14  17
ATOM     17  N   UNL A   1      30.803  25.070  23.586  1.00  0.00    -0.263 N 
ATOM     18  C   UNL A   1      30.174  26.178  24.123  1.00  0.00     0.280 C 
ATOM     19  O   UNL A   1      29.527  25.955  25.152  1.00  0.00    -0.266 OA
ATOM     20  H   UNL A   1      30.661  24.214  24.052  1.00  0.00     0.191 HD
BRANCH  18  21
ATOM     21  C   UNL A   1      30.185  27.474  23.446  1.00  0.00     0.096 A 
ATOM     22  C   UNL A   1      32.658  28.248  23.161  1.00  0.00     0.046 C 
ATOM     23  C   UNL A   1      31.175  28.350  22.999  1.00  0.00    -0.027 A 
ATOM     24  C   UNL A   1      30.599  29.485  22.323  1.00  0.00     0.016 A 
ATOM     25  C   UNL A   1      29.227  29.486  22.334  1.00  0.00     0.066 A 
ATOM     26  S   UNL A   1      28.606  28.119  23.121  1.00  0.00    -0.138 S 
ENDBRANCH  18  21
ENDBRANCH  14  17
ENDBRANCH   7  13
ENDBRANCH   4   6
ENDBRANCH   3   4
ENDBRANCH   2   3
ENDBRANCH   1   2
BRANCH   1  27
ATOM     27  O   UNL A   1      31.558  29.430  26.568  1.00  0.00    -0.374 OA
BRANCH  27  28
ATOM     28  C   UNL A   1      31.782  30.630  25.831  1.00  0.00     0.202 C 
BRANCH  28  29
ATOM     29  C   UNL A   1      31.764  31.951  26.608  1.00  0.00     0.261 C 
BRANCH  29  30
ATOM     30  O   UNL A   1      32.647  31.934  27.744  1.00  0.00    -0.460 OA
BRANCH  30  31
ATOM     31  C   UNL A   1      33.596  32.903  27.731  1.00  0.00     0.338 C 
ATOM     32  O   UNL A   1      33.423  34.105  27.634  1.00  0.00    -0.246 OA
BRANCH  31  33
ATOM     33  C   UNL A   1      34.922  32.334  28.038  1.00  0.00     0.060 A 
ATOM     34  C   UNL A   1      34.990  30.949  28.238  1.00  0.00     0.016 A 
ATOM     35  C   UNL A   1      36.043  33.138  28.246  1.00  0.00     0.016 A 
ATOM     36  C   UNL A   1      36.165  30.371  28.710  1.00  0.00     0.010 A 
ATOM     37  C   UNL A   1      37.223  32.554  28.727  1.00  0.00     0.010 A 
ATOM     38  C   UNL A   1      37.274  31.175  29.003  1.00  0.00    -0.014 A 
BRANCH  38  39
ATOM     39  C   UNL A   1      38.412  30.581  29.747  1.00  0.00     0.031 A 
ATOM     40  C   UNL A   1      38.626  30.962  31.187  1.00  0.00     0.074 A 
ATOM     41  C   UNL A   1      39.201  29.655  29.173  1.00  0.00     0.049 A 
ATOM     42  N   UNL A   1      39.527  30.536  32.036  1.00  0.00    -0.248 NA
ATOM     43  C   UNL A   1      37.695  31.956  31.746  1.00  0.00     0.031 C 
ATOM     44  C   UNL A   1      39.070  29.170  27.801  1.00  0.00     0.029 A 
ATOM     45  N   UNL A   1      40.264  28.952  29.681  1.00  0.00    -0.354 N 
ATOM     46  C   UNL A   1      39.270  31.204  33.227  1.00  0.00     0.074 A 
ATOM     47  C   UNL A   1      38.154  32.092  32.982  1.00  0.00     0.031 C 
ATOM     48  C   UNL A   1      40.019  28.244  27.576  1.00  0.00     0.029 A 
ATOM     49  C   UNL A   1      40.836  28.091  28.778  1.00  0.00     0.049 A 
ATOM     50  H   UNL A   1      40.587  29.055  30.606  1.00  0.00     0.167 HD
ATOM     51  C   UNL A   1      39.898  31.078  34.420  1.00  0.00     0.037 A 
ATOM     52  C   UNL A   1      41.905  27.281  28.906  1.00  0.00     0.037 A 
ATOM     53  C   UNL A   1      41.006  30.194  34.668  1.00  0.00     0.049 A 
ATOM     54  C   UNL A   1      42.631  27.213  30.225  1.00  0.00     0.074 A 
ATOM     55  C   UNL A   1      41.700  29.986  35.848  1.00  0.00     0.029 A 
ATOM     56  N   UNL A   1      41.590  29.374  33.712  1.00  0.00    -0.354 N 
ATOM     57  N   UNL A   1      42.365  27.828  31.351  1.00  0.00    -0.248 NA
ATOM     58  C   UNL A   1      43.807  26.332  30.288  1.00  0.00     0.031 C 
ATOM     59  C   UNL A   1      42.733  29.078  35.595  1.00  0.00     0.029 A 
ATOM     60  C   UNL A   1      42.651  28.680  34.270  1.00  0.00     0.049 A 
ATOM     61  H   UNL A   1      41.293  29.297  32.777  1.00  0.00     0.167 HD
ATOM     62  C   UNL A   1      43.318  27.389  32.261  1.00  0.00     0.074 A 
ATOM     63  C   UNL A   1      44.161  26.443  31.560  1.00  0.00     0.031 C 
ATOM     64  C   UNL A   1      43.479  27.737  33.562  1.00  0.00     0.037 A 
BRANCH  51  65
ATOM     65  C   UNL A   1      39.410  31.935  35.553  1.00  0.00     0.064 A 
ATOM     66  C   UNL A   1      38.448  31.474  36.463  1.00  0.00     0.173 A 
ATOM     67  C   UNL A   1      39.940  33.219  35.750  1.00  0.00     0.173 A 
ATOM     68  F   UNL A   1      37.900  30.259  36.310  1.00  0.00    -0.203 F 
ATOM     69  C   UNL A   1      38.017  32.277  37.517  1.00  0.00     0.198 A 
ATOM     70  C   UNL A   1      39.526  34.008  36.821  1.00  0.00     0.198 A 
ATOM     71  F   UNL A   1      40.866  33.704  34.910  1.00  0.00    -0.203 F 
ATOM     72  F   UNL A   1      37.064  31.832  38.349  1.00  0.00    -0.200 F 
ATOM     73  C   UNL A   1      38.561  33.539  37.699  1.00  0.00     0.200 A 
ATOM     74  F   UNL A   1      40.062  35.222  37.001  1.00  0.00    -0.200 F 
ATOM     75  F   UNL A   1      38.150  34.307  38.717  1.00  0.00    -0.200 F 
ENDBRANCH  51  65
BRANCH  52  76
ATOM     76  C   UNL A   1      42.360  26.465  27.750  1.00  0.00     0.064 A 
ATOM     77  C   UNL A   1      41.808  25.203  27.491  1.00  0.00     0.173 A 
ATOM     78  C   UNL A   1      43.372  26.923  26.894  1.00  0.00     0.173 A 
ATOM     79  F   UNL A   1      40.856  24.711  28.298  1.00  0.00    -0.203 F 
ATOM     80  C   UNL A   1      42.263  24.422  26.430  1.00  0.00     0.198 A 
ATOM     81  C   UNL A   1      43.806  26.153  25.817  1.00  0.00     0.198 A 
ATOM     82  F   UNL A   1      43.936  28.122  27.101  1.00  0.00    -0.203 F 
ATOM     83  F   UNL A   1      41.751  23.200  26.234  1.00  0.00    -0.200 F 
ATOM     84  C   UNL A   1      43.258  24.901  25.591  1.00  0.00     0.200 A 
ATOM     85  F   UNL A   1      44.762  26.624  25.003  1.00  0.00    -0.200 F 
ATOM     86  F   UNL A   1      43.695  24.150  24.571  1.00  0.00    -0.200 F 
ENDBRANCH  52  76
BRANCH  64  87
ATOM     87  C   UNL A   1      44.590  27.070  34.323  1.00  0.00     0.064 A 
ATOM     88  C   UNL A   1      45.870  27.639  34.409  1.00  0.00     0.173 A 
ATOM     89  C   UNL A   1      44.361  25.865  35.003  1.00  0.00     0.173 A 
ATOM     90  F   UNL A   1      46.144  28.784  33.765  1.00  0.00    -0.203 F 
ATOM     91  C   UNL A   1      46.885  27.012  35.124  1.00  0.00     0.198 A 
ATOM     92  C   UNL A   1      45.371  25.256  35.742  1.00  0.00     0.198 A 
ATOM     93  F   UNL A   1      43.153  25.282  34.960  1.00  0.00    -0.203 F 
ATOM     94  F   UNL A   1      48.113  27.549  35.152  1.00  0.00    -0.200 F 
ATOM     95  C   UNL A   1      46.634  25.825  35.797  1.00  0.00     0.200 A 
ATOM     96  F   UNL A   1      45.122  24.116  36.403  1.00  0.00    -0.200 F 
ATOM     97  F   UNL A   1      47.612  25.224  36.489  1.00  0.00    -0.200 F 
ENDBRANCH  64  87
ENDBRANCH  38  39
ENDBRANCH  31  33
ENDBRANCH  30  31
ENDBRANCH  29  30
ENDBRANCH  28  29
ENDBRANCH  27  28
ENDBRANCH   1  27
TORSDOF 17
ENDMDL
MODEL 2
REMARK VINA RESULT:     -11.5      1.466      3.254
REMARK SMILES Cc1ccsc1C(=O)NNC(=O)[C@@H]1[C@@H](C(=O)OCCOCCOC(=O)c2ccc(-c3c4nc(c(-c5c(F)c(F)c(F)c(F)c5F)c5ccc([nH]5)c(-c5c(F)c(F)c(F)c(F)c5F)c5nc(c(-c6c(F)c(F)c(F)c(F)c6F)c6ccc3[nH]6)C=C5)C=C4)cc2)[C@H]2C=C[C@@H]1C2
REMARK SMILES IDX 19 1 18 2 17 3 15 4 16 5 14 6 13 7 92 8 89 9 91 10 93 11
REMARK SMILES IDX 90 12 11 13 10 14 12 16 9 17 7 18 8 19 6 21 1 22 2 23 3 24
REMARK SMILES IDX 4 25 5 26 20 27 21 28 22 29 23 30 24 31 25 32 26 33 27 34
REMARK SMILES IDX 88 35 28 36 87 37 29 38 30 39 31 40 81 41 32 42 86 43 80 44
REMARK SMILES IDX 82 45 33 46 85 47 79 48 78 49 34 51 66 52 46 53 65 54 47 55
REMARK SMILES IDX 50 56 64 57 83 58 48 59 49 60 63 62 84 63 51 64 35 65 36 66
REMARK SMILES IDX 44 67 37 68 38 69 42 70 45 71 39 72 40 73 43 74 41 75 67 76
REMARK SMILES IDX 68 77 76 78 69 79 70 80 74 81 77 82 71 83 72 84 75 85 73 86
REMARK SMILES IDX 52 87 53 88 61 89 54 90 55 91 59 92 62 93 56 94 57 95 60 96
REMARK SMILES IDX 58 97
REMARK H PARENT 10 15 9 20 82 50 50 61
REMARK Flexibility Score: inf
ROOT
ATOM      1  C   UNL A   1      32.309  29.675  27.311  1.00  0.00     0.202 C 
ENDROOT
BRANCH   1   2
ATOM      2  C   UNL A   1      33.257  28.504  27.046  1.00  0.00     0.261 C 
BRANCH   2   3
ATOM      3  O   UNL A   1      33.867  28.595  25.750  1.00  0.00    -0.463 OA
BRANCH   3   4
ATOM      4  C   UNL A   1      33.369  27.739  24.831  1.00  0.00     0.310 C 
ATOM      5  O   UNL A   1      34.037  27.018  24.097  1.00  0.00    -0.252 OA
BRANCH   4   6
ATOM      6  C   UNL A   1      31.869  27.749  24.733  1.00  0.00     0.119 C 
ATOM      7  C   UNL A   1      31.344  26.307  24.567  1.00  0.00     0.102 C 
ATOM      8  C   UNL A   1      30.110  26.508  23.652  1.00  0.00     0.025 C 
ATOM      9  C   UNL A   1      31.117  28.521  23.624  1.00  0.00     0.027 C 
ATOM     10  C   UNL A   1      30.687  26.720  22.255  1.00  0.00    -0.027 C 
ATOM     11  C   UNL A   1      29.698  27.972  23.865  1.00  0.00     0.017 C 
ATOM     12  C   UNL A   1      31.314  27.909  22.258  1.00  0.00    -0.027 C 
BRANCH   7  13
ATOM     13  C   UNL A   1      31.292  25.536  25.878  1.00  0.00     0.242 C 
ATOM     14  N   UNL A   1      32.213  24.589  26.227  1.00  0.00    -0.267 N 
ATOM     15  H   UNL A   1      31.911  23.845  26.797  1.00  0.00     0.191 HD
ATOM     16  O   UNL A   1      30.331  25.707  26.637  1.00  0.00    -0.273 OA
BRANCH  14  17
ATOM     17  N   UNL A   1      33.528  24.602  25.838  1.00  0.00    -0.263 N 
ATOM     18  C   UNL A   1      34.253  23.539  25.330  1.00  0.00     0.280 C 
ATOM     19  O   UNL A   1      35.435  23.795  25.079  1.00  0.00    -0.266 OA
ATOM     20  H   UNL A   1      34.007  25.457  25.931  1.00  0.00     0.191 HD
BRANCH  18  21
ATOM     21  C   UNL A   1      33.622  22.260  25.007  1.00  0.00     0.096 A 
ATOM     22  C   UNL A   1      32.501  22.448  22.661  1.00  0.00     0.046 C 
ATOM     23  C   UNL A   1      32.919  21.749  23.915  1.00  0.00    -0.027 A 
ATOM     24  C   UNL A   1      32.573  20.365  24.120  1.00  0.00     0.016 A 
ATOM     25  C   UNL A   1      32.942  19.890  25.353  1.00  0.00     0.066 A 
ATOM     26  S   UNL A   1      33.734  21.075  26.270  1.00  0.00    -0.138 S 
ENDBRANCH  18  21
ENDBRANCH  14  17
ENDBRANCH   7  13
ENDBRANCH   4   6
ENDBRANCH   3   4
ENDBRANCH   2   3
ENDBRANCH   1   2
BRANCH   1  27
ATOM     27  O   UNL A   1      32.419  30.806  26.451  1.00  0.00    -0.374 OA
BRANCH  27  28
ATOM     28  C   UNL A   1      31.397  31.800  26.499  1.00  0.00     0.202 C 
BRANCH  28  29
ATOM     29  C   UNL A   1      31.776  33.178  27.053  1.00  0.00     0.261 C 
BRANCH  29  30
ATOM     30  O   UNL A   1      33.194  33.419  27.007  1.00  0.00    -0.460 OA
BRANCH  30  31
ATOM     31  C   UNL A   1      33.740  33.783  28.194  1.00  0.00     0.338 C 
ATOM     32  O   UNL A   1      33.251  34.513  29.038  1.00  0.00    -0.246 OA
BRANCH  31  33
ATOM     33  C   UNL A   1      34.979  33.026  28.448  1.00  0.00     0.060 A 
ATOM     34  C   UNL A   1      34.839  31.710  28.908  1.00  0.00     0.016 A 
ATOM     35  C   UNL A   1      36.240  33.617  28.360  1.00  0.00     0.016 A 
ATOM     36  C   UNL A   1      35.956  31.002  29.344  1.00  0.00     0.010 A 
ATOM     37  C   UNL A   1      37.362  32.905  28.805  1.00  0.00     0.010 A 
ATOM     38  C   UNL A   1      37.217  31.610  29.340  1.00  0.00    -0.014 A 
BRANCH  38  39
ATOM     39  C   UNL A   1      38.337  30.942  30.048  1.00  0.00     0.031 A 
ATOM     40  C   UNL A   1      38.581  31.256  31.499  1.00  0.00     0.074 A 
ATOM     41  C   UNL A   1      39.081  30.007  29.429  1.00  0.00     0.049 A 
ATOM     42  N   UNL A   1      39.471  30.760  32.320  1.00  0.00    -0.248 NA
ATOM     43  C   UNL A   1      37.698  32.265  32.107  1.00  0.00     0.031 C 
ATOM     44  C   UNL A   1      38.917  29.581  28.041  1.00  0.00     0.029 A 
ATOM     45  N   UNL A   1      40.119  29.240  29.897  1.00  0.00    -0.354 N 
ATOM     46  C   UNL A   1      39.253  31.391  33.539  1.00  0.00     0.074 A 
ATOM     47  C   UNL A   1      38.174  32.333  33.342  1.00  0.00     0.031 C 
ATOM     48  C   UNL A   1      39.824  28.627  27.769  1.00  0.00     0.029 A 
ATOM     49  C   UNL A   1      40.646  28.393  28.955  1.00  0.00     0.049 A 
ATOM     50  H   UNL A   1      40.454  29.294  30.823  1.00  0.00     0.167 HD
ATOM     51  C   UNL A   1      39.887  31.192  34.720  1.00  0.00     0.037 A 
ATOM     52  C   UNL A   1      41.681  27.535  29.040  1.00  0.00     0.037 A 
ATOM     53  C   UNL A   1      40.960  30.254  34.920  1.00  0.00     0.049 A 
ATOM     54  C   UNL A   1      42.416  27.385  30.346  1.00  0.00     0.074 A 
ATOM     55  C   UNL A   1      41.656  29.972  36.083  1.00  0.00     0.029 A 
ATOM     56  N   UNL A   1      41.500  29.449  33.927  1.00  0.00    -0.354 N 
ATOM     57  N   UNL A   1      42.187  27.966  31.499  1.00  0.00    -0.248 NA
ATOM     58  C   UNL A   1      43.555  26.455  30.362  1.00  0.00     0.031 C 
ATOM     59  C   UNL A   1      42.648  29.032  35.783  1.00  0.00     0.029 A 
ATOM     60  C   UNL A   1      42.537  28.690  34.446  1.00  0.00     0.049 A 
ATOM     61  H   UNL A   1      41.191  29.421  32.993  1.00  0.00     0.167 HD
ATOM     62  C   UNL A   1      43.130  27.452  32.381  1.00  0.00     0.074 A 
ATOM     63  C   UNL A   1      43.925  26.501  31.633  1.00  0.00     0.031 C 
ATOM     64  C   UNL A   1      43.318  27.743  33.692  1.00  0.00     0.037 A 
BRANCH  51  65
ATOM     65  C   UNL A   1      39.447  32.023  35.890  1.00  0.00     0.064 A 
ATOM     66  C   UNL A   1      40.038  33.262  36.177  1.00  0.00     0.173 A 
ATOM     67  C   UNL A   1      38.394  31.591  36.711  1.00  0.00     0.173 A 
ATOM     68  F   UNL A   1      41.057  33.713  35.431  1.00  0.00    -0.203 F 
ATOM     69  C   UNL A   1      39.608  34.027  37.259  1.00  0.00     0.198 A 
ATOM     70  C   UNL A   1      37.949  32.372  37.775  1.00  0.00     0.198 A 
ATOM     71  F   UNL A   1      37.792  30.416  36.476  1.00  0.00    -0.203 F 
ATOM     72  F   UNL A   1      40.217  35.188  37.541  1.00  0.00    -0.200 F 
ATOM     73  C   UNL A   1      38.559  33.585  38.051  1.00  0.00     0.200 A 
ATOM     74  F   UNL A   1      36.927  31.949  38.532  1.00  0.00    -0.200 F 
ATOM     75  F   UNL A   1      38.142  34.326  39.087  1.00  0.00    -0.200 F 
ENDBRANCH  51  65
BRANCH  52  76
ATOM     76  C   UNL A   1      42.090  26.747  27.848  1.00  0.00     0.064 A 
ATOM     77  C   UNL A   1      41.536  25.487  27.586  1.00  0.00     0.173 A 
ATOM     78  C   UNL A   1      43.060  27.232  26.957  1.00  0.00     0.173 A 
ATOM     79  F   UNL A   1      40.625  24.970  28.424  1.00  0.00    -0.203 F 
ATOM     80  C   UNL A   1      41.950  24.732  26.490  1.00  0.00     0.198 A 
ATOM     81  C   UNL A   1      43.452  26.488  25.847  1.00  0.00     0.198 A 
ATOM     82  F   UNL A   1      43.624  28.431  27.165  1.00  0.00    -0.203 F 
ATOM     83  F   UNL A   1      41.439  23.509  26.291  1.00  0.00    -0.200 F 
ATOM     84  C   UNL A   1      42.903  25.236  25.619  1.00  0.00     0.200 A 
ATOM     85  F   UNL A   1      44.367  26.983  25.002  1.00  0.00    -0.200 F 
ATOM     86  F   UNL A   1      43.300  24.510  24.564  1.00  0.00    -0.200 F 
ENDBRANCH  52  76
BRANCH  64  87
ATOM     87  C   UNL A   1      44.407  27.001  34.413  1.00  0.00     0.064 A 
ATOM     88  C   UNL A   1      45.704  27.524  34.527  1.00  0.00     0.173 A 
ATOM     89  C   UNL A   1      44.140  25.768  35.029  1.00  0.00     0.173 A 
ATOM     90  F   UNL A   1      46.014  28.692  33.945  1.00  0.00    -0.203 F 
ATOM     91  C   UNL A   1      46.699  26.827  35.207  1.00  0.00     0.198 A 
ATOM     92  C   UNL A   1      45.130  25.089  35.732  1.00  0.00     0.198 A 
ATOM     93  F   UNL A   1      42.914  25.228  34.956  1.00  0.00    -0.203 F 
ATOM     94  F   UNL A   1      47.944  27.322  35.261  1.00  0.00    -0.200 F 
ATOM     95  C   UNL A   1      46.410  25.614  35.814  1.00  0.00     0.200 A 
ATOM     96  F   UNL A   1      44.845  23.923  36.331  1.00  0.00    -0.200 F 
ATOM     97  F   UNL A   1      47.370  24.946  36.472  1.00  0.00    -0.200 F 
ENDBRANCH  64  87
ENDBRANCH  38  39
ENDBRANCH  31  33
ENDBRANCH  30  31
ENDBRANCH  29  30
ENDBRANCH  28  29
ENDBRANCH  27  28
ENDBRANCH   1  27
TORSDOF 17
ENDMDL
MODEL 3
REMARK VINA RESULT:     -11.3      4.381      9.756
REMARK SMILES Cc1ccsc1C(=O)NNC(=O)[C@@H]1[C@@H](C(=O)OCCOCCOC(=O)c2ccc(-c3c4nc(c(-c5c(F)c(F)c(F)c(F)c5F)c5ccc([nH]5)c(-c5c(F)c(F)c(F)c(F)c5F)c5nc(c(-c6c(F)c(F)c(F)c(F)c6F)c6ccc3[nH]6)C=C5)C=C4)cc2)[C@H]2C=C[C@@H]1C2
REMARK SMILES IDX 19 1 18 2 17 3 15 4 16 5 14 6 13 7 92 8 89 9 91 10 93 11
REMARK SMILES IDX 90 12 11 13 10 14 12 16 9 17 7 18 8 19 6 21 1 22 2 23 3 24
REMARK SMILES IDX 4 25 5 26 20 27 21 28 22 29 23 30 24 31 25 32 26 33 27 34
REMARK SMILES IDX 88 35 28 36 87 37 29 38 30 39 31 40 81 41 32 42 86 43 80 44
REMARK SMILES IDX 82 45 33 46 85 47 79 48 78 49 34 51 66 52 46 53 65 54 47 55
REMARK SMILES IDX 50 56 64 57 83 58 48 59 49 60 63 62 84 63 51 64 35 65 36 66
REMARK SMILES IDX 44 67 37 68 38 69 42 70 45 71 39 72 40 73 43 74 41 75 67 76
REMARK SMILES IDX 68 77 76 78 69 79 70 80 74 81 77 82 71 83 72 84 75 85 73 86
REMARK SMILES IDX 52 87 53 88 61 89 54 90 55 91 59 92 62 93 56 94 57 95 60 96
REMARK SMILES IDX 58 97
REMARK H PARENT 10 15 9 20 82 50 50 61
REMARK Flexibility Score: inf
ROOT
ATOM      1  C   UNL A   1      37.059  22.023  23.849  1.00  0.00     0.202 C 
ENDROOT
BRANCH   1   2
ATOM      2  C   UNL A   1      36.576  23.470  23.951  1.00  0.00     0.261 C 
BRANCH   2   3
ATOM      3  O   UNL A   1      35.195  23.545  24.334  1.00  0.00    -0.463 OA
BRANCH   3   4
ATOM      4  C   UNL A   1      34.325  23.101  23.400  1.00  0.00     0.310 C 
ATOM      5  O   UNL A   1      34.243  23.520  22.250  1.00  0.00    -0.252 OA
BRANCH   4   6
ATOM      6  C   UNL A   1      33.393  22.030  23.892  1.00  0.00     0.119 C 
ATOM      7  C   UNL A   1      32.289  22.657  24.770  1.00  0.00     0.102 C 
ATOM      8  C   UNL A   1      32.033  21.550  25.823  1.00  0.00     0.025 C 
ATOM      9  C   UNL A   1      33.880  20.838  24.750  1.00  0.00     0.027 C 
ATOM     10  C   UNL A   1      33.206  21.654  26.794  1.00  0.00    -0.027 C 
ATOM     11  C   UNL A   1      32.513  20.254  25.152  1.00  0.00     0.017 C 
ATOM     12  C   UNL A   1      34.309  21.259  26.135  1.00  0.00    -0.027 C 
BRANCH   7  13
ATOM     13  C   UNL A   1      31.177  23.305  23.956  1.00  0.00     0.242 C 
ATOM     14  N   UNL A   1      30.181  24.055  24.514  1.00  0.00    -0.267 N 
ATOM     15  H   UNL A   1      29.302  24.053  24.070  1.00  0.00     0.191 HD
ATOM     16  O   UNL A   1      31.114  23.082  22.742  1.00  0.00    -0.273 OA
BRANCH  14  17
ATOM     17  N   UNL A   1      30.319  24.812  25.650  1.00  0.00    -0.263 N 
ATOM     18  C   UNL A   1      30.869  26.078  25.740  1.00  0.00     0.280 C 
ATOM     19  O   UNL A   1      30.908  26.542  26.885  1.00  0.00    -0.266 OA
ATOM     20  H   UNL A   1      29.994  24.412  26.489  1.00  0.00     0.191 HD
BRANCH  18  21
ATOM     21  C   UNL A   1      31.253  26.838  24.551  1.00  0.00     0.096 A 
ATOM     22  C   UNL A   1      33.840  26.685  24.262  1.00  0.00     0.046 C 
ATOM     23  C   UNL A   1      32.451  27.092  23.883  1.00  0.00    -0.027 A 
ATOM     24  C   UNL A   1      32.228  27.875  22.694  1.00  0.00     0.016 A 
ATOM     25  C   UNL A   1      30.919  28.251  22.529  1.00  0.00     0.066 A 
ATOM     26  S   UNL A   1      29.933  27.648  23.769  1.00  0.00    -0.138 S 
ENDBRANCH  18  21
ENDBRANCH  14  17
ENDBRANCH   7  13
ENDBRANCH   4   6
ENDBRANCH   3   4
ENDBRANCH   2   3
ENDBRANCH   1   2
BRANCH   1  27
ATOM     27  O   UNL A   1      37.743  21.486  24.978  1.00  0.00    -0.374 OA
BRANCH  27  28
ATOM     28  C   UNL A   1      37.910  20.072  25.064  1.00  0.00     0.202 C 
BRANCH  28  29
ATOM     29  C   UNL A   1      39.234  19.548  25.631  1.00  0.00     0.261 C 
BRANCH  29  30
ATOM     30  O   UNL A   1      40.217  20.590  25.784  1.00  0.00    -0.460 OA
BRANCH  30  31
ATOM     31  C   UNL A   1      40.874  20.570  26.970  1.00  0.00     0.338 C 
ATOM     32  O   UNL A   1      41.404  19.612  27.505  1.00  0.00    -0.246 OA
BRANCH  31  33
ATOM     33  C   UNL A   1      41.040  21.939  27.493  1.00  0.00     0.060 A 
ATOM     34  C   UNL A   1      40.427  22.974  26.775  1.00  0.00     0.016 A 
ATOM     35  C   UNL A   1      41.869  22.222  28.579  1.00  0.00     0.016 A 
ATOM     36  C   UNL A   1      40.694  24.301  27.101  1.00  0.00     0.010 A 
ATOM     37  C   UNL A   1      42.141  23.558  28.902  1.00  0.00     0.010 A 
ATOM     38  C   UNL A   1      41.589  24.602  28.136  1.00  0.00    -0.014 A 
BRANCH  38  39
ATOM     39  C   UNL A   1      42.058  26.001  28.291  1.00  0.00     0.031 A 
ATOM     40  C   UNL A   1      43.380  26.402  27.697  1.00  0.00     0.074 A 
ATOM     41  C   UNL A   1      41.282  26.924  28.887  1.00  0.00     0.049 A 
ATOM     42  N   UNL A   1      43.963  27.574  27.676  1.00  0.00    -0.248 NA
ATOM     43  C   UNL A   1      44.148  25.338  27.031  1.00  0.00     0.031 C 
ATOM     44  C   UNL A   1      39.964  26.672  29.465  1.00  0.00     0.029 A 
ATOM     45  N   UNL A   1      41.492  28.264  29.096  1.00  0.00    -0.354 N 
ATOM     46  C   UNL A   1      45.160  27.389  26.995  1.00  0.00     0.074 A 
ATOM     47  C   UNL A   1      45.240  25.987  26.652  1.00  0.00     0.031 C 
ATOM     48  C   UNL A   1      39.480  27.824  29.963  1.00  0.00     0.029 A 
ATOM     49  C   UNL A   1      40.464  28.886  29.761  1.00  0.00     0.049 A 
ATOM     50  H   UNL A   1      42.304  28.736  28.797  1.00  0.00     0.167 HD
ATOM     51  C   UNL A   1      46.100  28.310  26.672  1.00  0.00     0.037 A 
ATOM     52  C   UNL A   1      40.339  30.164  30.168  1.00  0.00     0.037 A 
ATOM     53  C   UNL A   1      46.023  29.707  27.010  1.00  0.00     0.049 A 
ATOM     54  C   UNL A   1      41.434  31.152  29.859  1.00  0.00     0.074 A 
ATOM     55  C   UNL A   1      46.920  30.718  26.714  1.00  0.00     0.029 A 
ATOM     56  N   UNL A   1      44.988  30.288  27.729  1.00  0.00    -0.354 N 
ATOM     57  N   UNL A   1      42.548  30.974  29.193  1.00  0.00    -0.248 NA
ATOM     58  C   UNL A   1      41.248  32.522  30.359  1.00  0.00     0.031 C 
ATOM     59  C   UNL A   1      46.453  31.902  27.296  1.00  0.00     0.029 A 
ATOM     60  C   UNL A   1      45.239  31.639  27.908  1.00  0.00     0.049 A 
ATOM     61  H   UNL A   1      44.194  29.811  28.061  1.00  0.00     0.167 HD
ATOM     62  C   UNL A   1      43.181  32.211  29.168  1.00  0.00     0.074 A 
ATOM     63  C   UNL A   1      42.319  33.135  29.874  1.00  0.00     0.031 C 
ATOM     64  C   UNL A   1      44.370  32.549  28.609  1.00  0.00     0.037 A 
BRANCH  51  65
ATOM     65  C   UNL A   1      47.311  27.829  25.926  1.00  0.00     0.064 A 
ATOM     66  C   UNL A   1      48.481  27.439  26.595  1.00  0.00     0.173 A 
ATOM     67  C   UNL A   1      47.288  27.721  24.527  1.00  0.00     0.173 A 
ATOM     68  F   UNL A   1      48.560  27.536  27.931  1.00  0.00    -0.203 F 
ATOM     69  C   UNL A   1      49.591  26.981  25.890  1.00  0.00     0.198 A 
ATOM     70  C   UNL A   1      48.390  27.237  23.828  1.00  0.00     0.198 A 
ATOM     71  F   UNL A   1      46.192  28.076  23.841  1.00  0.00    -0.203 F 
ATOM     72  F   UNL A   1      50.714  26.656  26.547  1.00  0.00    -0.200 F 
ATOM     73  C   UNL A   1      49.542  26.873  24.508  1.00  0.00     0.200 A 
ATOM     74  F   UNL A   1      48.336  27.122  22.494  1.00  0.00    -0.200 F 
ATOM     75  F   UNL A   1      50.608  26.426  23.831  1.00  0.00    -0.200 F 
ENDBRANCH  51  65
BRANCH  52  76
ATOM     76  C   UNL A   1      39.129  30.587  30.919  1.00  0.00     0.064 A 
ATOM     77  C   UNL A   1      39.057  30.459  32.312  1.00  0.00     0.173 A 
ATOM     78  C   UNL A   1      38.009  31.110  30.253  1.00  0.00     0.173 A 
ATOM     79  F   UNL A   1      40.091  29.940  32.990  1.00  0.00    -0.203 F 
ATOM     80  C   UNL A   1      37.905  30.819  33.010  1.00  0.00     0.198 A 
ATOM     81  C   UNL A   1      36.870  31.496  30.955  1.00  0.00     0.198 A 
ATOM     82  F   UNL A   1      38.026  31.249  28.919  1.00  0.00    -0.203 F 
ATOM     83  F   UNL A   1      37.846  30.641  34.337  1.00  0.00    -0.200 F 
ATOM     84  C   UNL A   1      36.816  31.342  32.332  1.00  0.00     0.200 A 
ATOM     85  F   UNL A   1      35.823  32.010  30.296  1.00  0.00    -0.200 F 
ATOM     86  F   UNL A   1      35.709  31.690  33.003  1.00  0.00    -0.200 F 
ENDBRANCH  52  76
BRANCH  64  87
ATOM     87  C   UNL A   1      44.794  33.987  28.710  1.00  0.00     0.064 A 
ATOM     88  C   UNL A   1      45.615  34.441  29.753  1.00  0.00     0.173 A 
ATOM     89  C   UNL A   1      44.405  34.913  27.731  1.00  0.00     0.173 A 
ATOM     90  F   UNL A   1      46.003  33.598  30.722  1.00  0.00    -0.203 F 
ATOM     91  C   UNL A   1      46.006  35.775  29.827  1.00  0.00     0.198 A 
ATOM     92  C   UNL A   1      44.823  36.239  27.792  1.00  0.00     0.198 A 
ATOM     93  F   UNL A   1      43.627  34.529  26.707  1.00  0.00    -0.203 F 
ATOM     94  F   UNL A   1      46.749  36.197  30.860  1.00  0.00    -0.200 F 
ATOM     95  C   UNL A   1      45.616  36.671  28.843  1.00  0.00     0.200 A 
ATOM     96  F   UNL A   1      44.456  37.101  26.832  1.00  0.00    -0.200 F 
ATOM     97  F   UNL A   1      45.998  37.955  28.914  1.00  0.00    -0.200 F 
ENDBRANCH  64  87
ENDBRANCH  38  39
ENDBRANCH  31  33
ENDBRANCH  30  31
ENDBRANCH  29  30
ENDBRANCH  28  29
ENDBRANCH  27  28
ENDBRANCH   1  27
TORSDOF 17
ENDMDL
