MODEL 1
REMARK VINA RESULT:     -11.9      0.000      0.000
REMARK SMILES O=C(CCC(=O)OCCOCCOC(=O)c1ccc(-c2c3nc(c(-c4c(F)c(F)c(F)c(F)c4F)c4ccc([nH]4)c(-c4c(F)c(F)c(F)c(F)c4F)c4nc(c(-c5c(F)c(F)c(F)c(F)c5F)c5ccc2[nH]5)C=C4)C=C3)cc1)Nc1ccc2nc(-c3ccccc3)oc2c1
REMARK SMILES IDX 9 1 8 2 7 3 5 4 6 5 4 6 3 7 2 8 1 9 79 10 80 12 81 13 94 14
REMARK SMILES IDX 82 15 93 16 83 17 92 18 84 19 85 20 86 21 87 22 91 23 88 24
REMARK SMILES IDX 90 25 89 26 10 27 11 28 12 29 13 30 14 31 15 32 16 33 17 34
REMARK SMILES IDX 78 35 18 36 77 37 19 38 20 39 21 40 71 41 22 42 76 43 70 44
REMARK SMILES IDX 72 45 23 46 75 47 69 48 68 49 24 51 56 52 36 53 55 54 37 55
REMARK SMILES IDX 40 56 54 57 73 58 38 59 39 60 53 62 74 63 41 64 25 65 26 66
REMARK SMILES IDX 34 67 27 68 28 69 32 70 35 71 29 72 30 73 33 74 31 75 57 76
REMARK SMILES IDX 58 77 66 78 59 79 60 80 64 81 67 82 61 83 62 84 65 85 63 86
REMARK SMILES IDX 42 87 43 88 51 89 44 90 45 91 49 92 52 93 46 94 47 95 50 96
REMARK SMILES IDX 48 97
REMARK H PARENT 79 11 72 50 40 61
REMARK Flexibility Score: inf
ROOT
ATOM      1  C   UNL A   1      46.477  19.562  24.982  1.00  0.00     0.202 C 
ENDROOT
BRANCH   1   2
ATOM      2  C   UNL A   1      45.463  18.493  25.403  1.00  0.00     0.261 C 
BRANCH   2   3
ATOM      3  O   UNL A   1      44.116  19.024  25.330  1.00  0.00    -0.463 OA
BRANCH   3   4
ATOM      4  C   UNL A   1      43.183  18.471  26.153  1.00  0.00     0.306 C 
ATOM      5  O   UNL A   1      43.370  17.490  26.859  1.00  0.00    -0.252 OA
BRANCH   4   6
ATOM      6  C   UNL A   1      41.846  19.182  26.042  1.00  0.00     0.132 C 
BRANCH   6   7
ATOM      7  C   UNL A   1      41.891  20.711  26.164  1.00  0.00     0.112 C 
BRANCH   7   8
ATOM      8  C   UNL A   1      40.575  21.319  26.645  1.00  0.00     0.224 C 
ATOM      9  O   UNL A   1      40.310  21.440  27.834  1.00  0.00    -0.275 OA
ATOM     10  N   UNL A   1      39.752  21.644  25.594  1.00  0.00    -0.326 N 
ATOM     11  H   UNL A   1      40.164  21.619  24.700  1.00  0.00     0.169 HD
BRANCH  10  12
ATOM     12  C   UNL A   1      38.400  22.010  25.637  1.00  0.00     0.045 A 
ATOM     13  C   UNL A   1      37.530  20.967  25.281  1.00  0.00     0.028 A 
ATOM     14  C   UNL A   1      37.920  23.284  25.994  1.00  0.00     0.075 A 
ATOM     15  C   UNL A   1      36.153  21.123  25.337  1.00  0.00     0.034 A 
ATOM     16  C   UNL A   1      36.529  23.433  25.919  1.00  0.00     0.157 A 
ATOM     17  C   UNL A   1      35.661  22.388  25.639  1.00  0.00     0.110 A 
ATOM     18  O   UNL A   1      35.757  24.571  26.044  1.00  0.00    -0.436 OA
ATOM     19  N   UNL A   1      34.375  22.809  25.676  1.00  0.00    -0.209 NA
ATOM     20  C   UNL A   1      34.468  24.111  25.857  1.00  0.00     0.227 A 
BRANCH  20  21
ATOM     21  C   UNL A   1      33.343  25.042  25.844  1.00  0.00     0.037 A 
ATOM     22  C   UNL A   1      32.008  24.666  26.022  1.00  0.00     0.014 A 
ATOM     23  C   UNL A   1      33.644  26.413  25.738  1.00  0.00     0.014 A 
ATOM     24  C   UNL A   1      31.008  25.648  26.101  1.00  0.00     0.001 A 
ATOM     25  C   UNL A   1      32.651  27.388  25.811  1.00  0.00     0.001 A 
ATOM     26  C   UNL A   1      31.330  27.003  25.996  1.00  0.00     0.000 A 
ENDBRANCH  20  21
ENDBRANCH  10  12
ENDBRANCH   7   8
ENDBRANCH   6   7
ENDBRANCH   4   6
ENDBRANCH   3   4
ENDBRANCH   2   3
ENDBRANCH   1   2
BRANCH   1  27
ATOM     27  O   UNL A   1      46.108  20.901  25.316  1.00  0.00    -0.374 OA
BRANCH  27  28
ATOM     28  C   UNL A   1      46.237  21.881  24.291  1.00  0.00     0.202 C 
BRANCH  28  29
ATOM     29  C   UNL A   1      45.933  23.323  24.714  1.00  0.00     0.261 C 
BRANCH  29  30
ATOM     30  O   UNL A   1      44.919  23.396  25.731  1.00  0.00    -0.460 OA
BRANCH  30  31
ATOM     31  C   UNL A   1      43.698  23.761  25.271  1.00  0.00     0.338 C 
ATOM     32  O   UNL A   1      43.096  23.281  24.317  1.00  0.00    -0.246 OA
BRANCH  31  33
ATOM     33  C   UNL A   1      43.071  24.753  26.164  1.00  0.00     0.060 A 
ATOM     34  C   UNL A   1      43.633  26.034  26.200  1.00  0.00     0.016 A 
ATOM     35  C   UNL A   1      42.010  24.429  27.011  1.00  0.00     0.016 A 
ATOM     36  C   UNL A   1      43.170  26.981  27.114  1.00  0.00     0.010 A 
ATOM     37  C   UNL A   1      41.543  25.387  27.921  1.00  0.00     0.010 A 
ATOM     38  C   UNL A   1      42.135  26.662  28.003  1.00  0.00    -0.014 A 
BRANCH  38  39
ATOM     39  C   UNL A   1      41.749  27.622  29.075  1.00  0.00     0.031 A 
ATOM     40  C   UNL A   1      42.529  27.663  30.362  1.00  0.00     0.074 A 
ATOM     41  C   UNL A   1      40.723  28.477  28.908  1.00  0.00     0.049 A 
ATOM     42  N   UNL A   1      42.395  28.468  31.389  1.00  0.00    -0.248 NA
ATOM     43  C   UNL A   1      43.616  26.684  30.511  1.00  0.00     0.031 C 
ATOM     44  C   UNL A   1      39.892  28.578  27.713  1.00  0.00     0.029 A 
ATOM     45  N   UNL A   1      40.179  29.402  29.768  1.00  0.00    -0.354 N 
ATOM     46  C   UNL A   1      43.396  28.113  32.282  1.00  0.00     0.074 A 
ATOM     47  C   UNL A   1      44.075  26.967  31.721  1.00  0.00     0.031 C 
ATOM     48  C   UNL A   1      38.892  29.446  27.941  1.00  0.00     0.029 A 
ATOM     49  C   UNL A   1      39.036  29.991  29.286  1.00  0.00     0.049 A 
ATOM     50  H   UNL A   1      40.571  29.622  30.644  1.00  0.00     0.167 HD
ATOM     51  C   UNL A   1      43.753  28.721  33.439  1.00  0.00     0.037 A 
ATOM     52  C   UNL A   1      38.197  30.874  29.860  1.00  0.00     0.037 A 
ATOM     53  C   UNL A   1      43.084  29.866  34.000  1.00  0.00     0.049 A 
ATOM     54  C   UNL A   1      38.547  31.465  31.196  1.00  0.00     0.074 A 
ATOM     55  C   UNL A   1      43.433  30.612  35.113  1.00  0.00     0.029 A 
ATOM     56  N   UNL A   1      41.913  30.418  33.501  1.00  0.00    -0.354 N 
ATOM     57  N   UNL A   1      39.569  31.208  31.974  1.00  0.00    -0.248 NA
ATOM     58  C   UNL A   1      37.654  32.514  31.706  1.00  0.00     0.031 C 
ATOM     59  C   UNL A   1      42.447  31.585  35.316  1.00  0.00     0.029 A 
ATOM     60  C   UNL A   1      41.511  31.477  34.301  1.00  0.00     0.049 A 
ATOM     61  H   UNL A   1      41.438  30.103  32.698  1.00  0.00     0.167 HD
ATOM     62  C   UNL A   1      39.483  32.108  33.027  1.00  0.00     0.074 A 
ATOM     63  C   UNL A   1      38.297  32.906  32.797  1.00  0.00     0.031 C 
ATOM     64  C   UNL A   1      40.331  32.274  34.072  1.00  0.00     0.037 A 
BRANCH  51  65
ATOM     65  C   UNL A   1      44.945  28.167  34.164  1.00  0.00     0.064 A 
ATOM     66  C   UNL A   1      46.246  28.616  33.883  1.00  0.00     0.173 A 
ATOM     67  C   UNL A   1      44.788  27.197  35.163  1.00  0.00     0.173 A 
ATOM     68  F   UNL A   1      46.452  29.537  32.929  1.00  0.00    -0.203 F 
ATOM     69  C   UNL A   1      47.347  28.086  34.549  1.00  0.00     0.198 A 
ATOM     70  C   UNL A   1      45.889  26.690  35.849  1.00  0.00     0.198 A 
ATOM     71  F   UNL A   1      43.567  26.738  35.476  1.00  0.00    -0.203 F 
ATOM     72  F   UNL A   1      48.584  28.490  34.225  1.00  0.00    -0.200 F 
ATOM     73  C   UNL A   1      47.168  27.128  35.536  1.00  0.00     0.200 A 
ATOM     74  F   UNL A   1      45.715  25.773  36.810  1.00  0.00    -0.200 F 
ATOM     75  F   UNL A   1      48.228  26.620  36.178  1.00  0.00    -0.200 F 
ENDBRANCH  51  65
BRANCH  52  76
ATOM     76  C   UNL A   1      36.979  31.313  29.136  1.00  0.00     0.064 A 
ATOM     77  C   UNL A   1      36.867  32.618  28.635  1.00  0.00     0.173 A 
ATOM     78  C   UNL A   1      35.898  30.442  28.939  1.00  0.00     0.173 A 
ATOM     79  F   UNL A   1      37.867  33.493  28.823  1.00  0.00    -0.203 F 
ATOM     80  C   UNL A   1      35.714  33.039  27.980  1.00  0.00     0.198 A 
ATOM     81  C   UNL A   1      34.752  30.859  28.266  1.00  0.00     0.198 A 
ATOM     82  F   UNL A   1      35.950  29.188  29.409  1.00  0.00    -0.203 F 
ATOM     83  F   UNL A   1      35.616  34.303  27.547  1.00  0.00    -0.200 F 
ATOM     84  C   UNL A   1      34.658  32.158  27.791  1.00  0.00     0.200 A 
ATOM     85  F   UNL A   1      33.736  30.005  28.082  1.00  0.00    -0.200 F 
ATOM     86  F   UNL A   1      33.548  32.566  27.161  1.00  0.00    -0.200 F 
ENDBRANCH  52  76
BRANCH  64  87
ATOM     87  C   UNL A   1      40.041  33.406  35.015  1.00  0.00     0.064 A 
ATOM     88  C   UNL A   1      40.493  34.710  34.769  1.00  0.00     0.173 A 
ATOM     89  C   UNL A   1      39.306  33.178  36.190  1.00  0.00     0.173 A 
ATOM     90  F   UNL A   1      41.215  34.979  33.671  1.00  0.00    -0.203 F 
ATOM     91  C   UNL A   1      40.255  35.736  35.683  1.00  0.00     0.198 A 
ATOM     92  C   UNL A   1      39.041  34.211  37.084  1.00  0.00     0.198 A 
ATOM     93  F   UNL A   1      38.846  31.950  36.473  1.00  0.00    -0.203 F 
ATOM     94  F   UNL A   1      40.754  36.959  35.459  1.00  0.00    -0.200 F 
ATOM     95  C   UNL A   1      39.527  35.485  36.836  1.00  0.00     0.200 A 
ATOM     96  F   UNL A   1      38.326  33.971  38.192  1.00  0.00    -0.200 F 
ATOM     97  F   UNL A   1      39.303  36.471  37.716  1.00  0.00    -0.200 F 
ENDBRANCH  64  87
ENDBRANCH  38  39
ENDBRANCH  31  33
ENDBRANCH  30  31
ENDBRANCH  29  30
ENDBRANCH  28  29
ENDBRANCH  27  28
ENDBRANCH   1  27
TORSDOF 18
ENDMDL
MODEL 2
REMARK VINA RESULT:     -11.6      4.469      9.945
REMARK SMILES O=C(CCC(=O)OCCOCCOC(=O)c1ccc(-c2c3nc(c(-c4c(F)c(F)c(F)c(F)c4F)c4ccc([nH]4)c(-c4c(F)c(F)c(F)c(F)c4F)c4nc(c(-c5c(F)c(F)c(F)c(F)c5F)c5ccc2[nH]5)C=C4)C=C3)cc1)Nc1ccc2nc(-c3ccccc3)oc2c1
REMARK SMILES IDX 9 1 8 2 7 3 5 4 6 5 4 6 3 7 2 8 1 9 79 10 80 12 81 13 94 14
REMARK SMILES IDX 82 15 93 16 83 17 92 18 84 19 85 20 86 21 87 22 91 23 88 24
REMARK SMILES IDX 90 25 89 26 10 27 11 28 12 29 13 30 14 31 15 32 16 33 17 34
REMARK SMILES IDX 78 35 18 36 77 37 19 38 20 39 21 40 71 41 22 42 76 43 70 44
REMARK SMILES IDX 72 45 23 46 75 47 69 48 68 49 24 51 56 52 36 53 55 54 37 55
REMARK SMILES IDX 40 56 54 57 73 58 38 59 39 60 53 62 74 63 41 64 25 65 26 66
REMARK SMILES IDX 34 67 27 68 28 69 32 70 35 71 29 72 30 73 33 74 31 75 57 76
REMARK SMILES IDX 58 77 66 78 59 79 60 80 64 81 67 82 61 83 62 84 65 85 63 86
REMARK SMILES IDX 42 87 43 88 51 89 44 90 45 91 49 92 52 93 46 94 47 95 50 96
REMARK SMILES IDX 48 97
REMARK H PARENT 79 11 72 50 40 61
REMARK Flexibility Score: inf
ROOT
ATOM      1  C   UNL A   1      35.089  33.094  28.071  1.00  0.00     0.202 C 
ENDROOT
BRANCH   1   2
ATOM      2  C   UNL A   1      34.535  31.726  28.481  1.00  0.00     0.261 C 
BRANCH   2   3
ATOM      3  O   UNL A   1      33.457  31.336  27.594  1.00  0.00    -0.463 OA
BRANCH   3   4
ATOM      4  C   UNL A   1      33.377  30.020  27.252  1.00  0.00     0.306 C 
ATOM      5  O   UNL A   1      34.327  29.252  27.213  1.00  0.00    -0.252 OA
BRANCH   4   6
ATOM      6  C   UNL A   1      31.964  29.630  26.856  1.00  0.00     0.132 C 
BRANCH   6   7
ATOM      7  C   UNL A   1      31.457  28.296  27.421  1.00  0.00     0.112 C 
BRANCH   7   8
ATOM      8  C   UNL A   1      31.595  27.133  26.441  1.00  0.00     0.224 C 
ATOM      9  O   UNL A   1      30.681  26.792  25.702  1.00  0.00    -0.275 OA
ATOM     10  N   UNL A   1      32.822  26.524  26.544  1.00  0.00    -0.326 N 
ATOM     11  H   UNL A   1      33.496  27.001  27.080  1.00  0.00     0.169 HD
BRANCH  10  12
ATOM     12  C   UNL A   1      33.234  25.309  25.980  1.00  0.00     0.045 A 
ATOM     13  C   UNL A   1      34.249  25.456  25.022  1.00  0.00     0.028 A 
ATOM     14  C   UNL A   1      32.708  24.046  26.311  1.00  0.00     0.075 A 
ATOM     15  C   UNL A   1      34.833  24.355  24.411  1.00  0.00     0.034 A 
ATOM     16  C   UNL A   1      33.240  22.975  25.583  1.00  0.00     0.157 A 
ATOM     17  C   UNL A   1      34.292  23.104  24.688  1.00  0.00     0.110 A 
ATOM     18  O   UNL A   1      32.844  21.652  25.544  1.00  0.00    -0.436 OA
ATOM     19  N   UNL A   1      34.628  21.903  24.165  1.00  0.00    -0.209 NA
ATOM     20  C   UNL A   1      33.718  21.078  24.642  1.00  0.00     0.227 A 
BRANCH  20  21
ATOM     21  C   UNL A   1      33.579  19.674  24.265  1.00  0.00     0.037 A 
ATOM     22  C   UNL A   1      32.529  19.164  23.497  1.00  0.00     0.014 A 
ATOM     23  C   UNL A   1      34.628  18.805  24.626  1.00  0.00     0.014 A 
ATOM     24  C   UNL A   1      32.542  17.819  23.096  1.00  0.00     0.001 A 
ATOM     25  C   UNL A   1      34.639  17.469  24.234  1.00  0.00     0.001 A 
ATOM     26  C   UNL A   1      33.593  16.976  23.463  1.00  0.00     0.000 A 
ENDBRANCH  20  21
ENDBRANCH  10  12
ENDBRANCH   7   8
ENDBRANCH   6   7
ENDBRANCH   4   6
ENDBRANCH   3   4
ENDBRANCH   2   3
ENDBRANCH   1   2
BRANCH   1  27
ATOM     27  O   UNL A   1      34.096  34.088  27.809  1.00  0.00    -0.374 OA
BRANCH  27  28
ATOM     28  C   UNL A   1      34.232  35.331  28.491  1.00  0.00     0.202 C 
BRANCH  28  29
ATOM     29  C   UNL A   1      32.953  35.868  29.145  1.00  0.00     0.261 C 
BRANCH  29  30
ATOM     30  O   UNL A   1      32.528  35.068  30.262  1.00  0.00    -0.460 OA
BRANCH  30  31
ATOM     31  C   UNL A   1      32.852  35.588  31.470  1.00  0.00     0.338 C 
ATOM     32  O   UNL A   1      32.238  36.449  32.090  1.00  0.00    -0.246 OA
BRANCH  31  33
ATOM     33  C   UNL A   1      34.001  34.878  32.062  1.00  0.00     0.060 A 
ATOM     34  C   UNL A   1      35.233  35.541  32.071  1.00  0.00     0.016 A 
ATOM     35  C   UNL A   1      33.908  33.565  32.525  1.00  0.00     0.016 A 
ATOM     36  C   UNL A   1      36.385  34.881  32.499  1.00  0.00     0.010 A 
ATOM     37  C   UNL A   1      35.067  32.909  32.963  1.00  0.00     0.010 A 
ATOM     38  C   UNL A   1      36.321  33.549  32.927  1.00  0.00    -0.014 A 
BRANCH  38  39
ATOM     39  C   UNL A   1      37.574  32.804  33.237  1.00  0.00     0.031 A 
ATOM     40  C   UNL A   1      38.396  33.186  34.439  1.00  0.00     0.074 A 
ATOM     41  C   UNL A   1      37.980  31.774  32.471  1.00  0.00     0.049 A 
ATOM     42  N   UNL A   1      39.480  32.622  34.916  1.00  0.00    -0.248 NA
ATOM     43  C   UNL A   1      37.932  34.341  35.220  1.00  0.00     0.031 C 
ATOM     44  C   UNL A   1      37.281  31.268  31.294  1.00  0.00     0.029 A 
ATOM     45  N   UNL A   1      39.105  30.988  32.550  1.00  0.00    -0.354 N 
ATOM     46  C   UNL A   1      39.802  33.332  36.064  1.00  0.00     0.074 A 
ATOM     47  C   UNL A   1      38.855  34.420  36.167  1.00  0.00     0.031 C 
ATOM     48  C   UNL A   1      38.029  30.318  30.709  1.00  0.00     0.029 A 
ATOM     49  C   UNL A   1      39.244  30.122  31.493  1.00  0.00     0.049 A 
ATOM     50  H   UNL A   1      39.750  31.040  33.292  1.00  0.00     0.167 HD
ATOM     51  C   UNL A   1      40.765  33.070  36.980  1.00  0.00     0.037 A 
ATOM     52  C   UNL A   1      40.235  29.263  31.189  1.00  0.00     0.037 A 
ATOM     53  C   UNL A   1      41.707  31.984  36.886  1.00  0.00     0.049 A 
ATOM     54  C   UNL A   1      41.358  29.056  32.164  1.00  0.00     0.074 A 
ATOM     55  C   UNL A   1      42.652  31.578  37.812  1.00  0.00     0.029 A 
ATOM     56  N   UNL A   1      41.837  31.146  35.788  1.00  0.00    -0.354 N 
ATOM     57  N   UNL A   1      41.581  29.649  33.310  1.00  0.00    -0.248 NA
ATOM     58  C   UNL A   1      42.337  28.013  31.827  1.00  0.00     0.031 C 
ATOM     59  C   UNL A   1      43.388  30.525  37.255  1.00  0.00     0.029 A 
ATOM     60  C   UNL A   1      42.866  30.242  36.003  1.00  0.00     0.049 A 
ATOM     61  H   UNL A   1      41.280  31.187  34.978  1.00  0.00     0.167 HD
ATOM     62  C   UNL A   1      42.681  29.008  33.863  1.00  0.00     0.074 A 
ATOM     63  C   UNL A   1      43.090  27.991  32.918  1.00  0.00     0.031 C 
ATOM     64  C   UNL A   1      43.274  29.227  35.063  1.00  0.00     0.037 A 
BRANCH  51  65
ATOM     65  C   UNL A   1      40.828  33.964  38.184  1.00  0.00     0.064 A 
ATOM     66  C   UNL A   1      40.006  33.746  39.302  1.00  0.00     0.173 A 
ATOM     67  C   UNL A   1      41.731  35.036  38.232  1.00  0.00     0.173 A 
ATOM     68  F   UNL A   1      39.119  32.740  39.302  1.00  0.00    -0.203 F 
ATOM     69  C   UNL A   1      40.061  34.590  40.407  1.00  0.00     0.198 A 
ATOM     70  C   UNL A   1      41.803  35.860  39.352  1.00  0.00     0.198 A 
ATOM     71  F   UNL A   1      42.543  35.284  37.194  1.00  0.00    -0.203 F 
ATOM     72  F   UNL A   1      39.228  34.395  41.440  1.00  0.00    -0.200 F 
ATOM     73  C   UNL A   1      40.963  35.643  40.434  1.00  0.00     0.200 A 
ATOM     74  F   UNL A   1      42.684  36.870  39.383  1.00  0.00    -0.200 F 
ATOM     75  F   UNL A   1      41.016  36.453  41.500  1.00  0.00    -0.200 F 
ENDBRANCH  51  65
BRANCH  52  76
ATOM     76  C   UNL A   1      40.168  28.474  29.934  1.00  0.00     0.064 A 
ATOM     77  C   UNL A   1      39.491  27.248  29.888  1.00  0.00     0.173 A 
ATOM     78  C   UNL A   1      40.789  28.923  28.760  1.00  0.00     0.173 A 
ATOM     79  F   UNL A   1      38.904  26.766  30.994  1.00  0.00    -0.203 F 
ATOM     80  C   UNL A   1      39.451  26.493  28.719  1.00  0.00     0.198 A 
ATOM     81  C   UNL A   1      40.731  28.177  27.585  1.00  0.00     0.198 A 
ATOM     82  F   UNL A   1      41.459  30.083  28.755  1.00  0.00    -0.203 F 
ATOM     83  F   UNL A   1      38.831  25.305  28.712  1.00  0.00    -0.200 F 
ATOM     84  C   UNL A   1      40.067  26.960  27.567  1.00  0.00     0.200 A 
ATOM     85  F   UNL A   1      41.325  28.632  26.473  1.00  0.00    -0.200 F 
ATOM     86  F   UNL A   1      40.029  26.232  26.442  1.00  0.00    -0.200 F 
ENDBRANCH  52  76
BRANCH  64  87
ATOM     87  C   UNL A   1      44.394  28.304  35.451  1.00  0.00     0.064 A 
ATOM     88  C   UNL A   1      44.158  27.084  36.099  1.00  0.00     0.173 A 
ATOM     89  C   UNL A   1      45.726  28.654  35.176  1.00  0.00     0.173 A 
ATOM     90  F   UNL A   1      42.906  26.710  36.401  1.00  0.00    -0.203 F 
ATOM     91  C   UNL A   1      45.216  26.266  36.494  1.00  0.00     0.198 A 
ATOM     92  C   UNL A   1      46.778  27.819  35.543  1.00  0.00     0.198 A 
ATOM     93  F   UNL A   1      46.009  29.809  34.554  1.00  0.00    -0.203 F 
ATOM     94  F   UNL A   1      44.969  25.136  37.171  1.00  0.00    -0.200 F 
ATOM     95  C   UNL A   1      46.523  26.633  36.212  1.00  0.00     0.200 A 
ATOM     96  F   UNL A   1      48.040  28.169  35.258  1.00  0.00    -0.200 F 
ATOM     97  F   UNL A   1      47.538  25.848  36.597  1.00  0.00    -0.200 F 
ENDBRANCH  64  87
ENDBRANCH  38  39
ENDBRANCH  31  33
ENDBRANCH  30  31
ENDBRANCH  29  30
ENDBRANCH  28  29
ENDBRANCH  27  28
ENDBRANCH   1  27
TORSDOF 18
ENDMDL
MODEL 3
REMARK VINA RESULT:     -11.5      0.957      7.093
REMARK SMILES O=C(CCC(=O)OCCOCCOC(=O)c1ccc(-c2c3nc(c(-c4c(F)c(F)c(F)c(F)c4F)c4ccc([nH]4)c(-c4c(F)c(F)c(F)c(F)c4F)c4nc(c(-c5c(F)c(F)c(F)c(F)c5F)c5ccc2[nH]5)C=C4)C=C3)cc1)Nc1ccc2nc(-c3ccccc3)oc2c1
REMARK SMILES IDX 9 1 8 2 7 3 5 4 6 5 4 6 3 7 2 8 1 9 79 10 80 12 81 13 94 14
REMARK SMILES IDX 82 15 93 16 83 17 92 18 84 19 85 20 86 21 87 22 91 23 88 24
REMARK SMILES IDX 90 25 89 26 10 27 11 28 12 29 13 30 14 31 15 32 16 33 17 34
REMARK SMILES IDX 78 35 18 36 77 37 19 38 20 39 21 40 71 41 22 42 76 43 70 44
REMARK SMILES IDX 72 45 23 46 75 47 69 48 68 49 24 51 56 52 36 53 55 54 37 55
REMARK SMILES IDX 40 56 54 57 73 58 38 59 39 60 53 62 74 63 41 64 25 65 26 66
REMARK SMILES IDX 34 67 27 68 28 69 32 70 35 71 29 72 30 73 33 74 31 75 57 76
REMARK SMILES IDX 58 77 66 78 59 79 60 80 64 81 67 82 61 83 62 84 65 85 63 86
REMARK SMILES IDX 42 87 43 88 51 89 44 90 45 91 49 92 52 93 46 94 47 95 50 96
REMARK SMILES IDX 48 97
REMARK H PARENT 79 11 72 50 40 61
REMARK Flexibility Score: inf
ROOT
ATOM      1  C   UNL A   1      45.771  19.981  24.363  1.00  0.00     0.202 C 
ENDROOT
BRANCH   1   2
ATOM      2  C   UNL A   1      44.787  18.885  24.783  1.00  0.00     0.261 C 
BRANCH   2   3
ATOM      3  O   UNL A   1      43.472  19.452  25.009  1.00  0.00    -0.463 OA
BRANCH   3   4
ATOM      4  C   UNL A   1      42.657  18.805  25.887  1.00  0.00     0.306 C 
ATOM      5  O   UNL A   1      42.884  17.704  26.367  1.00  0.00    -0.252 OA
BRANCH   4   6
ATOM      6  C   UNL A   1      41.386  19.592  26.156  1.00  0.00     0.132 C 
BRANCH   6   7
ATOM      7  C   UNL A   1      41.546  21.117  26.220  1.00  0.00     0.112 C 
BRANCH   7   8
ATOM      8  C   UNL A   1      40.252  21.846  26.573  1.00  0.00     0.224 C 
ATOM      9  O   UNL A   1      40.070  22.359  27.670  1.00  0.00    -0.275 OA
ATOM     10  N   UNL A   1      39.344  21.798  25.542  1.00  0.00    -0.326 N 
ATOM     11  H   UNL A   1      39.690  21.475  24.679  1.00  0.00     0.169 HD
BRANCH  10  12
ATOM     12  C   UNL A   1      37.989  22.153  25.567  1.00  0.00     0.045 A 
ATOM     13  C   UNL A   1      37.136  21.119  25.149  1.00  0.00     0.028 A 
ATOM     14  C   UNL A   1      37.490  23.408  25.963  1.00  0.00     0.075 A 
ATOM     15  C   UNL A   1      35.756  21.263  25.178  1.00  0.00     0.034 A 
ATOM     16  C   UNL A   1      36.101  23.550  25.861  1.00  0.00     0.157 A 
ATOM     17  C   UNL A   1      35.247  22.512  25.518  1.00  0.00     0.110 A 
ATOM     18  O   UNL A   1      35.317  24.678  26.013  1.00  0.00    -0.436 OA
ATOM     19  N   UNL A   1      33.958  22.923  25.541  1.00  0.00    -0.209 NA
ATOM     20  C   UNL A   1      34.036  24.217  25.776  1.00  0.00     0.227 A 
BRANCH  20  21
ATOM     21  C   UNL A   1      32.905  25.139  25.773  1.00  0.00     0.037 A 
ATOM     22  C   UNL A   1      31.564  24.742  25.788  1.00  0.00     0.014 A 
ATOM     23  C   UNL A   1      33.196  26.515  25.856  1.00  0.00     0.014 A 
ATOM     24  C   UNL A   1      30.549  25.705  25.893  1.00  0.00     0.001 A 
ATOM     25  C   UNL A   1      32.189  27.472  25.955  1.00  0.00     0.001 A 
ATOM     26  C   UNL A   1      30.861  27.064  25.977  1.00  0.00     0.000 A 
ENDBRANCH  20  21
ENDBRANCH  10  12
ENDBRANCH   7   8
ENDBRANCH   6   7
ENDBRANCH   4   6
ENDBRANCH   3   4
ENDBRANCH   2   3
ENDBRANCH   1   2
BRANCH   1  27
ATOM     27  O   UNL A   1      45.683  21.188  25.123  1.00  0.00    -0.374 OA
BRANCH  27  28
ATOM     28  C   UNL A   1      46.090  22.389  24.477  1.00  0.00     0.202 C 
BRANCH  28  29
ATOM     29  C   UNL A   1      45.989  23.663  25.325  1.00  0.00     0.261 C 
BRANCH  29  30
ATOM     30  O   UNL A   1      44.812  23.681  26.152  1.00  0.00    -0.460 OA
BRANCH  30  31
ATOM     31  C   UNL A   1      43.753  24.315  25.593  1.00  0.00     0.338 C 
ATOM     32  O   UNL A   1      43.276  24.116  24.481  1.00  0.00    -0.246 OA
BRANCH  31  33
ATOM     33  C   UNL A   1      43.107  25.221  26.561  1.00  0.00     0.060 A 
ATOM     34  C   UNL A   1      43.612  26.522  26.662  1.00  0.00     0.016 A 
ATOM     35  C   UNL A   1      42.087  24.797  27.414  1.00  0.00     0.016 A 
ATOM     36  C   UNL A   1      43.134  27.389  27.645  1.00  0.00     0.010 A 
ATOM     37  C   UNL A   1      41.603  25.676  28.393  1.00  0.00     0.010 A 
ATOM     38  C   UNL A   1      42.140  26.969  28.539  1.00  0.00    -0.014 A 
BRANCH  38  39
ATOM     39  C   UNL A   1      41.743  27.844  29.678  1.00  0.00     0.031 A 
ATOM     40  C   UNL A   1      40.550  28.753  29.545  1.00  0.00     0.074 A 
ATOM     41  C   UNL A   1      42.419  27.824  30.841  1.00  0.00     0.049 A 
ATOM     42  N   UNL A   1      40.004  29.542  30.439  1.00  0.00    -0.248 NA
ATOM     43  C   UNL A   1      39.869  28.767  28.242  1.00  0.00     0.031 C 
ATOM     44  C   UNL A   1      43.574  26.981  31.133  1.00  0.00     0.029 A 
ATOM     45  N   UNL A   1      42.252  28.564  31.988  1.00  0.00    -0.354 N 
ATOM     46  C   UNL A   1      38.903  30.114  29.818  1.00  0.00     0.074 A 
ATOM     47  C   UNL A   1      38.906  29.654  28.447  1.00  0.00     0.031 C 
ATOM     48  C   UNL A   1      44.068  27.308  32.339  1.00  0.00     0.029 A 
ATOM     49  C   UNL A   1      43.239  28.359  32.921  1.00  0.00     0.049 A 
ATOM     50  H   UNL A   1      41.499  29.183  32.126  1.00  0.00     0.167 HD
ATOM     51  C   UNL A   1      37.945  30.907  30.354  1.00  0.00     0.037 A 
ATOM     52  C   UNL A   1      43.452  28.946  34.113  1.00  0.00     0.037 A 
ATOM     53  C   UNL A   1      37.933  31.363  31.720  1.00  0.00     0.049 A 
ATOM     54  C   UNL A   1      42.435  29.909  34.655  1.00  0.00     0.074 A 
ATOM     55  C   UNL A   1      36.954  32.085  32.382  1.00  0.00     0.029 A 
ATOM     56  N   UNL A   1      38.962  31.160  32.628  1.00  0.00    -0.354 N 
ATOM     57  N   UNL A   1      41.330  30.345  34.104  1.00  0.00    -0.248 NA
ATOM     58  C   UNL A   1      42.667  30.415  36.015  1.00  0.00     0.031 C 
ATOM     59  C   UNL A   1      37.413  32.362  33.676  1.00  0.00     0.029 A 
ATOM     60  C   UNL A   1      38.654  31.767  33.836  1.00  0.00     0.049 A 
ATOM     61  H   UNL A   1      39.788  30.659  32.441  1.00  0.00     0.167 HD
ATOM     62  C   UNL A   1      40.701  31.119  35.069  1.00  0.00     0.074 A 
ATOM     63  C   UNL A   1      41.558  31.106  36.236  1.00  0.00     0.031 C 
ATOM     64  C   UNL A   1      39.505  31.754  35.000  1.00  0.00     0.037 A 
BRANCH  51  65
ATOM     65  C   UNL A   1      36.809  31.310  29.459  1.00  0.00     0.064 A 
ATOM     66  C   UNL A   1      36.675  32.628  28.994  1.00  0.00     0.173 A 
ATOM     67  C   UNL A   1      35.857  30.368  29.043  1.00  0.00     0.173 A 
ATOM     68  F   UNL A   1      37.554  33.569  29.369  1.00  0.00    -0.203 F 
ATOM     69  C   UNL A   1      35.610  32.995  28.177  1.00  0.00     0.198 A 
ATOM     70  C   UNL A   1      34.810  30.732  28.201  1.00  0.00     0.198 A 
ATOM     71  F   UNL A   1      35.942  29.093  29.453  1.00  0.00    -0.203 F 
ATOM     72  F   UNL A   1      35.473  34.272  27.790  1.00  0.00    -0.200 F 
ATOM     73  C   UNL A   1      34.681  32.047  27.776  1.00  0.00     0.200 A 
ATOM     74  F   UNL A   1      33.919  29.813  27.805  1.00  0.00    -0.200 F 
ATOM     75  F   UNL A   1      33.658  32.401  26.987  1.00  0.00    -0.200 F 
ENDBRANCH  51  65
BRANCH  52  76
ATOM     76  C   UNL A   1      44.647  28.579  34.913  1.00  0.00     0.064 A 
ATOM     77  C   UNL A   1      45.808  29.363  34.878  1.00  0.00     0.173 A 
ATOM     78  C   UNL A   1      44.656  27.433  35.720  1.00  0.00     0.173 A 
ATOM     79  F   UNL A   1      45.853  30.455  34.101  1.00  0.00    -0.203 F 
ATOM     80  C   UNL A   1      46.939  29.005  35.607  1.00  0.00     0.198 A 
ATOM     81  C   UNL A   1      45.781  27.086  36.464  1.00  0.00     0.198 A 
ATOM     82  F   UNL A   1      43.575  26.643  35.779  1.00  0.00    -0.203 F 
ATOM     83  F   UNL A   1      48.050  29.749  35.524  1.00  0.00    -0.200 F 
ATOM     84  C   UNL A   1      46.923  27.869  36.403  1.00  0.00     0.200 A 
ATOM     85  F   UNL A   1      45.762  25.990  37.235  1.00  0.00    -0.200 F 
ATOM     86  F   UNL A   1      48.013  27.525  37.103  1.00  0.00    -0.200 F 
ENDBRANCH  52  76
BRANCH  64  87
ATOM     87  C   UNL A   1      39.020  32.439  36.246  1.00  0.00     0.064 A 
ATOM     88  C   UNL A   1      39.363  33.765  36.544  1.00  0.00     0.173 A 
ATOM     89  C   UNL A   1      38.207  31.750  37.160  1.00  0.00     0.173 A 
ATOM     90  F   UNL A   1      40.153  34.462  35.714  1.00  0.00    -0.203 F 
ATOM     91  C   UNL A   1      38.942  34.364  37.731  1.00  0.00     0.198 A 
ATOM     92  C   UNL A   1      37.761  32.362  38.328  1.00  0.00     0.198 A 
ATOM     93  F   UNL A   1      37.845  30.480  36.922  1.00  0.00    -0.203 F 
ATOM     94  F   UNL A   1      39.338  35.610  38.026  1.00  0.00    -0.200 F 
ATOM     95  C   UNL A   1      38.139  33.663  38.618  1.00  0.00     0.200 A 
ATOM     96  F   UNL A   1      36.974  31.688  39.178  1.00  0.00    -0.200 F 
ATOM     97  F   UNL A   1      37.741  34.239  39.761  1.00  0.00    -0.200 F 
ENDBRANCH  64  87
ENDBRANCH  38  39
ENDBRANCH  31  33
ENDBRANCH  30  31
ENDBRANCH  29  30
ENDBRANCH  28  29
ENDBRANCH  27  28
ENDBRANCH   1  27
TORSDOF 18
ENDMDL
