MODEL 1
REMARK VINA RESULT:     -11.2      0.000      0.000
REMARK SMILES O=C(C[NH+]1CC[NH+](Cc2cc(Cl)ccc2[N+](=O)[O-])CC1)OCCOCCOC(=O)c1ccc(-c2c3nc(c(-c4c(F)c(F)c(F)c(F)c4F)c4ccc([nH]4)c(-c4c(F)c(F)c(F)c(F)c4F)c4nc(c(-c5c(F)c(F)c(F)c(F)c5F)c5ccc2[nH]5)C=C4)C=C3)cc1
REMARK SMILES IDX 23 1 22 2 21 3 2 4 1 5 3 6 4 7 5 8 20 9 6 11 19 12 7 13 8 15
REMARK SMILES IDX 9 16 10 17 15 18 11 19 14 20 12 21 13 22 16 23 17 24 18 25
REMARK SMILES IDX 24 26 25 27 26 28 27 29 28 30 29 31 30 32 31 33 92 34 32 35
REMARK SMILES IDX 91 36 33 37 34 38 35 39 85 40 36 41 90 42 84 43 86 44 37 45
REMARK SMILES IDX 89 46 83 47 82 48 38 50 70 51 50 52 69 53 51 54 54 55 68 56
REMARK SMILES IDX 87 57 52 58 53 59 67 61 88 62 55 63 39 64 40 65 48 66 41 67
REMARK SMILES IDX 42 68 46 69 49 70 43 71 44 72 47 73 45 74 71 75 72 76 80 77
REMARK SMILES IDX 73 78 74 79 78 80 81 81 75 82 76 83 79 84 77 85 56 86 57 87
REMARK SMILES IDX 65 88 58 89 59 90 63 91 66 92 60 93 61 94 64 95 62 96
REMARK H PARENT 4 10 7 14 86 49 54 60
REMARK Flexibility Score: inf
ROOT
ATOM      1  C   UNL A   1      36.218  21.457  24.912  1.00  0.00     0.202 C 
ENDROOT
BRANCH   1   2
ATOM      2  C   UNL A   1      35.218  20.304  24.940  1.00  0.00     0.261 C 
BRANCH   2   3
ATOM      3  O   UNL A   1      33.881  20.699  25.317  1.00  0.00    -0.459 OA
BRANCH   3   4
ATOM      4  C   UNL A   1      32.720  20.499  24.650  1.00  0.00     0.361 C 
ATOM      5  O   UNL A   1      31.855  19.792  25.174  1.00  0.00    -0.245 OA
BRANCH   4   6
ATOM      6  C   UNL A   1      32.514  20.998  23.221  1.00  0.00     0.386 C 
BRANCH   6   7
ATOM      7  N   UNL A   1      32.128  22.399  23.156  1.00  0.00    -0.316 N 
ATOM      8  C   UNL A   1      31.729  22.983  24.436  1.00  0.00     0.325 C 
ATOM      9  C   UNL A   1      33.028  23.211  22.338  1.00  0.00     0.325 C 
ATOM     10  H   UNL A   1      31.252  22.409  22.635  1.00  0.00     0.348 HD
ATOM     11  C   UNL A   1      32.775  23.867  25.141  1.00  0.00     0.324 C 
ATOM     12  C   UNL A   1      34.087  24.003  23.123  1.00  0.00     0.324 C 
ATOM     13  N   UNL A   1      33.566  24.744  24.272  1.00  0.00    -0.322 N 
ATOM     14  H   UNL A   1      34.377  25.026  24.821  1.00  0.00     0.348 HD
BRANCH  13  15
ATOM     15  C   UNL A   1      33.028  26.086  24.010  1.00  0.00     0.306 C 
BRANCH  15  16
ATOM     16  C   UNL A   1      32.725  26.982  25.201  1.00  0.00     0.085 A 
ATOM     17  C   UNL A   1      33.790  27.791  25.665  1.00  0.00     0.037 A 
ATOM     18  C   UNL A   1      31.517  27.028  25.936  1.00  0.00     0.278 A 
ATOM     19  C   UNL A   1      33.716  28.487  26.873  1.00  0.00     0.042 A 
ATOM     20  C   UNL A   1      31.449  27.746  27.154  1.00  0.00     0.088 A 
ATOM     21  Cl  UNL A   1      35.088  29.342  27.454  1.00  0.00    -0.084 Cl
ATOM     22  C   UNL A   1      32.556  28.447  27.632  1.00  0.00     0.027 A 
BRANCH  18  23
ATOM     23  N   UNL A   1      30.281  26.326  25.526  1.00  0.00     0.063 N 
ATOM     24  O   UNL A   1      29.855  25.438  26.280  1.00  0.00    -0.258 OA
ATOM     25  O   UNL A   1      29.721  26.662  24.479  1.00  0.00    -0.258 OA
ENDBRANCH  18  23
ENDBRANCH  15  16
ENDBRANCH  13  15
ENDBRANCH   6   7
ENDBRANCH   4   6
ENDBRANCH   3   4
ENDBRANCH   2   3
ENDBRANCH   1   2
BRANCH   1  26
ATOM     26  O   UNL A   1      37.589  21.125  24.711  1.00  0.00    -0.374 OA
BRANCH  26  27
ATOM     27  C   UNL A   1      37.935  19.749  24.891  1.00  0.00     0.202 C 
BRANCH  27  28
ATOM     28  C   UNL A   1      39.249  19.460  25.619  1.00  0.00     0.261 C 
BRANCH  28  29
ATOM     29  O   UNL A   1      40.009  20.659  25.815  1.00  0.00    -0.460 OA
BRANCH  29  30
ATOM     30  C   UNL A   1      40.876  20.609  26.851  1.00  0.00     0.338 C 
ATOM     31  O   UNL A   1      41.536  19.646  27.218  1.00  0.00    -0.246 OA
BRANCH  30  32
ATOM     32  C   UNL A   1      41.086  21.968  27.382  1.00  0.00     0.060 A 
ATOM     33  C   UNL A   1      40.442  23.016  26.714  1.00  0.00     0.016 A 
ATOM     34  C   UNL A   1      41.899  22.223  28.490  1.00  0.00     0.016 A 
ATOM     35  C   UNL A   1      40.686  24.331  27.089  1.00  0.00     0.010 A 
ATOM     36  C   UNL A   1      42.141  23.544  28.871  1.00  0.00     0.010 A 
ATOM     37  C   UNL A   1      41.581  24.601  28.132  1.00  0.00    -0.014 A 
BRANCH  37  38
ATOM     38  C   UNL A   1      42.063  25.989  28.308  1.00  0.00     0.031 A 
ATOM     39  C   UNL A   1      43.409  26.359  27.749  1.00  0.00     0.074 A 
ATOM     40  C   UNL A   1      41.275  26.916  28.878  1.00  0.00     0.049 A 
ATOM     41  N   UNL A   1      44.017  27.517  27.742  1.00  0.00    -0.248 NA
ATOM     42  C   UNL A   1      44.175  25.275  27.111  1.00  0.00     0.031 C 
ATOM     43  C   UNL A   1      39.944  26.667  29.429  1.00  0.00     0.029 A 
ATOM     44  N   UNL A   1      41.482  28.255  29.081  1.00  0.00    -0.354 N 
ATOM     45  C   UNL A   1      45.228  27.302  27.094  1.00  0.00     0.074 A 
ATOM     46  C   UNL A   1      45.295  25.895  26.771  1.00  0.00     0.031 C 
ATOM     47  C   UNL A   1      39.451  27.820  29.912  1.00  0.00     0.029 A 
ATOM     48  C   UNL A   1      40.443  28.877  29.728  1.00  0.00     0.049 A 
ATOM     49  H   UNL A   1      42.296  28.726  28.791  1.00  0.00     0.167 HD
ATOM     50  C   UNL A   1      46.186  28.204  26.778  1.00  0.00     0.037 A 
ATOM     51  C   UNL A   1      40.322  30.153  30.136  1.00  0.00     0.037 A 
ATOM     52  C   UNL A   1      46.113  29.602  27.113  1.00  0.00     0.049 A 
ATOM     53  C   UNL A   1      41.431  31.125  29.827  1.00  0.00     0.074 A 
ATOM     54  C   UNL A   1      47.029  30.605  26.851  1.00  0.00     0.029 A 
ATOM     55  N   UNL A   1      45.057  30.193  27.794  1.00  0.00    -0.354 N 
ATOM     56  N   UNL A   1      42.561  30.921  29.193  1.00  0.00    -0.248 NA
ATOM     57  C   UNL A   1      41.240  32.510  30.276  1.00  0.00     0.031 C 
ATOM     58  C   UNL A   1      46.553  31.791  27.418  1.00  0.00     0.029 A 
ATOM     59  C   UNL A   1      45.308  31.544  27.976  1.00  0.00     0.049 A 
ATOM     60  H   UNL A   1      44.249  29.723  28.102  1.00  0.00     0.167 HD
ATOM     61  C   UNL A   1      43.203  32.152  29.146  1.00  0.00     0.074 A 
ATOM     62  C   UNL A   1      42.319  33.103  29.788  1.00  0.00     0.031 C 
ATOM     63  C   UNL A   1      44.414  32.471  28.623  1.00  0.00     0.037 A 
BRANCH  50  64
ATOM     64  C   UNL A   1      47.399  27.703  26.046  1.00  0.00     0.064 A 
ATOM     65  C   UNL A   1      47.471  27.719  24.644  1.00  0.00     0.173 A 
ATOM     66  C   UNL A   1      48.514  27.230  26.752  1.00  0.00     0.173 A 
ATOM     67  F   UNL A   1      46.427  28.145  23.918  1.00  0.00    -0.203 F 
ATOM     68  C   UNL A   1      48.605  27.259  23.978  1.00  0.00     0.198 A 
ATOM     69  C   UNL A   1      49.659  26.801  26.084  1.00  0.00     0.198 A 
ATOM     70  F   UNL A   1      48.500  27.192  28.093  1.00  0.00    -0.203 F 
ATOM     71  F   UNL A   1      48.632  27.239  22.638  1.00  0.00    -0.200 F 
ATOM     72  C   UNL A   1      49.701  26.808  24.699  1.00  0.00     0.200 A 
ATOM     73  F   UNL A   1      50.721  26.378  26.783  1.00  0.00    -0.200 F 
ATOM     74  F   UNL A   1      50.795  26.376  24.057  1.00  0.00    -0.200 F 
ENDBRANCH  50  64
BRANCH  51  75
ATOM     75  C   UNL A   1      39.114  30.582  30.893  1.00  0.00     0.064 A 
ATOM     76  C   UNL A   1      39.077  30.546  32.293  1.00  0.00     0.173 A 
ATOM     77  C   UNL A   1      37.960  31.015  30.222  1.00  0.00     0.173 A 
ATOM     78  F   UNL A   1      40.147  30.121  32.981  1.00  0.00    -0.203 F 
ATOM     79  C   UNL A   1      37.923  30.898  32.992  1.00  0.00     0.198 A 
ATOM     80  C   UNL A   1      36.820  31.401  30.922  1.00  0.00     0.198 A 
ATOM     81  F   UNL A   1      37.943  31.072  28.882  1.00  0.00    -0.203 F 
ATOM     82  F   UNL A   1      37.896  30.797  34.328  1.00  0.00    -0.200 F 
ATOM     83  C   UNL A   1      36.797  31.330  32.307  1.00  0.00     0.200 A 
ATOM     84  F   UNL A   1      35.741  31.834  30.257  1.00  0.00    -0.200 F 
ATOM     85  F   UNL A   1      35.690  31.669  32.980  1.00  0.00    -0.200 F 
ENDBRANCH  51  75
BRANCH  63  86
ATOM     86  C   UNL A   1      44.831  33.913  28.699  1.00  0.00     0.064 A 
ATOM     87  C   UNL A   1      45.615  34.401  29.755  1.00  0.00     0.173 A 
ATOM     88  C   UNL A   1      44.445  34.818  27.697  1.00  0.00     0.173 A 
ATOM     89  F   UNL A   1      46.002  33.581  30.745  1.00  0.00    -0.203 F 
ATOM     90  C   UNL A   1      45.956  35.749  29.831  1.00  0.00     0.198 A 
ATOM     91  C   UNL A   1      44.822  36.156  27.756  1.00  0.00     0.198 A 
ATOM     92  F   UNL A   1      43.706  34.401  26.658  1.00  0.00    -0.203 F 
ATOM     93  F   UNL A   1      46.642  36.205  30.888  1.00  0.00    -0.200 F 
ATOM     94  C   UNL A   1      45.563  36.624  28.829  1.00  0.00     0.200 A 
ATOM     95  F   UNL A   1      44.458  36.996  26.777  1.00  0.00    -0.200 F 
ATOM     96  F   UNL A   1      45.891  37.921  28.906  1.00  0.00    -0.200 F 
ENDBRANCH  63  86
ENDBRANCH  37  38
ENDBRANCH  30  32
ENDBRANCH  29  30
ENDBRANCH  28  29
ENDBRANCH  27  28
ENDBRANCH  26  27
ENDBRANCH   1  26
TORSDOF 18
ENDMDL
MODEL 2
REMARK VINA RESULT:     -11.2      4.325     10.131
REMARK SMILES O=C(C[NH+]1CC[NH+](Cc2cc(Cl)ccc2[N+](=O)[O-])CC1)OCCOCCOC(=O)c1ccc(-c2c3nc(c(-c4c(F)c(F)c(F)c(F)c4F)c4ccc([nH]4)c(-c4c(F)c(F)c(F)c(F)c4F)c4nc(c(-c5c(F)c(F)c(F)c(F)c5F)c5ccc2[nH]5)C=C4)C=C3)cc1
REMARK SMILES IDX 23 1 22 2 21 3 2 4 1 5 3 6 4 7 5 8 20 9 6 11 19 12 7 13 8 15
REMARK SMILES IDX 9 16 10 17 15 18 11 19 14 20 12 21 13 22 16 23 17 24 18 25
REMARK SMILES IDX 24 26 25 27 26 28 27 29 28 30 29 31 30 32 31 33 92 34 32 35
REMARK SMILES IDX 91 36 33 37 34 38 35 39 85 40 36 41 90 42 84 43 86 44 37 45
REMARK SMILES IDX 89 46 83 47 82 48 38 50 70 51 50 52 69 53 51 54 54 55 68 56
REMARK SMILES IDX 87 57 52 58 53 59 67 61 88 62 55 63 39 64 40 65 48 66 41 67
REMARK SMILES IDX 42 68 46 69 49 70 43 71 44 72 47 73 45 74 71 75 72 76 80 77
REMARK SMILES IDX 73 78 74 79 78 80 81 81 75 82 76 83 79 84 77 85 56 86 57 87
REMARK SMILES IDX 65 88 58 89 59 90 63 91 66 92 60 93 61 94 64 95 62 96
REMARK H PARENT 4 10 7 14 86 49 54 60
REMARK Flexibility Score: inf
ROOT
ATOM      1  C   UNL A   1      30.427  30.077  24.189  1.00  0.00     0.202 C 
ENDROOT
BRANCH   1   2
ATOM      2  C   UNL A   1      29.594  29.416  23.095  1.00  0.00     0.261 C 
BRANCH   2   3
ATOM      3  O   UNL A   1      30.356  28.558  22.218  1.00  0.00    -0.459 OA
BRANCH   3   4
ATOM      4  C   UNL A   1      30.621  27.236  22.348  1.00  0.00     0.361 C 
ATOM      5  O   UNL A   1      31.245  26.670  21.446  1.00  0.00    -0.245 OA
BRANCH   4   6
ATOM      6  C   UNL A   1      30.049  26.408  23.497  1.00  0.00     0.386 C 
BRANCH   6   7
ATOM      7  N   UNL A   1      31.023  26.128  24.539  1.00  0.00    -0.316 N 
ATOM      8  C   UNL A   1      30.598  25.132  25.522  1.00  0.00     0.325 C 
ATOM      9  C   UNL A   1      32.388  25.982  24.035  1.00  0.00     0.325 C 
ATOM     10  H   UNL A   1      31.062  26.978  25.101  1.00  0.00     0.348 HD
ATOM     11  C   UNL A   1      31.177  23.714  25.357  1.00  0.00     0.324 C 
ATOM     12  C   UNL A   1      32.856  24.531  23.831  1.00  0.00     0.324 C 
ATOM     13  N   UNL A   1      32.587  23.640  24.960  1.00  0.00    -0.322 N 
ATOM     14  H   UNL A   1      32.731  22.691  24.615  1.00  0.00     0.348 HD
BRANCH  13  15
ATOM     15  C   UNL A   1      33.584  23.612  26.039  1.00  0.00     0.306 C 
BRANCH  15  16
ATOM     16  C   UNL A   1      34.834  22.769  25.838  1.00  0.00     0.085 A 
ATOM     17  C   UNL A   1      36.065  23.384  26.166  1.00  0.00     0.037 A 
ATOM     18  C   UNL A   1      34.893  21.468  25.284  1.00  0.00     0.278 A 
ATOM     19  C   UNL A   1      37.291  22.809  25.824  1.00  0.00     0.042 A 
ATOM     20  C   UNL A   1      36.141  20.890  24.952  1.00  0.00     0.088 A 
ATOM     21  Cl  UNL A   1      38.750  23.664  26.125  1.00  0.00    -0.084 Cl
ATOM     22  C   UNL A   1      37.332  21.574  25.195  1.00  0.00     0.027 A 
BRANCH  18  23
ATOM     23  N   UNL A   1      33.698  20.650  24.984  1.00  0.00     0.063 N 
ATOM     24  O   UNL A   1      33.278  19.906  25.883  1.00  0.00    -0.258 OA
ATOM     25  O   UNL A   1      33.163  20.754  23.877  1.00  0.00    -0.258 OA
ENDBRANCH  18  23
ENDBRANCH  15  16
ENDBRANCH  13  15
ENDBRANCH   6   7
ENDBRANCH   4   6
ENDBRANCH   3   4
ENDBRANCH   2   3
ENDBRANCH   1   2
BRANCH   1  26
ATOM     26  O   UNL A   1      31.463  29.297  24.780  1.00  0.00    -0.374 OA
BRANCH  26  27
ATOM     27  C   UNL A   1      31.870  29.687  26.095  1.00  0.00     0.202 C 
BRANCH  27  28
ATOM     28  C   UNL A   1      31.964  31.189  26.369  1.00  0.00     0.261 C 
BRANCH  28  29
ATOM     29  O   UNL A   1      32.565  31.448  27.644  1.00  0.00    -0.460 OA
BRANCH  29  30
ATOM     30  C   UNL A   1      33.445  32.474  27.649  1.00  0.00     0.338 C 
ATOM     31  O   UNL A   1      33.192  33.667  27.561  1.00  0.00    -0.246 OA
BRANCH  30  32
ATOM     32  C   UNL A   1      34.787  31.966  27.990  1.00  0.00     0.060 A 
ATOM     33  C   UNL A   1      34.908  30.588  28.206  1.00  0.00     0.016 A 
ATOM     34  C   UNL A   1      35.898  32.807  28.113  1.00  0.00     0.016 A 
ATOM     35  C   UNL A   1      36.116  30.058  28.640  1.00  0.00     0.010 A 
ATOM     36  C   UNL A   1      37.113  32.273  28.545  1.00  0.00     0.010 A 
ATOM     37  C   UNL A   1      37.206  30.908  28.866  1.00  0.00    -0.014 A 
BRANCH  37  38
ATOM     38  C   UNL A   1      38.368  30.382  29.616  1.00  0.00     0.031 A 
ATOM     39  C   UNL A   1      38.554  30.809  31.047  1.00  0.00     0.074 A 
ATOM     40  C   UNL A   1      39.187  29.476  29.056  1.00  0.00     0.049 A 
ATOM     41  N   UNL A   1      39.466  30.447  31.911  1.00  0.00    -0.248 NA
ATOM     42  C   UNL A   1      37.578  31.777  31.574  1.00  0.00     0.031 C 
ATOM     43  C   UNL A   1      39.080  28.977  27.686  1.00  0.00     0.029 A 
ATOM     44  N   UNL A   1      40.267  28.813  29.575  1.00  0.00    -0.354 N 
ATOM     45  C   UNL A   1      39.169  31.134  33.082  1.00  0.00     0.074 A 
ATOM     46  C   UNL A   1      38.027  31.976  32.804  1.00  0.00     0.031 C 
ATOM     47  C   UNL A   1      40.060  28.084  27.471  1.00  0.00     0.029 A 
ATOM     48  C   UNL A   1      40.876  27.971  28.678  1.00  0.00     0.049 A 
ATOM     49  H   UNL A   1      40.577  28.927  30.503  1.00  0.00     0.167 HD
ATOM     50  C   UNL A   1      39.781  31.051  34.286  1.00  0.00     0.037 A 
ATOM     51  C   UNL A   1      41.978  27.212  28.818  1.00  0.00     0.037 A 
ATOM     52  C   UNL A   1      40.923  30.216  34.550  1.00  0.00     0.049 A 
ATOM     53  C   UNL A   1      42.679  27.185  30.152  1.00  0.00     0.074 A 
ATOM     54  C   UNL A   1      41.629  30.060  35.728  1.00  0.00     0.029 A 
ATOM     55  N   UNL A   1      41.531  29.396  33.607  1.00  0.00    -0.354 N 
ATOM     56  N   UNL A   1      42.377  27.818  31.261  1.00  0.00    -0.248 NA
ATOM     57  C   UNL A   1      43.864  26.324  30.258  1.00  0.00     0.031 C 
ATOM     58  C   UNL A   1      42.695  29.187  35.488  1.00  0.00     0.029 A 
ATOM     59  C   UNL A   1      42.616  28.746  34.176  1.00  0.00     0.049 A 
ATOM     60  H   UNL A   1      41.236  29.292  32.674  1.00  0.00     0.167 HD
ATOM     61  C   UNL A   1      43.318  27.415  32.200  1.00  0.00     0.074 A 
ATOM     62  C   UNL A   1      44.179  26.458  31.537  1.00  0.00     0.031 C 
ATOM     63  C   UNL A   1      43.462  27.800  33.494  1.00  0.00     0.037 A 
BRANCH  50  64
ATOM     64  C   UNL A   1      39.234  31.895  35.403  1.00  0.00     0.064 A 
ATOM     65  C   UNL A   1      38.376  31.361  36.377  1.00  0.00     0.173 A 
ATOM     66  C   UNL A   1      39.597  33.244  35.521  1.00  0.00     0.173 A 
ATOM     67  F   UNL A   1      37.984  30.080  36.304  1.00  0.00    -0.203 F 
ATOM     68  C   UNL A   1      37.884  32.152  37.412  1.00  0.00     0.198 A 
ATOM     69  C   UNL A   1      39.128  34.025  36.575  1.00  0.00     0.198 A 
ATOM     70  F   UNL A   1      40.414  33.807  34.618  1.00  0.00    -0.203 F 
ATOM     71  F   UNL A   1      37.027  31.632  38.303  1.00  0.00    -0.200 F 
ATOM     72  C   UNL A   1      38.267  33.481  37.516  1.00  0.00     0.200 A 
ATOM     73  F   UNL A   1      39.510  35.305  36.680  1.00  0.00    -0.200 F 
ATOM     74  F   UNL A   1      37.801  34.239  38.518  1.00  0.00    -0.200 F 
ENDBRANCH  50  64
BRANCH  51  75
ATOM     75  C   UNL A   1      42.495  26.428  27.663  1.00  0.00     0.064 A 
ATOM     76  C   UNL A   1      42.050  25.124  27.406  1.00  0.00     0.173 A 
ATOM     77  C   UNL A   1      43.467  26.965  26.805  1.00  0.00     0.173 A 
ATOM     78  F   UNL A   1      41.136  24.559  28.209  1.00  0.00    -0.203 F 
ATOM     79  C   UNL A   1      42.578  24.377  26.355  1.00  0.00     0.198 A 
ATOM     80  C   UNL A   1      43.968  26.231  25.733  1.00  0.00     0.198 A 
ATOM     81  F   UNL A   1      43.925  28.210  27.003  1.00  0.00    -0.203 F 
ATOM     82  F   UNL A   1      42.178  23.112  26.169  1.00  0.00    -0.200 F 
ATOM     83  C   UNL A   1      43.533  24.933  25.516  1.00  0.00     0.200 A 
ATOM     84  F   UNL A   1      44.877  26.778  24.915  1.00  0.00    -0.200 F 
ATOM     85  F   UNL A   1      44.038  24.214  24.505  1.00  0.00    -0.200 F 
ENDBRANCH  51  75
BRANCH  63  86
ATOM     86  C   UNL A   1      44.573  27.158  34.277  1.00  0.00     0.064 A 
ATOM     87  C   UNL A   1      45.854  27.727  34.343  1.00  0.00     0.173 A 
ATOM     88  C   UNL A   1      44.350  25.962  34.976  1.00  0.00     0.173 A 
ATOM     89  F   UNL A   1      46.124  28.864  33.685  1.00  0.00    -0.203 F 
ATOM     90  C   UNL A   1      46.882  27.096  35.039  1.00  0.00     0.198 A 
ATOM     91  C   UNL A   1      45.369  25.355  35.703  1.00  0.00     0.198 A 
ATOM     92  F   UNL A   1      43.140  25.382  34.957  1.00  0.00    -0.203 F 
ATOM     93  F   UNL A   1      48.116  27.619  35.026  1.00  0.00    -0.200 F 
ATOM     94  C   UNL A   1      46.637  25.913  35.722  1.00  0.00     0.200 A 
ATOM     95  F   UNL A   1      45.126  24.223  36.378  1.00  0.00    -0.200 F 
ATOM     96  F   UNL A   1      47.629  25.307  36.389  1.00  0.00    -0.200 F 
ENDBRANCH  63  86
ENDBRANCH  37  38
ENDBRANCH  30  32
ENDBRANCH  29  30
ENDBRANCH  28  29
ENDBRANCH  27  28
ENDBRANCH  26  27
ENDBRANCH   1  26
TORSDOF 18
ENDMDL
MODEL 3
REMARK VINA RESULT:     -11.1      4.029     10.016
REMARK SMILES O=C(C[NH+]1CC[NH+](Cc2cc(Cl)ccc2[N+](=O)[O-])CC1)OCCOCCOC(=O)c1ccc(-c2c3nc(c(-c4c(F)c(F)c(F)c(F)c4F)c4ccc([nH]4)c(-c4c(F)c(F)c(F)c(F)c4F)c4nc(c(-c5c(F)c(F)c(F)c(F)c5F)c5ccc2[nH]5)C=C4)C=C3)cc1
REMARK SMILES IDX 23 1 22 2 21 3 2 4 1 5 3 6 4 7 5 8 20 9 6 11 19 12 7 13 8 15
REMARK SMILES IDX 9 16 10 17 15 18 11 19 14 20 12 21 13 22 16 23 17 24 18 25
REMARK SMILES IDX 24 26 25 27 26 28 27 29 28 30 29 31 30 32 31 33 92 34 32 35
REMARK SMILES IDX 91 36 33 37 34 38 35 39 85 40 36 41 90 42 84 43 86 44 37 45
REMARK SMILES IDX 89 46 83 47 82 48 38 50 70 51 50 52 69 53 51 54 54 55 68 56
REMARK SMILES IDX 87 57 52 58 53 59 67 61 88 62 55 63 39 64 40 65 48 66 41 67
REMARK SMILES IDX 42 68 46 69 49 70 43 71 44 72 47 73 45 74 71 75 72 76 80 77
REMARK SMILES IDX 73 78 74 79 78 80 81 81 75 82 76 83 79 84 77 85 56 86 57 87
REMARK SMILES IDX 65 88 58 89 59 90 63 91 66 92 60 93 61 94 64 95 62 96
REMARK H PARENT 4 10 7 14 86 49 54 60
REMARK Flexibility Score: inf
ROOT
ATOM      1  C   UNL A   1      31.446  27.583  25.940  1.00  0.00     0.202 C 
ENDROOT
BRANCH   1   2
ATOM      2  C   UNL A   1      30.934  26.179  25.634  1.00  0.00     0.261 C 
BRANCH   2   3
ATOM      3  O   UNL A   1      31.243  25.208  26.658  1.00  0.00    -0.459 OA
BRANCH   3   4
ATOM      4  C   UNL A   1      30.837  23.920  26.752  1.00  0.00     0.361 C 
ATOM      5  O   UNL A   1      29.734  23.685  27.251  1.00  0.00    -0.245 OA
BRANCH   4   6
ATOM      6  C   UNL A   1      31.760  22.755  26.395  1.00  0.00     0.386 C 
BRANCH   6   7
ATOM      7  N   UNL A   1      33.088  23.183  25.987  1.00  0.00    -0.316 N 
ATOM      8  C   UNL A   1      34.172  22.719  26.853  1.00  0.00     0.325 C 
ATOM      9  C   UNL A   1      33.323  23.057  24.550  1.00  0.00     0.325 C 
ATOM     10  H   UNL A   1      33.104  24.190  26.148  1.00  0.00     0.348 HD
ATOM     11  C   UNL A   1      34.994  21.521  26.339  1.00  0.00     0.324 C 
ATOM     12  C   UNL A   1      34.088  21.793  24.122  1.00  0.00     0.324 C 
ATOM     13  N   UNL A   1      35.293  21.516  24.904  1.00  0.00    -0.322 N 
ATOM     14  H   UNL A   1      35.566  20.560  24.678  1.00  0.00     0.348 HD
BRANCH  13  15
ATOM     15  C   UNL A   1      36.532  22.183  24.477  1.00  0.00     0.306 C 
BRANCH  15  16
ATOM     16  C   UNL A   1      37.688  22.245  25.463  1.00  0.00     0.085 A 
ATOM     17  C   UNL A   1      37.883  23.481  26.124  1.00  0.00     0.037 A 
ATOM     18  C   UNL A   1      38.629  21.221  25.725  1.00  0.00     0.278 A 
ATOM     19  C   UNL A   1      39.028  23.741  26.879  1.00  0.00     0.042 A 
ATOM     20  C   UNL A   1      39.781  21.493  26.501  1.00  0.00     0.088 A 
ATOM     21  Cl  UNL A   1      39.278  25.305  27.545  1.00  0.00    -0.084 Cl
ATOM     22  C   UNL A   1      39.991  22.758  27.050  1.00  0.00     0.027 A 
BRANCH  18  23
ATOM     23  N   UNL A   1      38.510  19.844  25.198  1.00  0.00     0.063 N 
ATOM     24  O   UNL A   1      39.472  19.082  25.376  1.00  0.00    -0.258 OA
ATOM     25  O   UNL A   1      37.467  19.509  24.631  1.00  0.00    -0.258 OA
ENDBRANCH  18  23
ENDBRANCH  15  16
ENDBRANCH  13  15
ENDBRANCH   6   7
ENDBRANCH   4   6
ENDBRANCH   3   4
ENDBRANCH   2   3
ENDBRANCH   1   2
BRANCH   1  26
ATOM     26  O   UNL A   1      31.124  28.611  25.007  1.00  0.00    -0.374 OA
BRANCH  26  27
ATOM     27  C   UNL A   1      31.435  29.947  25.412  1.00  0.00     0.202 C 
BRANCH  27  28
ATOM     28  C   UNL A   1      32.854  30.196  25.929  1.00  0.00     0.261 C 
BRANCH  28  29
ATOM     29  O   UNL A   1      32.840  30.618  27.299  1.00  0.00    -0.460 OA
BRANCH  29  30
ATOM     30  C   UNL A   1      33.534  31.753  27.541  1.00  0.00     0.338 C 
ATOM     31  O   UNL A   1      33.088  32.889  27.627  1.00  0.00    -0.246 OA
BRANCH  30  32
ATOM     32  C   UNL A   1      34.922  31.412  27.900  1.00  0.00     0.060 A 
ATOM     33  C   UNL A   1      35.216  30.055  28.080  1.00  0.00     0.016 A 
ATOM     34  C   UNL A   1      35.912  32.384  28.075  1.00  0.00     0.016 A 
ATOM     35  C   UNL A   1      36.473  29.672  28.529  1.00  0.00     0.010 A 
ATOM     36  C   UNL A   1      37.176  31.999  28.522  1.00  0.00     0.010 A 
ATOM     37  C   UNL A   1      37.438  30.648  28.807  1.00  0.00    -0.014 A 
BRANCH  37  38
ATOM     38  C   UNL A   1      38.643  30.252  29.571  1.00  0.00     0.031 A 
ATOM     39  C   UNL A   1      38.784  30.732  30.990  1.00  0.00     0.074 A 
ATOM     40  C   UNL A   1      39.543  29.412  29.035  1.00  0.00     0.049 A 
ATOM     41  N   UNL A   1      39.724  30.480  31.864  1.00  0.00    -0.248 NA
ATOM     42  C   UNL A   1      37.720  31.619  31.491  1.00  0.00     0.031 C 
ATOM     43  C   UNL A   1      39.487  28.869  27.679  1.00  0.00     0.029 A 
ATOM     44  N   UNL A   1      40.680  28.866  29.572  1.00  0.00    -0.354 N 
ATOM     45  C   UNL A   1      39.360  31.167  33.016  1.00  0.00     0.074 A 
ATOM     46  C   UNL A   1      38.146  31.891  32.715  1.00  0.00     0.031 C 
ATOM     47  C   UNL A   1      40.547  28.066  27.488  1.00  0.00     0.029 A 
ATOM     48  C   UNL A   1      41.367  28.062  28.698  1.00  0.00     0.049 A 
ATOM     49  H   UNL A   1      40.975  29.034  30.497  1.00  0.00     0.167 HD
ATOM     50  C   UNL A   1      39.974  31.174  34.222  1.00  0.00     0.037 A 
ATOM     51  C   UNL A   1      42.535  27.413  28.858  1.00  0.00     0.037 A 
ATOM     52  C   UNL A   1      41.189  30.456  34.508  1.00  0.00     0.049 A 
ATOM     53  C   UNL A   1      43.231  27.486  30.193  1.00  0.00     0.074 A 
ATOM     54  C   UNL A   1      41.903  30.398  35.690  1.00  0.00     0.029 A 
ATOM     55  N   UNL A   1      41.873  29.672  33.588  1.00  0.00    -0.354 N 
ATOM     56  N   UNL A   1      42.869  28.117  31.284  1.00  0.00    -0.248 NA
ATOM     57  C   UNL A   1      44.491  26.743  30.322  1.00  0.00     0.031 C 
ATOM     58  C   UNL A   1      43.046  29.622  35.473  1.00  0.00     0.029 A 
ATOM     59  C   UNL A   1      43.012  29.141  34.173  1.00  0.00     0.049 A 
ATOM     60  H   UNL A   1      41.592  29.516  32.658  1.00  0.00     0.167 HD
ATOM     61  C   UNL A   1      43.840  27.829  32.234  1.00  0.00     0.074 A 
ATOM     62  C   UNL A   1      44.789  26.939  31.597  1.00  0.00     0.031 C 
ATOM     63  C   UNL A   1      43.945  28.260  33.517  1.00  0.00     0.037 A 
BRANCH  50  64
ATOM     64  C   UNL A   1      39.348  31.992  35.316  1.00  0.00     0.064 A 
ATOM     65  C   UNL A   1      39.572  33.374  35.422  1.00  0.00     0.173 A 
ATOM     66  C   UNL A   1      38.491  31.395  36.251  1.00  0.00     0.173 A 
ATOM     67  F   UNL A   1      40.397  33.993  34.564  1.00  0.00    -0.203 F 
ATOM     68  C   UNL A   1      38.978  34.121  36.437  1.00  0.00     0.198 A 
ATOM     69  C   UNL A   1      37.874  32.151  37.245  1.00  0.00     0.198 A 
ATOM     70  F   UNL A   1      38.242  30.077  36.198  1.00  0.00    -0.203 F 
ATOM     71  F   UNL A   1      39.245  35.431  36.546  1.00  0.00    -0.200 F 
ATOM     72  C   UNL A   1      38.123  33.511  37.342  1.00  0.00     0.200 A 
ATOM     73  F   UNL A   1      37.038  31.561  38.111  1.00  0.00    -0.200 F 
ATOM     74  F   UNL A   1      37.545  34.233  38.311  1.00  0.00    -0.200 F 
ENDBRANCH  50  64
BRANCH  51  75
ATOM     75  C   UNL A   1      43.125  26.650  27.725  1.00  0.00     0.064 A 
ATOM     76  C   UNL A   1      43.876  27.286  26.728  1.00  0.00     0.173 A 
ATOM     77  C   UNL A   1      42.926  25.266  27.607  1.00  0.00     0.173 A 
ATOM     78  F   UNL A   1      44.079  28.611  26.784  1.00  0.00    -0.203 F 
ATOM     79  C   UNL A   1      44.380  26.574  25.640  1.00  0.00     0.198 A 
ATOM     80  C   UNL A   1      43.460  24.548  26.539  1.00  0.00     0.198 A 
ATOM     81  F   UNL A   1      42.218  24.607  28.536  1.00  0.00    -0.203 F 
ATOM     82  F   UNL A   1      45.043  27.217  24.671  1.00  0.00    -0.200 F 
ATOM     83  C   UNL A   1      44.176  25.205  25.550  1.00  0.00     0.200 A 
ATOM     84  F   UNL A   1      43.276  23.224  26.465  1.00  0.00    -0.200 F 
ATOM     85  F   UNL A   1      44.662  24.521  24.506  1.00  0.00    -0.200 F 
ENDBRANCH  51  75
BRANCH  63  86
ATOM     86  C   UNL A   1      45.108  27.746  34.317  1.00  0.00     0.064 A 
ATOM     87  C   UNL A   1      45.016  26.576  35.086  1.00  0.00     0.173 A 
ATOM     88  C   UNL A   1      46.333  28.431  34.310  1.00  0.00     0.173 A 
ATOM     89  F   UNL A   1      43.865  25.889  35.137  1.00  0.00    -0.203 F 
ATOM     90  C   UNL A   1      46.092  26.138  35.855  1.00  0.00     0.198 A 
ATOM     91  C   UNL A   1      47.418  27.968  35.048  1.00  0.00     0.198 A 
ATOM     92  F   UNL A   1      46.480  29.548  33.581  1.00  0.00    -0.203 F 
ATOM     93  F   UNL A   1      45.956  25.060  36.639  1.00  0.00    -0.200 F 
ATOM     94  C   UNL A   1      47.293  26.832  35.831  1.00  0.00     0.200 A 
ATOM     95  F   UNL A   1      48.584  28.629  35.009  1.00  0.00    -0.200 F 
ATOM     96  F   UNL A   1      48.325  26.410  36.574  1.00  0.00    -0.200 F 
ENDBRANCH  63  86
ENDBRANCH  37  38
ENDBRANCH  30  32
ENDBRANCH  29  30
ENDBRANCH  28  29
ENDBRANCH  27  28
ENDBRANCH  26  27
ENDBRANCH   1  26
TORSDOF 18
ENDMDL
