MODEL 1
REMARK VINA RESULT:     -12.8      0.000      0.000
REMARK SMILES Cc1nnc(SCC(=O)Nc2cccc(C(=O)OCCOCCOC(=O)c3ccc(-c4c5nc(c(-c6c(F)c(F)c(F)c(F)c6F)c6ccc([nH]6)c(-c6c(F)c(F)c(F)c(F)c6F)c6nc(c(-c7c(F)c(F)c(F)c(F)c7F)c7ccc4[nH]7)C=C6)C=C5)cc3)c2)n1-c1ccccc1
REMARK SMILES IDX 19 1 18 2 16 3 17 4 15 5 11 6 12 7 90 8 13 9 14 10 10 11
REMARK SMILES IDX 8 12 9 13 7 15 6 16 5 17 1 18 2 19 3 20 91 21 4 22 92 23
REMARK SMILES IDX 93 24 97 25 94 26 96 27 95 28 20 29 21 30 22 31 23 32 24 33
REMARK SMILES IDX 25 34 26 35 27 36 28 37 89 38 29 39 88 40 30 41 31 42 32 43
REMARK SMILES IDX 82 44 33 45 87 46 81 47 83 48 34 49 86 50 80 51 79 52 35 54
REMARK SMILES IDX 67 55 47 56 66 57 48 58 51 59 65 60 84 61 49 62 50 63 64 65
REMARK SMILES IDX 85 66 52 67 36 68 37 69 45 70 38 71 39 72 43 73 46 74 40 75
REMARK SMILES IDX 41 76 44 77 42 78 68 79 69 80 77 81 70 82 71 83 75 84 78 85
REMARK SMILES IDX 72 86 73 87 76 88 74 89 53 90 54 91 62 92 55 93 56 94 60 95
REMARK SMILES IDX 63 96 57 97 58 98 61 99 59 100
REMARK H PARENT 10 14 83 53 51 64
REMARK Flexibility Score: inf
ROOT
ATOM      1  C   UNL A   1      39.353  21.825  26.173  1.00  0.00     0.261 C 
ENDROOT
BRANCH   1   2
ATOM      2  O   UNL A   1      38.142  21.739  25.415  1.00  0.00    -0.460 OA
BRANCH   2   3
ATOM      3  C   UNL A   1      37.168  22.627  25.737  1.00  0.00     0.338 C 
ATOM      4  O   UNL A   1      37.272  23.833  25.835  1.00  0.00    -0.246 OA
BRANCH   3   5
ATOM      5  C   UNL A   1      35.870  21.907  25.807  1.00  0.00     0.062 A 
ATOM      6  C   UNL A   1      33.681  21.637  26.760  1.00  0.00     0.042 A 
ATOM      7  C   UNL A   1      33.438  20.555  25.911  1.00  0.00     0.026 A 
ATOM      8  C   UNL A   1      34.926  22.235  26.775  1.00  0.00     0.041 A 
ATOM      9  C   UNL A   1      34.407  20.165  24.989  1.00  0.00     0.003 A 
ATOM     10  C   UNL A   1      35.611  20.865  24.912  1.00  0.00     0.016 A 
BRANCH   6  11
ATOM     11  N   UNL A   1      32.611  22.130  27.505  1.00  0.00    -0.325 N 
ATOM     12  C   UNL A   1      31.837  23.201  27.175  1.00  0.00     0.234 C 
ATOM     13  O   UNL A   1      30.632  23.017  27.411  1.00  0.00    -0.274 OA
ATOM     14  H   UNL A   1      32.395  21.664  28.344  1.00  0.00     0.169 HD
BRANCH  12  15
ATOM     15  C   UNL A   1      32.258  24.416  26.370  1.00  0.00     0.178 C 
BRANCH  15  16
ATOM     16  S   UNL A   1      31.501  24.830  24.792  1.00  0.00    -0.076 SA
BRANCH  16  17
ATOM     17  C   UNL A   1      32.607  25.650  23.751  1.00  0.00     0.196 A 
ATOM     18  C   UNL A   1      34.249  28.547  22.299  1.00  0.00     0.090 C 
ATOM     19  C   UNL A   1      33.634  27.248  22.651  1.00  0.00     0.135 A 
ATOM     20  N   UNL A   1      33.604  26.176  21.885  1.00  0.00    -0.134 NA
ATOM     21  N   UNL A   1      33.005  26.965  23.844  1.00  0.00    -0.274 N 
ATOM     22  N   UNL A   1      32.957  25.176  22.574  1.00  0.00    -0.123 NA
BRANCH  21  23
ATOM     23  C   UNL A   1      32.847  27.827  24.928  1.00  0.00     0.049 A 
ATOM     24  C   UNL A   1      31.793  28.735  24.896  1.00  0.00     0.027 A 
ATOM     25  C   UNL A   1      33.808  27.850  25.936  1.00  0.00     0.027 A 
ATOM     26  C   UNL A   1      31.773  29.774  25.820  1.00  0.00     0.002 A 
ATOM     27  C   UNL A   1      33.750  28.870  26.883  1.00  0.00     0.002 A 
ATOM     28  C   UNL A   1      32.758  29.851  26.801  1.00  0.00     0.000 A 
ENDBRANCH  21  23
ENDBRANCH  16  17
ENDBRANCH  15  16
ENDBRANCH  12  15
ENDBRANCH   6  11
ENDBRANCH   3   5
ENDBRANCH   2   3
ENDBRANCH   1   2
BRANCH   1  29
ATOM     29  C   UNL A   1      40.116  20.498  26.144  1.00  0.00     0.202 C 
BRANCH  29  30
ATOM     30  O   UNL A   1      41.544  20.566  26.149  1.00  0.00    -0.374 OA
BRANCH  30  31
ATOM     31  C   UNL A   1      42.293  19.405  26.491  1.00  0.00     0.202 C 
BRANCH  31  32
ATOM     32  C   UNL A   1      43.392  18.952  25.546  1.00  0.00     0.261 C 
BRANCH  32  33
ATOM     33  O   UNL A   1      43.608  19.873  24.489  1.00  0.00    -0.460 OA
BRANCH  33  34
ATOM     34  C   UNL A   1      44.886  20.309  24.405  1.00  0.00     0.338 C 
ATOM     35  O   UNL A   1      45.888  19.637  24.252  1.00  0.00    -0.246 OA
BRANCH  34  36
ATOM     36  C   UNL A   1      44.905  21.730  24.760  1.00  0.00     0.060 A 
ATOM     37  C   UNL A   1      45.797  22.108  25.764  1.00  0.00     0.016 A 
ATOM     38  C   UNL A   1      43.877  22.577  24.318  1.00  0.00     0.016 A 
ATOM     39  C   UNL A   1      45.537  23.265  26.459  1.00  0.00     0.010 A 
ATOM     40  C   UNL A   1      43.616  23.729  25.017  1.00  0.00     0.010 A 
ATOM     41  C   UNL A   1      44.400  24.015  26.126  1.00  0.00    -0.014 A 
BRANCH  41  42
ATOM     42  C   UNL A   1      44.141  25.215  26.888  1.00  0.00     0.031 A 
ATOM     43  C   UNL A   1      45.167  26.253  26.657  1.00  0.00     0.074 A 
ATOM     44  C   UNL A   1      43.036  25.383  27.637  1.00  0.00     0.049 A 
ATOM     45  N   UNL A   1      46.019  26.717  27.505  1.00  0.00    -0.248 NA
ATOM     46  C   UNL A   1      45.388  26.701  25.275  1.00  0.00     0.031 C 
ATOM     47  C   UNL A   1      41.850  24.529  27.719  1.00  0.00     0.029 A 
ATOM     48  N   UNL A   1      42.716  26.428  28.444  1.00  0.00    -0.354 N 
ATOM     49  C   UNL A   1      46.761  27.664  26.810  1.00  0.00     0.074 A 
ATOM     50  C   UNL A   1      46.446  27.498  25.416  1.00  0.00     0.031 C 
ATOM     51  C   UNL A   1      40.862  25.197  28.359  1.00  0.00     0.029 A 
ATOM     52  C   UNL A   1      41.388  26.459  28.849  1.00  0.00     0.049 A 
ATOM     53  H   UNL A   1      43.372  27.109  28.721  1.00  0.00     0.167 HD
ATOM     54  C   UNL A   1      47.360  28.682  27.480  1.00  0.00     0.037 A 
ATOM     55  C   UNL A   1      40.774  27.484  29.492  1.00  0.00     0.037 A 
ATOM     56  C   UNL A   1      47.545  28.345  28.870  1.00  0.00     0.049 A 
ATOM     57  C   UNL A   1      41.837  28.314  30.114  1.00  0.00     0.074 A 
ATOM     58  C   UNL A   1      48.237  27.355  29.540  1.00  0.00     0.029 A 
ATOM     59  N   UNL A   1      46.633  28.838  29.769  1.00  0.00    -0.354 N 
ATOM     60  N   UNL A   1      42.585  27.908  31.102  1.00  0.00    -0.248 NA
ATOM     61  C   UNL A   1      42.378  29.418  29.335  1.00  0.00     0.031 C 
ATOM     62  C   UNL A   1      47.396  26.988  30.632  1.00  0.00     0.029 A 
ATOM     63  C   UNL A   1      46.276  27.818  30.615  1.00  0.00     0.049 A 
ATOM     64  H   UNL A   1      46.295  29.761  29.802  1.00  0.00     0.167 HD
ATOM     65  C   UNL A   1      43.854  28.378  30.798  1.00  0.00     0.074 A 
ATOM     66  C   UNL A   1      43.646  29.379  29.752  1.00  0.00     0.031 C 
ATOM     67  C   UNL A   1      44.966  27.704  31.215  1.00  0.00     0.037 A 
BRANCH  54  68
ATOM     68  C   UNL A   1      47.354  30.102  26.975  1.00  0.00     0.064 A 
ATOM     69  C   UNL A   1      48.527  30.869  27.092  1.00  0.00     0.173 A 
ATOM     70  C   UNL A   1      46.176  30.828  26.685  1.00  0.00     0.173 A 
ATOM     71  F   UNL A   1      49.697  30.284  27.390  1.00  0.00    -0.203 F 
ATOM     72  C   UNL A   1      48.506  32.263  27.006  1.00  0.00     0.198 A 
ATOM     73  C   UNL A   1      46.169  32.213  26.548  1.00  0.00     0.198 A 
ATOM     74  F   UNL A   1      44.968  30.255  26.639  1.00  0.00    -0.203 F 
ATOM     75  F   UNL A   1      49.623  32.960  27.254  1.00  0.00    -0.200 F 
ATOM     76  C   UNL A   1      47.326  32.934  26.741  1.00  0.00     0.200 A 
ATOM     77  F   UNL A   1      45.009  32.846  26.316  1.00  0.00    -0.200 F 
ATOM     78  F   UNL A   1      47.292  34.273  26.724  1.00  0.00    -0.200 F 
ENDBRANCH  54  68
BRANCH  55  79
ATOM     79  C   UNL A   1      39.390  27.986  29.310  1.00  0.00     0.064 A 
ATOM     80  C   UNL A   1      38.529  28.146  30.410  1.00  0.00     0.173 A 
ATOM     81  C   UNL A   1      38.986  28.599  28.108  1.00  0.00     0.173 A 
ATOM     82  F   UNL A   1      38.861  27.637  31.606  1.00  0.00    -0.203 F 
ATOM     83  C   UNL A   1      37.353  28.899  30.320  1.00  0.00     0.198 A 
ATOM     84  C   UNL A   1      37.809  29.344  28.017  1.00  0.00     0.198 A 
ATOM     85  F   UNL A   1      39.773  28.572  27.024  1.00  0.00    -0.203 F 
ATOM     86  F   UNL A   1      36.593  29.086  31.408  1.00  0.00    -0.200 F 
ATOM     87  C   UNL A   1      37.000  29.507  29.126  1.00  0.00     0.200 A 
ATOM     88  F   UNL A   1      37.500  29.961  26.868  1.00  0.00    -0.200 F 
ATOM     89  F   UNL A   1      35.910  30.283  29.055  1.00  0.00    -0.200 F 
ENDBRANCH  55  79
BRANCH  67  90
ATOM     90  C   UNL A   1      44.771  26.617  32.239  1.00  0.00     0.064 A 
ATOM     91  C   UNL A   1      44.532  25.264  31.931  1.00  0.00     0.173 A 
ATOM     92  C   UNL A   1      44.941  26.945  33.590  1.00  0.00     0.173 A 
ATOM     93  F   UNL A   1      44.458  24.847  30.661  1.00  0.00    -0.203 F 
ATOM     94  C   UNL A   1      44.412  24.302  32.934  1.00  0.00     0.198 A 
ATOM     95  C   UNL A   1      44.860  25.976  34.587  1.00  0.00     0.198 A 
ATOM     96  F   UNL A   1      45.224  28.208  33.943  1.00  0.00    -0.203 F 
ATOM     97  F   UNL A   1      44.157  23.025  32.615  1.00  0.00    -0.200 F 
ATOM     98  C   UNL A   1      44.581  24.659  34.261  1.00  0.00     0.200 A 
ATOM     99  F   UNL A   1      45.073  26.319  35.865  1.00  0.00    -0.200 F 
ATOM    100  F   UNL A   1      44.498  23.731  35.224  1.00  0.00    -0.200 F 
ENDBRANCH  67  90
ENDBRANCH  41  42
ENDBRANCH  34  36
ENDBRANCH  33  34
ENDBRANCH  32  33
ENDBRANCH  31  32
ENDBRANCH  30  31
ENDBRANCH  29  30
ENDBRANCH   1  29
TORSDOF 19
ENDMDL
MODEL 2
REMARK VINA RESULT:     -12.2      1.050      2.007
REMARK SMILES Cc1nnc(SCC(=O)Nc2cccc(C(=O)OCCOCCOC(=O)c3ccc(-c4c5nc(c(-c6c(F)c(F)c(F)c(F)c6F)c6ccc([nH]6)c(-c6c(F)c(F)c(F)c(F)c6F)c6nc(c(-c7c(F)c(F)c(F)c(F)c7F)c7ccc4[nH]7)C=C6)C=C5)cc3)c2)n1-c1ccccc1
REMARK SMILES IDX 19 1 18 2 16 3 17 4 15 5 11 6 12 7 90 8 13 9 14 10 10 11
REMARK SMILES IDX 8 12 9 13 7 15 6 16 5 17 1 18 2 19 3 20 91 21 4 22 92 23
REMARK SMILES IDX 93 24 97 25 94 26 96 27 95 28 20 29 21 30 22 31 23 32 24 33
REMARK SMILES IDX 25 34 26 35 27 36 28 37 89 38 29 39 88 40 30 41 31 42 32 43
REMARK SMILES IDX 82 44 33 45 87 46 81 47 83 48 34 49 86 50 80 51 79 52 35 54
REMARK SMILES IDX 67 55 47 56 66 57 48 58 51 59 65 60 84 61 49 62 50 63 64 65
REMARK SMILES IDX 85 66 52 67 36 68 37 69 45 70 38 71 39 72 43 73 46 74 40 75
REMARK SMILES IDX 41 76 44 77 42 78 68 79 69 80 77 81 70 82 71 83 75 84 78 85
REMARK SMILES IDX 72 86 73 87 76 88 74 89 53 90 54 91 62 92 55 93 56 94 60 95
REMARK SMILES IDX 63 96 57 97 58 98 61 99 59 100
REMARK H PARENT 10 14 83 53 51 64
REMARK Flexibility Score: inf
ROOT
ATOM      1  C   UNL A   1      39.414  21.816  26.145  1.00  0.00     0.261 C 
ENDROOT
BRANCH   1   2
ATOM      2  O   UNL A   1      38.109  21.827  25.559  1.00  0.00    -0.460 OA
BRANCH   2   3
ATOM      3  C   UNL A   1      37.390  22.967  25.717  1.00  0.00     0.338 C 
ATOM      4  O   UNL A   1      37.763  24.011  26.212  1.00  0.00    -0.246 OA
BRANCH   3   5
ATOM      5  C   UNL A   1      36.079  22.803  25.037  1.00  0.00     0.062 A 
ATOM      6  C   UNL A   1      33.782  22.098  25.073  1.00  0.00     0.042 A 
ATOM      7  C   UNL A   1      33.625  22.520  23.751  1.00  0.00     0.026 A 
ATOM      8  C   UNL A   1      35.028  22.145  25.669  1.00  0.00     0.041 A 
ATOM      9  C   UNL A   1      34.695  23.110  23.079  1.00  0.00     0.003 A 
ATOM     10  C   UNL A   1      35.913  23.284  23.736  1.00  0.00     0.016 A 
BRANCH   6  11
ATOM     11  N   UNL A   1      32.638  21.722  25.774  1.00  0.00    -0.325 N 
ATOM     12  C   UNL A   1      31.481  22.437  25.853  1.00  0.00     0.234 C 
ATOM     13  O   UNL A   1      30.467  21.725  25.776  1.00  0.00    -0.274 OA
ATOM     14  H   UNL A   1      32.667  20.864  26.255  1.00  0.00     0.169 HD
BRANCH  12  15
ATOM     15  C   UNL A   1      31.336  23.946  25.781  1.00  0.00     0.178 C 
BRANCH  15  16
ATOM     16  S   UNL A   1      32.489  25.059  26.595  1.00  0.00    -0.076 SA
BRANCH  16  17
ATOM     17  C   UNL A   1      31.934  26.693  26.553  1.00  0.00     0.196 A 
ATOM     18  C   UNL A   1      31.660  30.056  25.206  1.00  0.00     0.090 C 
ATOM     19  C   UNL A   1      31.725  28.806  25.996  1.00  0.00     0.135 A 
ATOM     20  N   UNL A   1      31.530  28.703  27.295  1.00  0.00    -0.134 NA
ATOM     21  N   UNL A   1      31.993  27.555  25.482  1.00  0.00    -0.274 N 
ATOM     22  N   UNL A   1      31.665  27.380  27.644  1.00  0.00    -0.123 NA
BRANCH  21  23
ATOM     23  C   UNL A   1      32.233  27.237  24.145  1.00  0.00     0.049 A 
ATOM     24  C   UNL A   1      31.152  26.850  23.360  1.00  0.00     0.027 A 
ATOM     25  C   UNL A   1      33.542  27.185  23.673  1.00  0.00     0.027 A 
ATOM     26  C   UNL A   1      31.396  26.272  22.118  1.00  0.00     0.002 A 
ATOM     27  C   UNL A   1      33.769  26.646  22.409  1.00  0.00     0.002 A 
ATOM     28  C   UNL A   1      32.702  26.155  21.651  1.00  0.00     0.000 A 
ENDBRANCH  21  23
ENDBRANCH  16  17
ENDBRANCH  15  16
ENDBRANCH  12  15
ENDBRANCH   6  11
ENDBRANCH   3   5
ENDBRANCH   2   3
ENDBRANCH   1   2
BRANCH   1  29
ATOM     29  C   UNL A   1      40.026  20.413  26.098  1.00  0.00     0.202 C 
BRANCH  29  30
ATOM     30  O   UNL A   1      41.435  20.307  26.314  1.00  0.00    -0.374 OA
BRANCH  30  31
ATOM     31  C   UNL A   1      42.075  19.052  26.121  1.00  0.00     0.202 C 
BRANCH  31  32
ATOM     32  C   UNL A   1      43.474  19.039  25.530  1.00  0.00     0.261 C 
BRANCH  32  33
ATOM     33  O   UNL A   1      43.641  20.018  24.519  1.00  0.00    -0.460 OA
BRANCH  33  34
ATOM     34  C   UNL A   1      44.913  20.468  24.407  1.00  0.00     0.338 C 
ATOM     35  O   UNL A   1      45.918  19.806  24.231  1.00  0.00    -0.246 OA
BRANCH  34  36
ATOM     36  C   UNL A   1      44.925  21.888  24.764  1.00  0.00     0.060 A 
ATOM     37  C   UNL A   1      45.798  22.265  25.784  1.00  0.00     0.016 A 
ATOM     38  C   UNL A   1      43.906  22.736  24.303  1.00  0.00     0.016 A 
ATOM     39  C   UNL A   1      45.526  23.422  26.475  1.00  0.00     0.010 A 
ATOM     40  C   UNL A   1      43.632  23.887  24.999  1.00  0.00     0.010 A 
ATOM     41  C   UNL A   1      44.396  24.173  26.122  1.00  0.00    -0.014 A 
BRANCH  41  42
ATOM     42  C   UNL A   1      44.122  25.372  26.880  1.00  0.00     0.031 A 
ATOM     43  C   UNL A   1      45.133  26.423  26.641  1.00  0.00     0.074 A 
ATOM     44  C   UNL A   1      43.018  25.527  27.631  1.00  0.00     0.049 A 
ATOM     45  N   UNL A   1      45.981  26.901  27.486  1.00  0.00    -0.248 NA
ATOM     46  C   UNL A   1      45.343  26.868  25.257  1.00  0.00     0.031 C 
ATOM     47  C   UNL A   1      41.843  24.657  27.721  1.00  0.00     0.029 A 
ATOM     48  N   UNL A   1      42.685  26.571  28.436  1.00  0.00    -0.354 N 
ATOM     49  C   UNL A   1      46.708  27.855  26.784  1.00  0.00     0.074 A 
ATOM     50  C   UNL A   1      46.391  27.680  25.392  1.00  0.00     0.031 C 
ATOM     51  C   UNL A   1      40.848  25.314  28.361  1.00  0.00     0.029 A 
ATOM     52  C   UNL A   1      41.359  26.585  28.845  1.00  0.00     0.049 A 
ATOM     53  H   UNL A   1      43.333  27.262  28.707  1.00  0.00     0.167 HD
ATOM     54  C   UNL A   1      47.295  28.884  27.448  1.00  0.00     0.037 A 
ATOM     55  C   UNL A   1      40.732  27.604  29.485  1.00  0.00     0.037 A 
ATOM     56  C   UNL A   1      47.489  28.556  28.839  1.00  0.00     0.049 A 
ATOM     57  C   UNL A   1      41.786  28.452  30.101  1.00  0.00     0.074 A 
ATOM     58  C   UNL A   1      48.196  27.578  29.510  1.00  0.00     0.029 A 
ATOM     59  N   UNL A   1      46.573  29.039  29.739  1.00  0.00    -0.354 N 
ATOM     60  N   UNL A   1      42.542  28.060  31.088  1.00  0.00    -0.248 NA
ATOM     61  C   UNL A   1      42.309  29.559  29.316  1.00  0.00     0.031 C 
ATOM     62  C   UNL A   1      47.364  27.203  30.607  1.00  0.00     0.029 A 
ATOM     63  C   UNL A   1      46.232  28.019  30.590  1.00  0.00     0.049 A 
ATOM     64  H   UNL A   1      46.223  29.958  29.770  1.00  0.00     0.167 HD
ATOM     65  C   UNL A   1      43.804  28.546  30.778  1.00  0.00     0.074 A 
ATOM     66  C   UNL A   1      43.579  29.539  29.729  1.00  0.00     0.031 C 
ATOM     67  C   UNL A   1      44.926  27.889  31.194  1.00  0.00     0.037 A 
BRANCH  54  68
ATOM     68  C   UNL A   1      47.268  30.303  26.938  1.00  0.00     0.064 A 
ATOM     69  C   UNL A   1      48.439  31.077  27.024  1.00  0.00     0.173 A 
ATOM     70  C   UNL A   1      46.079  31.020  26.673  1.00  0.00     0.173 A 
ATOM     71  F   UNL A   1      49.619  30.501  27.297  1.00  0.00    -0.203 F 
ATOM     72  C   UNL A   1      48.407  32.471  26.932  1.00  0.00     0.198 A 
ATOM     73  C   UNL A   1      46.060  32.405  26.530  1.00  0.00     0.198 A 
ATOM     74  F   UNL A   1      44.873  30.439  26.658  1.00  0.00    -0.203 F 
ATOM     75  F   UNL A   1      49.525  33.176  27.151  1.00  0.00    -0.200 F 
ATOM     76  C   UNL A   1      47.217  33.133  26.693  1.00  0.00     0.200 A 
ATOM     77  F   UNL A   1      44.890  33.029  26.323  1.00  0.00    -0.200 F 
ATOM     78  F   UNL A   1      47.174  34.472  26.671  1.00  0.00    -0.200 F 
ENDBRANCH  54  68
BRANCH  55  79
ATOM     79  C   UNL A   1      39.341  28.087  29.306  1.00  0.00     0.064 A 
ATOM     80  C   UNL A   1      38.479  28.233  30.407  1.00  0.00     0.173 A 
ATOM     81  C   UNL A   1      38.926  28.695  28.105  1.00  0.00     0.173 A 
ATOM     82  F   UNL A   1      38.820  27.727  31.602  1.00  0.00    -0.203 F 
ATOM     83  C   UNL A   1      37.292  28.969  30.319  1.00  0.00     0.198 A 
ATOM     84  C   UNL A   1      37.739  29.424  28.017  1.00  0.00     0.198 A 
ATOM     85  F   UNL A   1      39.713  28.681  27.020  1.00  0.00    -0.203 F 
ATOM     86  F   UNL A   1      36.531  29.144  31.408  1.00  0.00    -0.200 F 
ATOM     87  C   UNL A   1      36.929  29.573  29.127  1.00  0.00     0.200 A 
ATOM     88  F   UNL A   1      37.420  30.038  26.869  1.00  0.00    -0.200 F 
ATOM     89  F   UNL A   1      35.828  30.334  29.058  1.00  0.00    -0.200 F 
ENDBRANCH  55  79
BRANCH  67  90
ATOM     90  C   UNL A   1      44.749  26.803  32.223  1.00  0.00     0.064 A 
ATOM     91  C   UNL A   1      44.633  27.027  33.608  1.00  0.00     0.173 A 
ATOM     92  C   UNL A   1      44.582  25.487  31.771  1.00  0.00     0.173 A 
ATOM     93  F   UNL A   1      44.678  28.265  34.113  1.00  0.00    -0.203 F 
ATOM     94  C   UNL A   1      44.419  25.974  34.497  1.00  0.00     0.198 A 
ATOM     95  C   UNL A   1      44.329  24.444  32.657  1.00  0.00     0.198 A 
ATOM     96  F   UNL A   1      44.628  25.218  30.458  1.00  0.00    -0.203 F 
ATOM     97  F   UNL A   1      44.340  26.211  35.815  1.00  0.00    -0.200 F 
ATOM     98  C   UNL A   1      44.262  24.684  34.020  1.00  0.00     0.200 A 
ATOM     99  F   UNL A   1      44.130  23.205  32.185  1.00  0.00    -0.200 F 
ATOM    100  F   UNL A   1      44.024  23.675  34.869  1.00  0.00    -0.200 F 
ENDBRANCH  67  90
ENDBRANCH  41  42
ENDBRANCH  34  36
ENDBRANCH  33  34
ENDBRANCH  32  33
ENDBRANCH  31  32
ENDBRANCH  30  31
ENDBRANCH  29  30
ENDBRANCH   1  29
TORSDOF 19
ENDMDL
MODEL 3
REMARK VINA RESULT:     -11.6      2.814      3.983
REMARK SMILES Cc1nnc(SCC(=O)Nc2cccc(C(=O)OCCOCCOC(=O)c3ccc(-c4c5nc(c(-c6c(F)c(F)c(F)c(F)c6F)c6ccc([nH]6)c(-c6c(F)c(F)c(F)c(F)c6F)c6nc(c(-c7c(F)c(F)c(F)c(F)c7F)c7ccc4[nH]7)C=C6)C=C5)cc3)c2)n1-c1ccccc1
REMARK SMILES IDX 19 1 18 2 16 3 17 4 15 5 11 6 12 7 90 8 13 9 14 10 10 11
REMARK SMILES IDX 8 12 9 13 7 15 6 16 5 17 1 18 2 19 3 20 91 21 4 22 92 23
REMARK SMILES IDX 93 24 97 25 94 26 96 27 95 28 20 29 21 30 22 31 23 32 24 33
REMARK SMILES IDX 25 34 26 35 27 36 28 37 89 38 29 39 88 40 30 41 31 42 32 43
REMARK SMILES IDX 82 44 33 45 87 46 81 47 83 48 34 49 86 50 80 51 79 52 35 54
REMARK SMILES IDX 67 55 47 56 66 57 48 58 51 59 65 60 84 61 49 62 50 63 64 65
REMARK SMILES IDX 85 66 52 67 36 68 37 69 45 70 38 71 39 72 43 73 46 74 40 75
REMARK SMILES IDX 41 76 44 77 42 78 68 79 69 80 77 81 70 82 71 83 75 84 78 85
REMARK SMILES IDX 72 86 73 87 76 88 74 89 53 90 54 91 62 92 55 93 56 94 60 95
REMARK SMILES IDX 63 96 57 97 58 98 61 99 59 100
REMARK H PARENT 10 14 83 53 51 64
REMARK Flexibility Score: inf
ROOT
ATOM      1  C   UNL A   1      41.196  20.312  26.713  1.00  0.00     0.261 C 
ENDROOT
BRANCH   1   2
ATOM      2  O   UNL A   1      40.526  21.334  25.968  1.00  0.00    -0.460 OA
BRANCH   2   3
ATOM      3  C   UNL A   1      39.742  22.180  26.682  1.00  0.00     0.338 C 
ATOM      4  O   UNL A   1      40.061  22.845  27.648  1.00  0.00    -0.246 OA
BRANCH   3   5
ATOM      5  C   UNL A   1      38.427  22.302  26.001  1.00  0.00     0.062 A 
ATOM      6  C   UNL A   1      36.438  21.294  25.107  1.00  0.00     0.042 A 
ATOM      7  C   UNL A   1      35.957  22.553  24.739  1.00  0.00     0.026 A 
ATOM      8  C   UNL A   1      37.707  21.168  25.637  1.00  0.00     0.041 A 
ATOM      9  C   UNL A   1      36.705  23.692  25.028  1.00  0.00     0.003 A 
ATOM     10  C   UNL A   1      37.926  23.569  25.693  1.00  0.00     0.016 A 
BRANCH   6  11
ATOM     11  N   UNL A   1      35.566  20.211  25.002  1.00  0.00    -0.325 N 
ATOM     12  C   UNL A   1      34.207  20.275  25.053  1.00  0.00     0.234 C 
ATOM     13  O   UNL A   1      33.657  19.528  24.228  1.00  0.00    -0.274 OA
ATOM     14  H   UNL A   1      35.968  19.321  24.881  1.00  0.00     0.169 HD
BRANCH  12  15
ATOM     15  C   UNL A   1      33.370  21.292  25.806  1.00  0.00     0.178 C 
BRANCH  15  16
ATOM     16  S   UNL A   1      32.097  22.272  24.998  1.00  0.00    -0.076 SA
BRANCH  16  17
ATOM     17  C   UNL A   1      32.752  23.248  23.734  1.00  0.00     0.196 A 
ATOM     18  C   UNL A   1      33.307  26.327  21.887  1.00  0.00     0.090 C 
ATOM     19  C   UNL A   1      33.121  24.950  22.398  1.00  0.00     0.135 A 
ATOM     20  N   UNL A   1      33.235  23.843  21.693  1.00  0.00    -0.134 NA
ATOM     21  N   UNL A   1      32.807  24.623  23.700  1.00  0.00    -0.274 N 
ATOM     22  N   UNL A   1      33.000  22.777  22.530  1.00  0.00    -0.123 NA
BRANCH  21  23
ATOM     23  C   UNL A   1      32.625  25.509  24.762  1.00  0.00     0.049 A 
ATOM     24  C   UNL A   1      31.332  25.933  25.047  1.00  0.00     0.027 A 
ATOM     25  C   UNL A   1      33.736  26.042  25.412  1.00  0.00     0.027 A 
ATOM     26  C   UNL A   1      31.153  27.010  25.910  1.00  0.00     0.002 A 
ATOM     27  C   UNL A   1      33.539  27.089  26.308  1.00  0.00     0.002 A 
ATOM     28  C   UNL A   1      32.255  27.597  26.526  1.00  0.00     0.000 A 
ENDBRANCH  21  23
ENDBRANCH  16  17
ENDBRANCH  15  16
ENDBRANCH  12  15
ENDBRANCH   6  11
ENDBRANCH   3   5
ENDBRANCH   2   3
ENDBRANCH   1   2
BRANCH   1  29
ATOM     29  C   UNL A   1      42.144  19.511  25.817  1.00  0.00     0.202 C 
BRANCH  29  30
ATOM     30  O   UNL A   1      43.102  20.248  25.054  1.00  0.00    -0.374 OA
BRANCH  30  31
ATOM     31  C   UNL A   1      44.345  20.597  25.651  1.00  0.00     0.202 C 
BRANCH  31  32
ATOM     32  C   UNL A   1      44.730  22.064  25.711  1.00  0.00     0.261 C 
BRANCH  32  33
ATOM     33  O   UNL A   1      43.789  22.839  26.434  1.00  0.00    -0.460 OA
BRANCH  33  34
ATOM     34  C   UNL A   1      43.143  23.755  25.675  1.00  0.00     0.338 C 
ATOM     35  O   UNL A   1      43.209  23.892  24.468  1.00  0.00    -0.246 OA
BRANCH  34  36
ATOM     36  C   UNL A   1      42.511  24.725  26.572  1.00  0.00     0.060 A 
ATOM     37  C   UNL A   1      41.602  25.608  25.990  1.00  0.00     0.016 A 
ATOM     38  C   UNL A   1      43.025  24.926  27.862  1.00  0.00     0.016 A 
ATOM     39  C   UNL A   1      41.355  26.799  26.631  1.00  0.00     0.010 A 
ATOM     40  C   UNL A   1      42.783  26.118  28.497  1.00  0.00     0.010 A 
ATOM     41  C   UNL A   1      42.016  27.069  27.838  1.00  0.00    -0.014 A 
BRANCH  41  42
ATOM     42  C   UNL A   1      41.754  28.337  28.478  1.00  0.00     0.031 A 
ATOM     43  C   UNL A   1      42.812  29.330  28.198  1.00  0.00     0.074 A 
ATOM     44  C   UNL A   1      40.625  28.594  29.162  1.00  0.00     0.049 A 
ATOM     45  N   UNL A   1      43.640  29.852  29.037  1.00  0.00    -0.248 NA
ATOM     46  C   UNL A   1      43.098  29.648  26.792  1.00  0.00     0.031 C 
ATOM     47  C   UNL A   1      39.417  27.773  29.271  1.00  0.00     0.029 A 
ATOM     48  N   UNL A   1      40.297  29.713  29.858  1.00  0.00    -0.354 N 
ATOM     49  C   UNL A   1      44.431  30.718  28.291  1.00  0.00     0.074 A 
ATOM     50  C   UNL A   1      44.169  30.433  26.906  1.00  0.00     0.031 C 
ATOM     51  C   UNL A   1      38.419  28.515  29.806  1.00  0.00     0.029 A 
ATOM     52  C   UNL A   1      38.955  29.806  30.203  1.00  0.00     0.049 A 
ATOM     53  H   UNL A   1      40.957  30.403  30.100  1.00  0.00     0.167 HD
ATOM     54  C   UNL A   1      45.026  31.780  28.892  1.00  0.00     0.037 A 
ATOM     55  C   UNL A   1      38.339  30.897  30.725  1.00  0.00     0.037 A 
ATOM     56  C   UNL A   1      45.148  31.567  30.313  1.00  0.00     0.049 A 
ATOM     57  C   UNL A   1      39.396  31.759  31.315  1.00  0.00     0.074 A 
ATOM     58  C   UNL A   1      45.789  30.627  31.097  1.00  0.00     0.029 A 
ATOM     59  N   UNL A   1      44.213  32.156  31.126  1.00  0.00    -0.354 N 
ATOM     60  N   UNL A   1      40.094  31.429  32.365  1.00  0.00    -0.248 NA
ATOM     61  C   UNL A   1      39.992  32.777  30.464  1.00  0.00     0.031 C 
ATOM     62  C   UNL A   1      44.897  30.377  32.182  1.00  0.00     0.029 A 
ATOM     63  C   UNL A   1      43.798  31.224  32.043  1.00  0.00     0.049 A 
ATOM     64  H   UNL A   1      43.895  33.085  31.062  1.00  0.00     0.167 HD
ATOM     65  C   UNL A   1      41.384  31.845  32.074  1.00  0.00     0.074 A 
ATOM     66  C   UNL A   1      41.242  32.751  30.936  1.00  0.00     0.031 C 
ATOM     67  C   UNL A   1      42.463  31.190  32.596  1.00  0.00     0.037 A 
BRANCH  54  68
ATOM     68  C   UNL A   1      45.073  33.149  28.263  1.00  0.00     0.064 A 
ATOM     69  C   UNL A   1      46.325  33.727  27.987  1.00  0.00     0.173 A 
ATOM     70  C   UNL A   1      43.970  34.032  28.220  1.00  0.00     0.173 A 
ATOM     71  F   UNL A   1      47.442  32.984  28.025  1.00  0.00    -0.203 F 
ATOM     72  C   UNL A   1      46.470  35.098  27.765  1.00  0.00     0.198 A 
ATOM     73  C   UNL A   1      44.113  35.390  27.947  1.00  0.00     0.198 A 
ATOM     74  F   UNL A   1      42.730  33.655  28.552  1.00  0.00    -0.203 F 
ATOM     75  F   UNL A   1      47.695  35.625  27.638  1.00  0.00    -0.200 F 
ATOM     76  C   UNL A   1      45.365  35.930  27.753  1.00  0.00     0.200 A 
ATOM     77  F   UNL A   1      43.030  36.182  27.964  1.00  0.00    -0.200 F 
ATOM     78  F   UNL A   1      45.508  37.253  27.607  1.00  0.00    -0.200 F 
ENDBRANCH  54  68
BRANCH  55  79
ATOM     79  C   UNL A   1      36.975  31.407  30.442  1.00  0.00     0.064 A 
ATOM     80  C   UNL A   1      36.085  31.710  31.487  1.00  0.00     0.173 A 
ATOM     81  C   UNL A   1      36.626  31.890  29.166  1.00  0.00     0.173 A 
ATOM     82  F   UNL A   1      36.366  31.330  32.743  1.00  0.00    -0.203 F 
ATOM     83  C   UNL A   1      34.933  32.474  31.273  1.00  0.00     0.198 A 
ATOM     84  C   UNL A   1      35.473  32.648  28.953  1.00  0.00     0.198 A 
ATOM     85  F   UNL A   1      37.445  31.724  28.119  1.00  0.00    -0.203 F 
ATOM     86  F   UNL A   1      34.144  32.800  32.307  1.00  0.00    -0.200 F 
ATOM     87  C   UNL A   1      34.634  32.952  30.008  1.00  0.00     0.200 A 
ATOM     88  F   UNL A   1      35.217  33.139  27.732  1.00  0.00    -0.200 F 
ATOM     89  F   UNL A   1      33.568  33.741  29.814  1.00  0.00    -0.200 F 
ENDBRANCH  55  79
BRANCH  67  90
ATOM     90  C   UNL A   1      42.202  30.203  33.703  1.00  0.00     0.064 A 
ATOM     91  C   UNL A   1      41.836  28.859  33.505  1.00  0.00     0.173 A 
ATOM     92  C   UNL A   1      42.438  30.614  35.022  1.00  0.00     0.173 A 
ATOM     93  F   UNL A   1      41.690  28.357  32.273  1.00  0.00    -0.203 F 
ATOM     94  C   UNL A   1      41.661  27.988  34.581  1.00  0.00     0.198 A 
ATOM     95  C   UNL A   1      42.301  29.733  36.091  1.00  0.00     0.198 A 
ATOM     96  F   UNL A   1      42.842  31.869  35.272  1.00  0.00    -0.203 F 
ATOM     97  F   UNL A   1      41.286  26.719  34.366  1.00  0.00    -0.200 F 
ATOM     98  C   UNL A   1      41.898  28.425  35.873  1.00  0.00     0.200 A 
ATOM     99  F   UNL A   1      42.579  30.149  37.335  1.00  0.00    -0.200 F 
ATOM    100  F   UNL A   1      41.761  27.583  36.906  1.00  0.00    -0.200 F 
ENDBRANCH  67  90
ENDBRANCH  41  42
ENDBRANCH  34  36
ENDBRANCH  33  34
ENDBRANCH  32  33
ENDBRANCH  31  32
ENDBRANCH  30  31
ENDBRANCH  29  30
ENDBRANCH   1  29
TORSDOF 19
ENDMDL
