MODEL 1
REMARK VINA RESULT:     -11.0      0.000      0.000
REMARK SMILES CC(C)n1ncnc1C[C@@H](C(=O)OCCOCCOC(=O)c1ccc(-c2c3nc(c(-c4c(F)c(F)c(F)c(F)c4F)c4ccc([nH]4)c(-c4c(F)c(F)c(F)c(F)c4F)c4nc(c(-c5c(F)c(F)c(F)c(F)c5F)c5ccc2[nH]5)C=C4)C=C3)cc1)c1cccc(Br)c1
REMARK SMILES IDX 15 1 14 2 13 3 11 4 12 5 10 6 9 7 8 8 4 9 5 10 6 11 7 12
REMARK SMILES IDX 2 13 1 14 3 15 85 16 86 17 91 18 87 19 89 20 88 21 90 22
REMARK SMILES IDX 16 23 17 24 18 25 19 26 20 27 21 28 22 29 23 30 84 31 24 32
REMARK SMILES IDX 83 33 25 34 26 35 27 36 77 37 28 38 82 39 76 40 78 41 29 42
REMARK SMILES IDX 81 43 75 44 74 45 30 47 62 48 42 49 61 50 43 51 46 52 60 53
REMARK SMILES IDX 79 54 44 55 45 56 59 58 80 59 47 60 31 61 32 62 40 63 33 64
REMARK SMILES IDX 34 65 38 66 41 67 35 68 36 69 39 70 37 71 63 72 64 73 72 74
REMARK SMILES IDX 65 75 66 76 70 77 73 78 67 79 68 80 71 81 69 82 48 83 49 84
REMARK SMILES IDX 57 85 50 86 51 87 55 88 58 89 52 90 53 91 56 92 54 93
REMARK H PARENT 78 46 46 57
REMARK Flexibility Score: inf
ROOT
ATOM      1  C   UNL A   1      35.227  21.832  26.111  1.00  0.00     0.202 C 
ENDROOT
BRANCH   1   2
ATOM      2  C   UNL A   1      35.323  23.210  25.459  1.00  0.00     0.261 C 
BRANCH   2   3
ATOM      3  O   UNL A   1      34.326  24.048  26.061  1.00  0.00    -0.463 OA
BRANCH   3   4
ATOM      4  C   UNL A   1      33.078  24.055  25.549  1.00  0.00     0.313 C 
ATOM      5  O   UNL A   1      32.277  23.137  25.681  1.00  0.00    -0.252 OA
BRANCH   4   6
ATOM      6  C   UNL A   1      32.729  25.400  24.879  1.00  0.00     0.137 C 
BRANCH   6   7
ATOM      7  C   UNL A   1      33.610  25.801  23.660  1.00  0.00     0.097 C 
BRANCH   7   8
ATOM      8  C   UNL A   1      32.958  25.723  22.313  1.00  0.00     0.128 A 
ATOM      9  N   UNL A   1      31.908  26.479  21.834  1.00  0.00    -0.248 N 
ATOM     10  N   UNL A   1      31.670  26.183  20.534  1.00  0.00    -0.159 NA
ATOM     11  C   UNL A   1      32.607  25.279  20.272  1.00  0.00     0.246 A 
ATOM     12  N   UNL A   1      33.417  24.987  21.317  1.00  0.00    -0.220 NA
BRANCH   9  13
ATOM     13  C   UNL A   1      31.135  27.575  22.403  1.00  0.00     0.103 C 
ATOM     14  C   UNL A   1      30.044  27.185  23.396  1.00  0.00     0.033 C 
ATOM     15  C   UNL A   1      32.062  28.644  22.985  1.00  0.00     0.033 C 
ENDBRANCH   9  13
ENDBRANCH   7   8
ENDBRANCH   6   7
BRANCH   6  16
ATOM     16  C   UNL A   1      32.705  26.572  25.894  1.00  0.00    -0.032 A 
ATOM     17  C   UNL A   1      31.511  26.867  26.578  1.00  0.00     0.005 A 
ATOM     18  C   UNL A   1      33.819  27.394  26.158  1.00  0.00     0.020 A 
ATOM     19  C   UNL A   1      31.418  27.958  27.449  1.00  0.00     0.001 A 
ATOM     20  C   UNL A   1      33.723  28.479  27.039  1.00  0.00     0.018 A 
ATOM     21  C   UNL A   1      32.523  28.770  27.678  1.00  0.00     0.016 A 
ATOM     22  Br  UNL A   1      35.236  29.569  27.360  1.00  0.00    -0.051 Br
ENDBRANCH   6  16
ENDBRANCH   4   6
ENDBRANCH   3   4
ENDBRANCH   2   3
ENDBRANCH   1   2
BRANCH   1  23
ATOM     23  O   UNL A   1      36.007  20.805  25.483  1.00  0.00    -0.374 OA
BRANCH  23  24
ATOM     24  C   UNL A   1      37.166  21.193  24.750  1.00  0.00     0.202 C 
BRANCH  24  25
ATOM     25  C   UNL A   1      38.505  21.049  25.453  1.00  0.00     0.261 C 
BRANCH  25  26
ATOM     26  O   UNL A   1      38.833  22.218  26.190  1.00  0.00    -0.460 OA
BRANCH  26  27
ATOM     27  C   UNL A   1      39.971  22.127  26.920  1.00  0.00     0.338 C 
ATOM     28  O   UNL A   1      40.373  21.173  27.550  1.00  0.00    -0.246 OA
BRANCH  27  29
ATOM     29  C   UNL A   1      40.567  23.466  26.987  1.00  0.00     0.060 A 
ATOM     30  C   UNL A   1      41.696  23.591  27.796  1.00  0.00     0.016 A 
ATOM     31  C   UNL A   1      39.848  24.582  26.531  1.00  0.00     0.016 A 
ATOM     32  C   UNL A   1      41.954  24.817  28.359  1.00  0.00     0.010 A 
ATOM     33  C   UNL A   1      40.094  25.801  27.106  1.00  0.00     0.010 A 
ATOM     34  C   UNL A   1      41.083  25.877  28.081  1.00  0.00    -0.014 A 
BRANCH  34  35
ATOM     35  C   UNL A   1      41.336  27.144  28.724  1.00  0.00     0.031 A 
ATOM     36  C   UNL A   1      42.602  27.729  28.244  1.00  0.00     0.074 A 
ATOM     37  C   UNL A   1      40.455  27.713  29.569  1.00  0.00     0.049 A 
ATOM     38  N   UNL A   1      43.715  27.799  28.891  1.00  0.00    -0.248 NA
ATOM     39  C   UNL A   1      42.720  28.035  26.807  1.00  0.00     0.031 C 
ATOM     40  C   UNL A   1      39.090  27.273  29.869  1.00  0.00     0.029 A 
ATOM     41  N   UNL A   1      40.563  28.874  30.274  1.00  0.00    -0.354 N 
ATOM     42  C   UNL A   1      44.601  28.410  28.011  1.00  0.00     0.074 A 
ATOM     43  C   UNL A   1      44.028  28.274  26.702  1.00  0.00     0.031 C 
ATOM     44  C   UNL A   1      38.428  28.268  30.503  1.00  0.00     0.029 A 
ATOM     45  C   UNL A   1      39.350  29.358  30.761  1.00  0.00     0.049 A 
ATOM     46  H   UNL A   1      41.422  29.330  30.426  1.00  0.00     0.167 HD
ATOM     47  C   UNL A   1      45.494  29.314  28.497  1.00  0.00     0.037 A 
ATOM     48  C   UNL A   1      39.137  30.606  31.254  1.00  0.00     0.037 A 
ATOM     49  C   UNL A   1      45.680  29.115  29.919  1.00  0.00     0.049 A 
ATOM     50  C   UNL A   1      40.463  31.156  31.629  1.00  0.00     0.074 A 
ATOM     51  C   UNL A   1      46.110  28.083  30.731  1.00  0.00     0.029 A 
ATOM     52  N   UNL A   1      45.003  29.983  30.735  1.00  0.00    -0.354 N 
ATOM     53  N   UNL A   1      41.180  30.708  32.621  1.00  0.00    -0.248 NA
ATOM     54  C   UNL A   1      41.194  31.912  30.624  1.00  0.00     0.031 C 
ATOM     55  C   UNL A   1      45.346  28.196  31.933  1.00  0.00     0.029 A 
ATOM     56  C   UNL A   1      44.533  29.326  31.834  1.00  0.00     0.049 A 
ATOM     57  H   UNL A   1      44.875  30.942  30.553  1.00  0.00     0.167 HD
ATOM     58  C   UNL A   1      42.481  30.717  32.142  1.00  0.00     0.074 A 
ATOM     59  C   UNL A   1      42.441  31.582  30.965  1.00  0.00     0.031 C 
ATOM     60  C   UNL A   1      43.374  29.776  32.573  1.00  0.00     0.037 A 
BRANCH  47  61
ATOM     61  C   UNL A   1      45.725  30.674  27.849  1.00  0.00     0.064 A 
ATOM     62  C   UNL A   1      47.051  31.146  27.770  1.00  0.00     0.173 A 
ATOM     63  C   UNL A   1      44.729  31.659  27.637  1.00  0.00     0.173 A 
ATOM     64  F   UNL A   1      48.084  30.308  27.950  1.00  0.00    -0.203 F 
ATOM     65  C   UNL A   1      47.349  32.505  27.632  1.00  0.00     0.198 A 
ATOM     66  C   UNL A   1      45.033  33.007  27.455  1.00  0.00     0.198 A 
ATOM     67  F   UNL A   1      43.420  31.403  27.694  1.00  0.00    -0.203 F 
ATOM     68  F   UNL A   1      48.620  32.917  27.723  1.00  0.00    -0.200 F 
ATOM     69  C   UNL A   1      46.338  33.436  27.493  1.00  0.00     0.200 A 
ATOM     70  F   UNL A   1      44.034  33.892  27.336  1.00  0.00    -0.200 F 
ATOM     71  F   UNL A   1      46.614  34.744  27.440  1.00  0.00    -0.200 F 
ENDBRANCH  47  61
BRANCH  48  72
ATOM     72  C   UNL A   1      37.940  31.476  31.118  1.00  0.00     0.064 A 
ATOM     73  C   UNL A   1      37.500  31.905  29.852  1.00  0.00     0.173 A 
ATOM     74  C   UNL A   1      37.038  31.663  32.184  1.00  0.00     0.173 A 
ATOM     75  F   UNL A   1      38.272  31.724  28.771  1.00  0.00    -0.203 F 
ATOM     76  C   UNL A   1      36.226  32.454  29.662  1.00  0.00     0.198 A 
ATOM     77  C   UNL A   1      35.772  32.218  31.993  1.00  0.00     0.198 A 
ATOM     78  F   UNL A   1      37.325  31.220  33.416  1.00  0.00    -0.203 F 
ATOM     79  F   UNL A   1      35.818  32.785  28.428  1.00  0.00    -0.200 F 
ATOM     80  C   UNL A   1      35.359  32.600  30.731  1.00  0.00     0.200 A 
ATOM     81  F   UNL A   1      34.928  32.317  33.031  1.00  0.00    -0.200 F 
ATOM     82  F   UNL A   1      34.116  33.064  30.539  1.00  0.00    -0.200 F 
ENDBRANCH  48  72
BRANCH  60  83
ATOM     83  C   UNL A   1      43.034  29.027  33.830  1.00  0.00     0.064 A 
ATOM     84  C   UNL A   1      42.231  27.875  33.886  1.00  0.00     0.173 A 
ATOM     85  C   UNL A   1      43.636  29.453  35.022  1.00  0.00     0.173 A 
ATOM     86  F   UNL A   1      41.699  27.349  32.774  1.00  0.00    -0.203 F 
ATOM     87  C   UNL A   1      42.002  27.216  35.093  1.00  0.00     0.198 A 
ATOM     88  C   UNL A   1      43.439  28.770  36.217  1.00  0.00     0.198 A 
ATOM     89  F   UNL A   1      44.451  30.519  35.019  1.00  0.00    -0.203 F 
ATOM     90  F   UNL A   1      41.211  26.133  35.129  1.00  0.00    -0.200 F 
ATOM     91  C   UNL A   1      42.611  27.661  36.256  1.00  0.00     0.200 A 
ATOM     92  F   UNL A   1      44.069  29.178  37.327  1.00  0.00    -0.200 F 
ATOM     93  F   UNL A   1      42.418  27.008  37.411  1.00  0.00    -0.200 F 
ENDBRANCH  60  83
ENDBRANCH  34  35
ENDBRANCH  27  29
ENDBRANCH  26  27
ENDBRANCH  25  26
ENDBRANCH  24  25
ENDBRANCH  23  24
ENDBRANCH   1  23
TORSDOF 18
ENDMDL
MODEL 2
REMARK VINA RESULT:     -11.0      1.484      2.325
REMARK SMILES CC(C)n1ncnc1C[C@@H](C(=O)OCCOCCOC(=O)c1ccc(-c2c3nc(c(-c4c(F)c(F)c(F)c(F)c4F)c4ccc([nH]4)c(-c4c(F)c(F)c(F)c(F)c4F)c4nc(c(-c5c(F)c(F)c(F)c(F)c5F)c5ccc2[nH]5)C=C4)C=C3)cc1)c1cccc(Br)c1
REMARK SMILES IDX 15 1 14 2 13 3 11 4 12 5 10 6 9 7 8 8 4 9 5 10 6 11 7 12
REMARK SMILES IDX 2 13 1 14 3 15 85 16 86 17 91 18 87 19 89 20 88 21 90 22
REMARK SMILES IDX 16 23 17 24 18 25 19 26 20 27 21 28 22 29 23 30 84 31 24 32
REMARK SMILES IDX 83 33 25 34 26 35 27 36 77 37 28 38 82 39 76 40 78 41 29 42
REMARK SMILES IDX 81 43 75 44 74 45 30 47 62 48 42 49 61 50 43 51 46 52 60 53
REMARK SMILES IDX 79 54 44 55 45 56 59 58 80 59 47 60 31 61 32 62 40 63 33 64
REMARK SMILES IDX 34 65 38 66 41 67 35 68 36 69 39 70 37 71 63 72 64 73 72 74
REMARK SMILES IDX 65 75 66 76 70 77 73 78 67 79 68 80 71 81 69 82 48 83 49 84
REMARK SMILES IDX 57 85 50 86 51 87 55 88 58 89 52 90 53 91 56 92 54 93
REMARK H PARENT 78 46 46 57
REMARK Flexibility Score: inf
ROOT
ATOM      1  C   UNL A   1      35.163  23.374  24.373  1.00  0.00     0.202 C 
ENDROOT
BRANCH   1   2
ATOM      2  C   UNL A   1      34.892  24.680  25.118  1.00  0.00     0.261 C 
BRANCH   2   3
ATOM      3  O   UNL A   1      33.928  25.424  24.357  1.00  0.00    -0.463 OA
BRANCH   3   4
ATOM      4  C   UNL A   1      33.755  26.735  24.620  1.00  0.00     0.313 C 
ATOM      5  O   UNL A   1      33.933  27.629  23.801  1.00  0.00    -0.252 OA
BRANCH   4   6
ATOM      6  C   UNL A   1      33.191  26.978  26.035  1.00  0.00     0.137 C 
BRANCH   6   7
ATOM      7  C   UNL A   1      31.688  26.623  26.237  1.00  0.00     0.097 C 
BRANCH   7   8
ATOM      8  C   UNL A   1      31.334  25.168  26.176  1.00  0.00     0.128 A 
ATOM      9  N   UNL A   1      30.652  24.502  25.180  1.00  0.00    -0.248 N 
ATOM     10  N   UNL A   1      30.619  23.173  25.439  1.00  0.00    -0.159 NA
ATOM     11  C   UNL A   1      31.310  23.087  26.570  1.00  0.00     0.246 A 
ATOM     12  N   UNL A   1      31.774  24.270  27.038  1.00  0.00    -0.220 NA
BRANCH   9  13
ATOM     13  C   UNL A   1      30.104  24.927  23.899  1.00  0.00     0.103 C 
ATOM     14  C   UNL A   1      29.303  26.227  23.907  1.00  0.00     0.033 C 
ATOM     15  C   UNL A   1      31.194  24.952  22.826  1.00  0.00     0.033 C 
ENDBRANCH   9  13
ENDBRANCH   7   8
ENDBRANCH   6   7
BRANCH   6  16
ATOM     16  C   UNL A   1      33.439  28.428  26.524  1.00  0.00    -0.032 A 
ATOM     17  C   UNL A   1      34.661  28.745  27.148  1.00  0.00     0.005 A 
ATOM     18  C   UNL A   1      32.488  29.461  26.407  1.00  0.00     0.020 A 
ATOM     19  C   UNL A   1      34.905  30.019  27.671  1.00  0.00     0.001 A 
ATOM     20  C   UNL A   1      32.743  30.738  26.924  1.00  0.00     0.018 A 
ATOM     21  C   UNL A   1      33.944  31.018  27.564  1.00  0.00     0.016 A 
ATOM     22  Br  UNL A   1      31.437  32.098  26.759  1.00  0.00    -0.051 Br
ENDBRANCH   6  16
ENDBRANCH   4   6
ENDBRANCH   3   4
ENDBRANCH   2   3
ENDBRANCH   1   2
BRANCH   1  23
ATOM     23  O   UNL A   1      35.070  22.187  25.171  1.00  0.00    -0.374 OA
BRANCH  23  24
ATOM     24  C   UNL A   1      36.167  21.857  26.019  1.00  0.00     0.202 C 
BRANCH  24  25
ATOM     25  C   UNL A   1      37.489  21.537  25.341  1.00  0.00     0.261 C 
BRANCH  25  26
ATOM     26  O   UNL A   1      38.413  22.608  25.475  1.00  0.00    -0.460 OA
BRANCH  26  27
ATOM     27  C   UNL A   1      39.545  22.298  26.151  1.00  0.00     0.338 C 
ATOM     28  O   UNL A   1      40.232  21.307  26.032  1.00  0.00    -0.246 OA
BRANCH  27  29
ATOM     29  C   UNL A   1      39.712  23.290  27.220  1.00  0.00     0.060 A 
ATOM     30  C   UNL A   1      38.780  24.328  27.240  1.00  0.00     0.016 A 
ATOM     31  C   UNL A   1      40.912  23.351  27.943  1.00  0.00     0.016 A 
ATOM     32  C   UNL A   1      39.166  25.531  27.778  1.00  0.00     0.010 A 
ATOM     33  C   UNL A   1      41.304  24.557  28.465  1.00  0.00     0.010 A 
ATOM     34  C   UNL A   1      40.463  25.650  28.289  1.00  0.00    -0.014 A 
BRANCH  34  35
ATOM     35  C   UNL A   1      40.872  26.936  28.801  1.00  0.00     0.031 A 
ATOM     36  C   UNL A   1      42.112  27.389  28.141  1.00  0.00     0.074 A 
ATOM     37  C   UNL A   1      40.134  27.628  29.691  1.00  0.00     0.049 A 
ATOM     38  N   UNL A   1      43.294  27.419  28.655  1.00  0.00    -0.248 NA
ATOM     39  C   UNL A   1      42.085  27.584  26.681  1.00  0.00     0.031 C 
ATOM     40  C   UNL A   1      38.786  27.313  30.171  1.00  0.00     0.029 A 
ATOM     41  N   UNL A   1      40.400  28.823  30.288  1.00  0.00    -0.354 N 
ATOM     42  C   UNL A   1      44.112  27.899  27.640  1.00  0.00     0.074 A 
ATOM     43  C   UNL A   1      43.385  27.716  26.416  1.00  0.00     0.031 C 
ATOM     44  C   UNL A   1      38.269  28.397  30.795  1.00  0.00     0.029 A 
ATOM     45  C   UNL A   1      39.287  29.430  30.864  1.00  0.00     0.049 A 
ATOM     46  H   UNL A   1      41.300  29.223  30.309  1.00  0.00     0.167 HD
ATOM     47  C   UNL A   1      45.114  28.764  27.954  1.00  0.00     0.037 A 
ATOM     48  C   UNL A   1      39.216  30.721  31.280  1.00  0.00     0.037 A 
ATOM     49  C   UNL A   1      45.447  28.651  29.358  1.00  0.00     0.049 A 
ATOM     50  C   UNL A   1      40.611  31.195  31.464  1.00  0.00     0.074 A 
ATOM     51  C   UNL A   1      45.897  27.648  30.195  1.00  0.00     0.029 A 
ATOM     52  N   UNL A   1      44.928  29.622  30.173  1.00  0.00    -0.354 N 
ATOM     53  N   UNL A   1      41.404  30.763  32.404  1.00  0.00    -0.248 NA
ATOM     54  C   UNL A   1      41.270  31.822  30.330  1.00  0.00     0.031 C 
ATOM     55  C   UNL A   1      45.285  27.902  31.461  1.00  0.00     0.029 A 
ATOM     56  C   UNL A   1      44.544  29.080  31.364  1.00  0.00     0.049 A 
ATOM     57  H   UNL A   1      44.845  30.573  29.933  1.00  0.00     0.167 HD
ATOM     58  C   UNL A   1      42.639  30.641  31.786  1.00  0.00     0.074 A 
ATOM     59  C   UNL A   1      42.524  31.422  30.557  1.00  0.00     0.031 C 
ATOM     60  C   UNL A   1      43.511  29.667  32.188  1.00  0.00     0.037 A 
BRANCH  47  61
ATOM     61  C   UNL A   1      45.360  30.055  27.181  1.00  0.00     0.064 A 
ATOM     62  C   UNL A   1      46.698  30.428  26.937  1.00  0.00     0.173 A 
ATOM     63  C   UNL A   1      44.410  31.087  26.989  1.00  0.00     0.173 A 
ATOM     64  F   UNL A   1      47.690  29.536  27.082  1.00  0.00    -0.203 F 
ATOM     65  C   UNL A   1      47.062  31.749  26.664  1.00  0.00     0.198 A 
ATOM     66  C   UNL A   1      44.774  32.394  26.673  1.00  0.00     0.198 A 
ATOM     67  F   UNL A   1      43.100  30.926  27.191  1.00  0.00    -0.203 F 
ATOM     68  F   UNL A   1      48.358  32.079  26.599  1.00  0.00    -0.200 F 
ATOM     69  C   UNL A   1      46.101  32.734  26.550  1.00  0.00     0.200 A 
ATOM     70  F   UNL A   1      43.824  33.335  26.580  1.00  0.00    -0.200 F 
ATOM     71  F   UNL A   1      46.449  34.013  26.368  1.00  0.00    -0.200 F 
ENDBRANCH  47  61
BRANCH  48  72
ATOM     72  C   UNL A   1      38.073  31.668  31.209  1.00  0.00     0.064 A 
ATOM     73  C   UNL A   1      37.627  32.170  29.971  1.00  0.00     0.173 A 
ATOM     74  C   UNL A   1      37.212  31.872  32.306  1.00  0.00     0.173 A 
ATOM     75  F   UNL A   1      38.358  31.981  28.863  1.00  0.00    -0.203 F 
ATOM     76  C   UNL A   1      36.386  32.803  29.836  1.00  0.00     0.198 A 
ATOM     77  C   UNL A   1      35.979  32.510  32.170  1.00  0.00     0.198 A 
ATOM     78  F   UNL A   1      37.503  31.367  33.513  1.00  0.00    -0.203 F 
ATOM     79  F   UNL A   1      35.966  33.203  28.627  1.00  0.00    -0.200 F 
ATOM     80  C   UNL A   1      35.558  32.963  30.934  1.00  0.00     0.200 A 
ATOM     81  F   UNL A   1      35.170  32.623  33.234  1.00  0.00    -0.200 F 
ATOM     82  F   UNL A   1      34.342  33.509  30.795  1.00  0.00    -0.200 F 
ENDBRANCH  48  72
BRANCH  60  83
ATOM     83  C   UNL A   1      43.267  29.035  33.530  1.00  0.00     0.064 A 
ATOM     84  C   UNL A   1      43.723  29.551  34.755  1.00  0.00     0.173 A 
ATOM     85  C   UNL A   1      42.447  27.899  33.572  1.00  0.00     0.173 A 
ATOM     86  F   UNL A   1      44.431  30.688  34.806  1.00  0.00    -0.203 F 
ATOM     87  C   UNL A   1      43.413  28.922  35.960  1.00  0.00     0.198 A 
ATOM     88  C   UNL A   1      42.104  27.299  34.778  1.00  0.00     0.198 A 
ATOM     89  F   UNL A   1      41.943  27.392  32.436  1.00  0.00    -0.203 F 
ATOM     90  F   UNL A   1      43.880  29.415  37.116  1.00  0.00    -0.200 F 
ATOM     91  C   UNL A   1      42.598  27.800  35.970  1.00  0.00     0.200 A 
ATOM     92  F   UNL A   1      41.279  26.243  34.784  1.00  0.00    -0.200 F 
ATOM     93  F   UNL A   1      42.273  27.214  37.131  1.00  0.00    -0.200 F 
ENDBRANCH  60  83
ENDBRANCH  34  35
ENDBRANCH  27  29
ENDBRANCH  26  27
ENDBRANCH  25  26
ENDBRANCH  24  25
ENDBRANCH  23  24
ENDBRANCH   1  23
TORSDOF 18
ENDMDL
MODEL 3
REMARK VINA RESULT:     -10.7      3.725      8.738
REMARK SMILES CC(C)n1ncnc1C[C@@H](C(=O)OCCOCCOC(=O)c1ccc(-c2c3nc(c(-c4c(F)c(F)c(F)c(F)c4F)c4ccc([nH]4)c(-c4c(F)c(F)c(F)c(F)c4F)c4nc(c(-c5c(F)c(F)c(F)c(F)c5F)c5ccc2[nH]5)C=C4)C=C3)cc1)c1cccc(Br)c1
REMARK SMILES IDX 15 1 14 2 13 3 11 4 12 5 10 6 9 7 8 8 4 9 5 10 6 11 7 12
REMARK SMILES IDX 2 13 1 14 3 15 85 16 86 17 91 18 87 19 89 20 88 21 90 22
REMARK SMILES IDX 16 23 17 24 18 25 19 26 20 27 21 28 22 29 23 30 84 31 24 32
REMARK SMILES IDX 83 33 25 34 26 35 27 36 77 37 28 38 82 39 76 40 78 41 29 42
REMARK SMILES IDX 81 43 75 44 74 45 30 47 62 48 42 49 61 50 43 51 46 52 60 53
REMARK SMILES IDX 79 54 44 55 45 56 59 58 80 59 47 60 31 61 32 62 40 63 33 64
REMARK SMILES IDX 34 65 38 66 41 67 35 68 36 69 39 70 37 71 63 72 64 73 72 74
REMARK SMILES IDX 65 75 66 76 70 77 73 78 67 79 68 80 71 81 69 82 48 83 49 84
REMARK SMILES IDX 57 85 50 86 51 87 55 88 58 89 52 90 53 91 56 92 54 93
REMARK H PARENT 78 46 46 57
REMARK Flexibility Score: inf
ROOT
ATOM      1  C   UNL A   1      32.882  32.760  27.660  1.00  0.00     0.202 C 
ENDROOT
BRANCH   1   2
ATOM      2  C   UNL A   1      31.883  31.936  26.848  1.00  0.00     0.261 C 
BRANCH   2   3
ATOM      3  O   UNL A   1      32.029  30.563  27.241  1.00  0.00    -0.463 OA
BRANCH   3   4
ATOM      4  C   UNL A   1      32.893  29.777  26.568  1.00  0.00     0.313 C 
ATOM      5  O   UNL A   1      34.063  30.072  26.350  1.00  0.00    -0.252 OA
BRANCH   4   6
ATOM      6  C   UNL A   1      32.279  28.409  26.206  1.00  0.00     0.137 C 
BRANCH   6   7
ATOM      7  C   UNL A   1      33.199  27.172  26.428  1.00  0.00     0.097 C 
BRANCH   7   8
ATOM      8  C   UNL A   1      32.540  25.829  26.340  1.00  0.00     0.128 A 
ATOM      9  N   UNL A   1      33.101  24.633  25.942  1.00  0.00    -0.248 N 
ATOM     10  N   UNL A   1      32.212  23.622  26.096  1.00  0.00    -0.159 NA
ATOM     11  C   UNL A   1      31.158  24.246  26.609  1.00  0.00     0.246 A 
ATOM     12  N   UNL A   1      31.323  25.578  26.788  1.00  0.00    -0.220 NA
BRANCH   9  13
ATOM     13  C   UNL A   1      34.447  24.258  25.533  1.00  0.00     0.103 C 
ATOM     14  C   UNL A   1      34.996  22.964  26.128  1.00  0.00     0.033 C 
ATOM     15  C   UNL A   1      34.569  24.264  24.007  1.00  0.00     0.033 C 
ENDBRANCH   9  13
ENDBRANCH   7   8
ENDBRANCH   6   7
BRANCH   6  16
ATOM     16  C   UNL A   1      31.730  28.378  24.757  1.00  0.00    -0.032 A 
ATOM     17  C   UNL A   1      30.790  29.347  24.356  1.00  0.00     0.005 A 
ATOM     18  C   UNL A   1      32.097  27.405  23.807  1.00  0.00     0.020 A 
ATOM     19  C   UNL A   1      30.210  29.319  23.083  1.00  0.00     0.001 A 
ATOM     20  C   UNL A   1      31.521  27.388  22.531  1.00  0.00     0.018 A 
ATOM     21  C   UNL A   1      30.571  28.336  22.169  1.00  0.00     0.016 A 
ATOM     22  Br  UNL A   1      32.030  26.058  21.284  1.00  0.00    -0.051 Br
ENDBRANCH   6  16
ENDBRANCH   4   6
ENDBRANCH   3   4
ENDBRANCH   2   3
ENDBRANCH   1   2
BRANCH   1  23
ATOM     23  O   UNL A   1      32.466  34.100  27.958  1.00  0.00    -0.374 OA
BRANCH  23  24
ATOM     24  C   UNL A   1      33.413  34.982  28.555  1.00  0.00     0.202 C 
BRANCH  24  25
ATOM     25  C   UNL A   1      32.962  35.742  29.792  1.00  0.00     0.261 C 
BRANCH  25  26
ATOM     26  O   UNL A   1      32.719  34.863  30.881  1.00  0.00    -0.460 OA
BRANCH  26  27
ATOM     27  C   UNL A   1      33.082  35.349  32.092  1.00  0.00     0.338 C 
ATOM     28  O   UNL A   1      32.659  36.337  32.652  1.00  0.00    -0.246 OA
BRANCH  27  29
ATOM     29  C   UNL A   1      34.241  34.575  32.554  1.00  0.00     0.060 A 
ATOM     30  C   UNL A   1      35.413  35.301  32.765  1.00  0.00     0.016 A 
ATOM     31  C   UNL A   1      34.235  33.176  32.464  1.00  0.00     0.016 A 
ATOM     32  C   UNL A   1      36.612  34.644  32.629  1.00  0.00     0.010 A 
ATOM     33  C   UNL A   1      35.431  32.522  32.312  1.00  0.00     0.010 A 
ATOM     34  C   UNL A   1      36.595  33.284  32.303  1.00  0.00    -0.014 A 
BRANCH  34  35
ATOM     35  C   UNL A   1      37.862  32.620  32.108  1.00  0.00     0.031 A 
ATOM     36  C   UNL A   1      38.602  32.527  33.381  1.00  0.00     0.074 A 
ATOM     37  C   UNL A   1      38.228  32.094  30.923  1.00  0.00     0.049 A 
ATOM     38  N   UNL A   1      39.635  33.216  33.727  1.00  0.00    -0.248 NA
ATOM     39  C   UNL A   1      37.980  31.778  34.488  1.00  0.00     0.031 C 
ATOM     40  C   UNL A   1      37.411  31.957  29.715  1.00  0.00     0.029 A 
ATOM     41  N   UNL A   1      39.391  31.476  30.576  1.00  0.00    -0.354 N 
ATOM     42  C   UNL A   1      39.944  32.778  35.009  1.00  0.00     0.074 A 
ATOM     43  C   UNL A   1      38.766  32.127  35.507  1.00  0.00     0.031 C 
ATOM     44  C   UNL A   1      38.017  31.103  28.859  1.00  0.00     0.029 A 
ATOM     45  C   UNL A   1      39.311  30.732  29.402  1.00  0.00     0.049 A 
ATOM     46  H   UNL A   1      40.216  31.549  31.110  1.00  0.00     0.167 HD
ATOM     47  C   UNL A   1      41.250  32.633  35.360  1.00  0.00     0.037 A 
ATOM     48  C   UNL A   1      40.224  29.820  28.978  1.00  0.00     0.037 A 
ATOM     49  C   UNL A   1      42.091  33.425  34.486  1.00  0.00     0.049 A 
ATOM     50  C   UNL A   1      41.492  30.111  29.695  1.00  0.00     0.074 A 
ATOM     51  C   UNL A   1      42.207  34.764  34.164  1.00  0.00     0.029 A 
ATOM     52  N   UNL A   1      42.724  32.737  33.485  1.00  0.00    -0.354 N 
ATOM     53  N   UNL A   1      42.214  31.175  29.485  1.00  0.00    -0.248 NA
ATOM     54  C   UNL A   1      41.725  29.438  30.963  1.00  0.00     0.031 C 
ATOM     55  C   UNL A   1      42.583  34.795  32.786  1.00  0.00     0.029 A 
ATOM     56  C   UNL A   1      42.746  33.482  32.343  1.00  0.00     0.049 A 
ATOM     57  H   UNL A   1      43.108  31.835  33.578  1.00  0.00     0.167 HD
ATOM     58  C   UNL A   1      42.636  31.563  30.748  1.00  0.00     0.074 A 
ATOM     59  C   UNL A   1      42.413  30.392  31.594  1.00  0.00     0.031 C 
ATOM     60  C   UNL A   1      42.827  32.887  31.028  1.00  0.00     0.037 A 
BRANCH  47  61
ATOM     61  C   UNL A   1      41.783  31.387  36.058  1.00  0.00     0.064 A 
ATOM     62  C   UNL A   1      42.774  31.562  37.045  1.00  0.00     0.173 A 
ATOM     63  C   UNL A   1      41.644  30.061  35.582  1.00  0.00     0.173 A 
ATOM     64  F   UNL A   1      42.998  32.773  37.577  1.00  0.00    -0.203 F 
ATOM     65  C   UNL A   1      43.642  30.531  37.417  1.00  0.00     0.198 A 
ATOM     66  C   UNL A   1      42.483  29.025  35.989  1.00  0.00     0.198 A 
ATOM     67  F   UNL A   1      40.773  29.707  34.633  1.00  0.00    -0.203 F 
ATOM     68  F   UNL A   1      44.666  30.791  38.240  1.00  0.00    -0.200 F 
ATOM     69  C   UNL A   1      43.506  29.268  36.875  1.00  0.00     0.200 A 
ATOM     70  F   UNL A   1      42.340  27.812  35.438  1.00  0.00    -0.200 F 
ATOM     71  F   UNL A   1      44.382  28.299  37.168  1.00  0.00    -0.200 F 
ENDBRANCH  47  61
BRANCH  48  72
ATOM     72  C   UNL A   1      40.005  28.531  28.273  1.00  0.00     0.064 A 
ATOM     73  C   UNL A   1      40.660  28.251  27.059  1.00  0.00     0.173 A 
ATOM     74  C   UNL A   1      39.386  27.437  28.909  1.00  0.00     0.173 A 
ATOM     75  F   UNL A   1      41.317  29.221  26.406  1.00  0.00    -0.203 F 
ATOM     76  C   UNL A   1      40.721  26.954  26.536  1.00  0.00     0.198 A 
ATOM     77  C   UNL A   1      39.441  26.146  28.382  1.00  0.00     0.198 A 
ATOM     78  F   UNL A   1      38.801  27.576  30.107  1.00  0.00    -0.203 F 
ATOM     79  F   UNL A   1      41.416  26.717  25.414  1.00  0.00    -0.200 F 
ATOM     80  C   UNL A   1      40.120  25.900  27.203  1.00  0.00     0.200 A 
ATOM     81  F   UNL A   1      38.889  25.129  29.059  1.00  0.00    -0.200 F 
ATOM     82  F   UNL A   1      40.234  24.648  26.739  1.00  0.00    -0.200 F 
ENDBRANCH  48  72
BRANCH  60  83
ATOM     83  C   UNL A   1      42.961  33.826  29.861  1.00  0.00     0.064 A 
ATOM     84  C   UNL A   1      44.139  34.022  29.121  1.00  0.00     0.173 A 
ATOM     85  C   UNL A   1      41.804  34.483  29.422  1.00  0.00     0.173 A 
ATOM     86  F   UNL A   1      45.263  33.355  29.419  1.00  0.00    -0.203 F 
ATOM     87  C   UNL A   1      44.163  34.882  28.023  1.00  0.00     0.198 A 
ATOM     88  C   UNL A   1      41.821  35.307  28.302  1.00  0.00     0.198 A 
ATOM     89  F   UNL A   1      40.640  34.294  30.063  1.00  0.00    -0.203 F 
ATOM     90  F   UNL A   1      45.304  35.077  27.345  1.00  0.00    -0.200 F 
ATOM     91  C   UNL A   1      43.002  35.518  27.611  1.00  0.00     0.200 A 
ATOM     92  F   UNL A   1      40.685  35.881  27.882  1.00  0.00    -0.200 F 
ATOM     93  F   UNL A   1      43.016  36.319  26.537  1.00  0.00    -0.200 F 
ENDBRANCH  60  83
ENDBRANCH  34  35
ENDBRANCH  27  29
ENDBRANCH  26  27
ENDBRANCH  25  26
ENDBRANCH  24  25
ENDBRANCH  23  24
ENDBRANCH   1  23
TORSDOF 18
ENDMDL
