MODEL 1
REMARK VINA RESULT:     -11.4      0.000      0.000
REMARK SMILES CCc1cccc(-c2ccc([C@@H](C)C(=O)OCCOCCOC(=O)c3ccc(-c4c5nc(c(-c6c(F)c(F)c(F)c(F)c6F)c6ccc([nH]6)c(-c6c(F)c(F)c(F)c(F)c6F)c6nc(c(-c7c(F)c(F)c(F)c(F)c7F)c7ccc4[nH]7)C=C6)C=C5)cc3)cc2)c1
REMARK SMILES IDX 18 1 17 2 16 3 14 4 15 5 12 6 13 7 11 8 8 9 9 10 89 11 10 12
REMARK SMILES IDX 88 13 7 14 3 15 4 16 90 17 5 18 6 19 2 20 1 21 19 22 20 23
REMARK SMILES IDX 21 24 22 25 23 26 24 27 25 28 26 29 87 30 27 31 86 32 28 33
REMARK SMILES IDX 29 34 30 35 80 36 31 37 85 38 79 39 81 40 32 41 84 42 78 43
REMARK SMILES IDX 77 44 33 46 65 47 45 48 64 49 46 50 49 51 63 52 82 53 47 54
REMARK SMILES IDX 48 55 62 57 83 58 50 59 34 60 35 61 43 62 36 63 37 64 41 65
REMARK SMILES IDX 44 66 38 67 39 68 42 69 40 70 66 71 67 72 75 73 68 74 69 75
REMARK SMILES IDX 73 76 76 77 70 78 71 79 74 80 72 81 51 82 52 83 60 84 53 85
REMARK SMILES IDX 54 86 58 87 61 88 55 89 56 90 59 91 57 92
REMARK H PARENT 81 45 49 56
REMARK Flexibility Score: inf
ROOT
ATOM      1  C   UNL A   1      44.541  20.056  24.755  1.00  0.00     0.202 C 
ENDROOT
BRANCH   1   2
ATOM      2  C   UNL A   1      43.398  19.610  25.668  1.00  0.00     0.261 C 
BRANCH   2   3
ATOM      3  O   UNL A   1      42.179  20.303  25.342  1.00  0.00    -0.463 OA
BRANCH   3   4
ATOM      4  C   UNL A   1      41.210  20.284  26.295  1.00  0.00     0.313 C 
ATOM      5  O   UNL A   1      40.727  19.259  26.769  1.00  0.00    -0.252 OA
BRANCH   4   6
ATOM      6  C   UNL A   1      40.718  21.663  26.701  1.00  0.00     0.126 C 
ATOM      7  C   UNL A   1      40.934  21.848  28.201  1.00  0.00     0.025 C 
BRANCH   6   8
ATOM      8  C   UNL A   1      39.311  22.074  26.274  1.00  0.00    -0.034 A 
ATOM      9  C   UNL A   1      36.802  22.903  25.205  1.00  0.00    -0.018 A 
ATOM     10  C   UNL A   1      37.498  23.696  26.131  1.00  0.00     0.009 A 
ATOM     11  C   UNL A   1      37.356  21.661  24.867  1.00  0.00     0.009 A 
ATOM     12  C   UNL A   1      38.733  23.291  26.657  1.00  0.00     0.005 A 
ATOM     13  C   UNL A   1      38.590  21.253  25.391  1.00  0.00     0.005 A 
BRANCH   9  14
ATOM     14  C   UNL A   1      35.576  23.393  24.547  1.00  0.00    -0.018 A 
ATOM     15  C   UNL A   1      33.888  25.146  24.160  1.00  0.00    -0.048 A 
ATOM     16  C   UNL A   1      33.185  24.265  23.330  1.00  0.00     0.004 A 
ATOM     17  C   UNL A   1      35.085  24.694  24.758  1.00  0.00     0.012 A 
ATOM     18  C   UNL A   1      33.654  22.971  23.109  1.00  0.00     0.001 A 
ATOM     19  C   UNL A   1      34.836  22.542  23.712  1.00  0.00     0.009 A 
BRANCH  15  20
ATOM     20  C   UNL A   1      33.435  26.564  24.435  1.00  0.00     0.032 C 
ATOM     21  C   UNL A   1      33.278  26.966  25.897  1.00  0.00     0.009 C 
ENDBRANCH  15  20
ENDBRANCH   9  14
ENDBRANCH   6   8
ENDBRANCH   4   6
ENDBRANCH   3   4
ENDBRANCH   2   3
ENDBRANCH   1   2
BRANCH   1  22
ATOM     22  O   UNL A   1      45.675  20.617  25.414  1.00  0.00    -0.374 OA
BRANCH  22  23
ATOM     23  C   UNL A   1      46.049  21.948  25.052  1.00  0.00     0.202 C 
BRANCH  23  24
ATOM     24  C   UNL A   1      45.522  23.063  25.960  1.00  0.00     0.261 C 
BRANCH  24  25
ATOM     25  O   UNL A   1      44.983  24.161  25.204  1.00  0.00    -0.460 OA
BRANCH  25  26
ATOM     26  C   UNL A   1      43.649  24.116  24.990  1.00  0.00     0.338 C 
ATOM     27  O   UNL A   1      43.030  23.313  24.306  1.00  0.00    -0.246 OA
BRANCH  26  28
ATOM     28  C   UNL A   1      42.973  25.100  25.853  1.00  0.00     0.060 A 
ATOM     29  C   UNL A   1      43.546  26.376  25.958  1.00  0.00     0.016 A 
ATOM     30  C   UNL A   1      41.846  24.765  26.604  1.00  0.00     0.016 A 
ATOM     31  C   UNL A   1      43.022  27.308  26.851  1.00  0.00     0.010 A 
ATOM     32  C   UNL A   1      41.328  25.694  27.509  1.00  0.00     0.010 A 
ATOM     33  C   UNL A   1      41.935  26.955  27.662  1.00  0.00    -0.014 A 
BRANCH  33  34
ATOM     34  C   UNL A   1      41.529  27.833  28.784  1.00  0.00     0.031 A 
ATOM     35  C   UNL A   1      42.306  27.768  30.067  1.00  0.00     0.074 A 
ATOM     36  C   UNL A   1      40.474  28.657  28.672  1.00  0.00     0.049 A 
ATOM     37  N   UNL A   1      42.062  28.341  31.218  1.00  0.00    -0.248 NA
ATOM     38  C   UNL A   1      43.519  26.936  30.051  1.00  0.00     0.031 C 
ATOM     39  C   UNL A   1      39.671  28.839  27.466  1.00  0.00     0.029 A 
ATOM     40  N   UNL A   1      39.883  29.477  29.602  1.00  0.00    -0.354 N 
ATOM     41  C   UNL A   1      43.075  27.919  32.068  1.00  0.00     0.074 A 
ATOM     42  C   UNL A   1      43.931  27.035  31.307  1.00  0.00     0.031 C 
ATOM     43  C   UNL A   1      38.665  29.689  27.739  1.00  0.00     0.029 A 
ATOM     44  C   UNL A   1      38.737  30.078  29.148  1.00  0.00     0.049 A 
ATOM     45  H   UNL A   1      40.246  29.617  30.506  1.00  0.00     0.167 HD
ATOM     46  C   UNL A   1      43.269  28.239  33.369  1.00  0.00     0.037 A 
ATOM     47  C   UNL A   1      37.827  30.824  29.806  1.00  0.00     0.037 A 
ATOM     48  C   UNL A   1      42.422  29.128  34.118  1.00  0.00     0.049 A 
ATOM     49  C   UNL A   1      38.033  31.127  31.266  1.00  0.00     0.074 A 
ATOM     50  C   UNL A   1      42.561  29.553  35.427  1.00  0.00     0.029 A 
ATOM     51  N   UNL A   1      41.269  29.717  33.625  1.00  0.00    -0.354 N 
ATOM     52  N   UNL A   1      39.007  30.749  32.059  1.00  0.00    -0.248 NA
ATOM     53  C   UNL A   1      37.014  31.956  31.925  1.00  0.00     0.031 C 
ATOM     54  C   UNL A   1      41.462  30.359  35.742  1.00  0.00     0.029 A 
ATOM     55  C   UNL A   1      40.666  30.478  34.613  1.00  0.00     0.049 A 
ATOM     56  H   UNL A   1      40.928  29.611  32.707  1.00  0.00     0.167 HD
ATOM     57  C   UNL A   1      38.734  31.314  33.299  1.00  0.00     0.074 A 
ATOM     58  C   UNL A   1      37.502  32.062  33.155  1.00  0.00     0.031 C 
ATOM     59  C   UNL A   1      39.444  31.224  34.450  1.00  0.00     0.037 A 
BRANCH  46  60
ATOM     60  C   UNL A   1      44.422  27.588  34.075  1.00  0.00     0.064 A 
ATOM     61  C   UNL A   1      44.288  26.361  34.740  1.00  0.00     0.173 A 
ATOM     62  C   UNL A   1      45.684  28.203  34.076  1.00  0.00     0.173 A 
ATOM     63  F   UNL A   1      43.099  25.741  34.779  1.00  0.00    -0.203 F 
ATOM     64  C   UNL A   1      45.368  25.786  35.404  1.00  0.00     0.198 A 
ATOM     65  C   UNL A   1      46.768  27.611  34.718  1.00  0.00     0.198 A 
ATOM     66  F   UNL A   1      45.866  29.376  33.453  1.00  0.00    -0.203 F 
ATOM     67  F   UNL A   1      45.206  24.637  36.075  1.00  0.00    -0.200 F 
ATOM     68  C   UNL A   1      46.607  26.408  35.389  1.00  0.00     0.200 A 
ATOM     69  F   UNL A   1      47.967  28.210  34.694  1.00  0.00    -0.200 F 
ATOM     70  F   UNL A   1      47.646  25.854  36.029  1.00  0.00    -0.200 F 
ENDBRANCH  46  60
BRANCH  47  71
ATOM     71  C   UNL A   1      36.622  31.304  29.085  1.00  0.00     0.064 A 
ATOM     72  C   UNL A   1      36.482  32.649  28.721  1.00  0.00     0.173 A 
ATOM     73  C   UNL A   1      35.595  30.418  28.724  1.00  0.00     0.173 A 
ATOM     74  F   UNL A   1      37.426  33.537  29.066  1.00  0.00    -0.203 F 
ATOM     75  C   UNL A   1      35.359  33.092  28.025  1.00  0.00     0.198 A 
ATOM     76  C   UNL A   1      34.484  30.857  28.008  1.00  0.00     0.198 A 
ATOM     77  F   UNL A   1      35.682  29.121  29.051  1.00  0.00    -0.203 F 
ATOM     78  F   UNL A   1      35.235  34.389  27.713  1.00  0.00    -0.200 F 
ATOM     79  C   UNL A   1      34.365  32.194  27.662  1.00  0.00     0.200 A 
ATOM     80  F   UNL A   1      33.534  29.984  27.649  1.00  0.00    -0.200 F 
ATOM     81  F   UNL A   1      33.292  32.619  26.981  1.00  0.00    -0.200 F 
ENDBRANCH  47  71
BRANCH  59  82
ATOM     82  C   UNL A   1      38.936  31.977  35.644  1.00  0.00     0.064 A 
ATOM     83  C   UNL A   1      38.164  31.352  36.633  1.00  0.00     0.173 A 
ATOM     84  C   UNL A   1      39.297  33.320  35.839  1.00  0.00     0.173 A 
ATOM     85  F   UNL A   1      37.782  30.075  36.484  1.00  0.00    -0.203 F 
ATOM     86  C   UNL A   1      37.767  32.047  37.774  1.00  0.00     0.198 A 
ATOM     87  C   UNL A   1      38.919  34.003  36.991  1.00  0.00     0.198 A 
ATOM     88  F   UNL A   1      40.041  33.959  34.924  1.00  0.00    -0.203 F 
ATOM     89  F   UNL A   1      37.008  31.439  38.695  1.00  0.00    -0.200 F 
ATOM     90  C   UNL A   1      38.153  33.367  37.956  1.00  0.00     0.200 A 
ATOM     91  F   UNL A   1      39.305  35.273  37.172  1.00  0.00    -0.200 F 
ATOM     92  F   UNL A   1      37.784  34.027  39.062  1.00  0.00    -0.200 F 
ENDBRANCH  59  82
ENDBRANCH  33  34
ENDBRANCH  26  28
ENDBRANCH  25  26
ENDBRANCH  24  25
ENDBRANCH  23  24
ENDBRANCH  22  23
ENDBRANCH   1  22
TORSDOF 17
ENDMDL
MODEL 2
REMARK VINA RESULT:     -11.3      4.071      9.447
REMARK SMILES CCc1cccc(-c2ccc([C@@H](C)C(=O)OCCOCCOC(=O)c3ccc(-c4c5nc(c(-c6c(F)c(F)c(F)c(F)c6F)c6ccc([nH]6)c(-c6c(F)c(F)c(F)c(F)c6F)c6nc(c(-c7c(F)c(F)c(F)c(F)c7F)c7ccc4[nH]7)C=C6)C=C5)cc3)cc2)c1
REMARK SMILES IDX 18 1 17 2 16 3 14 4 15 5 12 6 13 7 11 8 8 9 9 10 89 11 10 12
REMARK SMILES IDX 88 13 7 14 3 15 4 16 90 17 5 18 6 19 2 20 1 21 19 22 20 23
REMARK SMILES IDX 21 24 22 25 23 26 24 27 25 28 26 29 87 30 27 31 86 32 28 33
REMARK SMILES IDX 29 34 30 35 80 36 31 37 85 38 79 39 81 40 32 41 84 42 78 43
REMARK SMILES IDX 77 44 33 46 65 47 45 48 64 49 46 50 49 51 63 52 82 53 47 54
REMARK SMILES IDX 48 55 62 57 83 58 50 59 34 60 35 61 43 62 36 63 37 64 41 65
REMARK SMILES IDX 44 66 38 67 39 68 42 69 40 70 66 71 67 72 75 73 68 74 69 75
REMARK SMILES IDX 73 76 76 77 70 78 71 79 74 80 72 81 51 82 52 83 60 84 53 85
REMARK SMILES IDX 54 86 58 87 61 88 55 89 56 90 59 91 57 92
REMARK H PARENT 81 45 49 56
REMARK Flexibility Score: inf
ROOT
ATOM      1  C   UNL A   1      33.220  30.760  27.176  1.00  0.00     0.202 C 
ENDROOT
BRANCH   1   2
ATOM      2  C   UNL A   1      33.505  29.326  26.728  1.00  0.00     0.261 C 
BRANCH   2   3
ATOM      3  O   UNL A   1      32.361  28.758  26.065  1.00  0.00    -0.463 OA
BRANCH   3   4
ATOM      4  C   UNL A   1      31.748  27.731  26.711  1.00  0.00     0.313 C 
ATOM      5  O   UNL A   1      31.372  27.775  27.879  1.00  0.00    -0.252 OA
BRANCH   4   6
ATOM      6  C   UNL A   1      31.608  26.472  25.872  1.00  0.00     0.126 C 
ATOM      7  C   UNL A   1      30.234  25.853  26.125  1.00  0.00     0.025 C 
BRANCH   6   8
ATOM      8  C   UNL A   1      32.723  25.432  25.950  1.00  0.00    -0.034 A 
ATOM      9  C   UNL A   1      34.774  23.458  25.801  1.00  0.00    -0.018 A 
ATOM     10  C   UNL A   1      33.526  23.171  26.375  1.00  0.00     0.009 A 
ATOM     11  C   UNL A   1      34.998  24.767  25.354  1.00  0.00     0.009 A 
ATOM     12  C   UNL A   1      32.515  24.140  26.449  1.00  0.00     0.005 A 
ATOM     13  C   UNL A   1      33.990  25.738  25.426  1.00  0.00     0.005 A 
BRANCH   9  14
ATOM     14  C   UNL A   1      35.783  22.402  25.596  1.00  0.00    -0.018 A 
ATOM     15  C   UNL A   1      38.118  21.615  25.612  1.00  0.00    -0.048 A 
ATOM     16  C   UNL A   1      37.690  20.380  25.115  1.00  0.00     0.004 A 
ATOM     17  C   UNL A   1      37.150  22.615  25.850  1.00  0.00     0.012 A 
ATOM     18  C   UNL A   1      36.340  20.148  24.854  1.00  0.00     0.001 A 
ATOM     19  C   UNL A   1      35.399  21.149  25.092  1.00  0.00     0.009 A 
BRANCH  15  20
ATOM     20  C   UNL A   1      39.566  21.927  25.921  1.00  0.00     0.032 C 
ATOM     21  C   UNL A   1      40.405  20.796  26.508  1.00  0.00     0.009 C 
ENDBRANCH  15  20
ENDBRANCH   9  14
ENDBRANCH   6   8
ENDBRANCH   4   6
ENDBRANCH   3   4
ENDBRANCH   2   3
ENDBRANCH   1   2
BRANCH   1  22
ATOM     22  O   UNL A   1      31.919  31.258  26.865  1.00  0.00    -0.374 OA
BRANCH  22  23
ATOM     23  C   UNL A   1      31.742  32.676  26.877  1.00  0.00     0.202 C 
BRANCH  23  24
ATOM     24  C   UNL A   1      32.809  33.479  27.626  1.00  0.00     0.261 C 
BRANCH  24  25
ATOM     25  O   UNL A   1      32.241  34.584  28.349  1.00  0.00    -0.460 OA
BRANCH  25  26
ATOM     26  C   UNL A   1      33.121  35.323  29.062  1.00  0.00     0.338 C 
ATOM     27  O   UNL A   1      32.981  36.471  29.459  1.00  0.00    -0.246 OA
BRANCH  26  28
ATOM     28  C   UNL A   1      34.261  34.483  29.467  1.00  0.00     0.060 A 
ATOM     29  C   UNL A   1      34.067  33.591  30.532  1.00  0.00     0.016 A 
ATOM     30  C   UNL A   1      35.516  34.613  28.869  1.00  0.00     0.016 A 
ATOM     31  C   UNL A   1      35.140  32.860  31.037  1.00  0.00     0.010 A 
ATOM     32  C   UNL A   1      36.594  33.889  29.384  1.00  0.00     0.010 A 
ATOM     33  C   UNL A   1      36.418  33.038  30.492  1.00  0.00    -0.014 A 
BRANCH  33  34
ATOM     34  C   UNL A   1      37.603  32.467  31.174  1.00  0.00     0.031 A 
ATOM     35  C   UNL A   1      38.316  31.312  30.533  1.00  0.00     0.074 A 
ATOM     36  C   UNL A   1      38.023  32.951  32.354  1.00  0.00     0.049 A 
ATOM     37  N   UNL A   1      39.289  30.571  30.999  1.00  0.00    -0.248 NA
ATOM     38  C   UNL A   1      37.865  30.937  29.183  1.00  0.00     0.031 C 
ATOM     39  C   UNL A   1      37.440  34.093  33.052  1.00  0.00     0.029 A 
ATOM     40  N   UNL A   1      39.027  32.520  33.185  1.00  0.00    -0.354 N 
ATOM     41  C   UNL A   1      39.547  29.628  30.013  1.00  0.00     0.074 A 
ATOM     42  C   UNL A   1      38.624  29.882  28.928  1.00  0.00     0.031 C 
ATOM     43  C   UNL A   1      38.073  34.252  34.228  1.00  0.00     0.029 A 
ATOM     44  C   UNL A   1      39.078  33.199  34.376  1.00  0.00     0.049 A 
ATOM     45  H   UNL A   1      39.649  31.794  32.950  1.00  0.00     0.167 HD
ATOM     46  C   UNL A   1      40.470  28.637  30.017  1.00  0.00     0.037 A 
ATOM     47  C   UNL A   1      39.821  32.970  35.476  1.00  0.00     0.037 A 
ATOM     48  C   UNL A   1      41.392  28.397  31.094  1.00  0.00     0.049 A 
ATOM     49  C   UNL A   1      40.806  31.831  35.482  1.00  0.00     0.074 A 
ATOM     50  C   UNL A   1      42.397  27.449  31.174  1.00  0.00     0.029 A 
ATOM     51  N   UNL A   1      41.412  29.105  32.286  1.00  0.00    -0.354 N 
ATOM     52  N   UNL A   1      41.067  30.960  34.538  1.00  0.00    -0.248 NA
ATOM     53  C   UNL A   1      41.598  31.640  36.706  1.00  0.00     0.031 C 
ATOM     54  C   UNL A   1      42.991  27.549  32.437  1.00  0.00     0.029 A 
ATOM     55  C   UNL A   1      42.391  28.595  33.122  1.00  0.00     0.049 A 
ATOM     56  H   UNL A   1      40.819  29.859  32.505  1.00  0.00     0.167 HD
ATOM     57  C   UNL A   1      42.068  30.137  35.040  1.00  0.00     0.074 A 
ATOM     58  C   UNL A   1      42.369  30.612  36.375  1.00  0.00     0.031 C 
ATOM     59  C   UNL A   1      42.684  29.086  34.446  1.00  0.00     0.037 A 
BRANCH  46  60
ATOM     60  C   UNL A   1      40.496  27.714  28.836  1.00  0.00     0.064 A 
ATOM     61  C   UNL A   1      41.310  27.957  27.720  1.00  0.00     0.173 A 
ATOM     62  C   UNL A   1      39.697  26.559  28.828  1.00  0.00     0.173 A 
ATOM     63  F   UNL A   1      42.080  29.055  27.673  1.00  0.00    -0.203 F 
ATOM     64  C   UNL A   1      41.301  27.095  26.627  1.00  0.00     0.198 A 
ATOM     65  C   UNL A   1      39.713  25.685  27.745  1.00  0.00     0.198 A 
ATOM     66  F   UNL A   1      38.903  26.279  29.872  1.00  0.00    -0.203 F 
ATOM     67  F   UNL A   1      42.049  27.373  25.550  1.00  0.00    -0.200 F 
ATOM     68  C   UNL A   1      40.508  25.957  26.643  1.00  0.00     0.200 A 
ATOM     69  F   UNL A   1      38.952  24.582  27.766  1.00  0.00    -0.200 F 
ATOM     70  F   UNL A   1      40.501  25.128  25.589  1.00  0.00    -0.200 F 
ENDBRANCH  46  60
BRANCH  47  71
ATOM     71  C   UNL A   1      39.631  33.825  36.675  1.00  0.00     0.064 A 
ATOM     72  C   UNL A   1      40.245  35.079  36.776  1.00  0.00     0.173 A 
ATOM     73  C   UNL A   1      38.808  33.412  37.734  1.00  0.00     0.173 A 
ATOM     74  F   UNL A   1      41.061  35.506  35.800  1.00  0.00    -0.203 F 
ATOM     75  C   UNL A   1      40.046  35.889  37.893  1.00  0.00     0.198 A 
ATOM     76  C   UNL A   1      38.590  34.232  38.838  1.00  0.00     0.198 A 
ATOM     77  F   UNL A   1      38.198  32.219  37.684  1.00  0.00    -0.203 F 
ATOM     78  F   UNL A   1      40.667  37.073  37.978  1.00  0.00    -0.200 F 
ATOM     79  C   UNL A   1      39.212  35.469  38.919  1.00  0.00     0.200 A 
ATOM     80  F   UNL A   1      37.774  33.827  39.820  1.00  0.00    -0.200 F 
ATOM     81  F   UNL A   1      39.011  36.254  39.986  1.00  0.00    -0.200 F 
ENDBRANCH  47  71
BRANCH  59  82
ATOM     82  C   UNL A   1      43.772  28.391  35.210  1.00  0.00     0.064 A 
ATOM     83  C   UNL A   1      43.499  27.313  36.062  1.00  0.00     0.173 A 
ATOM     84  C   UNL A   1      45.114  28.759  35.020  1.00  0.00     0.173 A 
ATOM     85  F   UNL A   1      42.232  26.934  36.286  1.00  0.00    -0.203 F 
ATOM     86  C   UNL A   1      44.531  26.630  36.703  1.00  0.00     0.198 A 
ATOM     87  C   UNL A   1      46.143  28.059  35.643  1.00  0.00     0.198 A 
ATOM     88  F   UNL A   1      45.427  29.780  34.208  1.00  0.00    -0.203 F 
ATOM     89  F   UNL A   1      44.246  25.618  37.534  1.00  0.00    -0.200 F 
ATOM     90  C   UNL A   1      45.850  26.996  36.485  1.00  0.00     0.200 A 
ATOM     91  F   UNL A   1      47.418  28.405  35.420  1.00  0.00    -0.200 F 
ATOM     92  F   UNL A   1      46.841  26.327  37.088  1.00  0.00    -0.200 F 
ENDBRANCH  59  82
ENDBRANCH  33  34
ENDBRANCH  26  28
ENDBRANCH  25  26
ENDBRANCH  24  25
ENDBRANCH  23  24
ENDBRANCH  22  23
ENDBRANCH   1  22
TORSDOF 17
ENDMDL
MODEL 3
REMARK VINA RESULT:     -11.0      3.694      8.665
REMARK SMILES CCc1cccc(-c2ccc([C@@H](C)C(=O)OCCOCCOC(=O)c3ccc(-c4c5nc(c(-c6c(F)c(F)c(F)c(F)c6F)c6ccc([nH]6)c(-c6c(F)c(F)c(F)c(F)c6F)c6nc(c(-c7c(F)c(F)c(F)c(F)c7F)c7ccc4[nH]7)C=C6)C=C5)cc3)cc2)c1
REMARK SMILES IDX 18 1 17 2 16 3 14 4 15 5 12 6 13 7 11 8 8 9 9 10 89 11 10 12
REMARK SMILES IDX 88 13 7 14 3 15 4 16 90 17 5 18 6 19 2 20 1 21 19 22 20 23
REMARK SMILES IDX 21 24 22 25 23 26 24 27 25 28 26 29 87 30 27 31 86 32 28 33
REMARK SMILES IDX 29 34 30 35 80 36 31 37 85 38 79 39 81 40 32 41 84 42 78 43
REMARK SMILES IDX 77 44 33 46 65 47 45 48 64 49 46 50 49 51 63 52 82 53 47 54
REMARK SMILES IDX 48 55 62 57 83 58 50 59 34 60 35 61 43 62 36 63 37 64 41 65
REMARK SMILES IDX 44 66 38 67 39 68 42 69 40 70 66 71 67 72 75 73 68 74 69 75
REMARK SMILES IDX 73 76 76 77 70 78 71 79 74 80 72 81 51 82 52 83 60 84 53 85
REMARK SMILES IDX 54 86 58 87 61 88 55 89 56 90 59 91 57 92
REMARK H PARENT 81 45 49 56
REMARK Flexibility Score: inf
ROOT
ATOM      1  C   UNL A   1      32.290  26.760  25.631  1.00  0.00     0.202 C 
ENDROOT
BRANCH   1   2
ATOM      2  C   UNL A   1      32.976  26.838  24.266  1.00  0.00     0.261 C 
BRANCH   2   3
ATOM      3  O   UNL A   1      32.299  26.010  23.303  1.00  0.00    -0.463 OA
BRANCH   3   4
ATOM      4  C   UNL A   1      33.095  25.351  22.420  1.00  0.00     0.313 C 
ATOM      5  O   UNL A   1      33.564  25.854  21.403  1.00  0.00    -0.252 OA
BRANCH   4   6
ATOM      6  C   UNL A   1      33.324  23.889  22.769  1.00  0.00     0.126 C 
ATOM      7  C   UNL A   1      32.042  23.311  23.362  1.00  0.00     0.025 C 
BRANCH   6   8
ATOM      8  C   UNL A   1      34.549  23.538  23.610  1.00  0.00    -0.034 A 
ATOM      9  C   UNL A   1      36.896  23.177  25.187  1.00  0.00    -0.018 A 
ATOM     10  C   UNL A   1      36.863  22.806  23.833  1.00  0.00     0.009 A 
ATOM     11  C   UNL A   1      35.717  23.680  25.752  1.00  0.00     0.009 A 
ATOM     12  C   UNL A   1      35.709  22.983  23.056  1.00  0.00     0.005 A 
ATOM     13  C   UNL A   1      34.563  23.859  24.978  1.00  0.00     0.005 A 
BRANCH   9  14
ATOM     14  C   UNL A   1      38.148  23.122  25.964  1.00  0.00    -0.018 A 
ATOM     15  C   UNL A   1      40.210  21.963  26.655  1.00  0.00    -0.048 A 
ATOM     16  C   UNL A   1      40.494  23.019  27.528  1.00  0.00     0.004 A 
ATOM     17  C   UNL A   1      39.034  22.033  25.877  1.00  0.00     0.012 A 
ATOM     18  C   UNL A   1      39.629  24.107  27.630  1.00  0.00     0.001 A 
ATOM     19  C   UNL A   1      38.470  24.156  26.857  1.00  0.00     0.009 A 
BRANCH  15  20
ATOM     20  C   UNL A   1      41.112  20.758  26.493  1.00  0.00     0.032 C 
ATOM     21  C   UNL A   1      41.334  19.892  27.729  1.00  0.00     0.009 C 
ENDBRANCH  15  20
ENDBRANCH   9  14
ENDBRANCH   6   8
ENDBRANCH   4   6
ENDBRANCH   3   4
ENDBRANCH   2   3
ENDBRANCH   1   2
BRANCH   1  22
ATOM     22  O   UNL A   1      32.283  27.968  26.390  1.00  0.00    -0.374 OA
BRANCH  22  23
ATOM     23  C   UNL A   1      31.547  29.071  25.858  1.00  0.00     0.202 C 
BRANCH  23  24
ATOM     24  C   UNL A   1      31.946  30.456  26.374  1.00  0.00     0.261 C 
BRANCH  24  25
ATOM     25  O   UNL A   1      33.366  30.565  26.575  1.00  0.00    -0.460 OA
BRANCH  25  26
ATOM     26  C   UNL A   1      33.759  31.569  27.392  1.00  0.00     0.338 C 
ATOM     27  O   UNL A   1      33.087  32.506  27.797  1.00  0.00    -0.246 OA
BRANCH  26  28
ATOM     28  C   UNL A   1      35.117  31.297  27.895  1.00  0.00     0.060 A 
ATOM     29  C   UNL A   1      35.393  30.003  28.358  1.00  0.00     0.016 A 
ATOM     30  C   UNL A   1      36.080  32.303  27.982  1.00  0.00     0.016 A 
ATOM     31  C   UNL A   1      36.619  29.720  28.955  1.00  0.00     0.010 A 
ATOM     32  C   UNL A   1      37.305  32.022  28.593  1.00  0.00     0.010 A 
ATOM     33  C   UNL A   1      37.565  30.740  29.113  1.00  0.00    -0.014 A 
BRANCH  33  34
ATOM     34  C   UNL A   1      38.759  30.522  29.964  1.00  0.00     0.031 A 
ATOM     35  C   UNL A   1      39.882  29.683  29.428  1.00  0.00     0.074 A 
ATOM     36  C   UNL A   1      38.831  31.042  31.201  1.00  0.00     0.049 A 
ATOM     37  N   UNL A   1      40.960  29.252  30.031  1.00  0.00    -0.248 NA
ATOM     38  C   UNL A   1      39.769  29.269  28.021  1.00  0.00     0.031 C 
ATOM     39  C   UNL A   1      37.826  31.905  31.813  1.00  0.00     0.029 A 
ATOM     40  N   UNL A   1      39.789  30.892  32.173  1.00  0.00    -0.354 N 
ATOM     41  C   UNL A   1      41.639  28.495  29.087  1.00  0.00     0.074 A 
ATOM     42  C   UNL A   1      40.850  28.516  27.874  1.00  0.00     0.031 C 
ATOM     43  C   UNL A   1      38.201  32.181  33.074  1.00  0.00     0.029 A 
ATOM     44  C   UNL A   1      39.453  31.482  33.365  1.00  0.00     0.049 A 
ATOM     45  H   UNL A   1      40.634  30.408  32.029  1.00  0.00     0.167 HD
ATOM     46  C   UNL A   1      42.816  27.838  29.222  1.00  0.00     0.037 A 
ATOM     47  C   UNL A   1      40.065  31.428  34.564  1.00  0.00     0.037 A 
ATOM     48  C   UNL A   1      43.602  27.829  30.426  1.00  0.00     0.049 A 
ATOM     49  C   UNL A   1      41.345  30.649  34.709  1.00  0.00     0.074 A 
ATOM     50  C   UNL A   1      44.831  27.234  30.650  1.00  0.00     0.029 A 
ATOM     51  N   UNL A   1      43.228  28.437  31.615  1.00  0.00    -0.354 N 
ATOM     52  N   UNL A   1      41.999  29.959  33.807  1.00  0.00    -0.248 NA
ATOM     53  C   UNL A   1      41.972  30.639  36.039  1.00  0.00     0.031 C 
ATOM     54  C   UNL A   1      45.175  27.437  31.990  1.00  0.00     0.029 A 
ATOM     55  C   UNL A   1      44.186  28.204  32.587  1.00  0.00     0.049 A 
ATOM     56  H   UNL A   1      42.403  28.958  31.748  1.00  0.00     0.167 HD
ATOM     57  C   UNL A   1      43.124  29.456  34.449  1.00  0.00     0.074 A 
ATOM     58  C   UNL A   1      43.066  29.920  35.819  1.00  0.00     0.031 C 
ATOM     59  C   UNL A   1      44.117  28.683  33.945  1.00  0.00     0.037 A 
BRANCH  46  60
ATOM     60  C   UNL A   1      43.299  27.039  28.048  1.00  0.00     0.064 A 
ATOM     61  C   UNL A   1      43.148  25.646  27.986  1.00  0.00     0.173 A 
ATOM     62  C   UNL A   1      43.916  27.683  26.965  1.00  0.00     0.173 A 
ATOM     63  F   UNL A   1      42.578  24.982  29.003  1.00  0.00    -0.203 F 
ATOM     64  C   UNL A   1      43.623  24.924  26.893  1.00  0.00     0.198 A 
ATOM     65  C   UNL A   1      44.364  26.961  25.863  1.00  0.00     0.198 A 
ATOM     66  F   UNL A   1      44.082  29.014  26.974  1.00  0.00    -0.203 F 
ATOM     67  F   UNL A   1      43.513  23.589  26.876  1.00  0.00    -0.200 F 
ATOM     68  C   UNL A   1      44.225  25.582  25.832  1.00  0.00     0.200 A 
ATOM     69  F   UNL A   1      44.938  27.600  24.833  1.00  0.00    -0.200 F 
ATOM     70  F   UNL A   1      44.682  24.885  24.781  1.00  0.00    -0.200 F 
ENDBRANCH  46  60
BRANCH  47  71
ATOM     71  C   UNL A   1      39.446  32.110  35.728  1.00  0.00     0.064 A 
ATOM     72  C   UNL A   1      38.541  31.444  36.563  1.00  0.00     0.173 A 
ATOM     73  C   UNL A   1      39.769  33.440  36.042  1.00  0.00     0.173 A 
ATOM     74  F   UNL A   1      38.183  30.181  36.289  1.00  0.00    -0.203 F 
ATOM     75  C   UNL A   1      37.979  32.081  37.668  1.00  0.00     0.198 A 
ATOM     76  C   UNL A   1      39.225  34.068  37.159  1.00  0.00     0.198 A 
ATOM     77  F   UNL A   1      40.629  34.121  35.272  1.00  0.00    -0.203 F 
ATOM     78  F   UNL A   1      37.095  31.430  38.436  1.00  0.00    -0.200 F 
ATOM     79  C   UNL A   1      38.329  33.389  37.970  1.00  0.00     0.200 A 
ATOM     80  F   UNL A   1      39.575  35.327  37.454  1.00  0.00    -0.200 F 
ATOM     81  F   UNL A   1      37.798  33.997  39.041  1.00  0.00    -0.200 F 
ENDBRANCH  47  71
BRANCH  59  82
ATOM     82  C   UNL A   1      45.246  28.313  34.861  1.00  0.00     0.064 A 
ATOM     83  C   UNL A   1      46.345  29.161  35.053  1.00  0.00     0.173 A 
ATOM     84  C   UNL A   1      45.185  27.131  35.617  1.00  0.00     0.173 A 
ATOM     85  F   UNL A   1      46.455  30.293  34.342  1.00  0.00    -0.203 F 
ATOM     86  C   UNL A   1      47.347  28.837  35.966  1.00  0.00     0.198 A 
ATOM     87  C   UNL A   1      46.174  26.824  36.546  1.00  0.00     0.198 A 
ATOM     88  F   UNL A   1      44.149  26.291  35.475  1.00  0.00    -0.203 F 
ATOM     89  F   UNL A   1      48.402  29.649  36.115  1.00  0.00    -0.200 F 
ATOM     90  C   UNL A   1      47.255  27.675  36.718  1.00  0.00     0.200 A 
ATOM     91  F   UNL A   1      46.077  25.708  37.282  1.00  0.00    -0.200 F 
ATOM     92  F   UNL A   1      48.210  27.375  37.608  1.00  0.00    -0.200 F 
ENDBRANCH  59  82
ENDBRANCH  33  34
ENDBRANCH  26  28
ENDBRANCH  25  26
ENDBRANCH  24  25
ENDBRANCH  23  24
ENDBRANCH  22  23
ENDBRANCH   1  22
TORSDOF 17
ENDMDL
