MODEL 1
REMARK VINA RESULT:     -10.9      0.000      0.000
REMARK SMILES Cc1nc(CNC(=O)[C@H]2CCO[C@H]2C)sc1C(=O)OCCOCCOC(=O)c1ccc(-c2c3nc(c(-c4c(F)c(F)c(F)c(F)c4F)c4ccc([nH]4)c(-c4c(F)c(F)c(F)c(F)c4F)c4nc(c(-c5c(F)c(F)c(F)c(F)c5F)c5ccc2[nH]5)C=C4)C=C3)cc1
REMARK SMILES IDX 21 1 20 2 19 3 17 4 18 5 16 6 1 7 2 8 3 9 4 10 15 11 5 12
REMARK SMILES IDX 6 13 7 14 8 16 9 17 10 18 13 19 11 20 12 21 14 22 22 23
REMARK SMILES IDX 23 24 24 25 25 26 26 27 27 28 28 29 29 30 90 31 30 32 89 33
REMARK SMILES IDX 31 34 32 35 33 36 83 37 34 38 88 39 82 40 84 41 35 42 87 43
REMARK SMILES IDX 81 44 80 45 36 47 68 48 48 49 67 50 49 51 52 52 66 53 85 54
REMARK SMILES IDX 50 55 51 56 65 58 86 59 53 60 37 61 38 62 46 63 39 64 40 65
REMARK SMILES IDX 44 66 47 67 41 68 42 69 45 70 43 71 69 72 70 73 78 74 71 75
REMARK SMILES IDX 72 76 76 77 79 78 73 79 74 80 77 81 75 82 54 83 55 84 63 85
REMARK SMILES IDX 56 86 57 87 61 88 64 89 58 90 59 91 62 92 60 93
REMARK H PARENT 6 15 84 46 52 57
REMARK Flexibility Score: inf
ROOT
ATOM      1  C   UNL A   1      35.318  33.316  28.676  1.00  0.00     0.202 C 
ENDROOT
BRANCH   1   2
ATOM      2  C   UNL A   1      34.817  31.870  28.694  1.00  0.00     0.261 C 
BRANCH   2   3
ATOM      3  O   UNL A   1      34.608  31.416  27.344  1.00  0.00    -0.459 OA
BRANCH   3   4
ATOM      4  C   UNL A   1      34.191  30.127  27.206  1.00  0.00     0.350 C 
ATOM      5  O   UNL A   1      34.614  29.194  27.879  1.00  0.00    -0.245 OA
BRANCH   4   6
ATOM      6  C   UNL A   1      33.109  30.049  26.247  1.00  0.00     0.135 A 
ATOM      7  C   UNL A   1      31.395  31.887  26.901  1.00  0.00     0.068 C 
ATOM      8  C   UNL A   1      31.909  30.735  26.109  1.00  0.00     0.063 A 
ATOM      9  N   UNL A   1      31.103  30.287  25.063  1.00  0.00    -0.244 NA
ATOM     10  C   UNL A   1      31.681  29.294  24.421  1.00  0.00     0.113 A 
ATOM     11  S   UNL A   1      33.226  28.853  25.015  1.00  0.00    -0.110 S 
BRANCH  10  12
ATOM     12  C   UNL A   1      31.136  28.570  23.224  1.00  0.00     0.183 C 
BRANCH  12  13
ATOM     13  N   UNL A   1      29.713  28.318  23.356  1.00  0.00    -0.349 N 
ATOM     14  C   UNL A   1      28.662  28.995  22.814  1.00  0.00     0.226 C 
ATOM     15  H   UNL A   1      29.472  27.547  23.919  1.00  0.00     0.163 HD
ATOM     16  O   UNL A   1      27.530  28.539  22.967  1.00  0.00    -0.275 OA
BRANCH  14  17
ATOM     17  C   UNL A   1      28.928  30.272  22.047  1.00  0.00     0.109 C 
ATOM     18  C   UNL A   1      27.983  30.521  20.888  1.00  0.00     0.044 C 
ATOM     19  C   UNL A   1      28.747  31.542  22.875  1.00  0.00     0.127 C 
ATOM     20  C   UNL A   1      28.162  32.005  20.655  1.00  0.00     0.161 C 
ATOM     21  O   UNL A   1      28.501  32.596  21.919  1.00  0.00    -0.378 OA
ATOM     22  C   UNL A   1      27.572  31.532  23.850  1.00  0.00     0.039 C 
ENDBRANCH  14  17
ENDBRANCH  12  13
ENDBRANCH  10  12
ENDBRANCH   4   6
ENDBRANCH   3   4
ENDBRANCH   2   3
ENDBRANCH   1   2
BRANCH   1  23
ATOM     23  O   UNL A   1      34.457  34.221  27.981  1.00  0.00    -0.374 OA
BRANCH  23  24
ATOM     24  C   UNL A   1      34.157  35.452  28.644  1.00  0.00     0.202 C 
BRANCH  24  25
ATOM     25  C   UNL A   1      32.926  35.410  29.555  1.00  0.00     0.261 C 
BRANCH  25  26
ATOM     26  O   UNL A   1      33.139  36.187  30.749  1.00  0.00    -0.460 OA
BRANCH  26  27
ATOM     27  C   UNL A   1      32.779  35.575  31.902  1.00  0.00     0.338 C 
ATOM     28  O   UNL A   1      31.654  35.448  32.353  1.00  0.00    -0.246 OA
BRANCH  27  29
ATOM     29  C   UNL A   1      33.951  34.900  32.495  1.00  0.00     0.060 A 
ATOM     30  C   UNL A   1      35.192  35.534  32.362  1.00  0.00     0.016 A 
ATOM     31  C   UNL A   1      33.855  33.653  33.119  1.00  0.00     0.016 A 
ATOM     32  C   UNL A   1      36.350  34.902  32.809  1.00  0.00     0.010 A 
ATOM     33  C   UNL A   1      35.021  33.016  33.560  1.00  0.00     0.010 A 
ATOM     34  C   UNL A   1      36.276  33.623  33.377  1.00  0.00    -0.014 A 
BRANCH  34  35
ATOM     35  C   UNL A   1      37.525  32.871  33.649  1.00  0.00     0.031 A 
ATOM     36  C   UNL A   1      38.278  33.139  34.921  1.00  0.00     0.074 A 
ATOM     37  C   UNL A   1      37.966  31.937  32.788  1.00  0.00     0.049 A 
ATOM     38  N   UNL A   1      39.398  32.614  35.352  1.00  0.00    -0.248 NA
ATOM     39  C   UNL A   1      37.690  34.134  35.832  1.00  0.00     0.031 C 
ATOM     40  C   UNL A   1      37.306  31.562  31.539  1.00  0.00     0.029 A 
ATOM     41  N   UNL A   1      39.081  31.138  32.835  1.00  0.00    -0.354 N 
ATOM     42  C   UNL A   1      39.647  33.214  36.579  1.00  0.00     0.074 A 
ATOM     43  C   UNL A   1      38.581  34.165  36.811  1.00  0.00     0.031 C 
ATOM     44  C   UNL A   1      38.036  30.612  30.930  1.00  0.00     0.029 A 
ATOM     45  C   UNL A   1      39.226  30.332  31.733  1.00  0.00     0.049 A 
ATOM     46  H   UNL A   1      39.716  31.143  33.587  1.00  0.00     0.167 HD
ATOM     47  C   UNL A   1      40.668  32.985  37.439  1.00  0.00     0.037 A 
ATOM     48  C   UNL A   1      40.217  29.481  31.404  1.00  0.00     0.037 A 
ATOM     49  C   UNL A   1      41.729  32.041  37.208  1.00  0.00     0.049 A 
ATOM     50  C   UNL A   1      41.377  29.292  32.347  1.00  0.00     0.074 A 
ATOM     51  C   UNL A   1      42.798  31.726  38.028  1.00  0.00     0.029 A 
ATOM     52  N   UNL A   1      41.857  31.263  36.067  1.00  0.00    -0.354 N 
ATOM     53  N   UNL A   1      41.590  29.842  33.517  1.00  0.00    -0.248 NA
ATOM     54  C   UNL A   1      42.431  28.359  31.924  1.00  0.00     0.031 C 
ATOM     55  C   UNL A   1      43.598  30.789  37.363  1.00  0.00     0.029 A 
ATOM     56  C   UNL A   1      43.001  30.486  36.151  1.00  0.00     0.049 A 
ATOM     57  H   UNL A   1      41.228  31.263  35.309  1.00  0.00     0.167 HD
ATOM     58  C   UNL A   1      42.784  29.306  33.980  1.00  0.00     0.074 A 
ATOM     59  C   UNL A   1      43.244  28.377  32.971  1.00  0.00     0.031 C 
ATOM     60  C   UNL A   1      43.441  29.559  35.140  1.00  0.00     0.037 A 
BRANCH  47  61
ATOM     61  C   UNL A   1      40.696  33.786  38.706  1.00  0.00     0.064 A 
ATOM     62  C   UNL A   1      40.007  33.370  39.855  1.00  0.00     0.173 A 
ATOM     63  C   UNL A   1      41.449  34.967  38.784  1.00  0.00     0.173 A 
ATOM     64  F   UNL A   1      39.261  32.255  39.827  1.00  0.00    -0.203 F 
ATOM     65  C   UNL A   1      40.053  34.118  41.027  1.00  0.00     0.198 A 
ATOM     66  C   UNL A   1      41.514  35.700  39.966  1.00  0.00     0.198 A 
ATOM     67  F   UNL A   1      42.129  35.407  37.714  1.00  0.00    -0.203 F 
ATOM     68  F   UNL A   1      39.354  33.723  42.101  1.00  0.00    -0.200 F 
ATOM     69  C   UNL A   1      40.812  35.278  41.084  1.00  0.00     0.200 A 
ATOM     70  F   UNL A   1      42.255  36.815  40.023  1.00  0.00    -0.200 F 
ATOM     71  F   UNL A   1      40.860  35.994  42.216  1.00  0.00    -0.200 F 
ENDBRANCH  47  61
BRANCH  48  72
ATOM     72  C   UNL A   1      40.164  28.748  30.113  1.00  0.00     0.064 A 
ATOM     73  C   UNL A   1      39.541  27.497  30.016  1.00  0.00     0.173 A 
ATOM     74  C   UNL A   1      40.753  29.277  28.955  1.00  0.00     0.173 A 
ATOM     75  F   UNL A   1      38.987  26.938  31.103  1.00  0.00    -0.203 F 
ATOM     76  C   UNL A   1      39.521  26.794  28.813  1.00  0.00     0.198 A 
ATOM     77  C   UNL A   1      40.710  28.585  27.746  1.00  0.00     0.198 A 
ATOM     78  F   UNL A   1      41.365  30.469  28.996  1.00  0.00    -0.203 F 
ATOM     79  F   UNL A   1      38.957  25.581  28.757  1.00  0.00    -0.200 F 
ATOM     80  C   UNL A   1      40.100  27.342  27.678  1.00  0.00     0.200 A 
ATOM     81  F   UNL A   1      41.262  29.123  26.650  1.00  0.00    -0.200 F 
ATOM     82  F   UNL A   1      40.079  26.667  26.521  1.00  0.00    -0.200 F 
ENDBRANCH  48  72
BRANCH  60  83
ATOM     83  C   UNL A   1      44.710  28.799  35.395  1.00  0.00     0.064 A 
ATOM     84  C   UNL A   1      45.961  29.305  35.011  1.00  0.00     0.173 A 
ATOM     85  C   UNL A   1      44.677  27.570  36.070  1.00  0.00     0.173 A 
ATOM     86  F   UNL A   1      46.043  30.469  34.350  1.00  0.00    -0.203 F 
ATOM     87  C   UNL A   1      47.130  28.597  35.277  1.00  0.00     0.198 A 
ATOM     88  C   UNL A   1      45.850  26.878  36.357  1.00  0.00     0.198 A 
ATOM     89  F   UNL A   1      43.506  27.046  36.464  1.00  0.00    -0.203 F 
ATOM     90  F   UNL A   1      48.311  29.079  34.864  1.00  0.00    -0.200 F 
ATOM     91  C   UNL A   1      47.075  27.389  35.955  1.00  0.00     0.200 A 
ATOM     92  F   UNL A   1      45.796  25.716  37.024  1.00  0.00    -0.200 F 
ATOM     93  F   UNL A   1      48.202  26.712  36.214  1.00  0.00    -0.200 F 
ENDBRANCH  60  83
ENDBRANCH  34  35
ENDBRANCH  27  29
ENDBRANCH  26  27
ENDBRANCH  25  26
ENDBRANCH  24  25
ENDBRANCH  23  24
ENDBRANCH   1  23
TORSDOF 17
ENDMDL
MODEL 2
REMARK VINA RESULT:     -10.9      5.991     11.345
REMARK SMILES Cc1nc(CNC(=O)[C@H]2CCO[C@H]2C)sc1C(=O)OCCOCCOC(=O)c1ccc(-c2c3nc(c(-c4c(F)c(F)c(F)c(F)c4F)c4ccc([nH]4)c(-c4c(F)c(F)c(F)c(F)c4F)c4nc(c(-c5c(F)c(F)c(F)c(F)c5F)c5ccc2[nH]5)C=C4)C=C3)cc1
REMARK SMILES IDX 21 1 20 2 19 3 17 4 18 5 16 6 1 7 2 8 3 9 4 10 15 11 5 12
REMARK SMILES IDX 6 13 7 14 8 16 9 17 10 18 13 19 11 20 12 21 14 22 22 23
REMARK SMILES IDX 23 24 24 25 25 26 26 27 27 28 28 29 29 30 90 31 30 32 89 33
REMARK SMILES IDX 31 34 32 35 33 36 83 37 34 38 88 39 82 40 84 41 35 42 87 43
REMARK SMILES IDX 81 44 80 45 36 47 68 48 48 49 67 50 49 51 52 52 66 53 85 54
REMARK SMILES IDX 50 55 51 56 65 58 86 59 53 60 37 61 38 62 46 63 39 64 40 65
REMARK SMILES IDX 44 66 47 67 41 68 42 69 45 70 43 71 69 72 70 73 78 74 71 75
REMARK SMILES IDX 72 76 76 77 79 78 73 79 74 80 77 81 75 82 54 83 55 84 63 85
REMARK SMILES IDX 56 86 57 87 61 88 64 89 58 90 59 91 62 92 60 93
REMARK H PARENT 6 15 84 46 52 57
REMARK Flexibility Score: inf
ROOT
ATOM      1  C   UNL A   1      36.009  21.696  24.626  1.00  0.00     0.202 C 
ENDROOT
BRANCH   1   2
ATOM      2  C   UNL A   1      35.030  20.794  25.381  1.00  0.00     0.261 C 
BRANCH   2   3
ATOM      3  O   UNL A   1      34.105  20.202  24.450  1.00  0.00    -0.459 OA
BRANCH   3   4
ATOM      4  C   UNL A   1      32.798  20.191  24.833  1.00  0.00     0.350 C 
ATOM      5  O   UNL A   1      32.253  19.238  25.379  1.00  0.00    -0.245 OA
BRANCH   4   6
ATOM      6  C   UNL A   1      32.198  21.490  24.612  1.00  0.00     0.135 A 
ATOM      7  C   UNL A   1      32.196  21.886  22.045  1.00  0.00     0.068 C 
ATOM      8  C   UNL A   1      31.967  22.249  23.472  1.00  0.00     0.063 A 
ATOM      9  N   UNL A   1      31.418  23.506  23.716  1.00  0.00    -0.244 NA
ATOM     10  C   UNL A   1      31.231  23.692  25.005  1.00  0.00     0.113 A 
ATOM     11  S   UNL A   1      31.680  22.370  25.997  1.00  0.00    -0.110 S 
BRANCH  10  12
ATOM     12  C   UNL A   1      30.636  24.909  25.653  1.00  0.00     0.183 C 
BRANCH  12  13
ATOM     13  N   UNL A   1      31.634  25.940  25.867  1.00  0.00    -0.349 N 
ATOM     14  C   UNL A   1      31.699  27.199  25.351  1.00  0.00     0.226 C 
ATOM     15  H   UNL A   1      32.371  25.695  26.472  1.00  0.00     0.163 HD
ATOM     16  O   UNL A   1      32.581  27.955  25.756  1.00  0.00    -0.275 OA
BRANCH  14  17
ATOM     17  C   UNL A   1      30.686  27.619  24.308  1.00  0.00     0.109 C 
ATOM     18  C   UNL A   1      30.639  29.110  24.037  1.00  0.00     0.044 C 
ATOM     19  C   UNL A   1      30.960  27.057  22.916  1.00  0.00     0.127 C 
ATOM     20  C   UNL A   1      29.952  29.159  22.690  1.00  0.00     0.161 C 
ATOM     21  O   UNL A   1      30.284  27.945  21.999  1.00  0.00    -0.378 OA
ATOM     22  C   UNL A   1      32.430  27.013  22.500  1.00  0.00     0.039 C 
ENDBRANCH  14  17
ENDBRANCH  12  13
ENDBRANCH  10  12
ENDBRANCH   4   6
ENDBRANCH   3   4
ENDBRANCH   2   3
ENDBRANCH   1   2
BRANCH   1  23
ATOM     23  O   UNL A   1      37.349  21.198  24.588  1.00  0.00    -0.374 OA
BRANCH  23  24
ATOM     24  C   UNL A   1      37.527  19.820  24.923  1.00  0.00     0.202 C 
BRANCH  24  25
ATOM     25  C   UNL A   1      38.894  19.474  25.523  1.00  0.00     0.261 C 
BRANCH  25  26
ATOM     26  O   UNL A   1      39.675  20.663  25.752  1.00  0.00    -0.460 OA
BRANCH  26  27
ATOM     27  C   UNL A   1      40.447  20.635  26.864  1.00  0.00     0.338 C 
ATOM     28  O   UNL A   1      40.965  19.661  27.382  1.00  0.00    -0.246 OA
BRANCH  27  29
ATOM     29  C   UNL A   1      40.742  22.014  27.301  1.00  0.00     0.060 A 
ATOM     30  C   UNL A   1      40.082  23.054  26.634  1.00  0.00     0.016 A 
ATOM     31  C   UNL A   1      41.679  22.295  28.299  1.00  0.00     0.016 A 
ATOM     32  C   UNL A   1      40.391  24.380  26.929  1.00  0.00     0.010 A 
ATOM     33  C   UNL A   1      41.993  23.628  28.588  1.00  0.00     0.010 A 
ATOM     34  C   UNL A   1      41.375  24.675  27.881  1.00  0.00    -0.014 A 
BRANCH  34  35
ATOM     35  C   UNL A   1      41.850  26.072  28.032  1.00  0.00     0.031 A 
ATOM     36  C   UNL A   1      43.201  26.446  27.489  1.00  0.00     0.074 A 
ATOM     37  C   UNL A   1      41.076  27.002  28.616  1.00  0.00     0.049 A 
ATOM     38  N   UNL A   1      43.822  27.598  27.526  1.00  0.00    -0.248 NA
ATOM     39  C   UNL A   1      43.953  25.378  26.812  1.00  0.00     0.031 C 
ATOM     40  C   UNL A   1      39.736  26.771  29.151  1.00  0.00     0.029 A 
ATOM     41  N   UNL A   1      41.314  28.331  28.863  1.00  0.00    -0.354 N 
ATOM     42  C   UNL A   1      45.034  27.393  26.881  1.00  0.00     0.074 A 
ATOM     43  C   UNL A   1      45.077  26.001  26.490  1.00  0.00     0.031 C 
ATOM     44  C   UNL A   1      39.272  27.918  29.674  1.00  0.00     0.029 A 
ATOM     45  C   UNL A   1      40.293  28.956  29.534  1.00  0.00     0.049 A 
ATOM     46  H   UNL A   1      42.137  28.792  28.583  1.00  0.00     0.167 HD
ATOM     47  C   UNL A   1      46.019  28.289  26.629  1.00  0.00     0.037 A 
ATOM     48  C   UNL A   1      40.203  30.217  30.000  1.00  0.00     0.037 A 
ATOM     49  C   UNL A   1      45.978  29.673  27.019  1.00  0.00     0.049 A 
ATOM     50  C   UNL A   1      41.340  31.177  29.765  1.00  0.00     0.074 A 
ATOM     51  C   UNL A   1      46.919  30.661  26.794  1.00  0.00     0.029 A 
ATOM     52  N   UNL A   1      44.939  30.262  27.724  1.00  0.00    -0.354 N 
ATOM     53  N   UNL A   1      42.470  30.983  29.130  1.00  0.00    -0.248 NA
ATOM     54  C   UNL A   1      41.186  32.534  30.309  1.00  0.00     0.031 C 
ATOM     55  C   UNL A   1      46.470  31.840  27.401  1.00  0.00     0.029 A 
ATOM     56  C   UNL A   1      45.227  31.596  27.963  1.00  0.00     0.049 A 
ATOM     57  H   UNL A   1      44.117  29.801  28.012  1.00  0.00     0.167 HD
ATOM     58  C   UNL A   1      43.148  32.194  29.175  1.00  0.00     0.074 A 
ATOM     59  C   UNL A   1      42.298  33.122  29.889  1.00  0.00     0.031 C 
ATOM     60  C   UNL A   1      44.366  32.510  28.669  1.00  0.00     0.037 A 
BRANCH  47  61
ATOM     61  C   UNL A   1      47.237  27.791  25.911  1.00  0.00     0.064 A 
ATOM     62  C   UNL A   1      48.362  27.324  26.607  1.00  0.00     0.173 A 
ATOM     63  C   UNL A   1      47.268  27.747  24.509  1.00  0.00     0.173 A 
ATOM     64  F   UNL A   1      48.387  27.358  27.949  1.00  0.00    -0.203 F 
ATOM     65  C   UNL A   1      49.480  26.853  25.926  1.00  0.00     0.198 A 
ATOM     66  C   UNL A   1      48.378  27.251  23.831  1.00  0.00     0.198 A 
ATOM     67  F   UNL A   1      46.217  28.179  23.796  1.00  0.00    -0.203 F 
ATOM     68  F   UNL A   1      50.560  26.449  26.610  1.00  0.00    -0.200 F 
ATOM     69  C   UNL A   1      49.485  26.810  24.540  1.00  0.00     0.200 A 
ATOM     70  F   UNL A   1      48.377  27.202  22.492  1.00  0.00    -0.200 F 
ATOM     71  F   UNL A   1      50.561  26.350  23.885  1.00  0.00    -0.200 F 
ENDBRANCH  47  61
BRANCH  48  72
ATOM     72  C   UNL A   1      38.994  30.646  30.748  1.00  0.00     0.064 A 
ATOM     73  C   UNL A   1      37.883  31.183  30.084  1.00  0.00     0.173 A 
ATOM     74  C   UNL A   1      38.932  30.542  32.146  1.00  0.00     0.173 A 
ATOM     75  F   UNL A   1      37.906  31.326  28.750  1.00  0.00    -0.203 F 
ATOM     76  C   UNL A   1      36.763  31.616  30.789  1.00  0.00     0.198 A 
ATOM     77  C   UNL A   1      37.801  30.951  32.848  1.00  0.00     0.198 A 
ATOM     78  F   UNL A   1      39.970  30.038  32.829  1.00  0.00    -0.203 F 
ATOM     79  F   UNL A   1      35.732  32.166  30.133  1.00  0.00    -0.200 F 
ATOM     80  C   UNL A   1      36.720  31.494  32.170  1.00  0.00     0.200 A 
ATOM     81  F   UNL A   1      37.760  30.821  34.181  1.00  0.00    -0.200 F 
ATOM     82  F   UNL A   1      35.641  31.908  32.848  1.00  0.00    -0.200 F 
ENDBRANCH  48  72
BRANCH  60  83
ATOM     83  C   UNL A   1      44.839  33.924  28.840  1.00  0.00     0.064 A 
ATOM     84  C   UNL A   1      45.624  34.310  29.936  1.00  0.00     0.173 A 
ATOM     85  C   UNL A   1      44.540  34.894  27.871  1.00  0.00     0.173 A 
ATOM     86  F   UNL A   1      45.924  33.422  30.896  1.00  0.00    -0.203 F 
ATOM     87  C   UNL A   1      46.074  35.621  30.067  1.00  0.00     0.198 A 
ATOM     88  C   UNL A   1      45.014  36.197  27.992  1.00  0.00     0.198 A 
ATOM     89  F   UNL A   1      43.798  34.574  26.801  1.00  0.00    -0.203 F 
ATOM     90  F   UNL A   1      46.787  35.978  31.145  1.00  0.00    -0.200 F 
ATOM     91  C   UNL A   1      45.775  36.561  29.093  1.00  0.00     0.200 A 
ATOM     92  F   UNL A   1      44.734  37.102  27.043  1.00  0.00    -0.200 F 
ATOM     93  F   UNL A   1      46.214  37.821  29.217  1.00  0.00    -0.200 F 
ENDBRANCH  60  83
ENDBRANCH  34  35
ENDBRANCH  27  29
ENDBRANCH  26  27
ENDBRANCH  25  26
ENDBRANCH  24  25
ENDBRANCH  23  24
ENDBRANCH   1  23
TORSDOF 17
ENDMDL
MODEL 3
REMARK VINA RESULT:     -10.8      6.377     11.706
REMARK SMILES Cc1nc(CNC(=O)[C@H]2CCO[C@H]2C)sc1C(=O)OCCOCCOC(=O)c1ccc(-c2c3nc(c(-c4c(F)c(F)c(F)c(F)c4F)c4ccc([nH]4)c(-c4c(F)c(F)c(F)c(F)c4F)c4nc(c(-c5c(F)c(F)c(F)c(F)c5F)c5ccc2[nH]5)C=C4)C=C3)cc1
REMARK SMILES IDX 21 1 20 2 19 3 17 4 18 5 16 6 1 7 2 8 3 9 4 10 15 11 5 12
REMARK SMILES IDX 6 13 7 14 8 16 9 17 10 18 13 19 11 20 12 21 14 22 22 23
REMARK SMILES IDX 23 24 24 25 25 26 26 27 27 28 28 29 29 30 90 31 30 32 89 33
REMARK SMILES IDX 31 34 32 35 33 36 83 37 34 38 88 39 82 40 84 41 35 42 87 43
REMARK SMILES IDX 81 44 80 45 36 47 68 48 48 49 67 50 49 51 52 52 66 53 85 54
REMARK SMILES IDX 50 55 51 56 65 58 86 59 53 60 37 61 38 62 46 63 39 64 40 65
REMARK SMILES IDX 44 66 47 67 41 68 42 69 45 70 43 71 69 72 70 73 78 74 71 75
REMARK SMILES IDX 72 76 76 77 79 78 73 79 74 80 77 81 75 82 54 83 55 84 63 85
REMARK SMILES IDX 56 86 57 87 61 88 64 89 58 90 59 91 62 92 60 93
REMARK H PARENT 6 15 84 46 52 57
REMARK Flexibility Score: inf
ROOT
ATOM      1  C   UNL A   1      36.186  21.888  24.533  1.00  0.00     0.202 C 
ENDROOT
BRANCH   1   2
ATOM      2  C   UNL A   1      35.041  20.997  25.020  1.00  0.00     0.261 C 
BRANCH   2   3
ATOM      3  O   UNL A   1      33.840  21.318  24.292  1.00  0.00    -0.459 OA
BRANCH   3   4
ATOM      4  C   UNL A   1      32.667  21.074  24.941  1.00  0.00     0.350 C 
ATOM      5  O   UNL A   1      32.139  19.970  25.010  1.00  0.00    -0.245 OA
BRANCH   4   6
ATOM      6  C   UNL A   1      32.212  22.269  25.622  1.00  0.00     0.135 A 
ATOM      7  C   UNL A   1      33.244  22.211  28.004  1.00  0.00     0.068 C 
ATOM      8  C   UNL A   1      32.396  22.758  26.908  1.00  0.00     0.063 A 
ATOM      9  N   UNL A   1      31.706  23.938  27.182  1.00  0.00    -0.244 NA
ATOM     10  C   UNL A   1      31.024  24.336  26.129  1.00  0.00     0.113 A 
ATOM     11  S   UNL A   1      31.184  23.337  24.747  1.00  0.00    -0.110 S 
BRANCH  10  12
ATOM     12  C   UNL A   1      30.182  25.574  26.028  1.00  0.00     0.183 C 
BRANCH  12  13
ATOM     13  N   UNL A   1      30.695  26.637  26.874  1.00  0.00    -0.349 N 
ATOM     14  C   UNL A   1      31.403  27.748  26.530  1.00  0.00     0.226 C 
ATOM     15  H   UNL A   1      30.502  26.541  27.835  1.00  0.00     0.163 HD
ATOM     16  O   UNL A   1      31.644  28.584  27.400  1.00  0.00    -0.275 OA
BRANCH  14  17
ATOM     17  C   UNL A   1      31.862  27.913  25.097  1.00  0.00     0.109 C 
ATOM     18  C   UNL A   1      32.506  29.250  24.790  1.00  0.00     0.044 C 
ATOM     19  C   UNL A   1      32.958  26.936  24.680  1.00  0.00     0.127 C 
ATOM     20  C   UNL A   1      33.264  28.945  23.516  1.00  0.00     0.161 C 
ATOM     21  O   UNL A   1      33.625  27.556  23.559  1.00  0.00    -0.378 OA
ATOM     22  C   UNL A   1      34.023  26.649  25.738  1.00  0.00     0.039 C 
ENDBRANCH  14  17
ENDBRANCH  12  13
ENDBRANCH  10  12
ENDBRANCH   4   6
ENDBRANCH   3   4
ENDBRANCH   2   3
ENDBRANCH   1   2
BRANCH   1  23
ATOM     23  O   UNL A   1      37.411  21.187  24.304  1.00  0.00    -0.374 OA
BRANCH  23  24
ATOM     24  C   UNL A   1      38.236  20.954  25.448  1.00  0.00     0.202 C 
BRANCH  24  25
ATOM     25  C   UNL A   1      39.097  19.688  25.374  1.00  0.00     0.261 C 
BRANCH  25  26
ATOM     26  O   UNL A   1      39.958  19.580  26.524  1.00  0.00    -0.460 OA
BRANCH  26  27
ATOM     27  C   UNL A   1      41.279  19.484  26.244  1.00  0.00     0.338 C 
ATOM     28  O   UNL A   1      41.866  18.530  25.764  1.00  0.00    -0.246 OA
BRANCH  27  29
ATOM     29  C   UNL A   1      41.928  20.795  26.441  1.00  0.00     0.060 A 
ATOM     30  C   UNL A   1      42.194  21.188  27.759  1.00  0.00     0.016 A 
ATOM     31  C   UNL A   1      42.221  21.649  25.375  1.00  0.00     0.016 A 
ATOM     32  C   UNL A   1      42.711  22.455  28.020  1.00  0.00     0.010 A 
ATOM     33  C   UNL A   1      42.733  22.925  25.639  1.00  0.00     0.010 A 
ATOM     34  C   UNL A   1      42.949  23.345  26.964  1.00  0.00    -0.014 A 
BRANCH  34  35
ATOM     35  C   UNL A   1      43.289  24.757  27.262  1.00  0.00     0.031 A 
ATOM     36  C   UNL A   1      44.681  25.248  26.981  1.00  0.00     0.074 A 
ATOM     37  C   UNL A   1      42.361  25.600  27.747  1.00  0.00     0.049 A 
ATOM     38  N   UNL A   1      45.202  26.433  27.181  1.00  0.00    -0.248 NA
ATOM     39  C   UNL A   1      45.613  24.272  26.394  1.00  0.00     0.031 C 
ATOM     40  C   UNL A   1      40.970  25.253  28.029  1.00  0.00     0.029 A 
ATOM     41  N   UNL A   1      42.456  26.925  28.095  1.00  0.00    -0.354 N 
ATOM     42  C   UNL A   1      46.518  26.344  26.748  1.00  0.00     0.074 A 
ATOM     43  C   UNL A   1      46.728  24.983  26.303  1.00  0.00     0.031 C 
ATOM     44  C   UNL A   1      40.342  26.335  28.519  1.00  0.00     0.029 A 
ATOM     45  C   UNL A   1      41.293  27.442  28.608  1.00  0.00     0.049 A 
ATOM     46  H   UNL A   1      43.280  27.453  27.986  1.00  0.00     0.167 HD
ATOM     47  C   UNL A   1      47.464  27.314  26.714  1.00  0.00     0.037 A 
ATOM     48  C   UNL A   1      41.035  28.665  29.112  1.00  0.00     0.037 A 
ATOM     49  C   UNL A   1      47.256  28.666  27.157  1.00  0.00     0.049 A 
ATOM     50  C   UNL A   1      42.123  29.707  29.125  1.00  0.00     0.074 A 
ATOM     51  C   UNL A   1      48.148  29.724  27.147  1.00  0.00     0.029 A 
ATOM     52  N   UNL A   1      46.072  29.146  27.698  1.00  0.00    -0.354 N 
ATOM     53  N   UNL A   1      43.355  29.623  28.687  1.00  0.00    -0.248 NA
ATOM     54  C   UNL A   1      41.780  31.017  29.698  1.00  0.00     0.031 C 
ATOM     55  C   UNL A   1      47.518  30.834  27.723  1.00  0.00     0.029 A 
ATOM     56  C   UNL A   1      46.218  30.478  28.048  1.00  0.00     0.049 A 
ATOM     57  H   UNL A   1      45.250  28.617  27.817  1.00  0.00     0.167 HD
ATOM     58  C   UNL A   1      43.926  30.870  28.908  1.00  0.00     0.074 A 
ATOM     59  C   UNL A   1      42.901  31.698  29.507  1.00  0.00     0.031 C 
ATOM     60  C   UNL A   1      45.186  31.292  28.637  1.00  0.00     0.037 A 
BRANCH  47  61
ATOM     61  C   UNL A   1      48.819  26.938  26.195  1.00  0.00     0.064 A 
ATOM     62  C   UNL A   1      49.146  27.061  24.837  1.00  0.00     0.173 A 
ATOM     63  C   UNL A   1      49.814  26.480  27.072  1.00  0.00     0.173 A 
ATOM     64  F   UNL A   1      48.225  27.481  23.956  1.00  0.00    -0.203 F 
ATOM     65  C   UNL A   1      50.414  26.721  24.372  1.00  0.00     0.198 A 
ATOM     66  C   UNL A   1      51.088  26.165  26.608  1.00  0.00     0.198 A 
ATOM     67  F   UNL A   1      49.553  26.347  28.381  1.00  0.00    -0.203 F 
ATOM     68  F   UNL A   1      50.693  26.808  23.064  1.00  0.00    -0.200 F 
ATOM     69  C   UNL A   1      51.385  26.280  25.259  1.00  0.00     0.200 A 
ATOM     70  F   UNL A   1      52.029  25.748  27.467  1.00  0.00    -0.200 F 
ATOM     71  F   UNL A   1      52.606  25.957  24.810  1.00  0.00    -0.200 F 
ENDBRANCH  47  61
BRANCH  48  72
ATOM     72  C   UNL A   1      39.688  28.970  29.658  1.00  0.00     0.064 A 
ATOM     73  C   UNL A   1      39.381  28.729  31.004  1.00  0.00     0.173 A 
ATOM     74  C   UNL A   1      38.675  29.493  28.840  1.00  0.00     0.173 A 
ATOM     75  F   UNL A   1      40.309  28.205  31.819  1.00  0.00    -0.203 F 
ATOM     76  C   UNL A   1      38.107  28.985  31.508  1.00  0.00     0.198 A 
ATOM     77  C   UNL A   1      37.410  29.773  29.352  1.00  0.00     0.198 A 
ATOM     78  F   UNL A   1      38.918  29.739  27.545  1.00  0.00    -0.203 F 
ATOM     79  F   UNL A   1      37.827  28.705  32.788  1.00  0.00    -0.200 F 
ATOM     80  C   UNL A   1      37.125  29.512  30.683  1.00  0.00     0.200 A 
ATOM     81  F   UNL A   1      36.467  30.292  28.553  1.00  0.00    -0.200 F 
ATOM     82  F   UNL A   1      35.902  29.760  31.170  1.00  0.00    -0.200 F 
ENDBRANCH  48  72
BRANCH  60  83
ATOM     83  C   UNL A   1      45.519  32.720  28.955  1.00  0.00     0.064 A 
ATOM     84  C   UNL A   1      46.101  33.085  30.178  1.00  0.00     0.173 A 
ATOM     85  C   UNL A   1      45.293  33.730  28.007  1.00  0.00     0.173 A 
ATOM     86  F   UNL A   1      46.322  32.158  31.122  1.00  0.00    -0.203 F 
ATOM     87  C   UNL A   1      46.425  34.412  30.448  1.00  0.00     0.198 A 
ATOM     88  C   UNL A   1      45.644  35.051  28.270  1.00  0.00     0.198 A 
ATOM     89  F   UNL A   1      44.746  33.432  26.820  1.00  0.00    -0.203 F 
ATOM     90  F   UNL A   1      46.941  34.745  31.640  1.00  0.00    -0.200 F 
ATOM     91  C   UNL A   1      46.203  35.392  29.493  1.00  0.00     0.200 A 
ATOM     92  F   UNL A   1      45.440  35.995  27.340  1.00  0.00    -0.200 F 
ATOM     93  F   UNL A   1      46.521  36.667  29.752  1.00  0.00    -0.200 F 
ENDBRANCH  60  83
ENDBRANCH  34  35
ENDBRANCH  27  29
ENDBRANCH  26  27
ENDBRANCH  25  26
ENDBRANCH  24  25
ENDBRANCH  23  24
ENDBRANCH   1  23
TORSDOF 17
ENDMDL
