MODEL 1
REMARK VINA RESULT:     -11.4      0.000      0.000
REMARK SMILES O=C(OCCOCCOC(=O)[C@@]1([NH2+]C2CC2)CC[C@@H]([N@@H+]2CC[N@@H+]3CCC[C@@H]3C2)C1)c1ccc(-c2c3nc(c(-c4c(F)c(F)c(F)c(F)c4F)c4ccc([nH]4)c(-c4c(F)c(F)c(F)c(F)c4F)c4nc(c(-c5c(F)c(F)c(F)c(F)c5F)c5ccc2[nH]5)C=C4)C=C3)cc1
REMARK SMILES IDX 6 1 5 2 4 3 3 4 2 5 1 6 30 7 31 8 92 9 32 10 91 11 33 12
REMARK SMILES IDX 34 13 35 14 85 15 36 16 90 17 84 18 86 19 37 20 89 21 83 22
REMARK SMILES IDX 82 23 38 25 70 26 50 27 69 28 51 29 54 30 68 31 87 32 52 33
REMARK SMILES IDX 53 34 67 36 88 37 55 38 39 39 40 40 48 41 41 42 42 43 46 44
REMARK SMILES IDX 49 45 43 46 44 47 47 48 45 49 71 50 72 51 80 52 73 53 74 54
REMARK SMILES IDX 78 55 81 56 75 57 76 58 79 59 77 60 56 61 57 62 65 63 58 64
REMARK SMILES IDX 59 65 63 66 66 67 60 68 61 69 64 70 62 71 7 72 8 73 9 74
REMARK SMILES IDX 10 75 11 76 12 77 17 78 29 79 18 80 19 81 13 82 14 85 15 86
REMARK SMILES IDX 16 87 20 88 21 89 28 90 22 92 27 93 23 94 26 95 24 96 25 98
REMARK H PARENT 86 24 54 35 13 83 13 84 20 91 23 97
REMARK Flexibility Score: inf
ROOT
ATOM      1  O   UNL A   1      37.567  21.361  25.606  1.00  0.00    -0.374 OA
ENDROOT
BRANCH   1   2
ATOM      2  C   UNL A   1      37.989  20.182  24.913  1.00  0.00     0.202 C 
BRANCH   2   3
ATOM      3  C   UNL A   1      38.978  19.264  25.643  1.00  0.00     0.261 C 
BRANCH   3   4
ATOM      4  O   UNL A   1      40.239  19.919  25.859  1.00  0.00    -0.460 OA
BRANCH   4   5
ATOM      5  C   UNL A   1      40.738  20.423  27.009  1.00  0.00     0.338 C 
ATOM      6  O   UNL A   1      40.901  19.658  27.961  1.00  0.00    -0.246 OA
BRANCH   5   7
ATOM      7  C   UNL A   1      41.073  21.868  27.212  1.00  0.00     0.060 A 
ATOM      8  C   UNL A   1      40.590  22.924  26.436  1.00  0.00     0.016 A 
ATOM      9  C   UNL A   1      41.864  22.188  28.329  1.00  0.00     0.016 A 
ATOM     10  C   UNL A   1      40.869  24.244  26.731  1.00  0.00     0.010 A 
ATOM     11  C   UNL A   1      42.170  23.516  28.632  1.00  0.00     0.010 A 
ATOM     12  C   UNL A   1      41.675  24.538  27.817  1.00  0.00    -0.014 A 
BRANCH  12  13
ATOM     13  C   UNL A   1      42.114  25.926  27.951  1.00  0.00     0.031 A 
ATOM     14  C   UNL A   1      43.401  26.306  27.299  1.00  0.00     0.074 A 
ATOM     15  C   UNL A   1      41.293  26.827  28.507  1.00  0.00     0.049 A 
ATOM     16  N   UNL A   1      44.045  27.438  27.337  1.00  0.00    -0.248 NA
ATOM     17  C   UNL A   1      44.040  25.268  26.471  1.00  0.00     0.031 C 
ATOM     18  C   UNL A   1      39.943  26.544  29.000  1.00  0.00     0.029 A 
ATOM     19  N   UNL A   1      41.465  28.163  28.737  1.00  0.00    -0.354 N 
ATOM     20  C   UNL A   1      45.183  27.237  26.572  1.00  0.00     0.074 A 
ATOM     21  C   UNL A   1      45.133  25.888  26.058  1.00  0.00     0.031 C 
ATOM     22  C   UNL A   1      39.416  27.676  29.494  1.00  0.00     0.029 A 
ATOM     23  C   UNL A   1      40.417  28.734  29.410  1.00  0.00     0.049 A 
ATOM     24  H   UNL A   1      42.262  28.663  28.448  1.00  0.00     0.167 HD
ATOM     25  C   UNL A   1      46.192  28.109  26.355  1.00  0.00     0.037 A 
ATOM     26  C   UNL A   1      40.320  29.964  29.945  1.00  0.00     0.037 A 
ATOM     27  C   UNL A   1      46.204  29.433  26.911  1.00  0.00     0.049 A 
ATOM     28  C   UNL A   1      41.494  30.889  29.779  1.00  0.00     0.074 A 
ATOM     29  C   UNL A   1      47.195  30.392  26.856  1.00  0.00     0.029 A 
ATOM     30  N   UNL A   1      45.149  29.976  27.640  1.00  0.00    -0.354 N 
ATOM     31  N   UNL A   1      42.624  30.680  29.142  1.00  0.00    -0.248 NA
ATOM     32  C   UNL A   1      41.400  32.207  30.416  1.00  0.00     0.031 C 
ATOM     33  C   UNL A   1      46.755  31.501  27.589  1.00  0.00     0.029 A 
ATOM     34  C   UNL A   1      45.471  31.252  28.058  1.00  0.00     0.049 A 
ATOM     35  H   UNL A   1      44.299  29.517  27.829  1.00  0.00     0.167 HD
ATOM     36  C   UNL A   1      43.372  31.837  29.289  1.00  0.00     0.074 A 
ATOM     37  C   UNL A   1      42.559  32.752  30.071  1.00  0.00     0.031 C 
ATOM     38  C   UNL A   1      44.615  32.122  28.827  1.00  0.00     0.037 A 
BRANCH  25  39
ATOM     39  C   UNL A   1      47.374  27.592  25.594  1.00  0.00     0.064 A 
ATOM     40  C   UNL A   1      48.498  27.054  26.237  1.00  0.00     0.173 A 
ATOM     41  C   UNL A   1      47.418  27.727  24.199  1.00  0.00     0.173 A 
ATOM     42  F   UNL A   1      48.524  26.943  27.575  1.00  0.00    -0.203 F 
ATOM     43  C   UNL A   1      49.639  26.707  25.514  1.00  0.00     0.198 A 
ATOM     44  C   UNL A   1      48.548  27.355  23.477  1.00  0.00     0.198 A 
ATOM     45  F   UNL A   1      46.375  28.251  23.538  1.00  0.00    -0.203 F 
ATOM     46  F   UNL A   1      50.729  26.265  26.156  1.00  0.00    -0.200 F 
ATOM     47  C   UNL A   1      49.661  26.857  24.135  1.00  0.00     0.200 A 
ATOM     48  F   UNL A   1      48.570  27.507  22.145  1.00  0.00    -0.200 F 
ATOM     49  F   UNL A   1      50.767  26.545  23.444  1.00  0.00    -0.200 F 
ENDBRANCH  25  39
BRANCH  26  50
ATOM     50  C   UNL A   1      39.112  30.331  30.725  1.00  0.00     0.064 A 
ATOM     51  C   UNL A   1      39.041  30.121  32.107  1.00  0.00     0.173 A 
ATOM     52  C   UNL A   1      38.018  30.959  30.105  1.00  0.00     0.173 A 
ATOM     53  F   UNL A   1      40.051  29.510  32.743  1.00  0.00    -0.203 F 
ATOM     54  C   UNL A   1      37.926  30.526  32.841  1.00  0.00     0.198 A 
ATOM     55  C   UNL A   1      36.916  31.388  30.843  1.00  0.00     0.198 A 
ATOM     56  F   UNL A   1      38.034  31.186  28.784  1.00  0.00    -0.203 F 
ATOM     57  F   UNL A   1      37.875  30.296  34.160  1.00  0.00    -0.200 F 
ATOM     58  C   UNL A   1      36.870  31.168  32.211  1.00  0.00     0.200 A 
ATOM     59  F   UNL A   1      35.908  32.023  30.231  1.00  0.00    -0.200 F 
ATOM     60  F   UNL A   1      35.809  31.575  32.920  1.00  0.00    -0.200 F 
ENDBRANCH  26  50
BRANCH  38  61
ATOM     61  C   UNL A   1      45.154  33.484  29.132  1.00  0.00     0.064 A 
ATOM     62  C   UNL A   1      44.881  34.577  28.302  1.00  0.00     0.173 A 
ATOM     63  C   UNL A   1      45.863  33.707  30.321  1.00  0.00     0.173 A 
ATOM     64  F   UNL A   1      44.215  34.403  27.151  1.00  0.00    -0.203 F 
ATOM     65  C   UNL A   1      45.304  35.855  28.652  1.00  0.00     0.198 A 
ATOM     66  C   UNL A   1      46.265  34.989  30.677  1.00  0.00     0.198 A 
ATOM     67  F   UNL A   1      46.136  32.685  31.146  1.00  0.00    -0.203 F 
ATOM     68  F   UNL A   1      45.052  36.890  27.838  1.00  0.00    -0.200 F 
ATOM     69  C   UNL A   1      45.986  36.061  29.843  1.00  0.00     0.200 A 
ATOM     70  F   UNL A   1      46.911  35.188  31.835  1.00  0.00    -0.200 F 
ATOM     71  F   UNL A   1      46.374  37.296  30.189  1.00  0.00    -0.200 F 
ENDBRANCH  38  61
ENDBRANCH  12  13
ENDBRANCH   5   7
ENDBRANCH   4   5
ENDBRANCH   3   4
ENDBRANCH   2   3
ENDBRANCH   1   2
BRANCH   1  72
ATOM     72  C   UNL A   1      37.418  22.550  24.820  1.00  0.00     0.202 C 
BRANCH  72  73
ATOM     73  C   UNL A   1      36.888  23.698  25.675  1.00  0.00     0.261 C 
BRANCH  73  74
ATOM     74  O   UNL A   1      35.609  24.070  25.151  1.00  0.00    -0.459 OA
BRANCH  74  75
ATOM     75  C   UNL A   1      34.567  23.360  25.639  1.00  0.00     0.368 C 
ATOM     76  O   UNL A   1      34.282  23.333  26.837  1.00  0.00    -0.245 OA
BRANCH  75  77
ATOM     77  C   UNL A   1      33.827  22.551  24.556  1.00  0.00     0.200 C 
ATOM     78  C   UNL A   1      32.317  22.717  24.735  1.00  0.00     0.087 C 
ATOM     79  C   UNL A   1      34.138  23.210  23.175  1.00  0.00     0.146 C 
ATOM     80  C   UNL A   1      31.754  22.718  23.324  1.00  0.00     0.072 C 
ATOM     81  C   UNL A   1      32.801  23.421  22.450  1.00  0.00     0.191 C 
BRANCH  77  82
ATOM     82  N   UNL A   1      34.199  21.124  24.363  1.00  0.00    -0.329 N 
ATOM     83  H   UNL A   1      35.185  21.065  24.616  1.00  0.00     0.347 HD
ATOM     84  H   UNL A   1      33.880  20.978  23.406  1.00  0.00     0.347 HD
BRANCH  82  85
ATOM     85  C   UNL A   1      33.559  19.998  25.028  1.00  0.00     0.183 C 
ATOM     86  C   UNL A   1      32.471  19.126  24.481  1.00  0.00     0.071 C 
ATOM     87  C   UNL A   1      33.877  18.623  24.494  1.00  0.00     0.071 C 
ENDBRANCH  82  85
ENDBRANCH  77  82
BRANCH  81  88
ATOM     88  N   UNL A   1      32.475  24.816  22.136  1.00  0.00    -0.323 N 
ATOM     89  C   UNL A   1      33.640  25.719  22.268  1.00  0.00     0.324 C 
ATOM     90  C   UNL A   1      31.281  25.383  22.774  1.00  0.00     0.328 C 
ATOM     91  H   UNL A   1      32.213  24.756  21.152  1.00  0.00     0.348 HD
ATOM     92  C   UNL A   1      33.341  27.162  22.757  1.00  0.00     0.324 C 
ATOM     93  C   UNL A   1      30.981  26.794  22.221  1.00  0.00     0.240 C 
ATOM     94  N   UNL A   1      32.115  27.745  22.204  1.00  0.00    -0.323 N 
ATOM     95  C   UNL A   1      29.859  27.492  22.987  1.00  0.00     0.077 C 
ATOM     96  C   UNL A   1      31.704  28.966  22.904  1.00  0.00     0.263 C 
ATOM     97  H   UNL A   1      32.349  27.974  21.238  1.00  0.00     0.348 HD
ATOM     98  C   UNL A   1      30.189  28.961  22.812  1.00  0.00     0.068 C 
ENDBRANCH  81  88
ENDBRANCH  75  77
ENDBRANCH  74  75
ENDBRANCH  73  74
ENDBRANCH  72  73
ENDBRANCH   1  72
TORSDOF 17
ENDMDL
MODEL 2
REMARK VINA RESULT:     -11.3      4.952      8.869
REMARK SMILES O=C(OCCOCCOC(=O)[C@@]1([NH2+]C2CC2)CC[C@@H]([N@@H+]2CC[N@@H+]3CCC[C@@H]3C2)C1)c1ccc(-c2c3nc(c(-c4c(F)c(F)c(F)c(F)c4F)c4ccc([nH]4)c(-c4c(F)c(F)c(F)c(F)c4F)c4nc(c(-c5c(F)c(F)c(F)c(F)c5F)c5ccc2[nH]5)C=C4)C=C3)cc1
REMARK SMILES IDX 6 1 5 2 4 3 3 4 2 5 1 6 30 7 31 8 92 9 32 10 91 11 33 12
REMARK SMILES IDX 34 13 35 14 85 15 36 16 90 17 84 18 86 19 37 20 89 21 83 22
REMARK SMILES IDX 82 23 38 25 70 26 50 27 69 28 51 29 54 30 68 31 87 32 52 33
REMARK SMILES IDX 53 34 67 36 88 37 55 38 39 39 40 40 48 41 41 42 42 43 46 44
REMARK SMILES IDX 49 45 43 46 44 47 47 48 45 49 71 50 72 51 80 52 73 53 74 54
REMARK SMILES IDX 78 55 81 56 75 57 76 58 79 59 77 60 56 61 57 62 65 63 58 64
REMARK SMILES IDX 59 65 63 66 66 67 60 68 61 69 64 70 62 71 7 72 8 73 9 74
REMARK SMILES IDX 10 75 11 76 12 77 17 78 29 79 18 80 19 81 13 82 14 85 15 86
REMARK SMILES IDX 16 87 20 88 21 89 28 90 22 92 27 93 23 94 26 95 24 96 25 98
REMARK H PARENT 86 24 54 35 13 83 13 84 20 91 23 97
REMARK Flexibility Score: inf
ROOT
ATOM      1  O   UNL A   1      31.676  30.737  26.643  1.00  0.00    -0.374 OA
ENDROOT
BRANCH   1   2
ATOM      2  C   UNL A   1      31.319  32.116  26.777  1.00  0.00     0.202 C 
BRANCH   2   3
ATOM      3  C   UNL A   1      32.470  33.125  26.878  1.00  0.00     0.261 C 
BRANCH   3   4
ATOM      4  O   UNL A   1      32.153  34.191  27.788  1.00  0.00    -0.460 OA
BRANCH   4   5
ATOM      5  C   UNL A   1      32.940  34.754  28.731  1.00  0.00     0.338 C 
ATOM      6  O   UNL A   1      32.700  35.912  29.079  1.00  0.00    -0.246 OA
BRANCH   5   7
ATOM      7  C   UNL A   1      34.114  34.069  29.357  1.00  0.00     0.060 A 
ATOM      8  C   UNL A   1      34.040  33.021  30.277  1.00  0.00     0.016 A 
ATOM      9  C   UNL A   1      35.390  34.456  28.912  1.00  0.00     0.016 A 
ATOM     10  C   UNL A   1      35.164  32.374  30.751  1.00  0.00     0.010 A 
ATOM     11  C   UNL A   1      36.538  33.825  29.394  1.00  0.00     0.010 A 
ATOM     12  C   UNL A   1      36.414  32.790  30.324  1.00  0.00    -0.014 A 
BRANCH  12  13
ATOM     13  C   UNL A   1      37.567  32.221  31.020  1.00  0.00     0.031 A 
ATOM     14  C   UNL A   1      38.373  31.200  30.291  1.00  0.00     0.074 A 
ATOM     15  C   UNL A   1      37.946  32.734  32.198  1.00  0.00     0.049 A 
ATOM     16  N   UNL A   1      39.383  30.490  30.709  1.00  0.00    -0.248 NA
ATOM     17  C   UNL A   1      38.000  30.959  28.885  1.00  0.00     0.031 C 
ATOM     18  C   UNL A   1      37.298  33.860  32.873  1.00  0.00     0.029 A 
ATOM     19  N   UNL A   1      38.975  32.388  33.027  1.00  0.00    -0.354 N 
ATOM     20  C   UNL A   1      39.741  29.692  29.633  1.00  0.00     0.074 A 
ATOM     21  C   UNL A   1      38.862  30.020  28.535  1.00  0.00     0.031 C 
ATOM     22  C   UNL A   1      37.937  34.099  34.030  1.00  0.00     0.029 A 
ATOM     23  C   UNL A   1      38.988  33.102  34.197  1.00  0.00     0.049 A 
ATOM     24  H   UNL A   1      39.639  31.695  32.807  1.00  0.00     0.167 HD
ATOM     25  C   UNL A   1      40.705  28.747  29.597  1.00  0.00     0.037 A 
ATOM     26  C   UNL A   1      39.739  32.914  35.298  1.00  0.00     0.037 A 
ATOM     27  C   UNL A   1      41.535  28.443  30.728  1.00  0.00     0.049 A 
ATOM     28  C   UNL A   1      40.740  31.792  35.275  1.00  0.00     0.074 A 
ATOM     29  C   UNL A   1      42.486  27.453  30.870  1.00  0.00     0.029 A 
ATOM     30  N   UNL A   1      41.495  29.146  31.929  1.00  0.00    -0.354 N 
ATOM     31  N   UNL A   1      41.023  30.960  34.298  1.00  0.00    -0.248 NA
ATOM     32  C   UNL A   1      41.511  31.562  36.502  1.00  0.00     0.031 C 
ATOM     33  C   UNL A   1      42.992  27.532  32.173  1.00  0.00     0.029 A 
ATOM     34  C   UNL A   1      42.392  28.601  32.826  1.00  0.00     0.049 A 
ATOM     35  H   UNL A   1      40.913  29.919  32.110  1.00  0.00     0.167 HD
ATOM     36  C   UNL A   1      42.008  30.116  34.781  1.00  0.00     0.074 A 
ATOM     37  C   UNL A   1      42.282  30.544  36.142  1.00  0.00     0.031 C 
ATOM     38  C   UNL A   1      42.630  29.079  34.167  1.00  0.00     0.037 A 
BRANCH  25  39
ATOM     39  C   UNL A   1      40.798  27.932  28.343  1.00  0.00     0.064 A 
ATOM     40  C   UNL A   1      40.153  26.694  28.208  1.00  0.00     0.173 A 
ATOM     41  C   UNL A   1      41.626  28.358  27.296  1.00  0.00     0.173 A 
ATOM     42  F   UNL A   1      39.382  26.221  29.200  1.00  0.00    -0.203 F 
ATOM     43  C   UNL A   1      40.366  25.894  27.086  1.00  0.00     0.198 A 
ATOM     44  C   UNL A   1      41.817  27.569  26.165  1.00  0.00     0.198 A 
ATOM     45  F   UNL A   1      42.279  29.527  27.382  1.00  0.00    -0.203 F 
ATOM     46  F   UNL A   1      39.800  24.682  27.011  1.00  0.00    -0.200 F 
ATOM     47  C   UNL A   1      41.197  26.333  26.066  1.00  0.00     0.200 A 
ATOM     48  F   UNL A   1      42.626  27.992  25.183  1.00  0.00    -0.200 F 
ATOM     49  F   UNL A   1      41.420  25.553  24.999  1.00  0.00    -0.200 F 
ENDBRANCH  25  39
BRANCH  26  50
ATOM     50  C   UNL A   1      39.506  33.759  36.496  1.00  0.00     0.064 A 
ATOM     51  C   UNL A   1      38.693  33.327  37.549  1.00  0.00     0.173 A 
ATOM     52  C   UNL A   1      40.146  35.003  36.635  1.00  0.00     0.173 A 
ATOM     53  F   UNL A   1      38.045  32.156  37.458  1.00  0.00    -0.203 F 
ATOM     54  C   UNL A   1      38.530  34.102  38.698  1.00  0.00     0.198 A 
ATOM     55  C   UNL A   1      40.004  35.764  37.794  1.00  0.00     0.198 A 
ATOM     56  F   UNL A   1      40.938  35.464  35.657  1.00  0.00    -0.203 F 
ATOM     57  F   UNL A   1      37.731  33.674  39.685  1.00  0.00    -0.200 F 
ATOM     58  C   UNL A   1      39.194  35.314  38.824  1.00  0.00     0.200 A 
ATOM     59  F   UNL A   1      40.662  36.924  37.916  1.00  0.00    -0.200 F 
ATOM     60  F   UNL A   1      39.053  36.047  39.937  1.00  0.00    -0.200 F 
ENDBRANCH  26  50
BRANCH  38  61
ATOM     61  C   UNL A   1      43.683  28.361  34.950  1.00  0.00     0.064 A 
ATOM     62  C   UNL A   1      43.376  27.232  35.718  1.00  0.00     0.173 A 
ATOM     63  C   UNL A   1      45.025  28.754  34.843  1.00  0.00     0.173 A 
ATOM     64  F   UNL A   1      42.104  26.831  35.854  1.00  0.00    -0.203 F 
ATOM     65  C   UNL A   1      44.383  26.517  36.359  1.00  0.00     0.198 A 
ATOM     66  C   UNL A   1      46.030  28.023  35.468  1.00  0.00     0.198 A 
ATOM     67  F   UNL A   1      45.359  29.825  34.109  1.00  0.00    -0.203 F 
ATOM     68  F   UNL A   1      44.072  25.449  37.107  1.00  0.00    -0.200 F 
ATOM     69  C   UNL A   1      45.708  26.907  36.225  1.00  0.00     0.200 A 
ATOM     70  F   UNL A   1      47.310  28.393  35.325  1.00  0.00    -0.200 F 
ATOM     71  F   UNL A   1      46.677  26.204  36.825  1.00  0.00    -0.200 F 
ENDBRANCH  38  61
ENDBRANCH  12  13
ENDBRANCH   5   7
ENDBRANCH   4   5
ENDBRANCH   3   4
ENDBRANCH   2   3
ENDBRANCH   1   2
BRANCH   1  72
ATOM     72  C   UNL A   1      33.070  30.421  26.747  1.00  0.00     0.202 C 
BRANCH  72  73
ATOM     73  C   UNL A   1      33.428  29.257  25.826  1.00  0.00     0.261 C 
BRANCH  73  74
ATOM     74  O   UNL A   1      32.338  29.077  24.917  1.00  0.00    -0.459 OA
BRANCH  74  75
ATOM     75  C   UNL A   1      32.699  28.845  23.636  1.00  0.00     0.368 C 
ATOM     76  O   UNL A   1      33.715  29.326  23.132  1.00  0.00    -0.245 OA
BRANCH  75  77
ATOM     77  C   UNL A   1      31.681  27.978  22.869  1.00  0.00     0.200 C 
ATOM     78  C   UNL A   1      32.419  26.883  22.097  1.00  0.00     0.087 C 
ATOM     79  C   UNL A   1      30.820  27.212  23.921  1.00  0.00     0.146 C 
ATOM     80  C   UNL A   1      31.495  25.678  22.149  1.00  0.00     0.072 C 
ATOM     81  C   UNL A   1      30.808  25.730  23.520  1.00  0.00     0.191 C 
BRANCH  77  82
ATOM     82  N   UNL A   1      30.675  28.663  22.014  1.00  0.00    -0.329 N 
ATOM     83  H   UNL A   1      30.434  27.990  21.287  1.00  0.00     0.347 HD
ATOM     84  H   UNL A   1      31.171  29.528  21.802  1.00  0.00     0.347 HD
BRANCH  82  85
ATOM     85  C   UNL A   1      29.404  29.197  22.484  1.00  0.00     0.183 C 
ATOM     86  C   UNL A   1      29.182  30.487  23.213  1.00  0.00     0.071 C 
ATOM     87  C   UNL A   1      28.862  30.403  21.757  1.00  0.00     0.071 C 
ENDBRANCH  82  85
ENDBRANCH  77  82
BRANCH  81  88
ATOM     88  N   UNL A   1      31.382  24.811  24.509  1.00  0.00    -0.323 N 
ATOM     89  C   UNL A   1      32.209  25.505  25.521  1.00  0.00     0.324 C 
ATOM     90  C   UNL A   1      32.054  23.612  23.996  1.00  0.00     0.328 C 
ATOM     91  H   UNL A   1      30.547  24.440  24.963  1.00  0.00     0.348 HD
ATOM     92  C   UNL A   1      33.438  24.723  26.060  1.00  0.00     0.324 C 
ATOM     93  C   UNL A   1      32.457  22.671  25.154  1.00  0.00     0.240 C 
ATOM     94  N   UNL A   1      33.195  23.294  26.275  1.00  0.00    -0.323 N 
ATOM     95  C   UNL A   1      33.319  21.503  24.680  1.00  0.00     0.077 C 
ATOM     96  C   UNL A   1      34.432  22.536  26.490  1.00  0.00     0.263 C 
ATOM     97  H   UNL A   1      32.625  23.250  27.120  1.00  0.00     0.348 HD
ATOM     98  C   UNL A   1      34.141  21.165  25.908  1.00  0.00     0.068 C 
ENDBRANCH  81  88
ENDBRANCH  75  77
ENDBRANCH  74  75
ENDBRANCH  73  74
ENDBRANCH  72  73
ENDBRANCH   1  72
TORSDOF 17
ENDMDL
MODEL 3
REMARK VINA RESULT:     -11.3      4.841      8.874
REMARK SMILES O=C(OCCOCCOC(=O)[C@@]1([NH2+]C2CC2)CC[C@@H]([N@@H+]2CC[N@@H+]3CCC[C@@H]3C2)C1)c1ccc(-c2c3nc(c(-c4c(F)c(F)c(F)c(F)c4F)c4ccc([nH]4)c(-c4c(F)c(F)c(F)c(F)c4F)c4nc(c(-c5c(F)c(F)c(F)c(F)c5F)c5ccc2[nH]5)C=C4)C=C3)cc1
REMARK SMILES IDX 6 1 5 2 4 3 3 4 2 5 1 6 30 7 31 8 92 9 32 10 91 11 33 12
REMARK SMILES IDX 34 13 35 14 85 15 36 16 90 17 84 18 86 19 37 20 89 21 83 22
REMARK SMILES IDX 82 23 38 25 70 26 50 27 69 28 51 29 54 30 68 31 87 32 52 33
REMARK SMILES IDX 53 34 67 36 88 37 55 38 39 39 40 40 48 41 41 42 42 43 46 44
REMARK SMILES IDX 49 45 43 46 44 47 47 48 45 49 71 50 72 51 80 52 73 53 74 54
REMARK SMILES IDX 78 55 81 56 75 57 76 58 79 59 77 60 56 61 57 62 65 63 58 64
REMARK SMILES IDX 59 65 63 66 66 67 60 68 61 69 64 70 62 71 7 72 8 73 9 74
REMARK SMILES IDX 10 75 11 76 12 77 17 78 29 79 18 80 19 81 13 82 14 85 15 86
REMARK SMILES IDX 16 87 20 88 21 89 28 90 22 92 27 93 23 94 26 95 24 96 25 98
REMARK H PARENT 86 24 54 35 13 83 13 84 20 91 23 97
REMARK Flexibility Score: inf
ROOT
ATOM      1  O   UNL A   1      31.793  29.964  27.266  1.00  0.00    -0.374 OA
ENDROOT
BRANCH   1   2
ATOM      2  C   UNL A   1      32.591  31.133  27.057  1.00  0.00     0.202 C 
BRANCH   2   3
ATOM      3  C   UNL A   1      31.864  32.485  27.088  1.00  0.00     0.261 C 
BRANCH   3   4
ATOM      4  O   UNL A   1      32.792  33.574  27.226  1.00  0.00    -0.460 OA
BRANCH   4   5
ATOM      5  C   UNL A   1      33.225  34.170  28.358  1.00  0.00     0.338 C 
ATOM      6  O   UNL A   1      32.624  35.168  28.761  1.00  0.00    -0.246 OA
BRANCH   5   7
ATOM      7  C   UNL A   1      34.419  33.715  29.138  1.00  0.00     0.060 A 
ATOM      8  C   UNL A   1      35.711  34.229  29.006  1.00  0.00     0.016 A 
ATOM      9  C   UNL A   1      34.198  32.758  30.143  1.00  0.00     0.016 A 
ATOM     10  C   UNL A   1      36.752  33.825  29.817  1.00  0.00     0.010 A 
ATOM     11  C   UNL A   1      35.243  32.325  30.962  1.00  0.00     0.010 A 
ATOM     12  C   UNL A   1      36.522  32.858  30.782  1.00  0.00    -0.014 A 
BRANCH  12  13
ATOM     13  C   UNL A   1      37.698  32.314  31.459  1.00  0.00     0.031 A 
ATOM     14  C   UNL A   1      38.504  31.297  30.724  1.00  0.00     0.074 A 
ATOM     15  C   UNL A   1      38.094  32.845  32.625  1.00  0.00     0.049 A 
ATOM     16  N   UNL A   1      39.533  30.608  31.128  1.00  0.00    -0.248 NA
ATOM     17  C   UNL A   1      38.105  31.037  29.329  1.00  0.00     0.031 C 
ATOM     18  C   UNL A   1      37.442  33.968  33.301  1.00  0.00     0.029 A 
ATOM     19  N   UNL A   1      39.145  32.523  33.435  1.00  0.00    -0.354 N 
ATOM     20  C   UNL A   1      39.880  29.804  30.053  1.00  0.00     0.074 A 
ATOM     21  C   UNL A   1      38.974  30.107  28.970  1.00  0.00     0.031 C 
ATOM     22  C   UNL A   1      38.102  34.228  34.442  1.00  0.00     0.029 A 
ATOM     23  C   UNL A   1      39.171  33.249  34.597  1.00  0.00     0.049 A 
ATOM     24  H   UNL A   1      39.814  31.838  33.208  1.00  0.00     0.167 HD
ATOM     25  C   UNL A   1      40.858  28.873  30.005  1.00  0.00     0.037 A 
ATOM     26  C   UNL A   1      39.947  33.084  35.684  1.00  0.00     0.037 A 
ATOM     27  C   UNL A   1      41.716  28.593  31.122  1.00  0.00     0.049 A 
ATOM     28  C   UNL A   1      40.965  31.977  35.651  1.00  0.00     0.074 A 
ATOM     29  C   UNL A   1      42.685  27.619  31.253  1.00  0.00     0.029 A 
ATOM     30  N   UNL A   1      41.691  29.308  32.316  1.00  0.00    -0.354 N 
ATOM     31  N   UNL A   1      41.240  31.139  34.677  1.00  0.00    -0.248 NA
ATOM     32  C   UNL A   1      41.765  31.771  36.863  1.00  0.00     0.031 C 
ATOM     33  C   UNL A   1      43.217  27.719  32.545  1.00  0.00     0.029 A 
ATOM     34  C   UNL A   1      42.614  28.786  33.200  1.00  0.00     0.049 A 
ATOM     35  H   UNL A   1      41.101  30.074  32.502  1.00  0.00     0.167 HD
ATOM     36  C   UNL A   1      42.248  30.315  35.148  1.00  0.00     0.074 A 
ATOM     37  C   UNL A   1      42.544  30.761  36.498  1.00  0.00     0.031 C 
ATOM     38  C   UNL A   1      42.873  29.281  34.530  1.00  0.00     0.037 A 
BRANCH  25  39
ATOM     39  C   UNL A   1      40.937  28.047  28.759  1.00  0.00     0.064 A 
ATOM     40  C   UNL A   1      41.714  28.431  27.656  1.00  0.00     0.173 A 
ATOM     41  C   UNL A   1      40.143  26.898  28.633  1.00  0.00     0.173 A 
ATOM     42  F   UNL A   1      42.460  29.546  27.711  1.00  0.00    -0.203 F 
ATOM     43  C   UNL A   1      41.663  27.717  26.460  1.00  0.00     0.198 A 
ATOM     44  C   UNL A   1      40.113  26.172  27.445  1.00  0.00     0.198 A 
ATOM     45  F   UNL A   1      39.368  26.497  29.652  1.00  0.00    -0.203 F 
ATOM     46  F   UNL A   1      42.355  28.144  25.395  1.00  0.00    -0.200 F 
ATOM     47  C   UNL A   1      40.863  26.589  26.357  1.00  0.00     0.200 A 
ATOM     48  F   UNL A   1      39.334  25.086  27.346  1.00  0.00    -0.200 F 
ATOM     49  F   UNL A   1      40.796  25.917  25.199  1.00  0.00    -0.200 F 
ENDBRANCH  25  39
BRANCH  26  50
ATOM     50  C   UNL A   1      39.727  33.937  36.878  1.00  0.00     0.064 A 
ATOM     51  C   UNL A   1      40.280  35.219  36.974  1.00  0.00     0.173 A 
ATOM     52  C   UNL A   1      38.902  33.504  37.930  1.00  0.00     0.173 A 
ATOM     53  F   UNL A   1      41.089  35.673  36.005  1.00  0.00    -0.203 F 
ATOM     54  C   UNL A   1      40.016  36.037  38.072  1.00  0.00     0.198 A 
ATOM     55  C   UNL A   1      38.617  34.332  39.014  1.00  0.00     0.198 A 
ATOM     56  F   UNL A   1      38.344  32.285  37.889  1.00  0.00    -0.203 F 
ATOM     57  F   UNL A   1      40.573  37.253  38.149  1.00  0.00    -0.200 F 
ATOM     58  C   UNL A   1      39.177  35.598  39.086  1.00  0.00     0.200 A 
ATOM     59  F   UNL A   1      37.791  33.907  39.980  1.00  0.00    -0.200 F 
ATOM     60  F   UNL A   1      38.907  36.393  40.130  1.00  0.00    -0.200 F 
ENDBRANCH  26  50
BRANCH  38  61
ATOM     61  C   UNL A   1      43.952  28.587  35.298  1.00  0.00     0.064 A 
ATOM     62  C   UNL A   1      45.277  29.039  35.263  1.00  0.00     0.173 A 
ATOM     63  C   UNL A   1      43.631  27.524  36.154  1.00  0.00     0.173 A 
ATOM     64  F   UNL A   1      45.626  30.046  34.449  1.00  0.00    -0.203 F 
ATOM     65  C   UNL A   1      46.249  28.445  36.060  1.00  0.00     0.198 A 
ATOM     66  C   UNL A   1      44.602  26.948  36.966  1.00  0.00     0.198 A 
ATOM     67  F   UNL A   1      42.371  27.068  36.223  1.00  0.00    -0.203 F 
ATOM     68  F   UNL A   1      47.517  28.876  36.002  1.00  0.00    -0.200 F 
ATOM     69  C   UNL A   1      45.909  27.408  36.918  1.00  0.00     0.200 A 
ATOM     70  F   UNL A   1      44.268  25.956  37.804  1.00  0.00    -0.200 F 
ATOM     71  F   UNL A   1      46.843  26.853  37.701  1.00  0.00    -0.200 F 
ENDBRANCH  38  61
ENDBRANCH  12  13
ENDBRANCH   5   7
ENDBRANCH   4   5
ENDBRANCH   3   4
ENDBRANCH   2   3
ENDBRANCH   1   2
BRANCH   1  72
ATOM     72  C   UNL A   1      32.469  28.702  27.191  1.00  0.00     0.202 C 
BRANCH  72  73
ATOM     73  C   UNL A   1      31.539  27.567  27.613  1.00  0.00     0.261 C 
BRANCH  73  74
ATOM     74  O   UNL A   1      31.035  26.959  26.420  1.00  0.00    -0.459 OA
BRANCH  74  75
ATOM     75  C   UNL A   1      31.493  25.711  26.180  1.00  0.00     0.368 C 
ATOM     76  O   UNL A   1      31.187  24.743  26.878  1.00  0.00    -0.245 OA
BRANCH  75  77
ATOM     77  C   UNL A   1      32.477  25.645  24.995  1.00  0.00     0.200 C 
ATOM     78  C   UNL A   1      33.882  25.335  25.512  1.00  0.00     0.087 C 
ATOM     79  C   UNL A   1      32.091  24.408  24.125  1.00  0.00     0.146 C 
ATOM     80  C   UNL A   1      34.509  24.460  24.440  1.00  0.00     0.072 C 
ATOM     81  C   UNL A   1      33.372  23.597  23.878  1.00  0.00     0.191 C 
BRANCH  77  82
ATOM     82  N   UNL A   1      32.490  26.773  24.026  1.00  0.00    -0.329 N 
ATOM     83  H   UNL A   1      31.700  27.364  24.286  1.00  0.00     0.347 HD
ATOM     84  H   UNL A   1      32.510  26.260  23.146  1.00  0.00     0.347 HD
BRANCH  82  85
ATOM     85  C   UNL A   1      33.606  27.686  23.823  1.00  0.00     0.183 C 
ATOM     86  C   UNL A   1      33.978  28.390  22.554  1.00  0.00     0.071 C 
ATOM     87  C   UNL A   1      33.268  29.143  23.629  1.00  0.00     0.071 C 
ENDBRANCH  82  85
ENDBRANCH  77  82
BRANCH  81  88
ATOM     88  N   UNL A   1      33.352  22.226  24.400  1.00  0.00    -0.323 N 
ATOM     89  C   UNL A   1      34.633  21.835  25.029  1.00  0.00     0.324 C 
ATOM     90  C   UNL A   1      32.849  21.177  23.505  1.00  0.00     0.328 C 
ATOM     91  H   UNL A   1      32.633  22.286  25.122  1.00  0.00     0.348 HD
ATOM     92  C   UNL A   1      35.045  20.345  24.881  1.00  0.00     0.324 C 
ATOM     93  C   UNL A   1      32.737  19.827  24.248  1.00  0.00     0.240 C 
ATOM     94  N   UNL A   1      33.934  19.397  25.005  1.00  0.00    -0.323 N 
ATOM     95  C   UNL A   1      32.395  18.673  23.309  1.00  0.00     0.077 C 
ATOM     96  C   UNL A   1      34.294  18.044  24.568  1.00  0.00     0.263 C 
ATOM     97  H   UNL A   1      33.716  19.380  26.001  1.00  0.00     0.348 HD
ATOM     98  C   UNL A   1      33.003  17.473  24.007  1.00  0.00     0.068 C 
ENDBRANCH  81  88
ENDBRANCH  75  77
ENDBRANCH  74  75
ENDBRANCH  73  74
ENDBRANCH  72  73
ENDBRANCH   1  72
TORSDOF 17
ENDMDL
