MODEL 1
REMARK VINA RESULT:     -11.7      0.000      0.000
REMARK SMILES O=C(OCCOCCOC(=O)[C@H]1CC[C@@H]2CCCC[C@@H]2N1C(=O)NC1CC1)c1ccc(-c2c3nc(c(-c4c(F)c(F)c(F)c(F)c4F)c4ccc([nH]4)c(-c4c(F)c(F)c(F)c(F)c4F)c4nc(c(-c5c(F)c(F)c(F)c(F)c5F)c5ccc2[nH]5)C=C4)C=C3)cc1
REMARK SMILES IDX 6 1 5 2 4 3 3 4 2 5 1 6 28 7 29 8 90 9 30 10 89 11 31 12
REMARK SMILES IDX 32 13 33 14 83 15 34 16 88 17 82 18 84 19 35 20 87 21 81 22
REMARK SMILES IDX 80 23 36 25 68 26 48 27 67 28 49 29 52 30 66 31 85 32 50 33
REMARK SMILES IDX 51 34 65 36 86 37 53 38 37 39 38 40 46 41 39 42 40 43 44 44
REMARK SMILES IDX 47 45 41 46 42 47 45 48 43 49 69 50 70 51 78 52 71 53 72 54
REMARK SMILES IDX 76 55 79 56 73 57 74 58 77 59 75 60 54 61 55 62 63 63 56 64
REMARK SMILES IDX 57 65 61 66 64 67 58 68 59 69 62 70 60 71 7 72 8 73 9 74
REMARK SMILES IDX 10 75 11 76 12 77 13 78 21 79 14 80 20 81 15 82 19 83 16 84
REMARK SMILES IDX 18 85 17 86 22 87 23 88 24 89 25 91 26 92 27 93
REMARK H PARENT 84 24 52 35 24 90
REMARK Flexibility Score: inf
ROOT
ATOM      1  O   UNL A   1      36.292  23.617  24.428  1.00  0.00    -0.374 OA
ENDROOT
BRANCH   1   2
ATOM      2  C   UNL A   1      36.531  22.231  24.185  1.00  0.00     0.202 C 
BRANCH   2   3
ATOM      3  C   UNL A   1      36.985  21.492  25.444  1.00  0.00     0.261 C 
BRANCH   3   4
ATOM      4  O   UNL A   1      38.360  21.091  25.359  1.00  0.00    -0.460 OA
BRANCH   4   5
ATOM      5  C   UNL A   1      39.365  21.367  26.227  1.00  0.00     0.338 C 
ATOM      6  O   UNL A   1      40.005  20.417  26.679  1.00  0.00    -0.246 OA
BRANCH   5   7
ATOM      7  C   UNL A   1      39.763  22.745  26.684  1.00  0.00     0.060 A 
ATOM      8  C   UNL A   1      39.270  23.957  26.191  1.00  0.00     0.016 A 
ATOM      9  C   UNL A   1      40.690  22.811  27.744  1.00  0.00     0.016 A 
ATOM     10  C   UNL A   1      39.670  25.179  26.700  1.00  0.00     0.010 A 
ATOM     11  C   UNL A   1      41.143  24.038  28.238  1.00  0.00     0.010 A 
ATOM     12  C   UNL A   1      40.654  25.221  27.678  1.00  0.00    -0.014 A 
BRANCH  12  13
ATOM     13  C   UNL A   1      41.355  26.506  27.796  1.00  0.00     0.031 A 
ATOM     14  C   UNL A   1      40.689  27.549  28.645  1.00  0.00     0.074 A 
ATOM     15  C   UNL A   1      42.627  26.617  27.384  1.00  0.00     0.049 A 
ATOM     16  N   UNL A   1      41.094  28.745  28.971  1.00  0.00    -0.248 NA
ATOM     17  C   UNL A   1      39.395  27.171  29.246  1.00  0.00     0.031 C 
ATOM     18  C   UNL A   1      43.399  25.555  26.735  1.00  0.00     0.029 A 
ATOM     19  N   UNL A   1      43.510  27.654  27.499  1.00  0.00    -0.354 N 
ATOM     20  C   UNL A   1      40.094  29.268  29.779  1.00  0.00     0.074 A 
ATOM     21  C   UNL A   1      39.066  28.265  29.910  1.00  0.00     0.031 C 
ATOM     22  C   UNL A   1      44.650  25.996  26.521  1.00  0.00     0.029 A 
ATOM     23  C   UNL A   1      44.743  27.383  26.960  1.00  0.00     0.049 A 
ATOM     24  H   UNL A   1      43.284  28.511  27.927  1.00  0.00     0.167 HD
ATOM     25  C   UNL A   1      40.042  30.492  30.347  1.00  0.00     0.037 A 
ATOM     26  C   UNL A   1      45.803  28.199  26.820  1.00  0.00     0.037 A 
ATOM     27  C   UNL A   1      41.090  31.460  30.187  1.00  0.00     0.049 A 
ATOM     28  C   UNL A   1      45.670  29.605  27.348  1.00  0.00     0.074 A 
ATOM     29  C   UNL A   1      41.140  32.770  30.620  1.00  0.00     0.029 A 
ATOM     30  N   UNL A   1      42.288  31.203  29.529  1.00  0.00    -0.354 N 
ATOM     31  N   UNL A   1      44.680  30.147  28.021  1.00  0.00    -0.248 NA
ATOM     32  C   UNL A   1      46.788  30.515  27.089  1.00  0.00     0.031 C 
ATOM     33  C   UNL A   1      42.343  33.322  30.170  1.00  0.00     0.029 A 
ATOM     34  C   UNL A   1      43.076  32.336  29.522  1.00  0.00     0.049 A 
ATOM     35  H   UNL A   1      42.536  30.339  29.125  1.00  0.00     0.167 HD
ATOM     36  C   UNL A   1      45.067  31.450  28.294  1.00  0.00     0.074 A 
ATOM     37  C   UNL A   1      46.391  31.609  27.722  1.00  0.00     0.031 C 
ATOM     38  C   UNL A   1      44.398  32.432  28.952  1.00  0.00     0.037 A 
BRANCH  25  39
ATOM     39  C   UNL A   1      38.777  30.857  31.067  1.00  0.00     0.064 A 
ATOM     40  C   UNL A   1      37.656  31.385  30.407  1.00  0.00     0.173 A 
ATOM     41  C   UNL A   1      38.719  30.744  32.465  1.00  0.00     0.173 A 
ATOM     42  F   UNL A   1      37.675  31.554  29.076  1.00  0.00    -0.203 F 
ATOM     43  C   UNL A   1      36.542  31.819  31.122  1.00  0.00     0.198 A 
ATOM     44  C   UNL A   1      37.590  31.150  33.174  1.00  0.00     0.198 A 
ATOM     45  F   UNL A   1      39.767  30.262  33.148  1.00  0.00    -0.203 F 
ATOM     46  F   UNL A   1      35.514  32.391  30.478  1.00  0.00    -0.200 F 
ATOM     47  C   UNL A   1      36.509  31.698  32.503  1.00  0.00     0.200 A 
ATOM     48  F   UNL A   1      37.562  31.031  34.508  1.00  0.00    -0.200 F 
ATOM     49  F   UNL A   1      35.442  32.129  33.191  1.00  0.00    -0.200 F 
ENDBRANCH  25  39
BRANCH  26  50
ATOM     50  C   UNL A   1      47.030  27.737  26.114  1.00  0.00     0.064 A 
ATOM     51  C   UNL A   1      47.122  27.756  24.715  1.00  0.00     0.173 A 
ATOM     52  C   UNL A   1      48.130  27.233  26.826  1.00  0.00     0.173 A 
ATOM     53  F   UNL A   1      46.094  28.207  23.982  1.00  0.00    -0.203 F 
ATOM     54  C   UNL A   1      48.253  27.269  24.058  1.00  0.00     0.198 A 
ATOM     55  C   UNL A   1      49.273  26.778  26.171  1.00  0.00     0.198 A 
ATOM     56  F   UNL A   1      48.099  27.183  28.165  1.00  0.00    -0.203 F 
ATOM     57  F   UNL A   1      48.290  27.247  22.719  1.00  0.00    -0.200 F 
ATOM     58  C   UNL A   1      49.329  26.784  24.787  1.00  0.00     0.200 A 
ATOM     59  F   UNL A   1      50.314  26.323  26.882  1.00  0.00    -0.200 F 
ATOM     60  F   UNL A   1      50.413  26.314  24.156  1.00  0.00    -0.200 F 
ENDBRANCH  26  50
BRANCH  38  61
ATOM     61  C   UNL A   1      45.120  33.731  29.138  1.00  0.00     0.064 A 
ATOM     62  C   UNL A   1      45.003  34.783  28.218  1.00  0.00     0.173 A 
ATOM     63  C   UNL A   1      45.905  33.936  30.283  1.00  0.00     0.173 A 
ATOM     64  F   UNL A   1      44.273  34.628  27.104  1.00  0.00    -0.203 F 
ATOM     65  C   UNL A   1      45.674  35.983  28.422  1.00  0.00     0.198 A 
ATOM     66  C   UNL A   1      46.543  35.151  30.502  1.00  0.00     0.198 A 
ATOM     67  F   UNL A   1      46.037  32.963  31.197  1.00  0.00    -0.203 F 
ATOM     68  F   UNL A   1      45.597  36.955  27.503  1.00  0.00    -0.200 F 
ATOM     69  C   UNL A   1      46.436  36.169  29.567  1.00  0.00     0.200 A 
ATOM     70  F   UNL A   1      47.260  35.336  31.619  1.00  0.00    -0.200 F 
ATOM     71  F   UNL A   1      47.074  37.331  29.766  1.00  0.00    -0.200 F 
ENDBRANCH  38  61
ENDBRANCH  12  13
ENDBRANCH   5   7
ENDBRANCH   4   5
ENDBRANCH   3   4
ENDBRANCH   2   3
ENDBRANCH   1   2
BRANCH   1  72
ATOM     72  C   UNL A   1      35.665  23.952  25.663  1.00  0.00     0.202 C 
BRANCH  72  73
ATOM     73  C   UNL A   1      34.431  24.792  25.381  1.00  0.00     0.261 C 
BRANCH  73  74
ATOM     74  O   UNL A   1      33.829  24.357  24.162  1.00  0.00    -0.462 OA
BRANCH  74  75
ATOM     75  C   UNL A   1      33.531  25.311  23.230  1.00  0.00     0.329 C 
ATOM     76  O   UNL A   1      33.660  25.223  22.021  1.00  0.00    -0.250 OA
BRANCH  75  77
ATOM     77  C   UNL A   1      32.939  26.526  23.908  1.00  0.00     0.197 C 
ATOM     78  C   UNL A   1      33.432  27.837  23.260  1.00  0.00     0.038 C 
ATOM     79  N   UNL A   1      31.518  26.605  24.296  1.00  0.00    -0.308 N 
ATOM     80  C   UNL A   1      33.227  29.008  24.201  1.00  0.00     0.008 C 
ATOM     81  C   UNL A   1      31.238  27.762  25.203  1.00  0.00     0.091 C 
ATOM     82  C   UNL A   1      31.758  29.088  24.616  1.00  0.00     0.012 C 
ATOM     83  C   UNL A   1      31.714  27.482  26.648  1.00  0.00     0.025 C 
ATOM     84  C   UNL A   1      31.506  30.225  25.602  1.00  0.00     0.006 C 
ATOM     85  C   UNL A   1      32.185  28.658  27.513  1.00  0.00     0.002 C 
ATOM     86  C   UNL A   1      32.288  30.047  26.891  1.00  0.00     0.000 C 
BRANCH  79  87
ATOM     87  C   UNL A   1      30.519  25.669  24.189  1.00  0.00     0.318 C 
ATOM     88  O   UNL A   1      29.700  25.729  23.260  1.00  0.00    -0.249 OA
ATOM     89  N   UNL A   1      30.329  24.596  24.991  1.00  0.00    -0.335 N 
ATOM     90  H   UNL A   1      29.521  24.101  24.725  1.00  0.00     0.165 HD
BRANCH  89  91
ATOM     91  C   UNL A   1      30.955  23.976  26.107  1.00  0.00     0.084 C 
ATOM     92  C   UNL A   1      30.119  23.006  26.928  1.00  0.00     0.027 C 
ATOM     93  C   UNL A   1      31.283  22.500  26.156  1.00  0.00     0.027 C 
ENDBRANCH  89  91
ENDBRANCH  79  87
ENDBRANCH  75  77
ENDBRANCH  74  75
ENDBRANCH  73  74
ENDBRANCH  72  73
ENDBRANCH   1  72
TORSDOF 16
ENDMDL
MODEL 2
REMARK VINA RESULT:     -11.6      0.392      7.515
REMARK SMILES O=C(OCCOCCOC(=O)[C@H]1CC[C@@H]2CCCC[C@@H]2N1C(=O)NC1CC1)c1ccc(-c2c3nc(c(-c4c(F)c(F)c(F)c(F)c4F)c4ccc([nH]4)c(-c4c(F)c(F)c(F)c(F)c4F)c4nc(c(-c5c(F)c(F)c(F)c(F)c5F)c5ccc2[nH]5)C=C4)C=C3)cc1
REMARK SMILES IDX 6 1 5 2 4 3 3 4 2 5 1 6 28 7 29 8 90 9 30 10 89 11 31 12
REMARK SMILES IDX 32 13 33 14 83 15 34 16 88 17 82 18 84 19 35 20 87 21 81 22
REMARK SMILES IDX 80 23 36 25 68 26 48 27 67 28 49 29 52 30 66 31 85 32 50 33
REMARK SMILES IDX 51 34 65 36 86 37 53 38 37 39 38 40 46 41 39 42 40 43 44 44
REMARK SMILES IDX 47 45 41 46 42 47 45 48 43 49 69 50 70 51 78 52 71 53 72 54
REMARK SMILES IDX 76 55 79 56 73 57 74 58 77 59 75 60 54 61 55 62 63 63 56 64
REMARK SMILES IDX 57 65 61 66 64 67 58 68 59 69 62 70 60 71 7 72 8 73 9 74
REMARK SMILES IDX 10 75 11 76 12 77 13 78 21 79 14 80 20 81 15 82 19 83 16 84
REMARK SMILES IDX 18 85 17 86 22 87 23 88 24 89 25 91 26 92 27 93
REMARK H PARENT 84 24 52 35 24 90
REMARK Flexibility Score: inf
ROOT
ATOM      1  O   UNL A   1      36.540  23.648  24.929  1.00  0.00    -0.374 OA
ENDROOT
BRANCH   1   2
ATOM      2  C   UNL A   1      36.855  22.387  24.338  1.00  0.00     0.202 C 
BRANCH   2   3
ATOM      3  C   UNL A   1      37.286  21.352  25.376  1.00  0.00     0.261 C 
BRANCH   3   4
ATOM      4  O   UNL A   1      38.677  21.021  25.252  1.00  0.00    -0.460 OA
BRANCH   4   5
ATOM      5  C   UNL A   1      39.666  21.217  26.161  1.00  0.00     0.338 C 
ATOM      6  O   UNL A   1      40.348  20.243  26.480  1.00  0.00    -0.246 OA
BRANCH   5   7
ATOM      7  C   UNL A   1      39.999  22.534  26.811  1.00  0.00     0.060 A 
ATOM      8  C   UNL A   1      39.322  23.744  26.629  1.00  0.00     0.016 A 
ATOM      9  C   UNL A   1      41.069  22.528  27.727  1.00  0.00     0.016 A 
ATOM     10  C   UNL A   1      39.679  24.898  27.300  1.00  0.00     0.010 A 
ATOM     11  C   UNL A   1      41.476  23.697  28.377  1.00  0.00     0.010 A 
ATOM     12  C   UNL A   1      40.796  24.890  28.123  1.00  0.00    -0.014 A 
BRANCH  12  13
ATOM     13  C   UNL A   1      41.381  26.211  28.385  1.00  0.00     0.031 A 
ATOM     14  C   UNL A   1      42.728  26.472  27.777  1.00  0.00     0.074 A 
ATOM     15  C   UNL A   1      40.625  27.189  28.906  1.00  0.00     0.049 A 
ATOM     16  N   UNL A   1      43.457  27.552  27.793  1.00  0.00    -0.248 NA
ATOM     17  C   UNL A   1      43.320  25.362  27.005  1.00  0.00     0.031 C 
ATOM     18  C   UNL A   1      39.229  27.044  29.324  1.00  0.00     0.029 A 
ATOM     19  N   UNL A   1      40.906  28.510  29.121  1.00  0.00    -0.354 N 
ATOM     20  C   UNL A   1      44.600  27.239  27.069  1.00  0.00     0.074 A 
ATOM     21  C   UNL A   1      44.472  25.877  26.614  1.00  0.00     0.031 C 
ATOM     22  C   UNL A   1      38.771  28.239  29.735  1.00  0.00     0.029 A 
ATOM     23  C   UNL A   1      39.858  29.208  29.667  1.00  0.00     0.049 A 
ATOM     24  H   UNL A   1      41.775  28.919  28.906  1.00  0.00     0.167 HD
ATOM     25  C   UNL A   1      45.669  28.029  26.824  1.00  0.00     0.037 A 
ATOM     26  C   UNL A   1      39.820  30.486  30.087  1.00  0.00     0.037 A 
ATOM     27  C   UNL A   1      45.753  29.381  27.300  1.00  0.00     0.049 A 
ATOM     28  C   UNL A   1      41.073  31.307  29.920  1.00  0.00     0.074 A 
ATOM     29  C   UNL A   1      46.804  30.270  27.215  1.00  0.00     0.029 A 
ATOM     30  N   UNL A   1      44.719  30.034  27.962  1.00  0.00    -0.354 N 
ATOM     31  N   UNL A   1      42.202  30.985  29.332  1.00  0.00    -0.248 NA
ATOM     32  C   UNL A   1      41.054  32.660  30.483  1.00  0.00     0.031 C 
ATOM     33  C   UNL A   1      46.427  31.442  27.879  1.00  0.00     0.029 A 
ATOM     34  C   UNL A   1      45.114  31.310  28.312  1.00  0.00     0.049 A 
ATOM     35  H   UNL A   1      43.835  29.644  28.153  1.00  0.00     0.167 HD
ATOM     36  C   UNL A   1      43.018  32.103  29.424  1.00  0.00     0.074 A 
ATOM     37  C   UNL A   1      42.243  33.116  30.116  1.00  0.00     0.031 C 
ATOM     38  C   UNL A   1      44.291  32.285  28.985  1.00  0.00     0.037 A 
BRANCH  25  39
ATOM     39  C   UNL A   1      46.837  27.397  26.126  1.00  0.00     0.064 A 
ATOM     40  C   UNL A   1      47.853  26.718  26.815  1.00  0.00     0.173 A 
ATOM     41  C   UNL A   1      46.977  27.547  24.737  1.00  0.00     0.173 A 
ATOM     42  F   UNL A   1      47.791  26.584  28.149  1.00  0.00    -0.203 F 
ATOM     43  C   UNL A   1      48.980  26.244  26.146  1.00  0.00     0.198 A 
ATOM     44  C   UNL A   1      48.089  27.044  24.067  1.00  0.00     0.198 A 
ATOM     45  F   UNL A   1      46.044  28.203  24.031  1.00  0.00    -0.203 F 
ATOM     46  F   UNL A   1      49.974  25.665  26.835  1.00  0.00    -0.200 F 
ATOM     47  C   UNL A   1      49.095  26.404  24.773  1.00  0.00     0.200 A 
ATOM     48  F   UNL A   1      48.197  27.201  22.741  1.00  0.00    -0.200 F 
ATOM     49  F   UNL A   1      50.186  25.961  24.133  1.00  0.00    -0.200 F 
ENDBRANCH  25  39
BRANCH  26  50
ATOM     50  C   UNL A   1      38.601  31.033  30.745  1.00  0.00     0.064 A 
ATOM     51  C   UNL A   1      38.430  30.976  32.135  1.00  0.00     0.173 A 
ATOM     52  C   UNL A   1      37.562  31.600  29.989  1.00  0.00     0.173 A 
ATOM     53  F   UNL A   1      39.380  30.426  32.905  1.00  0.00    -0.203 F 
ATOM     54  C   UNL A   1      37.261  31.440  32.739  1.00  0.00     0.198 A 
ATOM     55  C   UNL A   1      36.409  32.095  30.597  1.00  0.00     0.198 A 
ATOM     56  F   UNL A   1      37.665  31.678  28.655  1.00  0.00    -0.203 F 
ATOM     57  F   UNL A   1      37.100  31.320  34.064  1.00  0.00    -0.200 F 
ATOM     58  C   UNL A   1      36.253  32.003  31.970  1.00  0.00     0.200 A 
ATOM     59  F   UNL A   1      35.446  32.650  29.848  1.00  0.00    -0.200 F 
ATOM     60  F   UNL A   1      35.130  32.446  32.550  1.00  0.00    -0.200 F 
ENDBRANCH  26  50
BRANCH  38  61
ATOM     61  C   UNL A   1      44.885  33.646  29.187  1.00  0.00     0.064 A 
ATOM     62  C   UNL A   1      45.648  33.961  30.319  1.00  0.00     0.173 A 
ATOM     63  C   UNL A   1      44.721  34.631  28.202  1.00  0.00     0.173 A 
ATOM     64  F   UNL A   1      45.821  33.054  31.292  1.00  0.00    -0.203 F 
ATOM     65  C   UNL A   1      46.198  35.228  30.474  1.00  0.00     0.198 A 
ATOM     66  C   UNL A   1      45.305  35.884  28.343  1.00  0.00     0.198 A 
ATOM     67  F   UNL A   1      44.008  34.371  27.094  1.00  0.00    -0.203 F 
ATOM     68  F   UNL A   1      46.876  35.530  31.590  1.00  0.00    -0.200 F 
ATOM     69  C   UNL A   1      46.034  36.185  29.483  1.00  0.00     0.200 A 
ATOM     70  F   UNL A   1      45.163  36.800  27.374  1.00  0.00    -0.200 F 
ATOM     71  F   UNL A   1      46.574  37.403  29.630  1.00  0.00    -0.200 F 
ENDBRANCH  38  61
ENDBRANCH  12  13
ENDBRANCH   5   7
ENDBRANCH   4   5
ENDBRANCH   3   4
ENDBRANCH   2   3
ENDBRANCH   1   2
BRANCH   1  72
ATOM     72  C   UNL A   1      35.372  23.700  25.742  1.00  0.00     0.202 C 
BRANCH  72  73
ATOM     73  C   UNL A   1      34.457  24.797  25.226  1.00  0.00     0.261 C 
BRANCH  73  74
ATOM     74  O   UNL A   1      33.793  24.347  24.045  1.00  0.00    -0.462 OA
BRANCH  74  75
ATOM     75  C   UNL A   1      33.365  25.296  23.160  1.00  0.00     0.329 C 
ATOM     76  O   UNL A   1      33.315  25.200  21.946  1.00  0.00    -0.250 OA
BRANCH  75  77
ATOM     77  C   UNL A   1      32.883  26.518  23.909  1.00  0.00     0.197 C 
ATOM     78  C   UNL A   1      33.412  27.821  23.275  1.00  0.00     0.038 C 
ATOM     79  N   UNL A   1      31.494  26.661  24.383  1.00  0.00    -0.308 N 
ATOM     80  C   UNL A   1      33.328  28.969  24.263  1.00  0.00     0.008 C 
ATOM     81  C   UNL A   1      31.332  27.800  25.341  1.00  0.00     0.091 C 
ATOM     82  C   UNL A   1      31.892  29.114  24.766  1.00  0.00     0.012 C 
ATOM     83  C   UNL A   1      31.873  27.444  26.746  1.00  0.00     0.025 C 
ATOM     84  C   UNL A   1      31.762  30.229  25.800  1.00  0.00     0.006 C 
ATOM     85  C   UNL A   1      32.458  28.562  27.618  1.00  0.00     0.002 C 
ATOM     86  C   UNL A   1      32.605  29.963  27.035  1.00  0.00     0.000 C 
BRANCH  79  87
ATOM     87  C   UNL A   1      30.438  25.785  24.306  1.00  0.00     0.318 C 
ATOM     88  O   UNL A   1      29.515  25.985  23.501  1.00  0.00    -0.249 OA
ATOM     89  N   UNL A   1      30.288  24.638  25.006  1.00  0.00    -0.335 N 
ATOM     90  H   UNL A   1      29.428  24.210  24.795  1.00  0.00     0.165 HD
BRANCH  89  91
ATOM     91  C   UNL A   1      31.012  23.870  25.960  1.00  0.00     0.084 C 
ATOM     92  C   UNL A   1      30.211  22.958  26.876  1.00  0.00     0.027 C 
ATOM     93  C   UNL A   1      31.141  22.364  25.881  1.00  0.00     0.027 C 
ENDBRANCH  89  91
ENDBRANCH  79  87
ENDBRANCH  75  77
ENDBRANCH  74  75
ENDBRANCH  73  74
ENDBRANCH  72  73
ENDBRANCH   1  72
TORSDOF 16
ENDMDL
MODEL 3
REMARK VINA RESULT:     -11.6      4.822      8.314
REMARK SMILES O=C(OCCOCCOC(=O)[C@H]1CC[C@@H]2CCCC[C@@H]2N1C(=O)NC1CC1)c1ccc(-c2c3nc(c(-c4c(F)c(F)c(F)c(F)c4F)c4ccc([nH]4)c(-c4c(F)c(F)c(F)c(F)c4F)c4nc(c(-c5c(F)c(F)c(F)c(F)c5F)c5ccc2[nH]5)C=C4)C=C3)cc1
REMARK SMILES IDX 6 1 5 2 4 3 3 4 2 5 1 6 28 7 29 8 90 9 30 10 89 11 31 12
REMARK SMILES IDX 32 13 33 14 83 15 34 16 88 17 82 18 84 19 35 20 87 21 81 22
REMARK SMILES IDX 80 23 36 25 68 26 48 27 67 28 49 29 52 30 66 31 85 32 50 33
REMARK SMILES IDX 51 34 65 36 86 37 53 38 37 39 38 40 46 41 39 42 40 43 44 44
REMARK SMILES IDX 47 45 41 46 42 47 45 48 43 49 69 50 70 51 78 52 71 53 72 54
REMARK SMILES IDX 76 55 79 56 73 57 74 58 77 59 75 60 54 61 55 62 63 63 56 64
REMARK SMILES IDX 57 65 61 66 64 67 58 68 59 69 62 70 60 71 7 72 8 73 9 74
REMARK SMILES IDX 10 75 11 76 12 77 13 78 21 79 14 80 20 81 15 82 19 83 16 84
REMARK SMILES IDX 18 85 17 86 22 87 23 88 24 89 25 91 26 92 27 93
REMARK H PARENT 84 24 52 35 24 90
REMARK Flexibility Score: inf
ROOT
ATOM      1  O   UNL A   1      31.664  30.480  26.160  1.00  0.00    -0.374 OA
ENDROOT
BRANCH   1   2
ATOM      2  C   UNL A   1      31.403  31.842  26.498  1.00  0.00     0.202 C 
BRANCH   2   3
ATOM      3  C   UNL A   1      32.495  32.437  27.387  1.00  0.00     0.261 C 
BRANCH   3   4
ATOM      4  O   UNL A   1      32.284  33.836  27.626  1.00  0.00    -0.460 OA
BRANCH   4   5
ATOM      5  C   UNL A   1      32.927  34.638  28.513  1.00  0.00     0.338 C 
ATOM      6  O   UNL A   1      32.440  35.748  28.734  1.00  0.00    -0.246 OA
BRANCH   5   7
ATOM      7  C   UNL A   1      34.189  34.280  29.251  1.00  0.00     0.060 A 
ATOM      8  C   UNL A   1      35.496  34.425  28.776  1.00  0.00     0.016 A 
ATOM      9  C   UNL A   1      34.032  33.796  30.564  1.00  0.00     0.016 A 
ATOM     10  C   UNL A   1      36.601  34.102  29.542  1.00  0.00     0.010 A 
ATOM     11  C   UNL A   1      35.135  33.417  31.336  1.00  0.00     0.010 A 
ATOM     12  C   UNL A   1      36.418  33.537  30.797  1.00  0.00    -0.014 A 
BRANCH  12  13
ATOM     13  C   UNL A   1      37.571  32.787  31.312  1.00  0.00     0.031 A 
ATOM     14  C   UNL A   1      37.968  33.075  32.730  1.00  0.00     0.074 A 
ATOM     15  C   UNL A   1      38.044  31.732  30.631  1.00  0.00     0.049 A 
ATOM     16  N   UNL A   1      38.902  32.534  33.462  1.00  0.00    -0.248 NA
ATOM     17  C   UNL A   1      37.170  34.096  33.437  1.00  0.00     0.031 C 
ATOM     18  C   UNL A   1      37.547  31.276  29.331  1.00  0.00     0.029 A 
ATOM     19  N   UNL A   1      39.009  30.823  30.961  1.00  0.00    -0.354 N 
ATOM     20  C   UNL A   1      38.824  33.171  34.693  1.00  0.00     0.074 A 
ATOM     21  C   UNL A   1      37.749  34.130  34.624  1.00  0.00     0.031 C 
ATOM     22  C   UNL A   1      38.207  30.160  28.980  1.00  0.00     0.029 A 
ATOM     23  C   UNL A   1      39.208  29.865  29.999  1.00  0.00     0.049 A 
ATOM     24  H   UNL A   1      39.512  30.852  31.807  1.00  0.00     0.167 HD
ATOM     25  C   UNL A   1      39.601  32.973  35.780  1.00  0.00     0.037 A 
ATOM     26  C   UNL A   1      40.130  28.886  29.957  1.00  0.00     0.037 A 
ATOM     27  C   UNL A   1      40.662  32.006  35.802  1.00  0.00     0.049 A 
ATOM     28  C   UNL A   1      41.072  28.771  31.128  1.00  0.00     0.074 A 
ATOM     29  C   UNL A   1      41.593  31.757  36.790  1.00  0.00     0.029 A 
ATOM     30  N   UNL A   1      40.926  31.122  34.762  1.00  0.00    -0.354 N 
ATOM     31  N   UNL A   1      41.077  29.444  32.257  1.00  0.00    -0.248 NA
ATOM     32  C   UNL A   1      42.142  27.776  31.019  1.00  0.00     0.031 C 
ATOM     33  C   UNL A   1      42.457  30.762  36.321  1.00  0.00     0.029 A 
ATOM     34  C   UNL A   1      42.020  30.339  35.073  1.00  0.00     0.049 A 
ATOM     35  H   UNL A   1      40.409  31.064  33.925  1.00  0.00     0.167 HD
ATOM     36  C   UNL A   1      42.126  28.934  33.006  1.00  0.00     0.074 A 
ATOM     37  C   UNL A   1      42.726  27.884  32.204  1.00  0.00     0.031 C 
ATOM     38  C   UNL A   1      42.564  29.294  34.241  1.00  0.00     0.037 A 
BRANCH  25  39
ATOM     39  C   UNL A   1      39.391  33.895  36.945  1.00  0.00     0.064 A 
ATOM     40  C   UNL A   1      39.950  35.181  37.002  1.00  0.00     0.173 A 
ATOM     41  C   UNL A   1      38.674  33.444  38.065  1.00  0.00     0.173 A 
ATOM     42  F   UNL A   1      40.681  35.645  35.977  1.00  0.00    -0.203 F 
ATOM     43  C   UNL A   1      39.830  35.964  38.148  1.00  0.00     0.198 A 
ATOM     44  C   UNL A   1      38.529  34.243  39.196  1.00  0.00     0.198 A 
ATOM     45  F   UNL A   1      38.133  32.216  38.071  1.00  0.00    -0.203 F 
ATOM     46  F   UNL A   1      40.437  37.159  38.210  1.00  0.00    -0.200 F 
ATOM     47  C   UNL A   1      39.117  35.496  39.242  1.00  0.00     0.200 A 
ATOM     48  F   UNL A   1      37.840  33.786  40.251  1.00  0.00    -0.200 F 
ATOM     49  F   UNL A   1      39.014  36.245  40.349  1.00  0.00    -0.200 F 
ENDBRANCH  25  39
BRANCH  26  50
ATOM     50  C   UNL A   1      40.244  28.000  28.766  1.00  0.00     0.064 A 
ATOM     51  C   UNL A   1      39.625  26.742  28.726  1.00  0.00     0.173 A 
ATOM     52  C   UNL A   1      41.006  28.380  27.649  1.00  0.00     0.173 A 
ATOM     53  F   UNL A   1      38.903  26.317  29.773  1.00  0.00    -0.203 F 
ATOM     54  C   UNL A   1      39.784  25.893  27.630  1.00  0.00     0.198 A 
ATOM     55  C   UNL A   1      41.135  27.545  26.540  1.00  0.00     0.198 A 
ATOM     56  F   UNL A   1      41.626  29.568  27.631  1.00  0.00    -0.203 F 
ATOM     57  F   UNL A   1      39.228  24.674  27.643  1.00  0.00    -0.200 F 
ATOM     58  C   UNL A   1      40.534  26.297  26.536  1.00  0.00     0.200 A 
ATOM     59  F   UNL A   1      41.851  27.949  25.481  1.00  0.00    -0.200 F 
ATOM     60  F   UNL A   1      40.688  25.481  25.485  1.00  0.00    -0.200 F 
ENDBRANCH  26  50
BRANCH  38  61
ATOM     61  C   UNL A   1      43.699  28.499  34.811  1.00  0.00     0.064 A 
ATOM     62  C   UNL A   1      45.034  28.901  34.660  1.00  0.00     0.173 A 
ATOM     63  C   UNL A   1      43.435  27.342  35.559  1.00  0.00     0.173 A 
ATOM     64  F   UNL A   1      45.334  29.994  33.943  1.00  0.00    -0.203 F 
ATOM     65  C   UNL A   1      46.067  28.151  35.211  1.00  0.00     0.198 A 
ATOM     66  C   UNL A   1      44.468  26.618  36.141  1.00  0.00     0.198 A 
ATOM     67  F   UNL A   1      42.172  26.926  35.741  1.00  0.00    -0.203 F 
ATOM     68  F   UNL A   1      47.339  28.518  35.007  1.00  0.00    -0.200 F 
ATOM     69  C   UNL A   1      45.783  27.017  35.957  1.00  0.00     0.200 A 
ATOM     70  F   UNL A   1      44.191  25.535  36.880  1.00  0.00    -0.200 F 
ATOM     71  F   UNL A   1      46.781  26.301  36.496  1.00  0.00    -0.200 F 
ENDBRANCH  38  61
ENDBRANCH  12  13
ENDBRANCH   5   7
ENDBRANCH   4   5
ENDBRANCH   3   4
ENDBRANCH   2   3
ENDBRANCH   1   2
BRANCH   1  72
ATOM     72  C   UNL A   1      32.330  29.693  27.143  1.00  0.00     0.202 C 
BRANCH  72  73
ATOM     73  C   UNL A   1      31.689  28.317  27.196  1.00  0.00     0.261 C 
BRANCH  73  74
ATOM     74  O   UNL A   1      32.662  27.326  26.863  1.00  0.00    -0.462 OA
BRANCH  74  75
ATOM     75  C   UNL A   1      32.779  26.974  25.548  1.00  0.00     0.329 C 
ATOM     76  O   UNL A   1      33.047  27.707  24.611  1.00  0.00    -0.250 OA
BRANCH  75  77
ATOM     77  C   UNL A   1      32.584  25.482  25.396  1.00  0.00     0.197 C 
ATOM     78  C   UNL A   1      33.685  24.685  26.125  1.00  0.00     0.038 C 
ATOM     79  N   UNL A   1      31.263  24.838  25.524  1.00  0.00    -0.308 N 
ATOM     80  C   UNL A   1      33.759  23.266  25.594  1.00  0.00     0.008 C 
ATOM     81  C   UNL A   1      31.271  23.420  25.046  1.00  0.00     0.091 C 
ATOM     82  C   UNL A   1      32.389  22.598  25.713  1.00  0.00     0.012 C 
ATOM     83  C   UNL A   1      31.264  23.339  23.501  1.00  0.00     0.025 C 
ATOM     84  C   UNL A   1      32.397  21.180  25.149  1.00  0.00     0.006 C 
ATOM     85  C   UNL A   1      31.958  22.153  22.819  1.00  0.00     0.002 C 
ATOM     86  C   UNL A   1      32.738  21.156  23.670  1.00  0.00     0.000 C 
BRANCH  79  87
ATOM     87  C   UNL A   1      30.025  25.394  25.739  1.00  0.00     0.318 C 
ATOM     88  O   UNL A   1      29.494  25.329  26.858  1.00  0.00    -0.249 OA
ATOM     89  N   UNL A   1      29.284  26.084  24.842  1.00  0.00    -0.335 N 
ATOM     90  H   UNL A   1      28.420  26.346  25.232  1.00  0.00     0.165 HD
BRANCH  89  91
ATOM     91  C   UNL A   1      29.391  26.543  23.500  1.00  0.00     0.084 C 
ATOM     92  C   UNL A   1      28.658  27.827  23.140  1.00  0.00     0.027 C 
ATOM     93  C   UNL A   1      30.144  27.797  23.112  1.00  0.00     0.027 C 
ENDBRANCH  89  91
ENDBRANCH  79  87
ENDBRANCH  75  77
ENDBRANCH  74  75
ENDBRANCH  73  74
ENDBRANCH  72  73
ENDBRANCH   1  72
TORSDOF 16
ENDMDL
