MODEL 1
REMARK VINA RESULT:     -12.1      0.000      0.000
REMARK SMILES O=C(OCCOCCOC(=O)c1cccc(N2NC(=O)[C@H]3CC=CC[C@H]3C2=O)c1)c1ccc(-c2c3nc(c(-c4c(F)c(F)c(F)c(F)c4F)c4ccc([nH]4)c(-c4c(F)c(F)c(F)c(F)c4F)c4nc(c(-c5c(F)c(F)c(F)c(F)c5F)c5ccc2[nH]5)C=C4)C=C3)cc1
REMARK SMILES IDX 5 1 4 2 3 3 2 4 1 5 30 6 31 7 92 8 32 9 91 10 33 11 34 12
REMARK SMILES IDX 35 13 85 14 36 15 90 16 84 17 86 18 37 19 89 20 83 21 82 22
REMARK SMILES IDX 38 24 70 25 50 26 69 27 51 28 54 29 68 30 87 31 52 32 53 33
REMARK SMILES IDX 67 35 88 36 55 37 39 38 40 39 48 40 41 41 42 42 46 43 49 44
REMARK SMILES IDX 43 45 44 46 47 47 45 48 71 49 72 50 80 51 73 52 74 53 78 54
REMARK SMILES IDX 81 55 75 56 76 57 79 58 77 59 56 60 57 61 65 62 58 63 59 64
REMARK SMILES IDX 63 65 66 66 60 67 61 68 64 69 62 70 6 71 7 72 8 73 9 74
REMARK SMILES IDX 10 75 11 76 12 77 13 78 29 79 14 80 16 81 15 82 17 83 18 84
REMARK SMILES IDX 27 85 19 86 26 88 28 89 20 90 21 91 25 92 22 93 24 94 23 95
REMARK H PARENT 86 23 54 34 18 87
REMARK Flexibility Score: inf
ROOT
ATOM      1  C   UNL A   1      42.551  20.191  26.062  1.00  0.00     0.202 C 
ENDROOT
BRANCH   1   2
ATOM      2  C   UNL A   1      43.631  21.164  25.591  1.00  0.00     0.261 C 
BRANCH   2   3
ATOM      3  O   UNL A   1      43.030  22.373  25.106  1.00  0.00    -0.460 OA
BRANCH   3   4
ATOM      4  C   UNL A   1      43.502  23.636  25.200  1.00  0.00     0.338 C 
ATOM      5  O   UNL A   1      44.316  24.024  24.364  1.00  0.00    -0.246 OA
BRANCH   4   6
ATOM      6  C   UNL A   1      43.090  24.604  26.264  1.00  0.00     0.060 A 
ATOM      7  C   UNL A   1      43.503  25.935  26.346  1.00  0.00     0.016 A 
ATOM      8  C   UNL A   1      42.130  24.157  27.188  1.00  0.00     0.016 A 
ATOM      9  C   UNL A   1      43.027  26.787  27.328  1.00  0.00     0.010 A 
ATOM     10  C   UNL A   1      41.617  25.016  28.163  1.00  0.00     0.010 A 
ATOM     11  C   UNL A   1      42.078  26.334  28.236  1.00  0.00    -0.014 A 
BRANCH  11  12
ATOM     12  C   UNL A   1      41.676  27.250  29.313  1.00  0.00     0.031 A 
ATOM     13  C   UNL A   1      42.559  27.355  30.515  1.00  0.00     0.074 A 
ATOM     14  C   UNL A   1      40.626  28.066  29.125  1.00  0.00     0.049 A 
ATOM     15  N   UNL A   1      42.405  28.067  31.596  1.00  0.00    -0.248 NA
ATOM     16  C   UNL A   1      43.799  26.559  30.484  1.00  0.00     0.031 C 
ATOM     17  C   UNL A   1      39.804  28.115  27.913  1.00  0.00     0.029 A 
ATOM     18  N   UNL A   1      40.090  29.034  29.931  1.00  0.00    -0.354 N 
ATOM     19  C   UNL A   1      43.510  27.785  32.386  1.00  0.00     0.074 A 
ATOM     20  C   UNL A   1      44.329  26.839  31.664  1.00  0.00     0.031 C 
ATOM     21  C   UNL A   1      38.880  29.078  28.049  1.00  0.00     0.029 A 
ATOM     22  C   UNL A   1      39.000  29.661  29.381  1.00  0.00     0.049 A 
ATOM     23  H   UNL A   1      40.451  29.257  30.819  1.00  0.00     0.167 HD
ATOM     24  C   UNL A   1      43.796  28.275  33.613  1.00  0.00     0.037 A 
ATOM     25  C   UNL A   1      38.175  30.577  29.922  1.00  0.00     0.037 A 
ATOM     26  C   UNL A   1      42.951  29.213  34.300  1.00  0.00     0.049 A 
ATOM     27  C   UNL A   1      38.461  31.027  31.330  1.00  0.00     0.074 A 
ATOM     28  C   UNL A   1      43.082  29.732  35.573  1.00  0.00     0.029 A 
ATOM     29  N   UNL A   1      41.802  29.773  33.752  1.00  0.00    -0.354 N 
ATOM     30  N   UNL A   1      39.463  30.702  32.114  1.00  0.00    -0.248 NA
ATOM     31  C   UNL A   1      37.499  31.954  31.936  1.00  0.00     0.031 C 
ATOM     32  C   UNL A   1      41.988  30.570  35.811  1.00  0.00     0.029 A 
ATOM     33  C   UNL A   1      41.204  30.618  34.667  1.00  0.00     0.049 A 
ATOM     34  H   UNL A   1      41.465  29.593  32.844  1.00  0.00     0.167 HD
ATOM     35  C   UNL A   1      39.262  31.393  33.299  1.00  0.00     0.074 A 
ATOM     36  C   UNL A   1      38.052  32.172  33.121  1.00  0.00     0.031 C 
ATOM     37  C   UNL A   1      40.001  31.381  34.438  1.00  0.00     0.037 A 
BRANCH  24  38
ATOM     38  C   UNL A   1      45.016  27.731  34.295  1.00  0.00     0.064 A 
ATOM     39  C   UNL A   1      46.275  28.336  34.168  1.00  0.00     0.173 A 
ATOM     40  C   UNL A   1      44.930  26.552  35.051  1.00  0.00     0.173 A 
ATOM     41  F   UNL A   1      46.419  29.446  33.429  1.00  0.00    -0.203 F 
ATOM     42  C   UNL A   1      47.408  27.761  34.741  1.00  0.00     0.198 A 
ATOM     43  C   UNL A   1      46.058  25.995  35.646  1.00  0.00     0.198 A 
ATOM     44  F   UNL A   1      43.751  25.927  35.197  1.00  0.00    -0.203 F 
ATOM     45  F   UNL A   1      48.612  28.320  34.550  1.00  0.00    -0.200 F 
ATOM     46  C   UNL A   1      47.298  26.594  35.482  1.00  0.00     0.200 A 
ATOM     47  F   UNL A   1      45.949  24.867  36.363  1.00  0.00    -0.200 F 
ATOM     48  F   UNL A   1      48.389  26.036  36.024  1.00  0.00    -0.200 F 
ENDBRANCH  24  38
BRANCH  25  49
ATOM     49  C   UNL A   1      36.995  31.072  29.163  1.00  0.00     0.064 A 
ATOM     50  C   UNL A   1      36.945  32.379  28.659  1.00  0.00     0.173 A 
ATOM     51  C   UNL A   1      35.882  30.247  28.934  1.00  0.00     0.173 A 
ATOM     52  F   UNL A   1      37.971  33.216  28.868  1.00  0.00    -0.203 F 
ATOM     53  C   UNL A   1      35.824  32.845  27.972  1.00  0.00     0.198 A 
ATOM     54  C   UNL A   1      34.776  30.703  28.220  1.00  0.00     0.198 A 
ATOM     55  F   UNL A   1      35.870  28.988  29.396  1.00  0.00    -0.203 F 
ATOM     56  F   UNL A   1      35.784  34.114  27.544  1.00  0.00    -0.200 F 
ATOM     57  C   UNL A   1      34.743  32.005  27.747  1.00  0.00     0.200 A 
ATOM     58  F   UNL A   1      33.741  29.882  27.993  1.00  0.00    -0.200 F 
ATOM     59  F   UNL A   1      33.669  32.454  27.085  1.00  0.00    -0.200 F 
ENDBRANCH  25  49
BRANCH  37  60
ATOM     60  C   UNL A   1      39.532  32.264  35.554  1.00  0.00     0.064 A 
ATOM     61  C   UNL A   1      38.650  31.796  36.538  1.00  0.00     0.173 A 
ATOM     62  C   UNL A   1      40.016  33.575  35.665  1.00  0.00     0.173 A 
ATOM     63  F   UNL A   1      38.150  30.554  36.461  1.00  0.00    -0.203 F 
ATOM     64  C   UNL A   1      38.252  32.619  37.585  1.00  0.00     0.198 A 
ATOM     65  C   UNL A   1      39.639  34.385  36.730  1.00  0.00     0.198 A 
ATOM     66  F   UNL A   1      40.867  34.062  34.750  1.00  0.00    -0.203 F 
ATOM     67  F   UNL A   1      37.373  32.170  38.491  1.00  0.00    -0.200 F 
ATOM     68  C   UNL A   1      38.754  33.909  37.686  1.00  0.00     0.200 A 
ATOM     69  F   UNL A   1      40.137  35.625  36.835  1.00  0.00    -0.200 F 
ATOM     70  F   UNL A   1      38.377  34.697  38.702  1.00  0.00    -0.200 F 
ENDBRANCH  37  60
ENDBRANCH  11  12
ENDBRANCH   4   6
ENDBRANCH   3   4
ENDBRANCH   2   3
ENDBRANCH   1   2
BRANCH   1  71
ATOM     71  O   UNL A   1      41.473  20.800  26.768  1.00  0.00    -0.374 OA
BRANCH  71  72
ATOM     72  C   UNL A   1      40.185  20.737  26.145  1.00  0.00     0.202 C 
BRANCH  72  73
ATOM     73  C   UNL A   1      39.434  22.046  26.424  1.00  0.00     0.261 C 
BRANCH  73  74
ATOM     74  O   UNL A   1      38.251  22.069  25.614  1.00  0.00    -0.460 OA
BRANCH  74  75
ATOM     75  C   UNL A   1      37.427  23.126  25.838  1.00  0.00     0.338 C 
ATOM     76  O   UNL A   1      37.734  24.246  26.205  1.00  0.00    -0.246 OA
BRANCH  75  77
ATOM     77  C   UNL A   1      36.099  22.746  25.314  1.00  0.00     0.062 A 
ATOM     78  C   UNL A   1      35.848  21.417  24.964  1.00  0.00     0.016 A 
ATOM     79  C   UNL A   1      35.077  23.691  25.248  1.00  0.00     0.044 A 
ATOM     80  C   UNL A   1      34.547  21.015  24.662  1.00  0.00     0.003 A 
ATOM     81  C   UNL A   1      33.795  23.312  24.846  1.00  0.00     0.067 A 
ATOM     82  C   UNL A   1      33.516  21.957  24.627  1.00  0.00     0.028 A 
BRANCH  81  83
ATOM     83  N   UNL A   1      32.878  24.322  24.451  1.00  0.00    -0.221 N 
ATOM     84  N   UNL A   1      31.944  24.678  25.438  1.00  0.00    -0.260 N 
ATOM     85  C   UNL A   1      33.110  25.142  23.350  1.00  0.00     0.249 C 
ATOM     86  C   UNL A   1      31.347  25.893  25.537  1.00  0.00     0.243 C 
ATOM     87  H   UNL A   1      31.706  23.996  26.106  1.00  0.00     0.192 HD
ATOM     88  C   UNL A   1      32.718  26.590  23.541  1.00  0.00     0.097 C 
ATOM     89  O   UNL A   1      33.742  24.795  22.351  1.00  0.00    -0.272 OA
ATOM     90  O   UNL A   1      30.708  26.167  26.549  1.00  0.00    -0.273 OA
ATOM     91  C   UNL A   1      31.413  26.771  24.311  1.00  0.00     0.097 C 
ATOM     92  C   UNL A   1      33.932  27.257  24.213  1.00  0.00     0.041 C 
ATOM     93  C   UNL A   1      31.152  28.241  24.675  1.00  0.00     0.041 C 
ATOM     94  C   UNL A   1      33.626  28.548  24.895  1.00  0.00    -0.030 C 
ATOM     95  C   UNL A   1      32.380  28.994  25.096  1.00  0.00    -0.030 C 
ENDBRANCH  81  83
ENDBRANCH  75  77
ENDBRANCH  74  75
ENDBRANCH  73  74
ENDBRANCH  72  73
ENDBRANCH  71  72
ENDBRANCH   1  71
TORSDOF 15
ENDMDL
MODEL 2
REMARK VINA RESULT:     -12.1      4.995      7.127
REMARK SMILES O=C(OCCOCCOC(=O)c1cccc(N2NC(=O)[C@H]3CC=CC[C@H]3C2=O)c1)c1ccc(-c2c3nc(c(-c4c(F)c(F)c(F)c(F)c4F)c4ccc([nH]4)c(-c4c(F)c(F)c(F)c(F)c4F)c4nc(c(-c5c(F)c(F)c(F)c(F)c5F)c5ccc2[nH]5)C=C4)C=C3)cc1
REMARK SMILES IDX 5 1 4 2 3 3 2 4 1 5 30 6 31 7 92 8 32 9 91 10 33 11 34 12
REMARK SMILES IDX 35 13 85 14 36 15 90 16 84 17 86 18 37 19 89 20 83 21 82 22
REMARK SMILES IDX 38 24 70 25 50 26 69 27 51 28 54 29 68 30 87 31 52 32 53 33
REMARK SMILES IDX 67 35 88 36 55 37 39 38 40 39 48 40 41 41 42 42 46 43 49 44
REMARK SMILES IDX 43 45 44 46 47 47 45 48 71 49 72 50 80 51 73 52 74 53 78 54
REMARK SMILES IDX 81 55 75 56 76 57 79 58 77 59 56 60 57 61 65 62 58 63 59 64
REMARK SMILES IDX 63 65 66 66 60 67 61 68 64 69 62 70 6 71 7 72 8 73 9 74
REMARK SMILES IDX 10 75 11 76 12 77 13 78 29 79 14 80 16 81 15 82 17 83 18 84
REMARK SMILES IDX 27 85 19 86 26 88 28 89 20 90 21 91 25 92 22 93 24 94 23 95
REMARK H PARENT 86 23 54 34 18 87
REMARK Flexibility Score: inf
ROOT
ATOM      1  C   UNL A   1      41.545  19.181  25.954  1.00  0.00     0.202 C 
ENDROOT
BRANCH   1   2
ATOM      2  C   UNL A   1      42.936  18.551  25.909  1.00  0.00     0.261 C 
BRANCH   2   3
ATOM      3  O   UNL A   1      43.542  18.778  24.628  1.00  0.00    -0.460 OA
BRANCH   3   4
ATOM      4  C   UNL A   1      44.607  19.556  24.334  1.00  0.00     0.338 C 
ATOM      5  O   UNL A   1      45.517  19.077  23.660  1.00  0.00    -0.246 OA
BRANCH   4   6
ATOM      6  C   UNL A   1      44.749  20.978  24.776  1.00  0.00     0.060 A 
ATOM      7  C   UNL A   1      44.311  22.093  24.059  1.00  0.00     0.016 A 
ATOM      8  C   UNL A   1      45.272  21.190  26.063  1.00  0.00     0.016 A 
ATOM      9  C   UNL A   1      44.424  23.376  24.565  1.00  0.00     0.010 A 
ATOM     10  C   UNL A   1      45.360  22.478  26.599  1.00  0.00     0.010 A 
ATOM     11  C   UNL A   1      44.942  23.574  25.840  1.00  0.00    -0.014 A 
BRANCH  11  12
ATOM     12  C   UNL A   1      45.125  24.961  26.291  1.00  0.00     0.031 A 
ATOM     13  C   UNL A   1      46.455  25.605  26.068  1.00  0.00     0.074 A 
ATOM     14  C   UNL A   1      44.066  25.650  26.747  1.00  0.00     0.049 A 
ATOM     15  N   UNL A   1      46.863  26.798  26.398  1.00  0.00    -0.248 NA
ATOM     16  C   UNL A   1      47.459  24.797  25.353  1.00  0.00     0.031 C 
ATOM     17  C   UNL A   1      42.703  25.121  26.858  1.00  0.00     0.029 A 
ATOM     18  N   UNL A   1      43.956  26.947  27.167  1.00  0.00    -0.354 N 
ATOM     19  C   UNL A   1      48.177  26.876  25.960  1.00  0.00     0.074 A 
ATOM     20  C   UNL A   1      48.501  25.611  25.339  1.00  0.00     0.031 C 
ATOM     21  C   UNL A   1      41.891  26.095  27.299  1.00  0.00     0.029 A 
ATOM     22  C   UNL A   1      42.687  27.287  27.567  1.00  0.00     0.049 A 
ATOM     23  H   UNL A   1      44.714  27.576  27.183  1.00  0.00     0.167 HD
ATOM     24  C   UNL A   1      49.031  27.917  26.083  1.00  0.00     0.037 A 
ATOM     25  C   UNL A   1      42.242  28.428  28.124  1.00  0.00     0.037 A 
ATOM     26  C   UNL A   1      48.670  29.156  26.714  1.00  0.00     0.049 A 
ATOM     27  C   UNL A   1      43.241  29.533  28.344  1.00  0.00     0.074 A 
ATOM     28  C   UNL A   1      49.456  30.262  26.972  1.00  0.00     0.029 A 
ATOM     29  N   UNL A   1      47.394  29.447  27.188  1.00  0.00    -0.354 N 
ATOM     30  N   UNL A   1      44.508  29.581  28.003  1.00  0.00    -0.248 NA
ATOM     31  C   UNL A   1      42.758  30.732  29.038  1.00  0.00     0.031 C 
ATOM     32  C   UNL A   1      48.667  31.203  27.644  1.00  0.00     0.029 A 
ATOM     33  C   UNL A   1      47.376  30.708  27.755  1.00  0.00     0.049 A 
ATOM     34  H   UNL A   1      46.619  28.843  27.128  1.00  0.00     0.167 HD
ATOM     35  C   UNL A   1      44.972  30.817  28.426  1.00  0.00     0.074 A 
ATOM     36  C   UNL A   1      43.842  31.496  29.030  1.00  0.00     0.031 C 
ATOM     37  C   UNL A   1      46.220  31.344  28.336  1.00  0.00     0.037 A 
BRANCH  24  38
ATOM     38  C   UNL A   1      50.436  27.704  25.605  1.00  0.00     0.064 A 
ATOM     39  C   UNL A   1      51.492  27.431  26.487  1.00  0.00     0.173 A 
ATOM     40  C   UNL A   1      50.738  27.825  24.240  1.00  0.00     0.173 A 
ATOM     41  F   UNL A   1      51.264  27.338  27.805  1.00  0.00    -0.203 F 
ATOM     42  C   UNL A   1      52.803  27.323  26.025  1.00  0.00     0.198 A 
ATOM     43  C   UNL A   1      52.044  27.689  23.778  1.00  0.00     0.198 A 
ATOM     44  F   UNL A   1      49.767  28.095  23.354  1.00  0.00    -0.203 F 
ATOM     45  F   UNL A   1      53.805  27.129  26.894  1.00  0.00    -0.200 F 
ATOM     46  C   UNL A   1      53.076  27.448  24.671  1.00  0.00     0.200 A 
ATOM     47  F   UNL A   1      52.306  27.809  22.468  1.00  0.00    -0.200 F 
ATOM     48  F   UNL A   1      54.338  27.356  24.229  1.00  0.00    -0.200 F 
ENDBRANCH  24  38
BRANCH  25  49
ATOM     49  C   UNL A   1      40.823  28.554  28.556  1.00  0.00     0.064 A 
ATOM     50  C   UNL A   1      39.833  29.026  27.684  1.00  0.00     0.173 A 
ATOM     51  C   UNL A   1      40.429  28.214  29.860  1.00  0.00     0.173 A 
ATOM     52  F   UNL A   1      40.158  29.387  26.434  1.00  0.00    -0.203 F 
ATOM     53  C   UNL A   1      38.510  29.167  28.103  1.00  0.00     0.198 A 
ATOM     54  C   UNL A   1      39.101  28.324  30.268  1.00  0.00     0.198 A 
ATOM     55  F   UNL A   1      41.333  27.760  30.740  1.00  0.00    -0.203 F 
ATOM     56  F   UNL A   1      37.594  29.667  27.263  1.00  0.00    -0.200 F 
ATOM     57  C   UNL A   1      38.143  28.810  29.392  1.00  0.00     0.200 A 
ATOM     58  F   UNL A   1      38.751  27.963  31.511  1.00  0.00    -0.200 F 
ATOM     59  F   UNL A   1      36.872  28.944  29.792  1.00  0.00    -0.200 F 
ENDBRANCH  25  49
BRANCH  37  60
ATOM     60  C   UNL A   1      46.405  32.732  28.872  1.00  0.00     0.064 A 
ATOM     61  C   UNL A   1      46.192  33.862  28.071  1.00  0.00     0.173 A 
ATOM     62  C   UNL A   1      46.746  32.927  30.218  1.00  0.00     0.173 A 
ATOM     63  F   UNL A   1      45.880  33.721  26.774  1.00  0.00    -0.203 F 
ATOM     64  C   UNL A   1      46.336  35.141  28.595  1.00  0.00     0.198 A 
ATOM     65  C   UNL A   1      46.859  34.207  30.746  1.00  0.00     0.198 A 
ATOM     66  F   UNL A   1      46.952  31.873  31.024  1.00  0.00    -0.203 F 
ATOM     67  F   UNL A   1      46.173  36.210  27.803  1.00  0.00    -0.200 F 
ATOM     68  C   UNL A   1      46.659  35.314  29.933  1.00  0.00     0.200 A 
ATOM     69  F   UNL A   1      47.155  34.372  32.042  1.00  0.00    -0.200 F 
ATOM     70  F   UNL A   1      46.786  36.548  30.439  1.00  0.00    -0.200 F 
ENDBRANCH  37  60
ENDBRANCH  11  12
ENDBRANCH   4   6
ENDBRANCH   3   4
ENDBRANCH   2   3
ENDBRANCH   1   2
BRANCH   1  71
ATOM     71  O   UNL A   1      41.542  20.608  25.941  1.00  0.00    -0.374 OA
BRANCH  71  72
ATOM     72  C   UNL A   1      41.740  21.258  27.201  1.00  0.00     0.202 C 
BRANCH  72  73
ATOM     73  C   UNL A   1      40.546  22.182  27.475  1.00  0.00     0.261 C 
BRANCH  73  74
ATOM     74  O   UNL A   1      39.764  22.275  26.276  1.00  0.00    -0.460 OA
BRANCH  74  75
ATOM     75  C   UNL A   1      38.737  23.165  26.334  1.00  0.00     0.338 C 
ATOM     76  O   UNL A   1      38.794  24.351  26.603  1.00  0.00    -0.246 OA
BRANCH  75  77
ATOM     77  C   UNL A   1      37.557  22.486  25.761  1.00  0.00     0.062 A 
ATOM     78  C   UNL A   1      37.687  21.199  25.233  1.00  0.00     0.016 A 
ATOM     79  C   UNL A   1      36.304  23.092  25.822  1.00  0.00     0.044 A 
ATOM     80  C   UNL A   1      36.548  20.478  24.878  1.00  0.00     0.003 A 
ATOM     81  C   UNL A   1      35.172  22.412  25.371  1.00  0.00     0.067 A 
ATOM     82  C   UNL A   1      35.288  21.075  24.970  1.00  0.00     0.028 A 
BRANCH  81  83
ATOM     83  N   UNL A   1      33.987  23.153  25.116  1.00  0.00    -0.221 N 
ATOM     84  N   UNL A   1      32.996  23.023  26.101  1.00  0.00    -0.260 N 
ATOM     85  C   UNL A   1      33.951  24.192  24.191  1.00  0.00     0.249 C 
ATOM     86  C   UNL A   1      32.056  23.961  26.385  1.00  0.00     0.243 C 
ATOM     87  H   UNL A   1      32.981  22.190  26.625  1.00  0.00     0.192 HD
ATOM     88  C   UNL A   1      33.137  25.394  24.615  1.00  0.00     0.097 C 
ATOM     89  O   UNL A   1      34.653  24.243  23.179  1.00  0.00    -0.272 OA
ATOM     90  O   UNL A   1      31.371  23.839  27.395  1.00  0.00    -0.273 OA
ATOM     91  C   UNL A   1      31.843  25.028  25.339  1.00  0.00     0.097 C 
ATOM     92  C   UNL A   1      34.093  26.260  25.456  1.00  0.00     0.041 C 
ATOM     93  C   UNL A   1      31.148  26.258  25.944  1.00  0.00     0.041 C 
ATOM     94  C   UNL A   1      33.412  27.250  26.339  1.00  0.00    -0.030 C 
ATOM     95  C   UNL A   1      32.090  27.255  26.554  1.00  0.00    -0.030 C 
ENDBRANCH  81  83
ENDBRANCH  75  77
ENDBRANCH  74  75
ENDBRANCH  73  74
ENDBRANCH  72  73
ENDBRANCH  71  72
ENDBRANCH   1  71
TORSDOF 15
ENDMDL
MODEL 3
REMARK VINA RESULT:     -12.0      4.074      9.526
REMARK SMILES O=C(OCCOCCOC(=O)c1cccc(N2NC(=O)[C@H]3CC=CC[C@H]3C2=O)c1)c1ccc(-c2c3nc(c(-c4c(F)c(F)c(F)c(F)c4F)c4ccc([nH]4)c(-c4c(F)c(F)c(F)c(F)c4F)c4nc(c(-c5c(F)c(F)c(F)c(F)c5F)c5ccc2[nH]5)C=C4)C=C3)cc1
REMARK SMILES IDX 5 1 4 2 3 3 2 4 1 5 30 6 31 7 92 8 32 9 91 10 33 11 34 12
REMARK SMILES IDX 35 13 85 14 36 15 90 16 84 17 86 18 37 19 89 20 83 21 82 22
REMARK SMILES IDX 38 24 70 25 50 26 69 27 51 28 54 29 68 30 87 31 52 32 53 33
REMARK SMILES IDX 67 35 88 36 55 37 39 38 40 39 48 40 41 41 42 42 46 43 49 44
REMARK SMILES IDX 43 45 44 46 47 47 45 48 71 49 72 50 80 51 73 52 74 53 78 54
REMARK SMILES IDX 81 55 75 56 76 57 79 58 77 59 56 60 57 61 65 62 58 63 59 64
REMARK SMILES IDX 63 65 66 66 60 67 61 68 64 69 62 70 6 71 7 72 8 73 9 74
REMARK SMILES IDX 10 75 11 76 12 77 13 78 29 79 14 80 16 81 15 82 17 83 18 84
REMARK SMILES IDX 27 85 19 86 26 88 28 89 20 90 21 91 25 92 22 93 24 94 23 95
REMARK H PARENT 86 23 54 34 18 87
REMARK Flexibility Score: inf
ROOT
ATOM      1  C   UNL A   1      33.346  36.969  29.294  1.00  0.00     0.202 C 
ENDROOT
BRANCH   1   2
ATOM      2  C   UNL A   1      33.280  37.354  30.771  1.00  0.00     0.261 C 
BRANCH   2   3
ATOM      3  O   UNL A   1      32.190  36.675  31.411  1.00  0.00    -0.460 OA
BRANCH   3   4
ATOM      4  C   UNL A   1      32.246  35.651  32.292  1.00  0.00     0.338 C 
ATOM      5  O   UNL A   1      31.209  35.301  32.853  1.00  0.00    -0.246 OA
BRANCH   4   6
ATOM      6  C   UNL A   1      33.499  34.906  32.628  1.00  0.00     0.060 A 
ATOM      7  C   UNL A   1      33.570  33.547  32.937  1.00  0.00     0.016 A 
ATOM      8  C   UNL A   1      34.706  35.618  32.518  1.00  0.00     0.016 A 
ATOM      9  C   UNL A   1      34.778  32.915  33.176  1.00  0.00     0.010 A 
ATOM     10  C   UNL A   1      35.934  34.984  32.725  1.00  0.00     0.010 A 
ATOM     11  C   UNL A   1      35.965  33.629  33.065  1.00  0.00    -0.014 A 
BRANCH  11  12
ATOM     12  C   UNL A   1      37.211  32.934  33.420  1.00  0.00     0.031 A 
ATOM     13  C   UNL A   1      37.795  33.181  34.773  1.00  0.00     0.074 A 
ATOM     14  C   UNL A   1      37.701  31.997  32.591  1.00  0.00     0.049 A 
ATOM     15  N   UNL A   1      38.890  32.710  35.302  1.00  0.00    -0.248 NA
ATOM     16  C   UNL A   1      37.025  34.069  35.663  1.00  0.00     0.031 C 
ATOM     17  C   UNL A   1      37.099  31.605  31.314  1.00  0.00     0.029 A 
ATOM     18  N   UNL A   1      38.793  31.181  32.710  1.00  0.00    -0.354 N 
ATOM     19  C   UNL A   1      38.957  33.264  36.572  1.00  0.00     0.074 A 
ATOM     20  C   UNL A   1      37.795  34.107  36.738  1.00  0.00     0.031 C 
ATOM     21  C   UNL A   1      37.820  30.608  30.778  1.00  0.00     0.029 A 
ATOM     22  C   UNL A   1      38.970  30.344  31.636  1.00  0.00     0.049 A 
ATOM     23  H   UNL A   1      39.394  31.192  33.490  1.00  0.00     0.167 HD
ATOM     24  C   UNL A   1      39.920  33.084  37.504  1.00  0.00     0.037 A 
ATOM     25  C   UNL A   1      39.977  29.491  31.370  1.00  0.00     0.037 A 
ATOM     26  C   UNL A   1      41.064  32.240  37.295  1.00  0.00     0.049 A 
ATOM     27  C   UNL A   1      41.088  29.389  32.381  1.00  0.00     0.074 A 
ATOM     28  C   UNL A   1      42.150  32.026  38.122  1.00  0.00     0.029 A 
ATOM     29  N   UNL A   1      41.263  31.463  36.158  1.00  0.00    -0.354 N 
ATOM     30  N   UNL A   1      41.196  29.974  33.552  1.00  0.00    -0.248 NA
ATOM     31  C   UNL A   1      42.222  28.527  32.032  1.00  0.00     0.031 C 
ATOM     32  C   UNL A   1      43.027  31.156  37.465  1.00  0.00     0.029 A 
ATOM     33  C   UNL A   1      42.463  30.783  36.253  1.00  0.00     0.049 A 
ATOM     34  H   UNL A   1      40.640  31.407  35.398  1.00  0.00     0.167 HD
ATOM     35  C   UNL A   1      42.401  29.542  34.086  1.00  0.00     0.074 A 
ATOM     36  C   UNL A   1      42.975  28.627  33.118  1.00  0.00     0.031 C 
ATOM     37  C   UNL A   1      42.988  29.874  35.264  1.00  0.00     0.037 A 
BRANCH  24  38
ATOM     38  C   UNL A   1      39.800  33.881  38.768  1.00  0.00     0.064 A 
ATOM     39  C   UNL A   1      39.039  33.438  39.860  1.00  0.00     0.173 A 
ATOM     40  C   UNL A   1      40.422  35.135  38.868  1.00  0.00     0.173 A 
ATOM     41  F   UNL A   1      38.398  32.262  39.804  1.00  0.00    -0.203 F 
ATOM     42  C   UNL A   1      38.875  34.238  40.990  1.00  0.00     0.198 A 
ATOM     43  C   UNL A   1      40.278  35.920  40.009  1.00  0.00     0.198 A 
ATOM     44  F   UNL A   1      41.154  35.610  37.849  1.00  0.00    -0.203 F 
ATOM     45  F   UNL A   1      38.087  33.824  41.993  1.00  0.00    -0.200 F 
ATOM     46  C   UNL A   1      39.497  35.476  41.064  1.00  0.00     0.200 A 
ATOM     47  F   UNL A   1      40.882  37.115  40.079  1.00  0.00    -0.200 F 
ATOM     48  F   UNL A   1      39.328  36.248  42.146  1.00  0.00    -0.200 F 
ENDBRANCH  24  38
BRANCH  25  49
ATOM     49  C   UNL A   1      40.004  28.730  30.093  1.00  0.00     0.064 A 
ATOM     50  C   UNL A   1      40.613  29.251  28.944  1.00  0.00     0.173 A 
ATOM     51  C   UNL A   1      39.407  27.462  29.991  1.00  0.00     0.173 A 
ATOM     52  F   UNL A   1      41.177  30.467  28.978  1.00  0.00    -0.203 F 
ATOM     53  C   UNL A   1      40.611  28.544  27.741  1.00  0.00     0.198 A 
ATOM     54  C   UNL A   1      39.434  26.742  28.798  1.00  0.00     0.198 A 
ATOM     55  F   UNL A   1      38.805  26.913  31.056  1.00  0.00    -0.203 F 
ATOM     56  F   UNL A   1      41.158  29.088  26.646  1.00  0.00    -0.200 F 
ATOM     57  C   UNL A   1      40.027  27.287  27.671  1.00  0.00     0.200 A 
ATOM     58  F   UNL A   1      38.881  25.522  28.741  1.00  0.00    -0.200 F 
ATOM     59  F   UNL A   1      40.028  26.608  26.516  1.00  0.00    -0.200 F 
ENDBRANCH  25  49
BRANCH  37  60
ATOM     60  C   UNL A   1      44.297  29.214  35.573  1.00  0.00     0.064 A 
ATOM     61  C   UNL A   1      45.518  29.800  35.211  1.00  0.00     0.173 A 
ATOM     62  C   UNL A   1      44.326  28.007  36.288  1.00  0.00     0.173 A 
ATOM     63  F   UNL A   1      45.536  30.945  34.513  1.00  0.00    -0.203 F 
ATOM     64  C   UNL A   1      46.723  29.189  35.536  1.00  0.00     0.198 A 
ATOM     65  C   UNL A   1      45.534  27.416  36.638  1.00  0.00     0.198 A 
ATOM     66  F   UNL A   1      43.181  27.415  36.661  1.00  0.00    -0.203 F 
ATOM     67  F   UNL A   1      47.879  29.740  35.142  1.00  0.00    -0.200 F 
ATOM     68  C   UNL A   1      46.731  28.003  36.257  1.00  0.00     0.200 A 
ATOM     69  F   UNL A   1      45.540  26.279  37.348  1.00  0.00    -0.200 F 
ATOM     70  F   UNL A   1      47.895  27.422  36.579  1.00  0.00    -0.200 F 
ENDBRANCH  37  60
ENDBRANCH  11  12
ENDBRANCH   4   6
ENDBRANCH   3   4
ENDBRANCH   2   3
ENDBRANCH   1   2
BRANCH   1  71
ATOM     71  O   UNL A   1      32.319  36.075  28.869  1.00  0.00    -0.374 OA
BRANCH  71  72
ATOM     72  C   UNL A   1      32.744  34.786  28.414  1.00  0.00     0.202 C 
BRANCH  72  73
ATOM     73  C   UNL A   1      34.064  34.424  29.109  1.00  0.00     0.261 C 
BRANCH  73  74
ATOM     74  O   UNL A   1      34.293  33.019  28.938  1.00  0.00    -0.460 OA
BRANCH  74  75
ATOM     75  C   UNL A   1      35.359  32.707  28.154  1.00  0.00     0.338 C 
ATOM     76  O   UNL A   1      36.384  33.346  28.002  1.00  0.00    -0.246 OA
BRANCH  75  77
ATOM     77  C   UNL A   1      35.159  31.314  27.704  1.00  0.00     0.062 A 
ATOM     78  C   UNL A   1      36.233  30.420  27.723  1.00  0.00     0.016 A 
ATOM     79  C   UNL A   1      33.890  30.872  27.340  1.00  0.00     0.044 A 
ATOM     80  C   UNL A   1      36.008  29.063  27.494  1.00  0.00     0.003 A 
ATOM     81  C   UNL A   1      33.680  29.533  27.009  1.00  0.00     0.067 A 
ATOM     82  C   UNL A   1      34.727  28.615  27.161  1.00  0.00     0.028 A 
BRANCH  81  83
ATOM     83  N   UNL A   1      32.491  29.179  26.317  1.00  0.00    -0.221 N 
ATOM     84  N   UNL A   1      32.461  29.577  24.971  1.00  0.00    -0.260 N 
ATOM     85  C   UNL A   1      31.612  28.214  26.803  1.00  0.00     0.249 C 
ATOM     86  C   UNL A   1      31.756  28.951  23.993  1.00  0.00     0.243 C 
ATOM     87  H   UNL A   1      32.991  30.367  24.718  1.00  0.00     0.192 HD
ATOM     88  C   UNL A   1      31.028  27.298  25.750  1.00  0.00     0.097 C 
ATOM     89  O   UNL A   1      31.436  27.979  27.999  1.00  0.00    -0.272 OA
ATOM     90  O   UNL A   1      31.960  29.251  22.820  1.00  0.00    -0.273 OA
ATOM     91  C   UNL A   1      30.666  28.015  24.453  1.00  0.00     0.097 C 
ATOM     92  C   UNL A   1      32.064  26.172  25.568  1.00  0.00     0.041 C 
ATOM     93  C   UNL A   1      30.279  27.034  23.335  1.00  0.00     0.041 C 
ATOM     94  C   UNL A   1      31.926  25.411  24.293  1.00  0.00    -0.030 C 
ATOM     95  C   UNL A   1      31.121  25.791  23.294  1.00  0.00    -0.030 C 
ENDBRANCH  81  83
ENDBRANCH  75  77
ENDBRANCH  74  75
ENDBRANCH  73  74
ENDBRANCH  72  73
ENDBRANCH  71  72
ENDBRANCH   1  71
TORSDOF 15
ENDMDL
