MODEL 1
REMARK VINA RESULT:     -11.1      0.000      0.000
REMARK SMILES CC[C@@](O)(C(=O)OCCOCCOC(=O)c1ccc(-c2c3nc(c(-c4c(F)c(F)c(F)c(F)c4F)c4ccc([nH]4)c(-c4c(F)c(F)c(F)c(F)c4F)c4nc(c(-c5c(F)c(F)c(F)c(F)c5F)c5ccc2[nH]5)C=C4)C=C3)cc1)[C@@H](C)c1ccc(OC(C)C)cc1
REMARK SMILES IDX 9 1 8 2 7 3 5 4 6 5 3 6 2 7 1 8 4 9 79 11 80 12 81 13 82 14
REMARK SMILES IDX 90 15 83 16 89 17 84 18 85 19 86 20 87 21 88 22 10 23 11 24
REMARK SMILES IDX 12 25 13 26 14 27 15 28 16 29 17 30 78 31 18 32 77 33 19 34
REMARK SMILES IDX 20 35 21 36 71 37 22 38 76 39 70 40 72 41 23 42 75 43 69 44
REMARK SMILES IDX 68 45 24 47 56 48 36 49 55 50 37 51 40 52 54 53 73 54 38 55
REMARK SMILES IDX 39 56 53 58 74 59 41 60 25 61 26 62 34 63 27 64 28 65 32 66
REMARK SMILES IDX 35 67 29 68 30 69 33 70 31 71 57 72 58 73 66 74 59 75 60 76
REMARK SMILES IDX 64 77 67 78 61 79 62 80 65 81 63 82 42 83 43 84 51 85 44 86
REMARK SMILES IDX 45 87 49 88 52 89 46 90 47 91 50 92 48 93
REMARK H PARENT 4 10 72 46 40 57
REMARK Flexibility Score: inf
ROOT
ATOM      1  C   UNL A   1      33.285  28.960  24.143  1.00  0.00     0.202 C 
ENDROOT
BRANCH   1   2
ATOM      2  C   UNL A   1      32.973  27.907  23.077  1.00  0.00     0.261 C 
BRANCH   2   3
ATOM      3  O   UNL A   1      33.518  26.638  23.480  1.00  0.00    -0.461 OA
BRANCH   3   4
ATOM      4  C   UNL A   1      33.338  25.596  22.621  1.00  0.00     0.338 C 
ATOM      5  O   UNL A   1      33.653  25.629  21.436  1.00  0.00    -0.249 OA
BRANCH   4   6
ATOM      6  C   UNL A   1      32.713  24.350  23.320  1.00  0.00     0.168 C 
BRANCH   6   7
ATOM      7  C   UNL A   1      32.236  24.652  24.772  1.00  0.00     0.044 C 
ATOM      8  C   UNL A   1      30.902  24.065  25.228  1.00  0.00     0.007 C 
ENDBRANCH   6   7
BRANCH   6   9
ATOM      9  O   UNL A   1      31.542  24.095  22.515  1.00  0.00    -0.378 OA
ATOM     10  H   UNL A   1      31.808  23.671  21.684  1.00  0.00     0.212 HD
ENDBRANCH   6   9
BRANCH   6  11
ATOM     11  C   UNL A   1      33.774  23.185  23.166  1.00  0.00     0.059 C 
ATOM     12  C   UNL A   1      35.161  23.544  23.733  1.00  0.00     0.016 C 
BRANCH  11  13
ATOM     13  C   UNL A   1      33.284  21.830  23.662  1.00  0.00    -0.041 A 
ATOM     14  C   UNL A   1      33.677  21.387  24.932  1.00  0.00     0.008 A 
ATOM     15  C   UNL A   1      32.472  20.988  22.894  1.00  0.00     0.008 A 
ATOM     16  C   UNL A   1      33.360  20.099  25.365  1.00  0.00     0.047 A 
ATOM     17  C   UNL A   1      32.151  19.702  23.337  1.00  0.00     0.047 A 
ATOM     18  C   UNL A   1      32.620  19.234  24.557  1.00  0.00     0.119 A 
BRANCH  18  19
ATOM     19  O   UNL A   1      32.452  17.992  25.084  1.00  0.00    -0.491 OA
BRANCH  19  20
ATOM     20  C   UNL A   1      33.375  16.919  24.876  1.00  0.00     0.167 C 
ATOM     21  C   UNL A   1      32.850  15.576  25.369  1.00  0.00     0.052 C 
ATOM     22  C   UNL A   1      34.004  16.898  23.483  1.00  0.00     0.052 C 
ENDBRANCH  19  20
ENDBRANCH  18  19
ENDBRANCH  11  13
ENDBRANCH   6  11
ENDBRANCH   4   6
ENDBRANCH   3   4
ENDBRANCH   2   3
ENDBRANCH   1   2
BRANCH   1  23
ATOM     23  O   UNL A   1      32.399  28.987  25.266  1.00  0.00    -0.374 OA
BRANCH  23  24
ATOM     24  C   UNL A   1      31.450  30.049  25.315  1.00  0.00     0.202 C 
BRANCH  24  25
ATOM     25  C   UNL A   1      31.693  31.131  26.373  1.00  0.00     0.261 C 
BRANCH  25  26
ATOM     26  O   UNL A   1      32.794  30.796  27.232  1.00  0.00    -0.460 OA
BRANCH  26  27
ATOM     27  C   UNL A   1      33.596  31.841  27.536  1.00  0.00     0.338 C 
ATOM     28  O   UNL A   1      33.278  33.019  27.636  1.00  0.00    -0.246 OA
BRANCH  27  29
ATOM     29  C   UNL A   1      34.932  31.356  27.922  1.00  0.00     0.060 A 
ATOM     30  C   UNL A   1      35.043  30.002  28.263  1.00  0.00     0.016 A 
ATOM     31  C   UNL A   1      36.035  32.207  28.010  1.00  0.00     0.016 A 
ATOM     32  C   UNL A   1      36.244  29.505  28.755  1.00  0.00     0.010 A 
ATOM     33  C   UNL A   1      37.240  31.708  28.515  1.00  0.00     0.010 A 
ATOM     34  C   UNL A   1      37.335  30.367  28.928  1.00  0.00    -0.014 A 
BRANCH  34  35
ATOM     35  C   UNL A   1      38.505  29.894  29.703  1.00  0.00     0.031 A 
ATOM     36  C   UNL A   1      38.704  30.416  31.099  1.00  0.00     0.074 A 
ATOM     37  C   UNL A   1      39.340  28.972  29.195  1.00  0.00     0.049 A 
ATOM     38  N   UNL A   1      39.650  30.145  31.961  1.00  0.00    -0.248 NA
ATOM     39  C   UNL A   1      37.698  31.372  31.588  1.00  0.00     0.031 C 
ATOM     40  C   UNL A   1      39.219  28.362  27.873  1.00  0.00     0.029 A 
ATOM     41  N   UNL A   1      40.456  28.387  29.737  1.00  0.00    -0.354 N 
ATOM     42  C   UNL A   1      39.352  30.894  33.093  1.00  0.00     0.074 A 
ATOM     43  C   UNL A   1      38.159  31.656  32.797  1.00  0.00     0.031 C 
ATOM     44  C   UNL A   1      40.231  27.494  27.701  1.00  0.00     0.029 A 
ATOM     45  C   UNL A   1      41.081  27.508  28.890  1.00  0.00     0.049 A 
ATOM     46  H   UNL A   1      40.778  28.581  30.648  1.00  0.00     0.167 HD
ATOM     47  C   UNL A   1      40.009  30.931  34.275  1.00  0.00     0.037 A 
ATOM     48  C   UNL A   1      42.222  26.811  29.052  1.00  0.00     0.037 A 
ATOM     49  C   UNL A   1      41.196  30.172  34.564  1.00  0.00     0.049 A 
ATOM     50  C   UNL A   1      42.974  26.922  30.354  1.00  0.00     0.074 A 
ATOM     51  C   UNL A   1      41.937  30.137  35.733  1.00  0.00     0.029 A 
ATOM     52  N   UNL A   1      41.821  29.317  33.668  1.00  0.00    -0.354 N 
ATOM     53  N   UNL A   1      42.678  27.619  31.424  1.00  0.00    -0.248 NA
ATOM     54  C   UNL A   1      44.215  26.145  30.471  1.00  0.00     0.031 C 
ATOM     55  C   UNL A   1      43.035  29.295  35.528  1.00  0.00     0.029 A 
ATOM     56  C   UNL A   1      42.951  28.766  34.249  1.00  0.00     0.049 A 
ATOM     57  H   UNL A   1      41.507  29.130  32.753  1.00  0.00     0.167 HD
ATOM     58  C   UNL A   1      43.679  27.346  32.348  1.00  0.00     0.074 A 
ATOM     59  C   UNL A   1      44.583  26.409  31.716  1.00  0.00     0.031 C 
ATOM     60  C   UNL A   1      43.835  27.829  33.605  1.00  0.00     0.037 A 
BRANCH  47  61
ATOM     61  C   UNL A   1      39.467  31.840  35.339  1.00  0.00     0.064 A 
ATOM     62  C   UNL A   1      39.840  33.190  35.415  1.00  0.00     0.173 A 
ATOM     63  C   UNL A   1      38.541  31.361  36.279  1.00  0.00     0.173 A 
ATOM     64  F   UNL A   1      40.734  33.692  34.551  1.00  0.00    -0.203 F 
ATOM     65  C   UNL A   1      39.324  34.022  36.406  1.00  0.00     0.198 A 
ATOM     66  C   UNL A   1      38.006  32.201  37.251  1.00  0.00     0.198 A 
ATOM     67  F   UNL A   1      38.151  30.078  36.250  1.00  0.00    -0.203 F 
ATOM     68  F   UNL A   1      39.728  35.296  36.486  1.00  0.00    -0.200 F 
ATOM     69  C   UNL A   1      38.403  33.529  37.318  1.00  0.00     0.200 A 
ATOM     70  F   UNL A   1      37.109  31.726  38.126  1.00  0.00    -0.200 F 
ATOM     71  F   UNL A   1      37.902  34.332  38.267  1.00  0.00    -0.200 F 
ENDBRANCH  47  61
BRANCH  48  72
ATOM     72  C   UNL A   1      42.729  25.954  27.949  1.00  0.00     0.064 A 
ATOM     73  C   UNL A   1      43.599  26.461  26.975  1.00  0.00     0.173 A 
ATOM     74  C   UNL A   1      42.343  24.609  27.843  1.00  0.00     0.173 A 
ATOM     75  F   UNL A   1      43.977  27.747  27.020  1.00  0.00    -0.203 F 
ATOM     76  C   UNL A   1      44.051  25.661  25.927  1.00  0.00     0.198 A 
ATOM     77  C   UNL A   1      42.815  23.803  26.811  1.00  0.00     0.198 A 
ATOM     78  F   UNL A   1      41.509  24.076  28.749  1.00  0.00    -0.203 F 
ATOM     79  F   UNL A   1      44.846  26.182  24.984  1.00  0.00    -0.200 F 
ATOM     80  C   UNL A   1      43.663  24.331  25.849  1.00  0.00     0.200 A 
ATOM     81  F   UNL A   1      42.447  22.516  26.746  1.00  0.00    -0.200 F 
ATOM     82  F   UNL A   1      44.100  23.562  24.843  1.00  0.00    -0.200 F 
ENDBRANCH  48  72
BRANCH  60  83
ATOM     83  C   UNL A   1      45.010  27.327  34.395  1.00  0.00     0.064 A 
ATOM     84  C   UNL A   1      46.241  27.998  34.387  1.00  0.00     0.173 A 
ATOM     85  C   UNL A   1      44.886  26.188  35.205  1.00  0.00     0.173 A 
ATOM     86  F   UNL A   1      46.414  29.084  33.619  1.00  0.00    -0.203 F 
ATOM     87  C   UNL A   1      47.313  27.531  35.143  1.00  0.00     0.198 A 
ATOM     88  C   UNL A   1      45.951  25.742  35.980  1.00  0.00     0.198 A 
ATOM     89  F   UNL A   1      43.726  25.516  35.253  1.00  0.00    -0.203 F 
ATOM     90  F   UNL A   1      48.495  28.162  35.087  1.00  0.00    -0.200 F 
ATOM     91  C   UNL A   1      47.166  26.409  35.944  1.00  0.00     0.200 A 
ATOM     92  F   UNL A   1      45.801  24.665  36.766  1.00  0.00    -0.200 F 
ATOM     93  F   UNL A   1      48.197  25.967  36.678  1.00  0.00    -0.200 F 
ENDBRANCH  60  83
ENDBRANCH  34  35
ENDBRANCH  27  29
ENDBRANCH  26  27
ENDBRANCH  25  26
ENDBRANCH  24  25
ENDBRANCH  23  24
ENDBRANCH   1  23
TORSDOF 20
ENDMDL
MODEL 2
REMARK VINA RESULT:     -11.0      0.251      1.991
REMARK SMILES CC[C@@](O)(C(=O)OCCOCCOC(=O)c1ccc(-c2c3nc(c(-c4c(F)c(F)c(F)c(F)c4F)c4ccc([nH]4)c(-c4c(F)c(F)c(F)c(F)c4F)c4nc(c(-c5c(F)c(F)c(F)c(F)c5F)c5ccc2[nH]5)C=C4)C=C3)cc1)[C@@H](C)c1ccc(OC(C)C)cc1
REMARK SMILES IDX 9 1 8 2 7 3 5 4 6 5 3 6 2 7 1 8 4 9 79 11 80 12 81 13 82 14
REMARK SMILES IDX 90 15 83 16 89 17 84 18 85 19 86 20 87 21 88 22 10 23 11 24
REMARK SMILES IDX 12 25 13 26 14 27 15 28 16 29 17 30 78 31 18 32 77 33 19 34
REMARK SMILES IDX 20 35 21 36 71 37 22 38 76 39 70 40 72 41 23 42 75 43 69 44
REMARK SMILES IDX 68 45 24 47 56 48 36 49 55 50 37 51 40 52 54 53 73 54 38 55
REMARK SMILES IDX 39 56 53 58 74 59 41 60 25 61 26 62 34 63 27 64 28 65 32 66
REMARK SMILES IDX 35 67 29 68 30 69 33 70 31 71 57 72 58 73 66 74 59 75 60 76
REMARK SMILES IDX 64 77 67 78 61 79 62 80 65 81 63 82 42 83 43 84 51 85 44 86
REMARK SMILES IDX 45 87 49 88 52 89 46 90 47 91 50 92 48 93
REMARK H PARENT 4 10 72 46 40 57
REMARK Flexibility Score: inf
ROOT
ATOM      1  C   UNL A   1      33.331  29.026  24.134  1.00  0.00     0.202 C 
ENDROOT
BRANCH   1   2
ATOM      2  C   UNL A   1      33.071  28.032  22.999  1.00  0.00     0.261 C 
BRANCH   2   3
ATOM      3  O   UNL A   1      33.630  26.752  23.341  1.00  0.00    -0.461 OA
BRANCH   3   4
ATOM      4  C   UNL A   1      33.338  25.716  22.507  1.00  0.00     0.338 C 
ATOM      5  O   UNL A   1      33.504  25.753  21.292  1.00  0.00    -0.249 OA
BRANCH   4   6
ATOM      6  C   UNL A   1      32.798  24.469  23.273  1.00  0.00     0.168 C 
BRANCH   6   7
ATOM      7  C   UNL A   1      32.306  24.813  24.710  1.00  0.00     0.044 C 
ATOM      8  C   UNL A   1      31.319  23.861  25.380  1.00  0.00     0.007 C 
ENDBRANCH   6   7
BRANCH   6   9
ATOM      9  O   UNL A   1      31.645  24.097  22.488  1.00  0.00    -0.378 OA
ATOM     10  H   UNL A   1      31.730  24.464  21.594  1.00  0.00     0.212 HD
ENDBRANCH   6   9
BRANCH   6  11
ATOM     11  C   UNL A   1      33.933  23.369  23.172  1.00  0.00     0.059 C 
ATOM     12  C   UNL A   1      35.302  23.856  23.685  1.00  0.00     0.016 C 
BRANCH  11  13
ATOM     13  C   UNL A   1      33.544  22.021  23.765  1.00  0.00    -0.041 A 
ATOM     14  C   UNL A   1      34.255  21.532  24.870  1.00  0.00     0.008 A 
ATOM     15  C   UNL A   1      32.517  21.228  23.242  1.00  0.00     0.008 A 
ATOM     16  C   UNL A   1      34.016  20.246  25.355  1.00  0.00     0.047 A 
ATOM     17  C   UNL A   1      32.278  19.943  23.738  1.00  0.00     0.047 A 
ATOM     18  C   UNL A   1      33.047  19.428  24.773  1.00  0.00     0.119 A 
BRANCH  18  19
ATOM     19  O   UNL A   1      32.980  18.181  25.308  1.00  0.00    -0.491 OA
BRANCH  19  20
ATOM     20  C   UNL A   1      32.868  16.993  24.519  1.00  0.00     0.167 C 
ATOM     21  C   UNL A   1      34.005  16.833  23.516  1.00  0.00     0.052 C 
ATOM     22  C   UNL A   1      32.532  15.738  25.324  1.00  0.00     0.052 C 
ENDBRANCH  19  20
ENDBRANCH  18  19
ENDBRANCH  11  13
ENDBRANCH   6  11
ENDBRANCH   4   6
ENDBRANCH   3   4
ENDBRANCH   2   3
ENDBRANCH   1   2
BRANCH   1  23
ATOM     23  O   UNL A   1      32.410  28.974  25.228  1.00  0.00    -0.374 OA
BRANCH  23  24
ATOM     24  C   UNL A   1      31.429  30.005  25.295  1.00  0.00     0.202 C 
BRANCH  24  25
ATOM     25  C   UNL A   1      31.629  31.063  26.386  1.00  0.00     0.261 C 
BRANCH  25  26
ATOM     26  O   UNL A   1      32.748  30.751  27.230  1.00  0.00    -0.460 OA
BRANCH  26  27
ATOM     27  C   UNL A   1      33.519  31.816  27.543  1.00  0.00     0.338 C 
ATOM     28  O   UNL A   1      33.166  32.983  27.657  1.00  0.00    -0.246 OA
BRANCH  27  29
ATOM     29  C   UNL A   1      34.870  31.368  27.918  1.00  0.00     0.060 A 
ATOM     30  C   UNL A   1      35.056  29.992  28.103  1.00  0.00     0.016 A 
ATOM     31  C   UNL A   1      35.915  32.266  28.144  1.00  0.00     0.016 A 
ATOM     32  C   UNL A   1      36.271  29.512  28.577  1.00  0.00     0.010 A 
ATOM     33  C   UNL A   1      37.134  31.783  28.631  1.00  0.00     0.010 A 
ATOM     34  C   UNL A   1      37.300  30.410  28.888  1.00  0.00    -0.014 A 
BRANCH  34  35
ATOM     35  C   UNL A   1      38.474  29.918  29.645  1.00  0.00     0.031 A 
ATOM     36  C   UNL A   1      38.695  30.425  31.043  1.00  0.00     0.074 A 
ATOM     37  C   UNL A   1      39.294  28.992  29.119  1.00  0.00     0.049 A 
ATOM     38  N   UNL A   1      39.649  30.137  31.892  1.00  0.00    -0.248 NA
ATOM     39  C   UNL A   1      37.705  31.387  31.553  1.00  0.00     0.031 C 
ATOM     40  C   UNL A   1      39.151  28.395  27.793  1.00  0.00     0.029 A 
ATOM     41  N   UNL A   1      40.410  28.391  29.643  1.00  0.00    -0.354 N 
ATOM     42  C   UNL A   1      39.372  30.878  33.034  1.00  0.00     0.074 A 
ATOM     43  C   UNL A   1      38.184  31.656  32.759  1.00  0.00     0.031 C 
ATOM     44  C   UNL A   1      40.151  27.518  27.602  1.00  0.00     0.029 A 
ATOM     45  C   UNL A   1      41.015  27.513  28.780  1.00  0.00     0.049 A 
ATOM     46  H   UNL A   1      40.745  28.573  30.552  1.00  0.00     0.167 HD
ATOM     47  C   UNL A   1      40.043  30.898  34.208  1.00  0.00     0.037 A 
ATOM     48  C   UNL A   1      42.151  26.802  28.923  1.00  0.00     0.037 A 
ATOM     49  C   UNL A   1      41.226  30.125  34.476  1.00  0.00     0.049 A 
ATOM     50  C   UNL A   1      42.919  26.895  30.216  1.00  0.00     0.074 A 
ATOM     51  C   UNL A   1      41.980  30.072  35.635  1.00  0.00     0.029 A 
ATOM     52  N   UNL A   1      41.831  29.272  33.565  1.00  0.00    -0.354 N 
ATOM     53  N   UNL A   1      42.644  27.585  31.296  1.00  0.00    -0.248 NA
ATOM     54  C   UNL A   1      44.154  26.103  30.311  1.00  0.00     0.031 C 
ATOM     55  C   UNL A   1      43.068  29.220  35.410  1.00  0.00     0.029 A 
ATOM     56  C   UNL A   1      42.962  28.703  34.127  1.00  0.00     0.049 A 
ATOM     57  H   UNL A   1      41.505  29.095  32.653  1.00  0.00     0.167 HD
ATOM     58  C   UNL A   1      43.653  27.294  32.205  1.00  0.00     0.074 A 
ATOM     59  C   UNL A   1      44.539  26.352  31.555  1.00  0.00     0.031 C 
ATOM     60  C   UNL A   1      43.829  27.763  33.465  1.00  0.00     0.037 A 
BRANCH  47  61
ATOM     61  C   UNL A   1      39.524  31.803  35.287  1.00  0.00     0.064 A 
ATOM     62  C   UNL A   1      38.615  31.351  36.254  1.00  0.00     0.173 A 
ATOM     63  C   UNL A   1      39.962  33.134  35.369  1.00  0.00     0.173 A 
ATOM     64  F   UNL A   1      38.153  30.093  36.210  1.00  0.00    -0.203 F 
ATOM     65  C   UNL A   1      38.147  32.203  37.252  1.00  0.00     0.198 A 
ATOM     66  C   UNL A   1      39.514  33.975  36.383  1.00  0.00     0.198 A 
ATOM     67  F   UNL A   1      40.831  33.616  34.468  1.00  0.00    -0.203 F 
ATOM     68  F   UNL A   1      37.246  31.761  38.139  1.00  0.00    -0.200 F 
ATOM     69  C   UNL A   1      38.602  33.511  37.319  1.00  0.00     0.200 A 
ATOM     70  F   UNL A   1      39.961  35.237  36.452  1.00  0.00    -0.200 F 
ATOM     71  F   UNL A   1      38.156  34.329  38.284  1.00  0.00    -0.200 F 
ENDBRANCH  47  61
BRANCH  48  72
ATOM     72  C   UNL A   1      42.636  25.950  27.806  1.00  0.00     0.064 A 
ATOM     73  C   UNL A   1      42.153  24.648  27.623  1.00  0.00     0.173 A 
ATOM     74  C   UNL A   1      43.605  26.421  26.907  1.00  0.00     0.173 A 
ATOM     75  F   UNL A   1      41.246  24.144  28.472  1.00  0.00    -0.203 F 
ATOM     76  C   UNL A   1      42.631  23.842  26.590  1.00  0.00     0.198 A 
ATOM     77  C   UNL A   1      44.062  25.624  25.860  1.00  0.00     0.198 A 
ATOM     78  F   UNL A   1      44.101  27.659  27.042  1.00  0.00    -0.203 F 
ATOM     79  F   UNL A   1      42.186  22.586  26.464  1.00  0.00    -0.200 F 
ATOM     80  C   UNL A   1      43.581  24.333  25.707  1.00  0.00     0.200 A 
ATOM     81  F   UNL A   1      44.972  26.107  25.002  1.00  0.00    -0.200 F 
ATOM     82  F   UNL A   1      44.038  23.559  24.713  1.00  0.00    -0.200 F 
ENDBRANCH  48  72
BRANCH  60  83
ATOM     83  C   UNL A   1      45.008  27.242  34.236  1.00  0.00     0.064 A 
ATOM     84  C   UNL A   1      44.926  26.069  34.999  1.00  0.00     0.173 A 
ATOM     85  C   UNL A   1      46.245  27.901  34.172  1.00  0.00     0.173 A 
ATOM     86  F   UNL A   1      43.762  25.410  35.102  1.00  0.00    -0.203 F 
ATOM     87  C   UNL A   1      46.034  25.587  35.690  1.00  0.00     0.198 A 
ATOM     88  C   UNL A   1      47.358  27.401  34.841  1.00  0.00     0.198 A 
ATOM     89  F   UNL A   1      46.377  29.023  33.449  1.00  0.00    -0.203 F 
ATOM     90  F   UNL A   1      45.923  24.488  36.449  1.00  0.00    -0.200 F 
ATOM     91  C   UNL A   1      47.250  26.248  35.604  1.00  0.00     0.200 A 
ATOM     92  F   UNL A   1      48.536  28.033  34.745  1.00  0.00    -0.200 F 
ATOM     93  F   UNL A   1      48.319  25.779  36.264  1.00  0.00    -0.200 F 
ENDBRANCH  60  83
ENDBRANCH  34  35
ENDBRANCH  27  29
ENDBRANCH  26  27
ENDBRANCH  25  26
ENDBRANCH  24  25
ENDBRANCH  23  24
ENDBRANCH   1  23
TORSDOF 20
ENDMDL
MODEL 3
REMARK VINA RESULT:     -10.9      2.292      4.471
REMARK SMILES CC[C@@](O)(C(=O)OCCOCCOC(=O)c1ccc(-c2c3nc(c(-c4c(F)c(F)c(F)c(F)c4F)c4ccc([nH]4)c(-c4c(F)c(F)c(F)c(F)c4F)c4nc(c(-c5c(F)c(F)c(F)c(F)c5F)c5ccc2[nH]5)C=C4)C=C3)cc1)[C@@H](C)c1ccc(OC(C)C)cc1
REMARK SMILES IDX 9 1 8 2 7 3 5 4 6 5 3 6 2 7 1 8 4 9 79 11 80 12 81 13 82 14
REMARK SMILES IDX 90 15 83 16 89 17 84 18 85 19 86 20 87 21 88 22 10 23 11 24
REMARK SMILES IDX 12 25 13 26 14 27 15 28 16 29 17 30 78 31 18 32 77 33 19 34
REMARK SMILES IDX 20 35 21 36 71 37 22 38 76 39 70 40 72 41 23 42 75 43 69 44
REMARK SMILES IDX 68 45 24 47 56 48 36 49 55 50 37 51 40 52 54 53 73 54 38 55
REMARK SMILES IDX 39 56 53 58 74 59 41 60 25 61 26 62 34 63 27 64 28 65 32 66
REMARK SMILES IDX 35 67 29 68 30 69 33 70 31 71 57 72 58 73 66 74 59 75 60 76
REMARK SMILES IDX 64 77 67 78 61 79 62 80 65 81 63 82 42 83 43 84 51 85 44 86
REMARK SMILES IDX 45 87 49 88 52 89 46 90 47 91 50 92 48 93
REMARK H PARENT 4 10 72 46 40 57
REMARK Flexibility Score: inf
ROOT
ATOM      1  C   UNL A   1      33.315  29.173  25.606  1.00  0.00     0.202 C 
ENDROOT
BRANCH   1   2
ATOM      2  C   UNL A   1      33.361  28.041  26.635  1.00  0.00     0.261 C 
BRANCH   2   3
ATOM      3  O   UNL A   1      32.733  26.867  26.091  1.00  0.00    -0.461 OA
BRANCH   3   4
ATOM      4  C   UNL A   1      31.479  26.583  26.538  1.00  0.00     0.338 C 
ATOM      5  O   UNL A   1      30.857  27.297  27.319  1.00  0.00    -0.249 OA
BRANCH   4   6
ATOM      6  C   UNL A   1      30.911  25.266  25.924  1.00  0.00     0.168 C 
BRANCH   6   7
ATOM      7  C   UNL A   1      31.494  23.989  26.600  1.00  0.00     0.044 C 
ATOM      8  C   UNL A   1      33.006  23.781  26.561  1.00  0.00     0.007 C 
ENDBRANCH   6   7
BRANCH   6   9
ATOM      9  O   UNL A   1      29.510  25.344  26.260  1.00  0.00    -0.378 OA
ATOM     10  H   UNL A   1      29.414  25.566  27.200  1.00  0.00     0.212 HD
ENDBRANCH   6   9
BRANCH   6  11
ATOM     11  C   UNL A   1      31.128  25.384  24.360  1.00  0.00     0.059 C 
ATOM     12  C   UNL A   1      30.708  24.117  23.589  1.00  0.00     0.016 C 
BRANCH  11  13
ATOM     13  C   UNL A   1      30.544  26.650  23.747  1.00  0.00    -0.041 A 
ATOM     14  C   UNL A   1      29.159  26.858  23.803  1.00  0.00     0.008 A 
ATOM     15  C   UNL A   1      31.328  27.614  23.103  1.00  0.00     0.008 A 
ATOM     16  C   UNL A   1      28.575  27.936  23.137  1.00  0.00     0.047 A 
ATOM     17  C   UNL A   1      30.736  28.696  22.444  1.00  0.00     0.047 A 
ATOM     18  C   UNL A   1      29.356  28.847  22.426  1.00  0.00     0.119 A 
BRANCH  18  19
ATOM     19  O   UNL A   1      28.640  29.800  21.772  1.00  0.00    -0.491 OA
BRANCH  19  20
ATOM     20  C   UNL A   1      28.763  31.199  22.044  1.00  0.00     0.167 C 
ATOM     21  C   UNL A   1      28.114  32.073  20.976  1.00  0.00     0.052 C 
ATOM     22  C   UNL A   1      28.436  31.586  23.485  1.00  0.00     0.052 C 
ENDBRANCH  19  20
ENDBRANCH  18  19
ENDBRANCH  11  13
ENDBRANCH   6  11
ENDBRANCH   4   6
ENDBRANCH   3   4
ENDBRANCH   2   3
ENDBRANCH   1   2
BRANCH   1  23
ATOM     23  O   UNL A   1      32.146  29.997  25.641  1.00  0.00    -0.374 OA
BRANCH  23  24
ATOM     24  C   UNL A   1      31.809  30.586  26.894  1.00  0.00     0.202 C 
BRANCH  24  25
ATOM     25  C   UNL A   1      31.812  32.117  26.948  1.00  0.00     0.261 C 
BRANCH  25  26
ATOM     26  O   UNL A   1      33.131  32.653  26.759  1.00  0.00    -0.460 OA
BRANCH  26  27
ATOM     27  C   UNL A   1      33.657  33.230  27.863  1.00  0.00     0.338 C 
ATOM     28  O   UNL A   1      33.128  34.058  28.594  1.00  0.00    -0.246 OA
BRANCH  27  29
ATOM     29  C   UNL A   1      34.938  32.590  28.204  1.00  0.00     0.060 A 
ATOM     30  C   UNL A   1      34.909  31.219  28.489  1.00  0.00     0.016 A 
ATOM     31  C   UNL A   1      36.128  33.315  28.305  1.00  0.00     0.016 A 
ATOM     32  C   UNL A   1      36.057  30.577  28.938  1.00  0.00     0.010 A 
ATOM     33  C   UNL A   1      37.280  32.671  28.767  1.00  0.00     0.010 A 
ATOM     34  C   UNL A   1      37.236  31.311  29.124  1.00  0.00    -0.014 A 
BRANCH  34  35
ATOM     35  C   UNL A   1      38.360  30.684  29.858  1.00  0.00     0.031 A 
ATOM     36  C   UNL A   1      38.576  31.055  31.299  1.00  0.00     0.074 A 
ATOM     37  C   UNL A   1      39.137  29.760  29.269  1.00  0.00     0.049 A 
ATOM     38  N   UNL A   1      39.489  30.636  32.138  1.00  0.00    -0.248 NA
ATOM     39  C   UNL A   1      37.631  32.026  31.873  1.00  0.00     0.031 C 
ATOM     40  C   UNL A   1      38.992  29.290  27.893  1.00  0.00     0.029 A 
ATOM     41  N   UNL A   1      40.203  29.049  29.759  1.00  0.00    -0.354 N 
ATOM     42  C   UNL A   1      39.228  31.291  33.335  1.00  0.00     0.074 A 
ATOM     43  C   UNL A   1      38.095  32.160  33.106  1.00  0.00     0.031 C 
ATOM     44  C   UNL A   1      39.943  28.374  27.644  1.00  0.00     0.029 A 
ATOM     45  C   UNL A   1      40.776  28.214  28.835  1.00  0.00     0.049 A 
ATOM     46  H   UNL A   1      40.524  29.131  30.687  1.00  0.00     0.167 HD
ATOM     47  C   UNL A   1      39.870  31.168  34.520  1.00  0.00     0.037 A 
ATOM     48  C   UNL A   1      41.864  27.426  28.936  1.00  0.00     0.037 A 
ATOM     49  C   UNL A   1      40.998  30.304  34.742  1.00  0.00     0.049 A 
ATOM     50  C   UNL A   1      42.604  27.359  30.248  1.00  0.00     0.074 A 
ATOM     51  C   UNL A   1      41.718  30.104  35.906  1.00  0.00     0.029 A 
ATOM     52  N   UNL A   1      41.574  29.498  33.771  1.00  0.00    -0.354 N 
ATOM     53  N   UNL A   1      42.343  27.968  31.379  1.00  0.00    -0.248 NA
ATOM     54  C   UNL A   1      43.787  26.488  30.297  1.00  0.00     0.031 C 
ATOM     55  C   UNL A   1      42.759  29.211  35.629  1.00  0.00     0.029 A 
ATOM     56  C   UNL A   1      42.655  28.815  34.304  1.00  0.00     0.049 A 
ATOM     57  H   UNL A   1      41.261  29.422  32.840  1.00  0.00     0.167 HD
ATOM     58  C   UNL A   1      43.310  27.538  32.279  1.00  0.00     0.074 A 
ATOM     59  C   UNL A   1      44.155  26.605  31.565  1.00  0.00     0.031 C 
ATOM     60  C   UNL A   1      43.482  27.885  33.578  1.00  0.00     0.037 A 
BRANCH  47  61
ATOM     61  C   UNL A   1      39.377  32.006  35.663  1.00  0.00     0.064 A 
ATOM     62  C   UNL A   1      39.788  33.336  35.832  1.00  0.00     0.173 A 
ATOM     63  C   UNL A   1      38.462  31.479  36.587  1.00  0.00     0.173 A 
ATOM     64  F   UNL A   1      40.674  33.882  34.985  1.00  0.00    -0.203 F 
ATOM     65  C   UNL A   1      39.317  34.103  36.895  1.00  0.00     0.198 A 
ATOM     66  C   UNL A   1      37.973  32.255  37.634  1.00  0.00     0.198 A 
ATOM     67  F   UNL A   1      38.038  30.212  36.471  1.00  0.00    -0.203 F 
ATOM     68  F   UNL A   1      39.757  35.357  37.062  1.00  0.00    -0.200 F 
ATOM     69  C   UNL A   1      38.406  33.564  37.791  1.00  0.00     0.200 A 
ATOM     70  F   UNL A   1      37.085  31.737  38.493  1.00  0.00    -0.200 F 
ATOM     71  F   UNL A   1      37.948  34.304  38.811  1.00  0.00    -0.200 F 
ENDBRANCH  47  61
BRANCH  48  72
ATOM     72  C   UNL A   1      42.326  26.646  27.759  1.00  0.00     0.064 A 
ATOM     73  C   UNL A   1      41.842  25.356  27.506  1.00  0.00     0.173 A 
ATOM     74  C   UNL A   1      43.274  27.174  26.869  1.00  0.00     0.173 A 
ATOM     75  F   UNL A   1      40.955  24.798  28.343  1.00  0.00    -0.203 F 
ATOM     76  C   UNL A   1      42.299  24.617  26.416  1.00  0.00     0.198 A 
ATOM     77  C   UNL A   1      43.710  26.446  25.765  1.00  0.00     0.198 A 
ATOM     78  F   UNL A   1      43.771  28.404  27.069  1.00  0.00    -0.203 F 
ATOM     79  F   UNL A   1      41.853  23.369  26.221  1.00  0.00    -0.200 F 
ATOM     80  C   UNL A   1      43.228  25.165  25.544  1.00  0.00     0.200 A 
ATOM     81  F   UNL A   1      44.599  26.984  24.919  1.00  0.00    -0.200 F 
ATOM     82  F   UNL A   1      43.664  24.455  24.494  1.00  0.00    -0.200 F 
ENDBRANCH  48  72
BRANCH  60  83
ATOM     83  C   UNL A   1      44.608  27.228  34.323  1.00  0.00     0.064 A 
ATOM     84  C   UNL A   1      44.441  25.995  34.970  1.00  0.00     0.173 A 
ATOM     85  C   UNL A   1      45.881  27.819  34.351  1.00  0.00     0.173 A 
ATOM     86  F   UNL A   1      43.241  25.397  34.983  1.00  0.00    -0.203 F 
ATOM     87  C   UNL A   1      45.502  25.390  35.637  1.00  0.00     0.198 A 
ATOM     88  C   UNL A   1      46.945  27.197  34.995  1.00  0.00     0.198 A 
ATOM     89  F   UNL A   1      46.094  28.994  33.741  1.00  0.00    -0.203 F 
ATOM     90  F   UNL A   1      45.309  24.233  36.287  1.00  0.00    -0.200 F 
ATOM     91  C   UNL A   1      46.754  25.986  35.643  1.00  0.00     0.200 A 
ATOM     92  F   UNL A   1      48.158  27.768  34.986  1.00  0.00    -0.200 F 
ATOM     93  F   UNL A   1      47.776  25.397  36.280  1.00  0.00    -0.200 F 
ENDBRANCH  60  83
ENDBRANCH  34  35
ENDBRANCH  27  29
ENDBRANCH  26  27
ENDBRANCH  25  26
ENDBRANCH  24  25
ENDBRANCH  23  24
ENDBRANCH   1  23
TORSDOF 20
ENDMDL
