MODEL 1
REMARK VINA RESULT:     -12.3      0.000      0.000
REMARK SMILES COc1cc2c(CC(=O)OCCOCCOC(=O)c3ccc(-c4c5nc(c(-c6c(F)c(F)c(F)c(F)c6F)c6ccc([nH]6)c(-c6c(F)c(F)c(F)c(F)c6F)c6nc(c(-c7c(F)c(F)c(F)c(F)c7F)c7ccc4[nH]7)C=C6)C=C5)cc3)c(C)n(C(=O)c3ccc(Cl)cc3)c2cc1Cl
REMARK SMILES IDX 12 1 11 2 10 3 8 4 9 5 7 6 6 7 3 8 4 9 96 10 5 11 95 12
REMARK SMILES IDX 97 13 94 14 82 15 84 16 83 17 2 18 1 19 85 20 86 21 87 22
REMARK SMILES IDX 88 23 93 24 89 25 92 26 90 27 91 28 13 29 14 30 15 31 16 32
REMARK SMILES IDX 17 33 18 34 19 35 20 36 81 37 21 38 80 39 22 40 23 41 24 42
REMARK SMILES IDX 74 43 25 44 79 45 73 46 75 47 26 48 78 49 72 50 71 51 27 53
REMARK SMILES IDX 59 54 39 55 58 56 40 57 43 58 57 59 76 60 41 61 42 62 56 64
REMARK SMILES IDX 77 65 44 66 28 67 29 68 37 69 30 70 31 71 35 72 38 73 32 74
REMARK SMILES IDX 33 75 36 76 34 77 60 78 61 79 69 80 62 81 63 82 67 83 70 84
REMARK SMILES IDX 64 85 65 86 68 87 66 88 45 89 46 90 54 91 47 92 48 93 52 94
REMARK SMILES IDX 55 95 49 96 50 97 53 98 51 99
REMARK H PARENT 75 52 43 63
REMARK Flexibility Score: inf
ROOT
ATOM      1  C   UNL A   1      36.762  21.488  24.918  1.00  0.00     0.202 C 
ENDROOT
BRANCH   1   2
ATOM      2  C   UNL A   1      35.674  22.557  24.713  1.00  0.00     0.261 C 
BRANCH   2   3
ATOM      3  O   UNL A   1      35.378  23.364  25.866  1.00  0.00    -0.463 OA
BRANCH   3   4
ATOM      4  C   UNL A   1      34.236  24.093  25.761  1.00  0.00     0.310 C 
ATOM      5  O   UNL A   1      33.210  23.850  26.394  1.00  0.00    -0.252 OA
BRANCH   4   6
ATOM      6  C   UNL A   1      34.274  25.268  24.810  1.00  0.00     0.160 C 
BRANCH   6   7
ATOM      7  C   UNL A   1      33.127  26.246  24.739  1.00  0.00    -0.008 A 
ATOM      8  C   UNL A   1      33.575  29.464  26.802  1.00  0.00     0.138 A 
ATOM      9  C   UNL A   1      33.868  28.165  26.348  1.00  0.00     0.058 A 
ATOM     10  C   UNL A   1      32.322  29.993  26.522  1.00  0.00     0.085 A 
ATOM     11  C   UNL A   1      33.005  27.465  25.469  1.00  0.00     0.008 A 
ATOM     12  C   UNL A   1      31.389  29.236  25.798  1.00  0.00     0.051 A 
ATOM     13  Cl  UNL A   1      31.809  31.599  26.900  1.00  0.00    -0.080 Cl
ATOM     14  C   UNL A   1      31.749  28.008  25.198  1.00  0.00     0.058 A 
ATOM     15  C   UNL A   1      31.928  26.061  24.055  1.00  0.00     0.028 A 
ATOM     16  N   UNL A   1      31.066  27.141  24.323  1.00  0.00    -0.280 N 
ATOM     17  C   UNL A   1      31.601  24.882  23.189  1.00  0.00     0.065 C 
BRANCH   8  18
ATOM     18  O   UNL A   1      34.672  30.085  27.335  1.00  0.00    -0.495 OA
ATOM     19  C   UNL A   1      35.907  29.389  27.371  1.00  0.00     0.278 C 
ENDBRANCH   8  18
BRANCH  16  20
ATOM     20  C   UNL A   1      29.737  27.327  23.822  1.00  0.00     0.262 C 
ATOM     21  O   UNL A   1      28.871  26.492  24.069  1.00  0.00    -0.268 OA
BRANCH  20  22
ATOM     22  C   UNL A   1      29.280  28.489  23.040  1.00  0.00     0.040 A 
ATOM     23  C   UNL A   1      30.138  29.107  22.122  1.00  0.00     0.015 A 
ATOM     24  C   UNL A   1      27.997  28.996  23.279  1.00  0.00     0.015 A 
ATOM     25  C   UNL A   1      29.740  30.301  21.514  1.00  0.00     0.021 A 
ATOM     26  C   UNL A   1      27.601  30.182  22.656  1.00  0.00     0.021 A 
ATOM     27  C   UNL A   1      28.482  30.841  21.796  1.00  0.00     0.041 A 
ATOM     28  Cl  UNL A   1      28.026  32.346  21.101  1.00  0.00    -0.084 Cl
ENDBRANCH  20  22
ENDBRANCH  16  20
ENDBRANCH   6   7
ENDBRANCH   4   6
ENDBRANCH   3   4
ENDBRANCH   2   3
ENDBRANCH   1   2
BRANCH   1  29
ATOM     29  O   UNL A   1      37.955  21.793  25.625  1.00  0.00    -0.374 OA
BRANCH  29  30
ATOM     30  C   UNL A   1      38.948  20.774  25.715  1.00  0.00     0.202 C 
BRANCH  30  31
ATOM     31  C   UNL A   1      40.282  21.064  26.429  1.00  0.00     0.261 C 
BRANCH  31  32
ATOM     32  O   UNL A   1      40.560  22.460  26.525  1.00  0.00    -0.460 OA
BRANCH  32  33
ATOM     33  C   UNL A   1      41.814  22.803  26.121  1.00  0.00     0.338 C 
ATOM     34  O   UNL A   1      42.513  22.266  25.294  1.00  0.00    -0.246 OA
BRANCH  33  35
ATOM     35  C   UNL A   1      41.948  24.195  26.575  1.00  0.00     0.060 A 
ATOM     36  C   UNL A   1      42.736  24.492  27.690  1.00  0.00     0.016 A 
ATOM     37  C   UNL A   1      40.974  25.085  26.094  1.00  0.00     0.016 A 
ATOM     38  C   UNL A   1      42.483  25.665  28.380  1.00  0.00     0.010 A 
ATOM     39  C   UNL A   1      40.700  26.240  26.811  1.00  0.00     0.010 A 
ATOM     40  C   UNL A   1      41.437  26.510  27.967  1.00  0.00    -0.014 A 
BRANCH  40  41
ATOM     41  C   UNL A   1      41.338  27.814  28.612  1.00  0.00     0.031 A 
ATOM     42  C   UNL A   1      42.403  28.742  28.134  1.00  0.00     0.074 A 
ATOM     43  C   UNL A   1      40.341  28.232  29.415  1.00  0.00     0.049 A 
ATOM     44  N   UNL A   1      43.318  29.334  28.828  1.00  0.00    -0.248 NA
ATOM     45  C   UNL A   1      42.556  28.897  26.676  1.00  0.00     0.031 C 
ATOM     46  C   UNL A   1      39.088  27.559  29.749  1.00  0.00     0.029 A 
ATOM     47  N   UNL A   1      40.213  29.438  30.041  1.00  0.00    -0.354 N 
ATOM     48  C   UNL A   1      44.075  30.057  27.910  1.00  0.00     0.074 A 
ATOM     49  C   UNL A   1      43.665  29.628  26.601  1.00  0.00     0.031 C 
ATOM     50  C   UNL A   1      38.243  28.447  30.324  1.00  0.00     0.029 A 
ATOM     51  C   UNL A   1      38.932  29.716  30.496  1.00  0.00     0.049 A 
ATOM     52  H   UNL A   1      40.968  30.059  30.160  1.00  0.00     0.167 HD
ATOM     53  C   UNL A   1      44.840  31.115  28.288  1.00  0.00     0.037 A 
ATOM     54  C   UNL A   1      38.463  30.927  30.899  1.00  0.00     0.037 A 
ATOM     55  C   UNL A   1      45.148  31.066  29.690  1.00  0.00     0.049 A 
ATOM     56  C   UNL A   1      39.640  31.770  31.236  1.00  0.00     0.074 A 
ATOM     57  C   UNL A   1      45.821  30.166  30.494  1.00  0.00     0.029 A 
ATOM     58  N   UNL A   1      44.436  31.867  30.548  1.00  0.00    -0.354 N 
ATOM     59  N   UNL A   1      40.428  31.547  32.252  1.00  0.00    -0.248 NA
ATOM     60  C   UNL A   1      40.204  32.593  30.175  1.00  0.00     0.031 C 
ATOM     61  C   UNL A   1      45.094  30.151  31.719  1.00  0.00     0.029 A 
ATOM     62  C   UNL A   1      44.059  31.079  31.604  1.00  0.00     0.049 A 
ATOM     63  H   UNL A   1      44.234  32.823  30.427  1.00  0.00     0.167 HD
ATOM     64  C   UNL A   1      41.699  31.829  31.778  1.00  0.00     0.074 A 
ATOM     65  C   UNL A   1      41.493  32.539  30.518  1.00  0.00     0.031 C 
ATOM     66  C   UNL A   1      42.802  31.218  32.300  1.00  0.00     0.037 A 
BRANCH  53  67
ATOM     67  C   UNL A   1      45.012  32.357  27.453  1.00  0.00     0.064 A 
ATOM     68  C   UNL A   1      46.229  32.570  26.779  1.00  0.00     0.173 A 
ATOM     69  C   UNL A   1      44.149  33.474  27.521  1.00  0.00     0.173 A 
ATOM     70  F   UNL A   1      47.135  31.587  26.676  1.00  0.00    -0.203 F 
ATOM     71  C   UNL A   1      46.583  33.825  26.280  1.00  0.00     0.198 A 
ATOM     72  C   UNL A   1      44.481  34.708  26.970  1.00  0.00     0.198 A 
ATOM     73  F   UNL A   1      43.007  33.456  28.218  1.00  0.00    -0.203 F 
ATOM     74  F   UNL A   1      47.805  34.013  25.761  1.00  0.00    -0.200 F 
ATOM     75  C   UNL A   1      45.712  34.894  26.379  1.00  0.00     0.200 A 
ATOM     76  F   UNL A   1      43.629  35.736  27.096  1.00  0.00    -0.200 F 
ATOM     77  F   UNL A   1      46.074  36.111  25.955  1.00  0.00    -0.200 F 
ENDBRANCH  53  67
BRANCH  54  78
ATOM     78  C   UNL A   1      37.107  31.503  30.691  1.00  0.00     0.064 A 
ATOM     79  C   UNL A   1      36.217  31.694  31.762  1.00  0.00     0.173 A 
ATOM     80  C   UNL A   1      36.755  32.127  29.478  1.00  0.00     0.173 A 
ATOM     81  F   UNL A   1      36.498  31.186  32.972  1.00  0.00    -0.203 F 
ATOM     82  C   UNL A   1      35.057  32.470  31.630  1.00  0.00     0.198 A 
ATOM     83  C   UNL A   1      35.594  32.892  29.343  1.00  0.00     0.198 A 
ATOM     84  F   UNL A   1      37.577  32.092  28.420  1.00  0.00    -0.203 F 
ATOM     85  F   UNL A   1      34.264  32.677  32.690  1.00  0.00    -0.200 F 
ATOM     86  C   UNL A   1      34.751  33.073  30.422  1.00  0.00     0.200 A 
ATOM     87  F   UNL A   1      35.334  33.503  28.178  1.00  0.00    -0.200 F 
ATOM     88  F   UNL A   1      33.672  33.861  30.307  1.00  0.00    -0.200 F 
ENDBRANCH  54  78
BRANCH  66  89
ATOM     89  C   UNL A   1      42.643  30.392  33.546  1.00  0.00     0.064 A 
ATOM     90  C   UNL A   1      42.645  30.937  34.842  1.00  0.00     0.173 A 
ATOM     91  C   UNL A   1      42.252  29.054  33.408  1.00  0.00     0.173 A 
ATOM     92  F   UNL A   1      42.914  32.233  35.046  1.00  0.00    -0.203 F 
ATOM     93  C   UNL A   1      42.284  30.170  35.948  1.00  0.00     0.198 A 
ATOM     94  C   UNL A   1      41.857  28.301  34.511  1.00  0.00     0.198 A 
ATOM     95  F   UNL A   1      42.178  28.498  32.189  1.00  0.00    -0.203 F 
ATOM     96  F   UNL A   1      42.279  30.719  37.172  1.00  0.00    -0.200 F 
ATOM     97  C   UNL A   1      41.875  28.858  35.779  1.00  0.00     0.200 A 
ATOM     98  F   UNL A   1      41.412  27.049  34.336  1.00  0.00    -0.200 F 
ATOM     99  F   UNL A   1      41.463  28.141  36.835  1.00  0.00    -0.200 F 
ENDBRANCH  66  89
ENDBRANCH  40  41
ENDBRANCH  33  35
ENDBRANCH  32  33
ENDBRANCH  31  32
ENDBRANCH  30  31
ENDBRANCH  29  30
ENDBRANCH   1  29
TORSDOF 18
ENDMDL
MODEL 2
REMARK VINA RESULT:     -12.0      3.807      9.265
REMARK SMILES COc1cc2c(CC(=O)OCCOCCOC(=O)c3ccc(-c4c5nc(c(-c6c(F)c(F)c(F)c(F)c6F)c6ccc([nH]6)c(-c6c(F)c(F)c(F)c(F)c6F)c6nc(c(-c7c(F)c(F)c(F)c(F)c7F)c7ccc4[nH]7)C=C6)C=C5)cc3)c(C)n(C(=O)c3ccc(Cl)cc3)c2cc1Cl
REMARK SMILES IDX 12 1 11 2 10 3 8 4 9 5 7 6 6 7 3 8 4 9 96 10 5 11 95 12
REMARK SMILES IDX 97 13 94 14 82 15 84 16 83 17 2 18 1 19 85 20 86 21 87 22
REMARK SMILES IDX 88 23 93 24 89 25 92 26 90 27 91 28 13 29 14 30 15 31 16 32
REMARK SMILES IDX 17 33 18 34 19 35 20 36 81 37 21 38 80 39 22 40 23 41 24 42
REMARK SMILES IDX 74 43 25 44 79 45 73 46 75 47 26 48 78 49 72 50 71 51 27 53
REMARK SMILES IDX 59 54 39 55 58 56 40 57 43 58 57 59 76 60 41 61 42 62 56 64
REMARK SMILES IDX 77 65 44 66 28 67 29 68 37 69 30 70 31 71 35 72 38 73 32 74
REMARK SMILES IDX 33 75 36 76 34 77 60 78 61 79 69 80 62 81 63 82 67 83 70 84
REMARK SMILES IDX 64 85 65 86 68 87 66 88 45 89 46 90 54 91 47 92 48 93 52 94
REMARK SMILES IDX 55 95 49 96 50 97 53 98 51 99
REMARK H PARENT 75 52 43 63
REMARK Flexibility Score: inf
ROOT
ATOM      1  C   UNL A   1      32.988  30.398  26.827  1.00  0.00     0.202 C 
ENDROOT
BRANCH   1   2
ATOM      2  C   UNL A   1      32.880  29.196  25.872  1.00  0.00     0.261 C 
BRANCH   2   3
ATOM      3  O   UNL A   1      34.037  28.342  25.823  1.00  0.00    -0.463 OA
BRANCH   3   4
ATOM      4  C   UNL A   1      33.840  27.171  25.163  1.00  0.00     0.310 C 
ATOM      5  O   UNL A   1      33.837  27.070  23.937  1.00  0.00    -0.252 OA
BRANCH   4   6
ATOM      6  C   UNL A   1      33.630  25.944  26.020  1.00  0.00     0.160 C 
BRANCH   6   7
ATOM      7  C   UNL A   1      33.746  24.558  25.434  1.00  0.00    -0.008 A 
ATOM      8  C   UNL A   1      37.259  22.993  25.586  1.00  0.00     0.138 A 
ATOM      9  C   UNL A   1      36.285  24.003  25.692  1.00  0.00     0.058 A 
ATOM     10  C   UNL A   1      36.931  21.831  24.901  1.00  0.00     0.085 A 
ATOM     11  C   UNL A   1      34.942  23.796  25.289  1.00  0.00     0.008 A 
ATOM     12  C   UNL A   1      35.653  21.685  24.341  1.00  0.00     0.051 A 
ATOM     13  Cl  UNL A   1      37.946  20.440  24.750  1.00  0.00    -0.080 Cl
ATOM     14  C   UNL A   1      34.629  22.624  24.601  1.00  0.00     0.058 A 
ATOM     15  C   UNL A   1      32.731  23.842  24.807  1.00  0.00     0.028 A 
ATOM     16  N   UNL A   1      33.255  22.642  24.289  1.00  0.00    -0.280 N 
ATOM     17  C   UNL A   1      31.306  24.292  24.683  1.00  0.00     0.065 C 
BRANCH   8  18
ATOM     18  O   UNL A   1      38.369  23.264  26.339  1.00  0.00    -0.495 OA
ATOM     19  C   UNL A   1      38.596  24.594  26.777  1.00  0.00     0.278 C 
ENDBRANCH   8  18
BRANCH  16  20
ATOM     20  C   UNL A   1      32.543  21.631  23.567  1.00  0.00     0.262 C 
ATOM     21  O   UNL A   1      31.935  21.930  22.541  1.00  0.00    -0.268 OA
BRANCH  20  22
ATOM     22  C   UNL A   1      32.497  20.204  23.926  1.00  0.00     0.040 A 
ATOM     23  C   UNL A   1      32.610  19.806  25.265  1.00  0.00     0.015 A 
ATOM     24  C   UNL A   1      32.402  19.255  22.901  1.00  0.00     0.015 A 
ATOM     25  C   UNL A   1      32.728  18.446  25.564  1.00  0.00     0.021 A 
ATOM     26  C   UNL A   1      32.507  17.897  23.210  1.00  0.00     0.021 A 
ATOM     27  C   UNL A   1      32.693  17.501  24.536  1.00  0.00     0.041 A 
ATOM     28  Cl  UNL A   1      32.910  15.834  24.902  1.00  0.00    -0.084 Cl
ENDBRANCH  20  22
ENDBRANCH  16  20
ENDBRANCH   6   7
ENDBRANCH   4   6
ENDBRANCH   3   4
ENDBRANCH   2   3
ENDBRANCH   1   2
BRANCH   1  29
ATOM     29  O   UNL A   1      34.256  30.922  27.194  1.00  0.00    -0.374 OA
BRANCH  29  30
ATOM     30  C   UNL A   1      34.302  32.264  27.675  1.00  0.00     0.202 C 
BRANCH  30  31
ATOM     31  C   UNL A   1      34.580  32.535  29.165  1.00  0.00     0.261 C 
BRANCH  31  32
ATOM     32  O   UNL A   1      35.190  31.425  29.820  1.00  0.00    -0.460 OA
BRANCH  32  33
ATOM     33  C   UNL A   1      35.576  31.681  31.100  1.00  0.00     0.338 C 
ATOM     34  O   UNL A   1      34.905  32.077  32.025  1.00  0.00    -0.246 OA
BRANCH  33  35
ATOM     35  C   UNL A   1      36.854  30.964  31.221  1.00  0.00     0.060 A 
ATOM     36  C   UNL A   1      38.056  31.676  31.214  1.00  0.00     0.016 A 
ATOM     37  C   UNL A   1      36.804  29.587  30.949  1.00  0.00     0.016 A 
ATOM     38  C   UNL A   1      39.213  31.009  30.848  1.00  0.00     0.010 A 
ATOM     39  C   UNL A   1      37.959  28.934  30.548  1.00  0.00     0.010 A 
ATOM     40  C   UNL A   1      39.153  29.656  30.471  1.00  0.00    -0.014 A 
BRANCH  40  41
ATOM     41  C   UNL A   1      40.419  28.959  30.279  1.00  0.00     0.031 A 
ATOM     42  C   UNL A   1      41.145  28.779  31.569  1.00  0.00     0.074 A 
ATOM     43  C   UNL A   1      40.849  28.388  29.138  1.00  0.00     0.049 A 
ATOM     44  N   UNL A   1      42.321  29.206  31.891  1.00  0.00    -0.248 NA
ATOM     45  C   UNL A   1      40.392  28.181  32.687  1.00  0.00     0.031 C 
ATOM     46  C   UNL A   1      40.140  28.223  27.870  1.00  0.00     0.029 A 
ATOM     47  N   UNL A   1      42.026  27.734  28.913  1.00  0.00    -0.354 N 
ATOM     48  C   UNL A   1      42.517  28.802  33.209  1.00  0.00     0.074 A 
ATOM     49  C   UNL A   1      41.251  28.324  33.693  1.00  0.00     0.031 C 
ATOM     50  C   UNL A   1      40.805  27.330  27.099  1.00  0.00     0.029 A 
ATOM     51  C   UNL A   1      42.037  26.946  27.771  1.00  0.00     0.049 A 
ATOM     52  H   UNL A   1      42.802  27.814  29.513  1.00  0.00     0.167 HD
ATOM     53  C   UNL A   1      43.760  28.693  33.747  1.00  0.00     0.037 A 
ATOM     54  C   UNL A   1      42.953  25.993  27.455  1.00  0.00     0.037 A 
ATOM     55  C   UNL A   1      44.719  29.475  33.017  1.00  0.00     0.049 A 
ATOM     56  C   UNL A   1      44.173  26.265  28.261  1.00  0.00     0.074 A 
ATOM     57  C   UNL A   1      44.849  30.824  32.743  1.00  0.00     0.029 A 
ATOM     58  N   UNL A   1      45.550  28.837  32.130  1.00  0.00    -0.354 N 
ATOM     59  N   UNL A   1      44.943  27.303  28.086  1.00  0.00    -0.248 NA
ATOM     60  C   UNL A   1      44.278  25.618  29.562  1.00  0.00     0.031 C 
ATOM     61  C   UNL A   1      45.343  30.883  31.409  1.00  0.00     0.029 A 
ATOM     62  C   UNL A   1      45.534  29.571  30.973  1.00  0.00     0.049 A 
ATOM     63  H   UNL A   1      46.059  28.010  32.294  1.00  0.00     0.167 HD
ATOM     64  C   UNL A   1      45.302  27.692  29.368  1.00  0.00     0.074 A 
ATOM     65  C   UNL A   1      44.924  26.576  30.230  1.00  0.00     0.031 C 
ATOM     66  C   UNL A   1      45.609  28.991  29.653  1.00  0.00     0.037 A 
BRANCH  53  67
ATOM     67  C   UNL A   1      44.154  27.611  34.719  1.00  0.00     0.064 A 
ATOM     68  C   UNL A   1      44.742  27.969  35.946  1.00  0.00     0.173 A 
ATOM     69  C   UNL A   1      44.244  26.243  34.376  1.00  0.00     0.173 A 
ATOM     70  F   UNL A   1      44.739  29.245  36.359  1.00  0.00    -0.203 F 
ATOM     71  C   UNL A   1      45.431  27.042  36.730  1.00  0.00     0.198 A 
ATOM     72  C   UNL A   1      44.880  25.310  35.189  1.00  0.00     0.198 A 
ATOM     73  F   UNL A   1      43.826  25.772  33.195  1.00  0.00    -0.203 F 
ATOM     74  F   UNL A   1      46.085  27.453  37.825  1.00  0.00    -0.200 F 
ATOM     75  C   UNL A   1      45.503  25.714  36.350  1.00  0.00     0.200 A 
ATOM     76  F   UNL A   1      44.955  24.033  34.791  1.00  0.00    -0.200 F 
ATOM     77  F   UNL A   1      46.213  24.836  37.069  1.00  0.00    -0.200 F 
ENDBRANCH  53  67
BRANCH  54  78
ATOM     78  C   UNL A   1      42.726  24.690  26.773  1.00  0.00     0.064 A 
ATOM     79  C   UNL A   1      43.342  24.386  25.547  1.00  0.00     0.173 A 
ATOM     80  C   UNL A   1      42.113  23.611  27.440  1.00  0.00     0.173 A 
ATOM     81  F   UNL A   1      44.001  25.337  24.868  1.00  0.00    -0.203 F 
ATOM     82  C   UNL A   1      43.354  23.084  25.029  1.00  0.00     0.198 A 
ATOM     83  C   UNL A   1      42.116  22.316  26.919  1.00  0.00     0.198 A 
ATOM     84  F   UNL A   1      41.580  23.767  28.660  1.00  0.00    -0.203 F 
ATOM     85  F   UNL A   1      44.003  22.823  23.886  1.00  0.00    -0.200 F 
ATOM     86  C   UNL A   1      42.746  22.049  25.719  1.00  0.00     0.200 A 
ATOM     87  F   UNL A   1      41.559  21.317  27.621  1.00  0.00    -0.200 F 
ATOM     88  F   UNL A   1      42.804  20.793  25.255  1.00  0.00    -0.200 F 
ENDBRANCH  54  78
BRANCH  66  89
ATOM     89  C   UNL A   1      45.765  29.959  28.515  1.00  0.00     0.064 A 
ATOM     90  C   UNL A   1      44.704  30.718  27.992  1.00  0.00     0.173 A 
ATOM     91  C   UNL A   1      47.062  30.289  28.099  1.00  0.00     0.173 A 
ATOM     92  F   UNL A   1      43.447  30.529  28.411  1.00  0.00    -0.203 F 
ATOM     93  C   UNL A   1      44.934  31.752  27.086  1.00  0.00     0.198 A 
ATOM     94  C   UNL A   1      47.290  31.345  27.221  1.00  0.00     0.198 A 
ATOM     95  F   UNL A   1      48.117  29.633  28.607  1.00  0.00    -0.203 F 
ATOM     96  F   UNL A   1      43.905  32.473  26.616  1.00  0.00    -0.200 F 
ATOM     97  C   UNL A   1      46.228  32.075  26.714  1.00  0.00     0.200 A 
ATOM     98  F   UNL A   1      48.548  31.687  26.906  1.00  0.00    -0.200 F 
ATOM     99  F   UNL A   1      46.454  33.113  25.896  1.00  0.00    -0.200 F 
ENDBRANCH  66  89
ENDBRANCH  40  41
ENDBRANCH  33  35
ENDBRANCH  32  33
ENDBRANCH  31  32
ENDBRANCH  30  31
ENDBRANCH  29  30
ENDBRANCH   1  29
TORSDOF 18
ENDMDL
MODEL 3
REMARK VINA RESULT:     -11.7      5.361     11.612
REMARK SMILES COc1cc2c(CC(=O)OCCOCCOC(=O)c3ccc(-c4c5nc(c(-c6c(F)c(F)c(F)c(F)c6F)c6ccc([nH]6)c(-c6c(F)c(F)c(F)c(F)c6F)c6nc(c(-c7c(F)c(F)c(F)c(F)c7F)c7ccc4[nH]7)C=C6)C=C5)cc3)c(C)n(C(=O)c3ccc(Cl)cc3)c2cc1Cl
REMARK SMILES IDX 12 1 11 2 10 3 8 4 9 5 7 6 6 7 3 8 4 9 96 10 5 11 95 12
REMARK SMILES IDX 97 13 94 14 82 15 84 16 83 17 2 18 1 19 85 20 86 21 87 22
REMARK SMILES IDX 88 23 93 24 89 25 92 26 90 27 91 28 13 29 14 30 15 31 16 32
REMARK SMILES IDX 17 33 18 34 19 35 20 36 81 37 21 38 80 39 22 40 23 41 24 42
REMARK SMILES IDX 74 43 25 44 79 45 73 46 75 47 26 48 78 49 72 50 71 51 27 53
REMARK SMILES IDX 59 54 39 55 58 56 40 57 43 58 57 59 76 60 41 61 42 62 56 64
REMARK SMILES IDX 77 65 44 66 28 67 29 68 37 69 30 70 31 71 35 72 38 73 32 74
REMARK SMILES IDX 33 75 36 76 34 77 60 78 61 79 69 80 62 81 63 82 67 83 70 84
REMARK SMILES IDX 64 85 65 86 68 87 66 88 45 89 46 90 54 91 47 92 48 93 52 94
REMARK SMILES IDX 55 95 49 96 50 97 53 98 51 99
REMARK H PARENT 75 52 43 63
REMARK Flexibility Score: inf
ROOT
ATOM      1  C   UNL A   1      35.092  34.491  32.156  1.00  0.00     0.202 C 
ENDROOT
BRANCH   1   2
ATOM      2  C   UNL A   1      34.852  33.360  33.172  1.00  0.00     0.261 C 
BRANCH   2   3
ATOM      3  O   UNL A   1      36.034  32.673  33.620  1.00  0.00    -0.463 OA
BRANCH   3   4
ATOM      4  C   UNL A   1      36.367  31.587  32.874  1.00  0.00     0.310 C 
ATOM      5  O   UNL A   1      35.599  31.040  32.083  1.00  0.00    -0.252 OA
BRANCH   4   6
ATOM      6  C   UNL A   1      37.774  31.061  33.044  1.00  0.00     0.160 C 
BRANCH   6   7
ATOM      7  C   UNL A   1      38.803  31.838  33.828  1.00  0.00    -0.008 A 
ATOM      8  C   UNL A   1      41.179  34.014  31.722  1.00  0.00     0.138 A 
ATOM      9  C   UNL A   1      40.190  33.045  31.973  1.00  0.00     0.058 A 
ATOM     10  C   UNL A   1      41.958  34.450  32.785  1.00  0.00     0.085 A 
ATOM     11  C   UNL A   1      39.847  32.646  33.288  1.00  0.00     0.008 A 
ATOM     12  C   UNL A   1      41.744  33.929  34.070  1.00  0.00     0.051 A 
ATOM     13  Cl  UNL A   1      43.147  35.702  32.704  1.00  0.00    -0.080 Cl
ATOM     14  C   UNL A   1      40.640  33.092  34.346  1.00  0.00     0.058 A 
ATOM     15  C   UNL A   1      38.999  31.789  35.205  1.00  0.00     0.028 A 
ATOM     16  N   UNL A   1      40.126  32.560  35.545  1.00  0.00    -0.280 N 
ATOM     17  C   UNL A   1      38.152  31.015  36.171  1.00  0.00     0.065 C 
BRANCH   8  18
ATOM     18  O   UNL A   1      41.109  34.506  30.447  1.00  0.00    -0.495 OA
ATOM     19  C   UNL A   1      42.144  34.191  29.529  1.00  0.00     0.278 C 
ENDBRANCH   8  18
BRANCH  16  20
ATOM     20  C   UNL A   1      40.669  32.763  36.855  1.00  0.00     0.262 C 
ATOM     21  O   UNL A   1      41.409  31.913  37.344  1.00  0.00    -0.268 OA
BRANCH  20  22
ATOM     22  C   UNL A   1      40.448  33.955  37.691  1.00  0.00     0.040 A 
ATOM     23  C   UNL A   1      39.713  35.040  37.198  1.00  0.00     0.015 A 
ATOM     24  C   UNL A   1      41.039  34.005  38.960  1.00  0.00     0.015 A 
ATOM     25  C   UNL A   1      39.656  36.220  37.944  1.00  0.00     0.021 A 
ATOM     26  C   UNL A   1      40.965  35.183  39.705  1.00  0.00     0.021 A 
ATOM     27  C   UNL A   1      40.294  36.292  39.185  1.00  0.00     0.041 A 
ATOM     28  Cl  UNL A   1      40.281  37.768  40.066  1.00  0.00    -0.084 Cl
ENDBRANCH  20  22
ENDBRANCH  16  20
ENDBRANCH   6   7
ENDBRANCH   4   6
ENDBRANCH   3   4
ENDBRANCH   2   3
ENDBRANCH   1   2
BRANCH   1  29
ATOM     29  O   UNL A   1      35.350  34.198  30.791  1.00  0.00    -0.374 OA
BRANCH  29  30
ATOM     30  C   UNL A   1      34.228  34.049  29.924  1.00  0.00     0.202 C 
BRANCH  30  31
ATOM     31  C   UNL A   1      34.446  33.906  28.406  1.00  0.00     0.261 C 
BRANCH  31  32
ATOM     32  O   UNL A   1      35.422  32.917  28.083  1.00  0.00    -0.460 OA
BRANCH  32  33
ATOM     33  C   UNL A   1      35.017  31.640  28.326  1.00  0.00     0.338 C 
ATOM     34  O   UNL A   1      34.018  31.079  27.941  1.00  0.00    -0.246 OA
BRANCH  33  35
ATOM     35  C   UNL A   1      36.248  30.973  28.777  1.00  0.00     0.060 A 
ATOM     36  C   UNL A   1      37.342  31.737  29.192  1.00  0.00     0.016 A 
ATOM     37  C   UNL A   1      36.380  29.627  28.400  1.00  0.00     0.016 A 
ATOM     38  C   UNL A   1      38.600  31.160  29.147  1.00  0.00     0.010 A 
ATOM     39  C   UNL A   1      37.646  29.068  28.323  1.00  0.00     0.010 A 
ATOM     40  C   UNL A   1      38.753  29.846  28.669  1.00  0.00    -0.014 A 
BRANCH  40  41
ATOM     41  C   UNL A   1      40.065  29.229  28.821  1.00  0.00     0.031 A 
ATOM     42  C   UNL A   1      40.415  29.035  30.258  1.00  0.00     0.074 A 
ATOM     43  C   UNL A   1      40.830  28.730  27.832  1.00  0.00     0.049 A 
ATOM     44  N   UNL A   1      41.425  29.513  30.906  1.00  0.00    -0.248 NA
ATOM     45  C   UNL A   1      39.421  28.352  31.106  1.00  0.00     0.031 C 
ATOM     46  C   UNL A   1      40.512  28.578  26.413  1.00  0.00     0.029 A 
ATOM     47  N   UNL A   1      42.062  28.151  27.929  1.00  0.00    -0.354 N 
ATOM     48  C   UNL A   1      41.274  29.066  32.216  1.00  0.00     0.074 A 
ATOM     49  C   UNL A   1      39.957  28.500  32.315  1.00  0.00     0.031 C 
ATOM     50  C   UNL A   1      41.421  27.756  25.838  1.00  0.00     0.029 A 
ATOM     51  C   UNL A   1      42.440  27.413  26.816  1.00  0.00     0.049 A 
ATOM     52  H   UNL A   1      42.635  28.248  28.724  1.00  0.00     0.167 HD
ATOM     53  C   UNL A   1      42.324  29.003  33.077  1.00  0.00     0.037 A 
ATOM     54  C   UNL A   1      43.467  26.525  26.746  1.00  0.00     0.037 A 
ATOM     55  C   UNL A   1      43.395  29.866  32.663  1.00  0.00     0.049 A 
ATOM     56  C   UNL A   1      44.395  26.830  27.867  1.00  0.00     0.074 A 
ATOM     57  C   UNL A   1      43.509  31.230  32.470  1.00  0.00     0.029 A 
ATOM     58  N   UNL A   1      44.478  29.312  32.028  1.00  0.00    -0.354 N 
ATOM     59  N   UNL A   1      45.116  27.916  27.940  1.00  0.00    -0.248 NA
ATOM     60  C   UNL A   1      44.177  26.137  29.129  1.00  0.00     0.031 C 
ATOM     61  C   UNL A   1      44.348  31.371  31.328  1.00  0.00     0.029 A 
ATOM     62  C   UNL A   1      44.737  30.091  30.931  1.00  0.00     0.049 A 
ATOM     63  H   UNL A   1      44.973  28.508  32.307  1.00  0.00     0.167 HD
ATOM     64  C   UNL A   1      45.080  28.270  29.279  1.00  0.00     0.074 A 
ATOM     65  C   UNL A   1      44.550  27.100  29.974  1.00  0.00     0.031 C 
ATOM     66  C   UNL A   1      45.212  29.571  29.671  1.00  0.00     0.037 A 
BRANCH  53  67
ATOM     67  C   UNL A   1      42.501  27.905  34.093  1.00  0.00     0.064 A 
ATOM     68  C   UNL A   1      43.078  26.685  33.694  1.00  0.00     0.173 A 
ATOM     69  C   UNL A   1      41.868  27.896  35.357  1.00  0.00     0.173 A 
ATOM     70  F   UNL A   1      43.681  26.571  32.502  1.00  0.00    -0.203 F 
ATOM     71  C   UNL A   1      42.963  25.529  34.470  1.00  0.00     0.198 A 
ATOM     72  C   UNL A   1      41.808  26.756  36.153  1.00  0.00     0.198 A 
ATOM     73  F   UNL A   1      41.186  28.948  35.824  1.00  0.00    -0.203 F 
ATOM     74  F   UNL A   1      43.415  24.362  33.991  1.00  0.00    -0.200 F 
ATOM     75  C   UNL A   1      42.325  25.564  35.696  1.00  0.00     0.200 A 
ATOM     76  F   UNL A   1      41.167  26.809  37.329  1.00  0.00    -0.200 F 
ATOM     77  F   UNL A   1      42.162  24.445  36.412  1.00  0.00    -0.200 F 
ENDBRANCH  53  67
BRANCH  54  78
ATOM     78  C   UNL A   1      43.522  25.242  25.996  1.00  0.00     0.064 A 
ATOM     79  C   UNL A   1      44.618  24.915  25.178  1.00  0.00     0.173 A 
ATOM     80  C   UNL A   1      42.627  24.190  26.276  1.00  0.00     0.173 A 
ATOM     81  F   UNL A   1      45.554  25.836  24.904  1.00  0.00    -0.203 F 
ATOM     82  C   UNL A   1      44.810  23.618  24.683  1.00  0.00     0.198 A 
ATOM     83  C   UNL A   1      42.813  22.901  25.775  1.00  0.00     0.198 A 
ATOM     84  F   UNL A   1      41.602  24.364  27.123  1.00  0.00    -0.203 F 
ATOM     85  F   UNL A   1      45.898  23.333  23.955  1.00  0.00    -0.200 F 
ATOM     86  C   UNL A   1      43.910  22.611  24.988  1.00  0.00     0.200 A 
ATOM     87  F   UNL A   1      41.954  21.927  26.114  1.00  0.00    -0.200 F 
ATOM     88  F   UNL A   1      44.120  21.357  24.562  1.00  0.00    -0.200 F 
ENDBRANCH  54  78
BRANCH  66  89
ATOM     89  C   UNL A   1      45.615  30.592  28.645  1.00  0.00     0.064 A 
ATOM     90  C   UNL A   1      44.701  31.238  27.793  1.00  0.00     0.173 A 
ATOM     91  C   UNL A   1      46.923  31.091  28.686  1.00  0.00     0.173 A 
ATOM     92  F   UNL A   1      43.411  30.883  27.768  1.00  0.00    -0.203 F 
ATOM     93  C   UNL A   1      45.088  32.324  27.011  1.00  0.00     0.198 A 
ATOM     94  C   UNL A   1      47.297  32.199  27.930  1.00  0.00     0.198 A 
ATOM     95  F   UNL A   1      47.823  30.548  29.521  1.00  0.00    -0.203 F 
ATOM     96  F   UNL A   1      44.192  32.933  26.220  1.00  0.00    -0.200 F 
ATOM     97  C   UNL A   1      46.381  32.814  27.092  1.00  0.00     0.200 A 
ATOM     98  F   UNL A   1      48.533  32.701  28.053  1.00  0.00    -0.200 F 
ATOM     99  F   UNL A   1      46.733  33.901  26.392  1.00  0.00    -0.200 F 
ENDBRANCH  66  89
ENDBRANCH  40  41
ENDBRANCH  33  35
ENDBRANCH  32  33
ENDBRANCH  31  32
ENDBRANCH  30  31
ENDBRANCH  29  30
ENDBRANCH   1  29
TORSDOF 18
ENDMDL
