MODEL 1
REMARK VINA RESULT:     -11.5      0.000      0.000
REMARK SMILES Cc1c(Cl)cccc1NC(=O)C[C@](C)(C(=O)OCCOCCOC(=O)c1ccc(-c2c3nc(c(-c4c(F)c(F)c(F)c(F)c4F)c4ccc([nH]4)c(-c4c(F)c(F)c(F)c(F)c4F)c4nc(c(-c5c(F)c(F)c(F)c(F)c5F)c5ccc2[nH]5)C=C4)C=C3)cc1)c1ccccc1
REMARK SMILES IDX 19 1 18 2 17 3 15 4 16 5 13 6 14 7 12 8 10 9 9 10 11 12 8 13
REMARK SMILES IDX 1 14 2 15 3 16 4 17 5 18 7 19 6 20 89 21 90 22 94 23 91 24
REMARK SMILES IDX 93 25 92 26 20 27 21 28 22 29 23 30 24 31 25 32 26 33 27 34
REMARK SMILES IDX 88 35 28 36 87 37 29 38 30 39 31 40 81 41 32 42 86 43 80 44
REMARK SMILES IDX 82 45 33 46 85 47 79 48 78 49 34 51 66 52 46 53 65 54 47 55
REMARK SMILES IDX 50 56 64 57 83 58 48 59 49 60 63 62 84 63 51 64 35 65 36 66
REMARK SMILES IDX 44 67 37 68 38 69 42 70 45 71 39 72 40 73 43 74 41 75 67 76
REMARK SMILES IDX 68 77 76 78 69 79 70 80 74 81 77 82 71 83 72 84 75 85 73 86
REMARK SMILES IDX 52 87 53 88 61 89 54 90 55 91 59 92 62 93 56 94 57 95 60 96
REMARK SMILES IDX 58 97
REMARK H PARENT 9 11 82 50 50 61
REMARK Flexibility Score: inf
ROOT
ATOM      1  C   UNL A   1      33.123  29.291  26.927  1.00  0.00     0.202 C 
ENDROOT
BRANCH   1   2
ATOM      2  C   UNL A   1      33.691  28.139  26.096  1.00  0.00     0.261 C 
BRANCH   2   3
ATOM      3  O   UNL A   1      33.039  28.078  24.816  1.00  0.00    -0.463 OA
BRANCH   3   4
ATOM      4  C   UNL A   1      31.873  27.379  24.780  1.00  0.00     0.316 C 
ATOM      5  O   UNL A   1      30.808  27.832  25.186  1.00  0.00    -0.251 OA
BRANCH   4   6
ATOM      6  C   UNL A   1      32.029  25.976  24.135  1.00  0.00     0.099 C 
ATOM      7  C   UNL A   1      30.841  25.609  23.197  1.00  0.00     0.029 C 
BRANCH   6   8
ATOM      8  C   UNL A   1      33.356  25.931  23.304  1.00  0.00     0.123 C 
BRANCH   8   9
ATOM      9  C   UNL A   1      33.412  25.114  22.023  1.00  0.00     0.225 C 
ATOM     10  N   UNL A   1      33.687  23.783  21.977  1.00  0.00    -0.326 N 
ATOM     11  H   UNL A   1      33.582  23.396  21.078  1.00  0.00     0.169 HD
ATOM     12  O   UNL A   1      33.177  25.666  20.942  1.00  0.00    -0.275 OA
BRANCH  10  13
ATOM     13  C   UNL A   1      34.089  22.844  22.938  1.00  0.00     0.045 A 
ATOM     14  C   UNL A   1      31.915  21.515  22.555  1.00  0.00     0.048 C 
ATOM     15  C   UNL A   1      33.216  21.785  23.272  1.00  0.00    -0.009 A 
ATOM     16  C   UNL A   1      33.554  20.968  24.366  1.00  0.00     0.046 A 
ATOM     17  Cl  UNL A   1      32.404  19.842  25.005  1.00  0.00    -0.084 Cl
ATOM     18  C   UNL A   1      34.782  21.093  25.010  1.00  0.00     0.021 A 
ATOM     19  C   UNL A   1      35.335  22.936  23.571  1.00  0.00     0.026 A 
ATOM     20  C   UNL A   1      35.687  22.060  24.596  1.00  0.00     0.004 A 
ENDBRANCH  10  13
ENDBRANCH   8   9
ENDBRANCH   6   8
BRANCH   6  21
ATOM     21  C   UNL A   1      32.023  24.851  25.217  1.00  0.00    -0.030 A 
ATOM     22  C   UNL A   1      33.148  24.659  26.046  1.00  0.00     0.005 A 
ATOM     23  C   UNL A   1      30.954  23.948  25.366  1.00  0.00     0.005 A 
ATOM     24  C   UNL A   1      33.192  23.628  26.989  1.00  0.00     0.000 A 
ATOM     25  C   UNL A   1      30.996  22.922  26.314  1.00  0.00     0.000 A 
ATOM     26  C   UNL A   1      32.114  22.762  27.126  1.00  0.00     0.000 A 
ENDBRANCH   6  21
ENDBRANCH   4   6
ENDBRANCH   3   4
ENDBRANCH   2   3
ENDBRANCH   1   2
BRANCH   1  27
ATOM     27  O   UNL A   1      32.886  30.508  26.218  1.00  0.00    -0.374 OA
BRANCH  27  28
ATOM     28  C   UNL A   1      31.673  31.201  26.496  1.00  0.00     0.202 C 
BRANCH  28  29
ATOM     29  C   UNL A   1      31.797  32.583  27.155  1.00  0.00     0.261 C 
BRANCH  29  30
ATOM     30  O   UNL A   1      33.087  33.205  27.000  1.00  0.00    -0.460 OA
BRANCH  30  31
ATOM     31  C   UNL A   1      33.653  33.615  28.162  1.00  0.00     0.338 C 
ATOM     32  O   UNL A   1      33.188  34.405  28.973  1.00  0.00    -0.246 OA
BRANCH  31  33
ATOM     33  C   UNL A   1      34.914  32.894  28.423  1.00  0.00     0.060 A 
ATOM     34  C   UNL A   1      34.830  31.598  28.942  1.00  0.00     0.016 A 
ATOM     35  C   UNL A   1      36.159  33.518  28.290  1.00  0.00     0.016 A 
ATOM     36  C   UNL A   1      35.984  30.935  29.365  1.00  0.00     0.010 A 
ATOM     37  C   UNL A   1      37.318  32.852  28.718  1.00  0.00     0.010 A 
ATOM     38  C   UNL A   1      37.234  31.567  29.288  1.00  0.00    -0.014 A 
BRANCH  38  39
ATOM     39  C   UNL A   1      38.398  30.949  29.981  1.00  0.00     0.031 A 
ATOM     40  C   UNL A   1      38.624  31.271  31.429  1.00  0.00     0.074 A 
ATOM     41  C   UNL A   1      39.204  30.064  29.366  1.00  0.00     0.049 A 
ATOM     42  N   UNL A   1      39.527  30.804  32.252  1.00  0.00    -0.248 NA
ATOM     43  C   UNL A   1      37.727  32.275  32.021  1.00  0.00     0.031 C 
ATOM     44  C   UNL A   1      39.117  29.700  27.962  1.00  0.00     0.029 A 
ATOM     45  N   UNL A   1      40.240  29.296  29.841  1.00  0.00    -0.354 N 
ATOM     46  C   UNL A   1      39.318  31.467  33.452  1.00  0.00     0.074 A 
ATOM     47  C   UNL A   1      38.227  32.394  33.241  1.00  0.00     0.031 C 
ATOM     48  C   UNL A   1      40.002  28.726  27.694  1.00  0.00     0.029 A 
ATOM     49  C   UNL A   1      40.766  28.438  28.903  1.00  0.00     0.049 A 
ATOM     50  H   UNL A   1      40.574  29.354  30.766  1.00  0.00     0.167 HD
ATOM     51  C   UNL A   1      39.971  31.312  34.627  1.00  0.00     0.037 A 
ATOM     52  C   UNL A   1      41.758  27.531  29.006  1.00  0.00     0.037 A 
ATOM     53  C   UNL A   1      41.058  30.392  34.835  1.00  0.00     0.049 A 
ATOM     54  C   UNL A   1      42.473  27.380  30.324  1.00  0.00     0.074 A 
ATOM     55  C   UNL A   1      41.784  30.160  35.989  1.00  0.00     0.029 A 
ATOM     56  N   UNL A   1      41.575  29.550  33.861  1.00  0.00    -0.354 N 
ATOM     57  N   UNL A   1      42.250  27.995  31.460  1.00  0.00    -0.248 NA
ATOM     58  C   UNL A   1      43.588  26.423  30.370  1.00  0.00     0.031 C 
ATOM     59  C   UNL A   1      42.770  29.210  35.702  1.00  0.00     0.029 A 
ATOM     60  C   UNL A   1      42.621  28.807  34.384  1.00  0.00     0.049 A 
ATOM     61  H   UNL A   1      41.247  29.490  32.934  1.00  0.00     0.167 HD
ATOM     62  C   UNL A   1      43.178  27.487  32.358  1.00  0.00     0.074 A 
ATOM     63  C   UNL A   1      43.955  26.497  31.641  1.00  0.00     0.031 C 
ATOM     64  C   UNL A   1      43.375  27.816  33.658  1.00  0.00     0.037 A 
BRANCH  51  65
ATOM     65  C   UNL A   1      39.538  32.188  35.765  1.00  0.00     0.064 A 
ATOM     66  C   UNL A   1      38.516  31.802  36.645  1.00  0.00     0.173 A 
ATOM     67  C   UNL A   1      40.141  33.438  35.967  1.00  0.00     0.173 A 
ATOM     68  F   UNL A   1      37.892  30.624  36.480  1.00  0.00    -0.203 F 
ATOM     69  C   UNL A   1      38.086  32.651  37.661  1.00  0.00     0.198 A 
ATOM     70  C   UNL A   1      39.731  34.271  37.004  1.00  0.00     0.198 A 
ATOM     71  F   UNL A   1      41.122  33.855  35.153  1.00  0.00    -0.203 F 
ATOM     72  F   UNL A   1      37.062  32.289  38.447  1.00  0.00    -0.200 F 
ATOM     73  C   UNL A   1      38.697  33.883  37.842  1.00  0.00     0.200 A 
ATOM     74  F   UNL A   1      40.329  35.457  37.184  1.00  0.00    -0.200 F 
ATOM     75  F   UNL A   1      38.280  34.701  38.818  1.00  0.00    -0.200 F 
ENDBRANCH  51  65
BRANCH  52  76
ATOM     76  C   UNL A   1      42.140  26.690  27.837  1.00  0.00     0.064 A 
ATOM     77  C   UNL A   1      43.125  27.114  26.933  1.00  0.00     0.173 A 
ATOM     78  C   UNL A   1      41.513  25.461  27.581  1.00  0.00     0.173 A 
ATOM     79  F   UNL A   1      43.737  28.295  27.114  1.00  0.00    -0.203 F 
ATOM     80  C   UNL A   1      43.453  26.353  25.811  1.00  0.00     0.198 A 
ATOM     81  C   UNL A   1      41.864  24.686  26.477  1.00  0.00     0.198 A 
ATOM     82  F   UNL A   1      40.560  25.009  28.409  1.00  0.00    -0.203 F 
ATOM     83  F   UNL A   1      44.360  26.810  24.936  1.00  0.00    -0.200 F 
ATOM     84  C   UNL A   1      42.827  25.137  25.588  1.00  0.00     0.200 A 
ATOM     85  F   UNL A   1      41.265  23.506  26.273  1.00  0.00    -0.200 F 
ATOM     86  F   UNL A   1      43.144  24.404  24.511  1.00  0.00    -0.200 F 
ENDBRANCH  52  76
BRANCH  64  87
ATOM     87  C   UNL A   1      44.443  27.069  34.405  1.00  0.00     0.064 A 
ATOM     88  C   UNL A   1      45.749  27.567  34.519  1.00  0.00     0.173 A 
ATOM     89  C   UNL A   1      44.141  25.859  35.046  1.00  0.00     0.173 A 
ATOM     90  F   UNL A   1      46.093  28.712  33.912  1.00  0.00    -0.203 F 
ATOM     91  C   UNL A   1      46.721  26.866  35.231  1.00  0.00     0.198 A 
ATOM     92  C   UNL A   1      45.106  25.177  35.781  1.00  0.00     0.198 A 
ATOM     93  F   UNL A   1      42.904  25.345  34.971  1.00  0.00    -0.203 F 
ATOM     94  F   UNL A   1      47.975  27.336  35.288  1.00  0.00    -0.200 F 
ATOM     95  C   UNL A   1      46.396  25.678  35.866  1.00  0.00     0.200 A 
ATOM     96  F   UNL A   1      44.787  24.035  36.406  1.00  0.00    -0.200 F 
ATOM     97  F   UNL A   1      47.331  25.008  36.557  1.00  0.00    -0.200 F 
ENDBRANCH  64  87
ENDBRANCH  38  39
ENDBRANCH  31  33
ENDBRANCH  30  31
ENDBRANCH  29  30
ENDBRANCH  28  29
ENDBRANCH  27  28
ENDBRANCH   1  27
TORSDOF 18
ENDMDL
MODEL 2
REMARK VINA RESULT:     -11.3      4.543      9.996
REMARK SMILES Cc1c(Cl)cccc1NC(=O)C[C@](C)(C(=O)OCCOCCOC(=O)c1ccc(-c2c3nc(c(-c4c(F)c(F)c(F)c(F)c4F)c4ccc([nH]4)c(-c4c(F)c(F)c(F)c(F)c4F)c4nc(c(-c5c(F)c(F)c(F)c(F)c5F)c5ccc2[nH]5)C=C4)C=C3)cc1)c1ccccc1
REMARK SMILES IDX 19 1 18 2 17 3 15 4 16 5 13 6 14 7 12 8 10 9 9 10 11 12 8 13
REMARK SMILES IDX 1 14 2 15 3 16 4 17 5 18 7 19 6 20 89 21 90 22 94 23 91 24
REMARK SMILES IDX 93 25 92 26 20 27 21 28 22 29 23 30 24 31 25 32 26 33 27 34
REMARK SMILES IDX 88 35 28 36 87 37 29 38 30 39 31 40 81 41 32 42 86 43 80 44
REMARK SMILES IDX 82 45 33 46 85 47 79 48 78 49 34 51 66 52 46 53 65 54 47 55
REMARK SMILES IDX 50 56 64 57 83 58 48 59 49 60 63 62 84 63 51 64 35 65 36 66
REMARK SMILES IDX 44 67 37 68 38 69 42 70 45 71 39 72 40 73 43 74 41 75 67 76
REMARK SMILES IDX 68 77 76 78 69 79 70 80 74 81 77 82 71 83 72 84 75 85 73 86
REMARK SMILES IDX 52 87 53 88 61 89 54 90 55 91 59 92 62 93 56 94 57 95 60 96
REMARK SMILES IDX 58 97
REMARK H PARENT 9 11 82 50 50 61
REMARK Flexibility Score: inf
ROOT
ATOM      1  C   UNL A   1      35.139  21.814  25.240  1.00  0.00     0.202 C 
ENDROOT
BRANCH   1   2
ATOM      2  C   UNL A   1      33.702  21.289  25.253  1.00  0.00     0.261 C 
BRANCH   2   3
ATOM      3  O   UNL A   1      32.776  22.362  25.008  1.00  0.00    -0.463 OA
BRANCH   3   4
ATOM      4  C   UNL A   1      32.609  22.711  23.705  1.00  0.00     0.316 C 
ATOM      5  O   UNL A   1      32.342  21.901  22.824  1.00  0.00    -0.251 OA
BRANCH   4   6
ATOM      6  C   UNL A   1      32.749  24.238  23.466  1.00  0.00     0.099 C 
ATOM      7  C   UNL A   1      34.233  24.694  23.343  1.00  0.00     0.029 C 
BRANCH   6   8
ATOM      8  C   UNL A   1      31.993  24.630  22.152  1.00  0.00     0.123 C 
BRANCH   8   9
ATOM      9  C   UNL A   1      32.609  25.650  21.207  1.00  0.00     0.225 C 
ATOM     10  N   UNL A   1      32.569  26.995  21.403  1.00  0.00    -0.326 N 
ATOM     11  H   UNL A   1      33.104  27.498  20.748  1.00  0.00     0.169 HD
ATOM     12  O   UNL A   1      33.208  25.257  20.199  1.00  0.00    -0.275 OA
BRANCH  10  13
ATOM     13  C   UNL A   1      31.926  27.817  22.339  1.00  0.00     0.045 A 
ATOM     14  C   UNL A   1      34.215  28.604  23.225  1.00  0.00     0.048 C 
ATOM     15  C   UNL A   1      32.707  28.546  23.264  1.00  0.00    -0.009 A 
ATOM     16  C   UNL A   1      32.044  29.213  24.310  1.00  0.00     0.046 A 
ATOM     17  Cl  UNL A   1      32.943  29.881  25.631  1.00  0.00    -0.084 Cl
ATOM     18  C   UNL A   1      30.653  29.288  24.354  1.00  0.00     0.021 A 
ATOM     19  C   UNL A   1      30.531  27.930  22.375  1.00  0.00     0.026 A 
ATOM     20  C   UNL A   1      29.894  28.669  23.371  1.00  0.00     0.004 A 
ENDBRANCH  10  13
ENDBRANCH   8   9
ENDBRANCH   6   8
BRANCH   6  21
ATOM     21  C   UNL A   1      32.198  25.054  24.678  1.00  0.00    -0.030 A 
ATOM     22  C   UNL A   1      30.806  25.188  24.868  1.00  0.00     0.005 A 
ATOM     23  C   UNL A   1      33.038  25.741  25.574  1.00  0.00     0.005 A 
ATOM     24  C   UNL A   1      30.283  25.954  25.913  1.00  0.00     0.000 A 
ATOM     25  C   UNL A   1      32.513  26.501  26.624  1.00  0.00     0.000 A 
ATOM     26  C   UNL A   1      31.137  26.607  26.794  1.00  0.00     0.000 A 
ENDBRANCH   6  21
ENDBRANCH   4   6
ENDBRANCH   3   4
ENDBRANCH   2   3
ENDBRANCH   1   2
BRANCH   1  27
ATOM     27  O   UNL A   1      36.145  20.873  25.616  1.00  0.00    -0.374 OA
BRANCH  27  28
ATOM     28  C   UNL A   1      37.102  20.508  24.625  1.00  0.00     0.202 C 
BRANCH  28  29
ATOM     29  C   UNL A   1      38.456  19.984  25.126  1.00  0.00     0.261 C 
BRANCH  29  30
ATOM     30  O   UNL A   1      38.880  20.534  26.389  1.00  0.00    -0.460 OA
BRANCH  30  31
ATOM     31  C   UNL A   1      40.216  20.750  26.484  1.00  0.00     0.338 C 
ATOM     32  O   UNL A   1      41.112  20.036  26.052  1.00  0.00    -0.246 OA
BRANCH  31  33
ATOM     33  C   UNL A   1      40.501  22.057  27.106  1.00  0.00     0.060 A 
ATOM     34  C   UNL A   1      39.834  23.179  26.603  1.00  0.00     0.016 A 
ATOM     35  C   UNL A   1      41.499  22.208  28.074  1.00  0.00     0.016 A 
ATOM     36  C   UNL A   1      40.187  24.458  27.037  1.00  0.00     0.010 A 
ATOM     37  C   UNL A   1      41.856  23.495  28.506  1.00  0.00     0.010 A 
ATOM     38  C   UNL A   1      41.223  24.631  27.967  1.00  0.00    -0.014 A 
BRANCH  38  39
ATOM     39  C   UNL A   1      41.751  26.002  28.210  1.00  0.00     0.031 A 
ATOM     40  C   UNL A   1      43.077  26.375  27.614  1.00  0.00     0.074 A 
ATOM     41  C   UNL A   1      41.046  26.927  28.887  1.00  0.00     0.049 A 
ATOM     42  N   UNL A   1      43.703  27.524  27.637  1.00  0.00    -0.248 NA
ATOM     43  C   UNL A   1      43.806  25.302  26.922  1.00  0.00     0.031 C 
ATOM     44  C   UNL A   1      39.774  26.680  29.545  1.00  0.00     0.029 A 
ATOM     45  N   UNL A   1      41.283  28.260  29.118  1.00  0.00    -0.354 N 
ATOM     46  C   UNL A   1      44.904  27.308  26.977  1.00  0.00     0.074 A 
ATOM     47  C   UNL A   1      44.936  25.912  26.599  1.00  0.00     0.031 C 
ATOM     48  C   UNL A   1      39.295  27.832  30.044  1.00  0.00     0.029 A 
ATOM     49  C   UNL A   1      40.263  28.894  29.791  1.00  0.00     0.049 A 
ATOM     50  H   UNL A   1      42.105  28.720  28.829  1.00  0.00     0.167 HD
ATOM     51  C   UNL A   1      45.889  28.195  26.705  1.00  0.00     0.037 A 
ATOM     52  C   UNL A   1      40.131  30.181  30.168  1.00  0.00     0.037 A 
ATOM     53  C   UNL A   1      45.858  29.583  27.085  1.00  0.00     0.049 A 
ATOM     54  C   UNL A   1      41.244  31.148  29.858  1.00  0.00     0.074 A 
ATOM     55  C   UNL A   1      46.806  30.562  26.855  1.00  0.00     0.029 A 
ATOM     56  N   UNL A   1      44.819  30.187  27.778  1.00  0.00    -0.354 N 
ATOM     57  N   UNL A   1      42.365  30.939  29.211  1.00  0.00    -0.248 NA
ATOM     58  C   UNL A   1      41.081  32.527  30.343  1.00  0.00     0.031 C 
ATOM     59  C   UNL A   1      46.361  31.749  27.447  1.00  0.00     0.029 A 
ATOM     60  C   UNL A   1      45.109  31.524  27.997  1.00  0.00     0.049 A 
ATOM     61  H   UNL A   1      43.996  29.732  28.072  1.00  0.00     0.167 HD
ATOM     62  C   UNL A   1      43.030  32.157  29.194  1.00  0.00     0.074 A 
ATOM     63  C   UNL A   1      42.177  33.108  29.877  1.00  0.00     0.031 C 
ATOM     64  C   UNL A   1      44.242  32.459  28.667  1.00  0.00     0.037 A 
BRANCH  51  65
ATOM     65  C   UNL A   1      47.097  27.669  25.988  1.00  0.00     0.064 A 
ATOM     66  C   UNL A   1      48.202  27.156  26.683  1.00  0.00     0.173 A 
ATOM     67  C   UNL A   1      47.155  27.693  24.587  1.00  0.00     0.173 A 
ATOM     68  F   UNL A   1      48.204  27.132  28.025  1.00  0.00    -0.203 F 
ATOM     69  C   UNL A   1      49.338  26.725  26.004  1.00  0.00     0.198 A 
ATOM     70  C   UNL A   1      48.279  27.229  23.909  1.00  0.00     0.198 A 
ATOM     71  F   UNL A   1      46.125  28.173  23.874  1.00  0.00    -0.203 F 
ATOM     72  F   UNL A   1      50.408  26.302  26.691  1.00  0.00    -0.200 F 
ATOM     73  C   UNL A   1      49.373  26.757  24.618  1.00  0.00     0.200 A 
ATOM     74  F   UNL A   1      48.309  27.253  22.569  1.00  0.00    -0.200 F 
ATOM     75  F   UNL A   1      50.469  26.345  23.965  1.00  0.00    -0.200 F 
ENDBRANCH  51  65
BRANCH  52  76
ATOM     76  C   UNL A   1      38.905  30.640  30.878  1.00  0.00     0.064 A 
ATOM     77  C   UNL A   1      38.831  30.623  32.279  1.00  0.00     0.173 A 
ATOM     78  C   UNL A   1      37.771  31.079  30.176  1.00  0.00     0.173 A 
ATOM     79  F   UNL A   1      39.876  30.186  32.999  1.00  0.00    -0.203 F 
ATOM     80  C   UNL A   1      37.669  31.007  32.947  1.00  0.00     0.198 A 
ATOM     81  C   UNL A   1      36.622  31.493  30.846  1.00  0.00     0.198 A 
ATOM     82  F   UNL A   1      37.783  31.111  28.835  1.00  0.00    -0.203 F 
ATOM     83  F   UNL A   1      37.610  30.929  34.284  1.00  0.00    -0.200 F 
ATOM     84  C   UNL A   1      36.567  31.448  32.231  1.00  0.00     0.200 A 
ATOM     85  F   UNL A   1      35.565  31.930  30.150  1.00  0.00    -0.200 F 
ATOM     86  F   UNL A   1      35.451  31.819  32.873  1.00  0.00    -0.200 F 
ENDBRANCH  52  76
BRANCH  64  87
ATOM     87  C   UNL A   1      44.700  33.886  28.767  1.00  0.00     0.064 A 
ATOM     88  C   UNL A   1      45.504  34.331  29.826  1.00  0.00     0.173 A 
ATOM     89  C   UNL A   1      44.361  34.808  27.766  1.00  0.00     0.173 A 
ATOM     90  F   UNL A   1      45.843  33.492  30.817  1.00  0.00    -0.203 F 
ATOM     91  C   UNL A   1      45.933  35.655  29.890  1.00  0.00     0.198 A 
ATOM     92  C   UNL A   1      44.817  36.122  27.817  1.00  0.00     0.198 A 
ATOM     93  F   UNL A   1      43.600  34.429  26.728  1.00  0.00    -0.203 F 
ATOM     94  F   UNL A   1      46.661  36.070  30.936  1.00  0.00    -0.200 F 
ATOM     95  C   UNL A   1      45.595  36.546  28.884  1.00  0.00     0.200 A 
ATOM     96  F   UNL A   1      44.501  36.978  26.836  1.00  0.00    -0.200 F 
ATOM     97  F   UNL A   1      46.015  37.818  28.944  1.00  0.00    -0.200 F 
ENDBRANCH  64  87
ENDBRANCH  38  39
ENDBRANCH  31  33
ENDBRANCH  30  31
ENDBRANCH  29  30
ENDBRANCH  28  29
ENDBRANCH  27  28
ENDBRANCH   1  27
TORSDOF 18
ENDMDL
MODEL 3
REMARK VINA RESULT:     -11.3      5.126      9.029
REMARK SMILES Cc1c(Cl)cccc1NC(=O)C[C@](C)(C(=O)OCCOCCOC(=O)c1ccc(-c2c3nc(c(-c4c(F)c(F)c(F)c(F)c4F)c4ccc([nH]4)c(-c4c(F)c(F)c(F)c(F)c4F)c4nc(c(-c5c(F)c(F)c(F)c(F)c5F)c5ccc2[nH]5)C=C4)C=C3)cc1)c1ccccc1
REMARK SMILES IDX 19 1 18 2 17 3 15 4 16 5 13 6 14 7 12 8 10 9 9 10 11 12 8 13
REMARK SMILES IDX 1 14 2 15 3 16 4 17 5 18 7 19 6 20 89 21 90 22 94 23 91 24
REMARK SMILES IDX 93 25 92 26 20 27 21 28 22 29 23 30 24 31 25 32 26 33 27 34
REMARK SMILES IDX 88 35 28 36 87 37 29 38 30 39 31 40 81 41 32 42 86 43 80 44
REMARK SMILES IDX 82 45 33 46 85 47 79 48 78 49 34 51 66 52 46 53 65 54 47 55
REMARK SMILES IDX 50 56 64 57 83 58 48 59 49 60 63 62 84 63 51 64 35 65 36 66
REMARK SMILES IDX 44 67 37 68 38 69 42 70 45 71 39 72 40 73 43 74 41 75 67 76
REMARK SMILES IDX 68 77 76 78 69 79 70 80 74 81 77 82 71 83 72 84 75 85 73 86
REMARK SMILES IDX 52 87 53 88 61 89 54 90 55 91 59 92 62 93 56 94 57 95 60 96
REMARK SMILES IDX 58 97
REMARK H PARENT 9 11 82 50 50 61
REMARK Flexibility Score: inf
ROOT
ATOM      1  C   UNL A   1      36.570  20.689  25.049  1.00  0.00     0.202 C 
ENDROOT
BRANCH   1   2
ATOM      2  C   UNL A   1      35.089  21.059  25.154  1.00  0.00     0.261 C 
BRANCH   2   3
ATOM      3  O   UNL A   1      34.939  22.481  25.301  1.00  0.00    -0.463 OA
BRANCH   3   4
ATOM      4  C   UNL A   1      34.526  23.149  24.191  1.00  0.00     0.316 C 
ATOM      5  O   UNL A   1      35.072  23.034  23.099  1.00  0.00    -0.251 OA
BRANCH   4   6
ATOM      6  C   UNL A   1      33.275  24.031  24.447  1.00  0.00     0.099 C 
ATOM      7  C   UNL A   1      31.956  23.359  23.962  1.00  0.00     0.029 C 
BRANCH   6   8
ATOM      8  C   UNL A   1      33.153  24.327  25.980  1.00  0.00     0.123 C 
BRANCH   8   9
ATOM      9  C   UNL A   1      31.780  24.340  26.635  1.00  0.00     0.225 C 
ATOM     10  N   UNL A   1      30.919  25.391  26.583  1.00  0.00    -0.326 N 
ATOM     11  H   UNL A   1      30.038  25.190  26.974  1.00  0.00     0.169 HD
ATOM     12  O   UNL A   1      31.390  23.336  27.243  1.00  0.00    -0.275 OA
BRANCH  10  13
ATOM     13  C   UNL A   1      31.020  26.701  26.094  1.00  0.00     0.045 A 
ATOM     14  C   UNL A   1      29.484  26.084  24.119  1.00  0.00     0.048 C 
ATOM     15  C   UNL A   1      30.387  27.029  24.873  1.00  0.00    -0.009 A 
ATOM     16  C   UNL A   1      30.655  28.288  24.306  1.00  0.00     0.046 A 
ATOM     17  Cl  UNL A   1      30.148  28.644  22.689  1.00  0.00    -0.084 Cl
ATOM     18  C   UNL A   1      31.396  29.248  24.991  1.00  0.00     0.021 A 
ATOM     19  C   UNL A   1      31.732  27.687  26.787  1.00  0.00     0.026 A 
ATOM     20  C   UNL A   1      31.913  28.959  26.246  1.00  0.00     0.004 A 
ENDBRANCH  10  13
ENDBRANCH   8   9
ENDBRANCH   6   8
BRANCH   6  21
ATOM     21  C   UNL A   1      33.346  25.363  23.636  1.00  0.00    -0.030 A 
ATOM     22  C   UNL A   1      32.794  25.434  22.339  1.00  0.00     0.005 A 
ATOM     23  C   UNL A   1      34.012  26.507  24.115  1.00  0.00     0.005 A 
ATOM     24  C   UNL A   1      32.887  26.597  21.570  1.00  0.00     0.000 A 
ATOM     25  C   UNL A   1      34.098  27.672  23.347  1.00  0.00     0.000 A 
ATOM     26  C   UNL A   1      33.535  27.718  22.076  1.00  0.00     0.000 A 
ENDBRANCH   6  21
ENDBRANCH   4   6
ENDBRANCH   3   4
ENDBRANCH   2   3
ENDBRANCH   1   2
BRANCH   1  27
ATOM     27  O   UNL A   1      37.488  21.780  25.125  1.00  0.00    -0.374 OA
BRANCH  27  28
ATOM     28  C   UNL A   1      38.744  21.535  25.752  1.00  0.00     0.202 C 
BRANCH  28  29
ATOM     29  C   UNL A   1      39.350  20.135  25.571  1.00  0.00     0.261 C 
BRANCH  29  30
ATOM     30  O   UNL A   1      40.225  19.719  26.637  1.00  0.00    -0.460 OA
BRANCH  30  31
ATOM     31  C   UNL A   1      41.503  19.483  26.251  1.00  0.00     0.338 C 
ATOM     32  O   UNL A   1      41.947  18.456  25.753  1.00  0.00    -0.246 OA
BRANCH  31  33
ATOM     33  C   UNL A   1      42.337  20.691  26.402  1.00  0.00     0.060 A 
ATOM     34  C   UNL A   1      42.367  21.312  27.655  1.00  0.00     0.016 A 
ATOM     35  C   UNL A   1      42.975  21.285  25.308  1.00  0.00     0.016 A 
ATOM     36  C   UNL A   1      43.001  22.546  27.812  1.00  0.00     0.010 A 
ATOM     37  C   UNL A   1      43.609  22.528  25.466  1.00  0.00     0.010 A 
ATOM     38  C   UNL A   1      43.598  23.181  26.713  1.00  0.00    -0.014 A 
BRANCH  38  39
ATOM     39  C   UNL A   1      44.030  24.599  26.849  1.00  0.00     0.031 A 
ATOM     40  C   UNL A   1      43.054  25.596  27.400  1.00  0.00     0.074 A 
ATOM     41  C   UNL A   1      45.284  24.993  26.557  1.00  0.00     0.049 A 
ATOM     42  N   UNL A   1      43.225  26.866  27.668  1.00  0.00    -0.248 NA
ATOM     43  C   UNL A   1      41.693  25.102  27.659  1.00  0.00     0.031 C 
ATOM     44  C   UNL A   1      46.307  24.138  25.980  1.00  0.00     0.029 A 
ATOM     45  N   UNL A   1      45.918  26.201  26.721  1.00  0.00    -0.354 N 
ATOM     46  C   UNL A   1      41.994  27.324  28.111  1.00  0.00     0.074 A 
ATOM     47  C   UNL A   1      41.075  26.208  28.042  1.00  0.00     0.031 C 
ATOM     48  C   UNL A   1      47.467  24.811  25.904  1.00  0.00     0.029 A 
ATOM     49  C   UNL A   1      47.250  26.176  26.374  1.00  0.00     0.049 A 
ATOM     50  H   UNL A   1      45.464  27.007  27.055  1.00  0.00     0.167 HD
ATOM     51  C   UNL A   1      41.659  28.562  28.544  1.00  0.00     0.037 A 
ATOM     52  C   UNL A   1      48.185  27.146  26.421  1.00  0.00     0.037 A 
ATOM     53  C   UNL A   1      42.573  29.672  28.610  1.00  0.00     0.049 A 
ATOM     54  C   UNL A   1      47.786  28.518  26.902  1.00  0.00     0.074 A 
ATOM     55  C   UNL A   1      42.331  30.965  29.035  1.00  0.00     0.029 A 
ATOM     56  N   UNL A   1      43.908  29.616  28.237  1.00  0.00    -0.354 N 
ATOM     57  N   UNL A   1      46.624  28.934  27.344  1.00  0.00    -0.248 NA
ATOM     58  C   UNL A   1      48.824  29.558  26.878  1.00  0.00     0.031 C 
ATOM     59  C   UNL A   1      43.508  31.704  28.878  1.00  0.00     0.029 A 
ATOM     60  C   UNL A   1      44.500  30.857  28.408  1.00  0.00     0.049 A 
ATOM     61  H   UNL A   1      44.368  28.813  27.899  1.00  0.00     0.167 HD
ATOM     62  C   UNL A   1      46.794  30.273  27.666  1.00  0.00     0.074 A 
ATOM     63  C   UNL A   1      48.179  30.596  27.390  1.00  0.00     0.031 C 
ATOM     64  C   UNL A   1      45.884  31.157  28.141  1.00  0.00     0.037 A 
BRANCH  51  65
ATOM     65  C   UNL A   1      40.231  28.776  28.948  1.00  0.00     0.064 A 
ATOM     66  C   UNL A   1      39.805  28.597  30.273  1.00  0.00     0.173 A 
ATOM     67  C   UNL A   1      39.272  29.149  27.995  1.00  0.00     0.173 A 
ATOM     68  F   UNL A   1      40.680  28.219  31.218  1.00  0.00    -0.203 F 
ATOM     69  C   UNL A   1      38.465  28.744  30.621  1.00  0.00     0.198 A 
ATOM     70  C   UNL A   1      37.939  29.328  28.352  1.00  0.00     0.198 A 
ATOM     71  F   UNL A   1      39.627  29.333  26.714  1.00  0.00    -0.203 F 
ATOM     72  F   UNL A   1      38.070  28.502  31.878  1.00  0.00    -0.200 F 
ATOM     73  C   UNL A   1      37.534  29.114  29.661  1.00  0.00     0.200 A 
ATOM     74  F   UNL A   1      37.042  29.694  27.426  1.00  0.00    -0.200 F 
ATOM     75  F   UNL A   1      36.244  29.251  29.996  1.00  0.00    -0.200 F 
ENDBRANCH  51  65
BRANCH  52  76
ATOM     76  C   UNL A   1      49.588  26.868  26.005  1.00  0.00     0.064 A 
ATOM     77  C   UNL A   1      49.987  27.007  24.668  1.00  0.00     0.173 A 
ATOM     78  C   UNL A   1      50.552  26.430  26.926  1.00  0.00     0.173 A 
ATOM     79  F   UNL A   1      49.098  27.395  23.741  1.00  0.00    -0.203 F 
ATOM     80  C   UNL A   1      51.287  26.702  24.265  1.00  0.00     0.198 A 
ATOM     81  C   UNL A   1      51.859  26.157  26.529  1.00  0.00     0.198 A 
ATOM     82  F   UNL A   1      50.225  26.273  28.217  1.00  0.00    -0.203 F 
ATOM     83  F   UNL A   1      51.625  26.794  22.971  1.00  0.00    -0.200 F 
ATOM     84  C   UNL A   1      52.224  26.284  25.197  1.00  0.00     0.200 A 
ATOM     85  F   UNL A   1      52.764  25.764  27.435  1.00  0.00    -0.200 F 
ATOM     86  F   UNL A   1      53.474  25.993  24.811  1.00  0.00    -0.200 F 
ENDBRANCH  52  76
BRANCH  64  87
ATOM     87  C   UNL A   1      46.364  32.549  28.436  1.00  0.00     0.064 A 
ATOM     88  C   UNL A   1      46.907  32.894  29.682  1.00  0.00     0.173 A 
ATOM     89  C   UNL A   1      46.316  33.538  27.443  1.00  0.00     0.173 A 
ATOM     90  F   UNL A   1      46.960  31.989  30.671  1.00  0.00    -0.203 F 
ATOM     91  C   UNL A   1      47.362  34.188  29.930  1.00  0.00     0.198 A 
ATOM     92  C   UNL A   1      46.800  34.820  27.683  1.00  0.00     0.198 A 
ATOM     93  F   UNL A   1      45.812  33.256  26.232  1.00  0.00    -0.203 F 
ATOM     94  F   UNL A   1      47.833  34.508  31.143  1.00  0.00    -0.200 F 
ATOM     95  C   UNL A   1      47.316  35.146  28.929  1.00  0.00     0.200 A 
ATOM     96  F   UNL A   1      46.767  35.742  26.711  1.00  0.00    -0.200 F 
ATOM     97  F   UNL A   1      47.761  36.388  29.167  1.00  0.00    -0.200 F 
ENDBRANCH  64  87
ENDBRANCH  38  39
ENDBRANCH  31  33
ENDBRANCH  30  31
ENDBRANCH  29  30
ENDBRANCH  28  29
ENDBRANCH  27  28
ENDBRANCH   1  27
TORSDOF 18
ENDMDL
