MODEL 1
REMARK VINA RESULT:     -13.1      0.000      0.000
REMARK SMILES Cc1ccccc1/C=C1\SC(=O)N(CC(=O)Nc2ccccc2C(=O)OCCOCCOC(=O)c2ccc(-c3c4nc(c(-c5c(F)c(F)c(F)c(F)c5F)c5ccc([nH]5)c(-c5c(F)c(F)c(F)c(F)c5F)c5nc(c(-c6c(F)c(F)c(F)c(F)c6F)c6ccc3[nH]6)C=C5)C=C4)cc2)C1=O
REMARK SMILES IDX 28 1 27 2 26 3 24 4 25 5 23 6 18 7 19 8 20 9 22 10 21 11
REMARK SMILES IDX 17 12 15 13 16 14 14 16 13 17 8 18 9 19 10 20 98 21 11 22
REMARK SMILES IDX 99 23 12 24 7 25 1 26 2 27 3 28 4 29 6 30 5 31 29 32 30 33
REMARK SMILES IDX 31 34 32 35 33 36 34 37 35 38 36 39 97 40 37 41 96 42 38 43
REMARK SMILES IDX 39 44 40 45 90 46 41 47 95 48 89 49 91 50 42 51 94 52 88 53
REMARK SMILES IDX 87 54 43 56 75 57 55 58 74 59 56 60 59 61 73 62 92 63 57 64
REMARK SMILES IDX 58 65 72 67 93 68 60 69 44 70 45 71 53 72 46 73 47 74 51 75
REMARK SMILES IDX 54 76 48 77 49 78 52 79 50 80 76 81 77 82 85 83 78 84 79 85
REMARK SMILES IDX 83 86 86 87 80 88 81 89 84 90 82 91 61 92 62 93 70 94 63 95
REMARK SMILES IDX 64 96 68 97 71 98 65 99 66 100 69 101 67 102
REMARK H PARENT 17 15 91 55 59 66
REMARK Flexibility Score: inf
ROOT
ATOM      1  C   UNL A   1      36.501  23.835  25.476  1.00  0.00     0.202 C 
ENDROOT
BRANCH   1   2
ATOM      2  C   UNL A   1      35.206  24.170  24.527  1.00  0.00     0.261 C 
BRANCH   2   3
ATOM      3  O   UNL A   1      34.159  25.896  24.264  1.00  0.00    -0.460 OA
BRANCH   3   4
ATOM      4  C   UNL A   1      34.001  27.349  24.165  1.00  0.00     0.340 C 
ATOM      5  O   UNL A   1      34.421  27.959  23.194  1.00  0.00    -0.246 OA
BRANCH   4   6
ATOM      6  C   UNL A   1      33.272  28.190  25.121  1.00  0.00     0.083 A 
ATOM      7  C   UNL A   1      32.262  29.072  24.681  1.00  0.00     0.055 A 
ATOM      8  C   UNL A   1      31.806  30.078  25.536  1.00  0.00     0.027 A 
ATOM      9  C   UNL A   1      32.320  30.175  26.826  1.00  0.00     0.002 A 
ATOM     10  C   UNL A   1      33.854  28.358  26.375  1.00  0.00     0.018 A 
ATOM     11  C   UNL A   1      33.350  29.328  27.238  1.00  0.00     0.001 A 
BRANCH   7  12
ATOM     12  N   UNL A   1      31.681  29.042  23.408  1.00  0.00    -0.324 N 
ATOM     13  C   UNL A   1      30.597  28.314  23.006  1.00  0.00     0.244 C 
ATOM     14  O   UNL A   1      30.195  28.452  21.845  1.00  0.00    -0.273 OA
ATOM     15  H   UNL A   1      32.101  29.610  22.723  1.00  0.00     0.170 HD
BRANCH  13  16
ATOM     16  C   UNL A   1      29.756  27.573  24.053  1.00  0.00     0.230 C 
BRANCH  16  17
ATOM     17  N   UNL A   1      30.305  26.355  24.644  1.00  0.00    -0.259 N 
ATOM     18  C   UNL A   1      32.012  22.340  24.012  1.00  0.00     0.029 C 
ATOM     19  C   UNL A   1      31.640  23.546  24.534  1.00  0.00     0.083 C 
ATOM     20  S   UNL A   1      31.975  24.209  26.652  1.00  0.00    -0.022 SA
ATOM     21  C   UNL A   1      30.698  24.998  23.534  1.00  0.00     0.268 C 
ATOM     22  C   UNL A   1      30.836  26.212  26.334  1.00  0.00     0.294 C 
ATOM     23  O   UNL A   1      30.737  25.243  22.331  1.00  0.00    -0.268 OA
ATOM     24  O   UNL A   1      30.699  26.989  27.272  1.00  0.00    -0.261 OA
BRANCH  18  25
ATOM     25  C   UNL A   1      32.671  20.981  24.004  1.00  0.00    -0.021 A 
ATOM     26  C   UNL A   1      33.803  21.151  26.268  1.00  0.00     0.045 C 
ATOM     27  C   UNL A   1      33.527  20.454  24.973  1.00  0.00    -0.044 A 
ATOM     28  C   UNL A   1      34.032  19.124  24.848  1.00  0.00     0.004 A 
ATOM     29  C   UNL A   1      33.604  18.253  23.849  1.00  0.00     0.000 A 
ATOM     30  C   UNL A   1      32.152  20.004  23.096  1.00  0.00     0.008 A 
ATOM     31  C   UNL A   1      32.604  18.676  23.004  1.00  0.00     0.001 A 
ENDBRANCH  18  25
ENDBRANCH  16  17
ENDBRANCH  13  16
ENDBRANCH   7  12
ENDBRANCH   4   6
ENDBRANCH   3   4
ENDBRANCH   2   3
ENDBRANCH   1   2
BRANCH   1  32
ATOM     32  O   UNL A   1      37.447  23.033  24.780  1.00  0.00    -0.374 OA
BRANCH  32  33
ATOM     33  C   UNL A   1      37.347  21.638  25.061  1.00  0.00     0.202 C 
BRANCH  33  34
ATOM     34  C   UNL A   1      38.633  21.124  25.719  1.00  0.00     0.261 C 
BRANCH  34  35
ATOM     35  O   UNL A   1      39.620  22.182  25.679  1.00  0.00    -0.460 OA
BRANCH  35  36
ATOM     36  C   UNL A   1      40.107  22.607  26.880  1.00  0.00     0.338 C 
ATOM     37  O   UNL A   1      40.540  21.886  27.765  1.00  0.00    -0.246 OA
BRANCH  36  38
ATOM     38  C   UNL A   1      39.785  24.057  27.080  1.00  0.00     0.060 A 
ATOM     39  C   UNL A   1      40.514  25.084  26.466  1.00  0.00     0.016 A 
ATOM     40  C   UNL A   1      38.961  24.398  28.137  1.00  0.00     0.016 A 
ATOM     41  C   UNL A   1      40.546  26.393  27.027  1.00  0.00     0.010 A 
ATOM     42  C   UNL A   1      39.141  25.629  28.761  1.00  0.00     0.010 A 
ATOM     43  C   UNL A   1      40.036  26.623  28.312  1.00  0.00    -0.014 A 
BRANCH  43  44
ATOM     44  C   UNL A   1      40.373  27.783  29.277  1.00  0.00     0.031 A 
ATOM     45  C   UNL A   1      39.372  28.862  29.194  1.00  0.00     0.074 A 
ATOM     46  C   UNL A   1      41.351  28.072  30.223  1.00  0.00     0.049 A 
ATOM     47  N   UNL A   1      39.650  30.095  28.891  1.00  0.00    -0.248 NA
ATOM     48  C   UNL A   1      37.945  28.586  29.345  1.00  0.00     0.031 C 
ATOM     49  C   UNL A   1      41.242  29.095  31.277  1.00  0.00     0.029 A 
ATOM     50  N   UNL A   1      42.598  27.492  30.608  1.00  0.00    -0.354 N 
ATOM     51  C   UNL A   1      38.476  30.767  29.132  1.00  0.00     0.074 A 
ATOM     52  C   UNL A   1      37.439  29.770  29.027  1.00  0.00     0.031 C 
ATOM     53  C   UNL A   1      42.403  29.224  31.951  1.00  0.00     0.029 A 
ATOM     54  C   UNL A   1      43.416  28.349  31.368  1.00  0.00     0.049 A 
ATOM     55  H   UNL A   1      42.861  26.575  30.365  1.00  0.00     0.167 HD
ATOM     56  C   UNL A   1      38.445  31.909  29.883  1.00  0.00     0.037 A 
ATOM     57  C   UNL A   1      44.778  28.551  31.352  1.00  0.00     0.037 A 
ATOM     58  C   UNL A   1      39.749  32.209  30.496  1.00  0.00     0.049 A 
ATOM     59  C   UNL A   1      44.981  30.003  30.979  1.00  0.00     0.074 A 
ATOM     60  C   UNL A   1      40.164  32.215  31.822  1.00  0.00     0.029 A 
ATOM     61  N   UNL A   1      40.918  32.296  29.741  1.00  0.00    -0.354 N 
ATOM     62  N   UNL A   1      43.952  30.749  30.711  1.00  0.00    -0.248 NA
ATOM     63  C   UNL A   1      46.227  30.737  30.782  1.00  0.00     0.031 C 
ATOM     64  C   UNL A   1      41.557  32.440  31.862  1.00  0.00     0.029 A 
ATOM     65  C   UNL A   1      42.012  32.525  30.559  1.00  0.00     0.049 A 
ATOM     66  H   UNL A   1      40.961  32.207  28.762  1.00  0.00     0.167 HD
ATOM     67  C   UNL A   1      44.318  31.987  30.332  1.00  0.00     0.074 A 
ATOM     68  C   UNL A   1      45.767  31.937  30.359  1.00  0.00     0.031 C 
ATOM     69  C   UNL A   1      43.328  32.872  30.029  1.00  0.00     0.037 A 
BRANCH  56  70
ATOM     70  C   UNL A   1      37.130  32.479  30.410  1.00  0.00     0.064 A 
ATOM     71  C   UNL A   1      36.337  33.346  29.634  1.00  0.00     0.173 A 
ATOM     72  C   UNL A   1      36.596  32.209  31.689  1.00  0.00     0.173 A 
ATOM     73  F   UNL A   1      36.564  33.526  28.329  1.00  0.00    -0.203 F 
ATOM     74  C   UNL A   1      35.235  34.028  30.155  1.00  0.00     0.198 A 
ATOM     75  C   UNL A   1      35.539  32.940  32.238  1.00  0.00     0.198 A 
ATOM     76  F   UNL A   1      37.028  31.171  32.420  1.00  0.00    -0.203 F 
ATOM     77  F   UNL A   1      34.529  34.844  29.361  1.00  0.00    -0.200 F 
ATOM     78  C   UNL A   1      34.866  33.863  31.472  1.00  0.00     0.200 A 
ATOM     79  F   UNL A   1      35.168  32.722  33.508  1.00  0.00    -0.200 F 
ATOM     80  F   UNL A   1      33.826  34.539  31.978  1.00  0.00    -0.200 F 
ENDBRANCH  56  70
BRANCH  57  81
ATOM     81  C   UNL A   1      45.809  27.478  31.129  1.00  0.00     0.064 A 
ATOM     82  C   UNL A   1      46.190  27.097  29.829  1.00  0.00     0.173 A 
ATOM     83  C   UNL A   1      46.491  26.806  32.147  1.00  0.00     0.173 A 
ATOM     84  F   UNL A   1      45.464  27.498  28.774  1.00  0.00    -0.203 F 
ATOM     85  C   UNL A   1      47.298  26.266  29.582  1.00  0.00     0.198 A 
ATOM     86  C   UNL A   1      47.679  26.090  31.917  1.00  0.00     0.198 A 
ATOM     87  F   UNL A   1      45.967  26.772  33.375  1.00  0.00    -0.203 F 
ATOM     88  F   UNL A   1      47.619  25.922  28.326  1.00  0.00    -0.200 F 
ATOM     89  C   UNL A   1      48.101  25.845  30.627  1.00  0.00     0.200 A 
ATOM     90  F   UNL A   1      48.409  25.631  32.944  1.00  0.00    -0.200 F 
ATOM     91  F   UNL A   1      49.252  25.195  30.394  1.00  0.00    -0.200 F 
ENDBRANCH  57  81
BRANCH  69  92
ATOM     92  C   UNL A   1      43.490  34.199  29.366  1.00  0.00     0.064 A 
ATOM     93  C   UNL A   1      43.641  34.362  27.986  1.00  0.00     0.173 A 
ATOM     94  C   UNL A   1      43.345  35.387  30.125  1.00  0.00     0.173 A 
ATOM     95  F   UNL A   1      43.680  33.310  27.157  1.00  0.00    -0.203 F 
ATOM     96  C   UNL A   1      43.707  35.631  27.410  1.00  0.00     0.198 A 
ATOM     97  C   UNL A   1      43.346  36.644  29.540  1.00  0.00     0.198 A 
ATOM     98  F   UNL A   1      43.180  35.368  31.455  1.00  0.00    -0.203 F 
ATOM     99  F   UNL A   1      43.901  35.748  26.090  1.00  0.00    -0.200 F 
ATOM    100  C   UNL A   1      43.548  36.768  28.185  1.00  0.00     0.200 A 
ATOM    101  F   UNL A   1      43.135  37.728  30.301  1.00  0.00    -0.200 F 
ATOM    102  F   UNL A   1      43.575  37.982  27.622  1.00  0.00    -0.200 F 
ENDBRANCH  69  92
ENDBRANCH  43  44
ENDBRANCH  36  38
ENDBRANCH  35  36
ENDBRANCH  34  35
ENDBRANCH  33  34
ENDBRANCH  32  33
ENDBRANCH   1  32
TORSDOF 18
ENDMDL
MODEL 2
REMARK VINA RESULT:     -13.0      3.804      9.092
REMARK SMILES Cc1ccccc1/C=C1\SC(=O)N(CC(=O)Nc2ccccc2C(=O)OCCOCCOC(=O)c2ccc(-c3c4nc(c(-c5c(F)c(F)c(F)c(F)c5F)c5ccc([nH]5)c(-c5c(F)c(F)c(F)c(F)c5F)c5nc(c(-c6c(F)c(F)c(F)c(F)c6F)c6ccc3[nH]6)C=C5)C=C4)cc2)C1=O
REMARK SMILES IDX 28 1 27 2 26 3 24 4 25 5 23 6 18 7 19 8 20 9 22 10 21 11
REMARK SMILES IDX 17 12 15 13 16 14 14 16 13 17 8 18 9 19 10 20 98 21 11 22
REMARK SMILES IDX 99 23 12 24 7 25 1 26 2 27 3 28 4 29 6 30 5 31 29 32 30 33
REMARK SMILES IDX 31 34 32 35 33 36 34 37 35 38 36 39 97 40 37 41 96 42 38 43
REMARK SMILES IDX 39 44 40 45 90 46 41 47 95 48 89 49 91 50 42 51 94 52 88 53
REMARK SMILES IDX 87 54 43 56 75 57 55 58 74 59 56 60 59 61 73 62 92 63 57 64
REMARK SMILES IDX 58 65 72 67 93 68 60 69 44 70 45 71 53 72 46 73 47 74 51 75
REMARK SMILES IDX 54 76 48 77 49 78 52 79 50 80 76 81 77 82 85 83 78 84 79 85
REMARK SMILES IDX 83 86 86 87 80 88 81 89 84 90 82 91 61 92 62 93 70 94 63 95
REMARK SMILES IDX 64 96 68 97 71 98 65 99 66 100 69 101 67 102
REMARK H PARENT 17 15 91 55 59 66
REMARK Flexibility Score: inf
ROOT
ATOM      1  C   UNL A   1      33.655  36.198  29.690  1.00  0.00     0.202 C 
ENDROOT
BRANCH   1   2
ATOM      2  C   UNL A   1      32.819  35.681  28.376  1.00  0.00     0.261 C 
BRANCH   2   3
ATOM      3  O   UNL A   1      32.170  33.822  27.859  1.00  0.00    -0.460 OA
BRANCH   3   4
ATOM      4  C   UNL A   1      32.295  32.495  27.250  1.00  0.00     0.340 C 
ATOM      5  O   UNL A   1      31.428  32.065  26.506  1.00  0.00    -0.246 OA
BRANCH   4   6
ATOM      6  C   UNL A   1      33.459  31.611  27.375  1.00  0.00     0.083 A 
ATOM      7  C   UNL A   1      33.347  30.230  27.106  1.00  0.00     0.055 A 
ATOM      8  C   UNL A   1      34.356  29.362  27.528  1.00  0.00     0.027 A 
ATOM      9  C   UNL A   1      35.480  29.869  28.172  1.00  0.00     0.002 A 
ATOM     10  C   UNL A   1      34.537  32.098  28.111  1.00  0.00     0.018 A 
ATOM     11  C   UNL A   1      35.563  31.230  28.476  1.00  0.00     0.001 A 
BRANCH   7  12
ATOM     12  N   UNL A   1      32.259  29.634  26.456  1.00  0.00    -0.324 N 
ATOM     13  C   UNL A   1      32.296  28.762  25.405  1.00  0.00     0.244 C 
ATOM     14  O   UNL A   1      31.227  28.299  24.990  1.00  0.00    -0.273 OA
ATOM     15  H   UNL A   1      31.366  29.871  26.794  1.00  0.00     0.170 HD
BRANCH  13  16
ATOM     16  C   UNL A   1      33.641  28.175  24.957  1.00  0.00     0.230 C 
BRANCH  16  17
ATOM     17  N   UNL A   1      33.634  26.910  24.227  1.00  0.00    -0.259 N 
ATOM     18  C   UNL A   1      33.138  22.531  24.351  1.00  0.00     0.029 C 
ATOM     19  C   UNL A   1      33.229  23.836  23.958  1.00  0.00     0.083 C 
ATOM     20  S   UNL A   1      33.182  24.564  21.836  1.00  0.00    -0.022 SA
ATOM     21  C   UNL A   1      33.439  25.402  25.183  1.00  0.00     0.268 C 
ATOM     22  C   UNL A   1      33.557  26.774  22.458  1.00  0.00     0.294 C 
ATOM     23  O   UNL A   1      33.064  25.512  26.348  1.00  0.00    -0.268 OA
ATOM     24  O   UNL A   1      33.653  27.641  21.595  1.00  0.00    -0.261 OA
BRANCH  18  25
ATOM     25  C   UNL A   1      32.940  21.045  24.175  1.00  0.00    -0.021 A 
ATOM     26  C   UNL A   1      31.839  21.129  21.890  1.00  0.00     0.045 C 
ATOM     27  C   UNL A   1      32.305  20.400  23.111  1.00  0.00    -0.044 A 
ATOM     28  C   UNL A   1      32.243  18.975  23.061  1.00  0.00     0.004 A 
ATOM     29  C   UNL A   1      32.911  18.164  23.975  1.00  0.00     0.000 A 
ATOM     30  C   UNL A   1      33.729  20.174  24.992  1.00  0.00     0.008 A 
ATOM     31  C   UNL A   1      33.717  18.771  24.912  1.00  0.00     0.001 A 
ENDBRANCH  18  25
ENDBRANCH  16  17
ENDBRANCH  13  16
ENDBRANCH   7  12
ENDBRANCH   4   6
ENDBRANCH   3   4
ENDBRANCH   2   3
ENDBRANCH   1   2
BRANCH   1  32
ATOM     32  O   UNL A   1      32.849  37.040  30.505  1.00  0.00    -0.374 OA
BRANCH  32  33
ATOM     33  C   UNL A   1      33.120  36.932  31.902  1.00  0.00     0.202 C 
BRANCH  33  34
ATOM     34  C   UNL A   1      32.385  35.730  32.505  1.00  0.00     0.261 C 
BRANCH  34  35
ATOM     35  O   UNL A   1      33.096  34.527  32.132  1.00  0.00    -0.460 OA
BRANCH  35  36
ATOM     36  C   UNL A   1      34.191  34.208  32.880  1.00  0.00     0.338 C 
ATOM     37  O   UNL A   1      34.491  34.712  33.951  1.00  0.00    -0.246 OA
BRANCH  36  38
ATOM     38  C   UNL A   1      35.128  33.354  32.079  1.00  0.00     0.060 A 
ATOM     39  C   UNL A   1      35.256  31.975  32.287  1.00  0.00     0.016 A 
ATOM     40  C   UNL A   1      36.112  33.987  31.342  1.00  0.00     0.016 A 
ATOM     41  C   UNL A   1      36.447  31.287  31.914  1.00  0.00     0.010 A 
ATOM     42  C   UNL A   1      37.326  33.335  31.143  1.00  0.00     0.010 A 
ATOM     43  C   UNL A   1      37.589  32.008  31.539  1.00  0.00    -0.014 A 
BRANCH  43  44
ATOM     44  C   UNL A   1      39.061  31.536  31.557  1.00  0.00     0.031 A 
ATOM     45  C   UNL A   1      39.263  30.363  30.685  1.00  0.00     0.074 A 
ATOM     46  C   UNL A   1      40.254  31.934  32.152  1.00  0.00     0.049 A 
ATOM     47  N   UNL A   1      39.727  29.221  31.094  1.00  0.00    -0.248 NA
ATOM     48  C   UNL A   1      38.839  30.377  29.287  1.00  0.00     0.031 C 
ATOM     49  C   UNL A   1      41.601  31.528  31.717  1.00  0.00     0.029 A 
ATOM     50  N   UNL A   1      40.623  32.870  33.166  1.00  0.00    -0.354 N 
ATOM     51  C   UNL A   1      39.934  28.514  29.932  1.00  0.00     0.074 A 
ATOM     52  C   UNL A   1      39.044  29.107  28.964  1.00  0.00     0.031 C 
ATOM     53  C   UNL A   1      42.543  31.974  32.573  1.00  0.00     0.029 A 
ATOM     54  C   UNL A   1      41.909  32.660  33.695  1.00  0.00     0.049 A 
ATOM     55  H   UNL A   1      40.030  33.596  33.466  1.00  0.00     0.167 HD
ATOM     56  C   UNL A   1      41.119  27.882  29.680  1.00  0.00     0.037 A 
ATOM     57  C   UNL A   1      42.387  32.760  34.984  1.00  0.00     0.037 A 
ATOM     58  C   UNL A   1      42.139  28.181  30.697  1.00  0.00     0.049 A 
ATOM     59  C   UNL A   1      42.885  31.381  35.353  1.00  0.00     0.074 A 
ATOM     60  C   UNL A   1      43.335  28.885  30.623  1.00  0.00     0.029 A 
ATOM     61  N   UNL A   1      41.903  27.993  32.059  1.00  0.00    -0.354 N 
ATOM     62  N   UNL A   1      42.758  30.403  34.508  1.00  0.00    -0.248 NA
ATOM     63  C   UNL A   1      43.455  30.915  36.614  1.00  0.00     0.031 C 
ATOM     64  C   UNL A   1      43.878  28.998  31.921  1.00  0.00     0.029 A 
ATOM     65  C   UNL A   1      42.995  28.407  32.805  1.00  0.00     0.049 A 
ATOM     66  H   UNL A   1      41.077  27.618  32.438  1.00  0.00     0.167 HD
ATOM     67  C   UNL A   1      43.189  29.237  35.026  1.00  0.00     0.074 A 
ATOM     68  C   UNL A   1      43.597  29.592  36.371  1.00  0.00     0.031 C 
ATOM     69  C   UNL A   1      43.116  28.131  34.235  1.00  0.00     0.037 A 
BRANCH  56  70
ATOM     70  C   UNL A   1      41.465  27.368  28.284  1.00  0.00     0.064 A 
ATOM     71  C   UNL A   1      41.048  26.100  27.839  1.00  0.00     0.173 A 
ATOM     72  C   UNL A   1      42.219  28.087  27.331  1.00  0.00     0.173 A 
ATOM     73  F   UNL A   1      40.139  25.384  28.509  1.00  0.00    -0.203 F 
ATOM     74  C   UNL A   1      41.506  25.531  26.648  1.00  0.00     0.198 A 
ATOM     75  C   UNL A   1      42.738  27.499  26.175  1.00  0.00     0.198 A 
ATOM     76  F   UNL A   1      42.412  29.410  27.447  1.00  0.00    -0.203 F 
ATOM     77  F   UNL A   1      41.072  24.315  26.288  1.00  0.00    -0.200 F 
ATOM     78  C   UNL A   1      42.391  26.211  25.840  1.00  0.00     0.200 A 
ATOM     79  F   UNL A   1      43.557  28.202  25.379  1.00  0.00    -0.200 F 
ATOM     80  F   UNL A   1      42.851  25.652  24.712  1.00  0.00    -0.200 F 
ENDBRANCH  56  70
BRANCH  57  81
ATOM     81  C   UNL A   1      41.949  33.789  35.990  1.00  0.00     0.064 A 
ATOM     82  C   UNL A   1      42.653  34.998  36.145  1.00  0.00     0.173 A 
ATOM     83  C   UNL A   1      40.825  33.670  36.813  1.00  0.00     0.173 A 
ATOM     84  F   UNL A   1      43.863  35.146  35.585  1.00  0.00    -0.203 F 
ATOM     85  C   UNL A   1      42.151  36.069  36.908  1.00  0.00     0.198 A 
ATOM     86  C   UNL A   1      40.244  34.771  37.465  1.00  0.00     0.198 A 
ATOM     87  F   UNL A   1      40.318  32.458  37.058  1.00  0.00    -0.203 F 
ATOM     88  F   UNL A   1      42.860  37.200  37.034  1.00  0.00    -0.200 F 
ATOM     89  C   UNL A   1      40.896  35.986  37.486  1.00  0.00     0.200 A 
ATOM     90  F   UNL A   1      39.057  34.654  38.077  1.00  0.00    -0.200 F 
ATOM     91  F   UNL A   1      40.335  37.055  38.072  1.00  0.00    -0.200 F 
ENDBRANCH  57  81
BRANCH  69  92
ATOM     92  C   UNL A   1      43.304  26.714  34.662  1.00  0.00     0.064 A 
ATOM     93  C   UNL A   1      42.261  25.891  35.098  1.00  0.00     0.173 A 
ATOM     94  C   UNL A   1      44.566  26.091  34.497  1.00  0.00     0.173 A 
ATOM     95  F   UNL A   1      41.003  26.345  35.188  1.00  0.00    -0.203 F 
ATOM     96  C   UNL A   1      42.480  24.549  35.409  1.00  0.00     0.198 A 
ATOM     97  C   UNL A   1      44.764  24.742  34.746  1.00  0.00     0.198 A 
ATOM     98  F   UNL A   1      45.645  26.765  34.073  1.00  0.00    -0.203 F 
ATOM     99  F   UNL A   1      41.466  23.805  35.869  1.00  0.00    -0.200 F 
ATOM    100  C   UNL A   1      43.726  23.974  35.222  1.00  0.00     0.200 A 
ATOM    101  F   UNL A   1      45.963  24.193  34.505  1.00  0.00    -0.200 F 
ATOM    102  F   UNL A   1      43.921  22.677  35.487  1.00  0.00    -0.200 F 
ENDBRANCH  69  92
ENDBRANCH  43  44
ENDBRANCH  36  38
ENDBRANCH  35  36
ENDBRANCH  34  35
ENDBRANCH  33  34
ENDBRANCH  32  33
ENDBRANCH   1  32
TORSDOF 18
ENDMDL
MODEL 3
REMARK VINA RESULT:     -12.7      1.887      2.614
REMARK SMILES Cc1ccccc1/C=C1\SC(=O)N(CC(=O)Nc2ccccc2C(=O)OCCOCCOC(=O)c2ccc(-c3c4nc(c(-c5c(F)c(F)c(F)c(F)c5F)c5ccc([nH]5)c(-c5c(F)c(F)c(F)c(F)c5F)c5nc(c(-c6c(F)c(F)c(F)c(F)c6F)c6ccc3[nH]6)C=C5)C=C4)cc2)C1=O
REMARK SMILES IDX 28 1 27 2 26 3 24 4 25 5 23 6 18 7 19 8 20 9 22 10 21 11
REMARK SMILES IDX 17 12 15 13 16 14 14 16 13 17 8 18 9 19 10 20 98 21 11 22
REMARK SMILES IDX 99 23 12 24 7 25 1 26 2 27 3 28 4 29 6 30 5 31 29 32 30 33
REMARK SMILES IDX 31 34 32 35 33 36 34 37 35 38 36 39 97 40 37 41 96 42 38 43
REMARK SMILES IDX 39 44 40 45 90 46 41 47 95 48 89 49 91 50 42 51 94 52 88 53
REMARK SMILES IDX 87 54 43 56 75 57 55 58 74 59 56 60 59 61 73 62 92 63 57 64
REMARK SMILES IDX 58 65 72 67 93 68 60 69 44 70 45 71 53 72 46 73 47 74 51 75
REMARK SMILES IDX 54 76 48 77 49 78 52 79 50 80 76 81 77 82 85 83 78 84 79 85
REMARK SMILES IDX 83 86 86 87 80 88 81 89 84 90 82 91 61 92 62 93 70 94 63 95
REMARK SMILES IDX 64 96 68 97 71 98 65 99 66 100 69 101 67 102
REMARK H PARENT 17 15 91 55 59 66
REMARK Flexibility Score: inf
ROOT
ATOM      1  C   UNL A   1      36.801  23.908  25.835  1.00  0.00     0.202 C 
ENDROOT
BRANCH   1   2
ATOM      2  C   UNL A   1      35.377  23.940  25.020  1.00  0.00     0.261 C 
BRANCH   2   3
ATOM      3  O   UNL A   1      34.359  25.491  24.181  1.00  0.00    -0.460 OA
BRANCH   3   4
ATOM      4  C   UNL A   1      34.052  26.905  23.948  1.00  0.00     0.340 C 
ATOM      5  O   UNL A   1      34.127  27.385  22.828  1.00  0.00    -0.246 OA
BRANCH   4   6
ATOM      6  C   UNL A   1      33.552  27.841  24.960  1.00  0.00     0.083 A 
ATOM      7  C   UNL A   1      32.702  28.908  24.598  1.00  0.00     0.055 A 
ATOM      8  C   UNL A   1      32.493  29.958  25.494  1.00  0.00     0.027 A 
ATOM      9  C   UNL A   1      33.091  29.924  26.751  1.00  0.00     0.002 A 
ATOM     10  C   UNL A   1      34.227  27.864  26.178  1.00  0.00     0.018 A 
ATOM     11  C   UNL A   1      33.966  28.889  27.085  1.00  0.00     0.001 A 
BRANCH   7  12
ATOM     12  N   UNL A   1      32.052  29.020  23.362  1.00  0.00    -0.324 N 
ATOM     13  C   UNL A   1      30.845  28.489  23.007  1.00  0.00     0.244 C 
ATOM     14  O   UNL A   1      30.405  28.736  21.878  1.00  0.00    -0.273 OA
ATOM     15  H   UNL A   1      32.519  29.541  22.670  1.00  0.00     0.170 HD
BRANCH  13  16
ATOM     16  C   UNL A   1      29.956  27.851  24.082  1.00  0.00     0.230 C 
BRANCH  16  17
ATOM     17  N   UNL A   1      30.387  26.587  24.673  1.00  0.00    -0.259 N 
ATOM     18  C   UNL A   1      31.750  22.442  24.040  1.00  0.00     0.029 C 
ATOM     19  C   UNL A   1      31.475  23.674  24.564  1.00  0.00     0.083 C 
ATOM     20  S   UNL A   1      31.830  24.292  26.692  1.00  0.00    -0.022 SA
ATOM     21  C   UNL A   1      30.680  25.208  23.560  1.00  0.00     0.268 C 
ATOM     22  C   UNL A   1      30.875  26.388  26.370  1.00  0.00     0.294 C 
ATOM     23  O   UNL A   1      30.760  25.455  22.359  1.00  0.00    -0.268 OA
ATOM     24  O   UNL A   1      30.790  27.169  27.312  1.00  0.00    -0.261 OA
BRANCH  18  25
ATOM     25  C   UNL A   1      32.289  21.032  24.032  1.00  0.00    -0.021 A 
ATOM     26  C   UNL A   1      31.749  20.487  21.614  1.00  0.00     0.045 C 
ATOM     27  C   UNL A   1      32.242  20.118  22.977  1.00  0.00    -0.044 A 
ATOM     28  C   UNL A   1      32.846  18.831  23.107  1.00  0.00     0.004 A 
ATOM     29  C   UNL A   1      33.613  18.472  24.213  1.00  0.00     0.000 A 
ATOM     30  C   UNL A   1      33.208  20.673  25.070  1.00  0.00     0.008 A 
ATOM     31  C   UNL A   1      33.851  19.428  25.175  1.00  0.00     0.001 A 
ENDBRANCH  18  25
ENDBRANCH  16  17
ENDBRANCH  13  16
ENDBRANCH   7  12
ENDBRANCH   4   6
ENDBRANCH   3   4
ENDBRANCH   2   3
ENDBRANCH   1   2
BRANCH   1  32
ATOM     32  O   UNL A   1      37.723  23.022  25.212  1.00  0.00    -0.374 OA
BRANCH  32  33
ATOM     33  C   UNL A   1      38.082  21.897  26.013  1.00  0.00     0.202 C 
BRANCH  33  34
ATOM     34  C   UNL A   1      39.605  21.743  26.080  1.00  0.00     0.261 C 
BRANCH  34  35
ATOM     35  O   UNL A   1      40.204  23.043  25.865  1.00  0.00    -0.460 OA
BRANCH  35  36
ATOM     36  C   UNL A   1      40.786  23.633  26.948  1.00  0.00     0.338 C 
ATOM     37  O   UNL A   1      41.645  23.129  27.655  1.00  0.00    -0.246 OA
BRANCH  36  38
ATOM     38  C   UNL A   1      40.034  24.874  27.322  1.00  0.00     0.060 A 
ATOM     39  C   UNL A   1      40.413  26.148  26.880  1.00  0.00     0.016 A 
ATOM     40  C   UNL A   1      39.142  24.799  28.375  1.00  0.00     0.016 A 
ATOM     41  C   UNL A   1      40.040  27.315  27.609  1.00  0.00     0.010 A 
ATOM     42  C   UNL A   1      38.933  25.927  29.162  1.00  0.00     0.010 A 
ATOM     43  C   UNL A   1      39.480  27.198  28.889  1.00  0.00    -0.014 A 
BRANCH  43  44
ATOM     44  C   UNL A   1      39.442  28.261  30.011  1.00  0.00     0.031 A 
ATOM     45  C   UNL A   1      38.674  29.451  29.602  1.00  0.00     0.074 A 
ATOM     46  C   UNL A   1      39.914  28.387  31.314  1.00  0.00     0.049 A 
ATOM     47  N   UNL A   1      39.156  30.657  29.573  1.00  0.00    -0.248 NA
ATOM     48  C   UNL A   1      37.313  29.333  29.083  1.00  0.00     0.031 C 
ATOM     49  C   UNL A   1      39.428  29.361  32.306  1.00  0.00     0.029 A 
ATOM     50  N   UNL A   1      40.807  27.649  32.149  1.00  0.00    -0.354 N 
ATOM     51  C   UNL A   1      38.055  31.447  29.338  1.00  0.00     0.074 A 
ATOM     52  C   UNL A   1      37.099  30.582  28.692  1.00  0.00     0.031 C 
ATOM     53  C   UNL A   1      40.171  29.320  33.431  1.00  0.00     0.029 A 
ATOM     54  C   UNL A   1      41.264  28.366  33.270  1.00  0.00     0.049 A 
ATOM     55  H   UNL A   1      41.077  26.722  31.958  1.00  0.00     0.167 HD
ATOM     56  C   UNL A   1      37.784  32.544  30.105  1.00  0.00     0.037 A 
ATOM     57  C   UNL A   1      42.501  28.411  33.874  1.00  0.00     0.037 A 
ATOM     58  C   UNL A   1      38.695  32.661  31.255  1.00  0.00     0.049 A 
ATOM     59  C   UNL A   1      42.964  29.847  33.770  1.00  0.00     0.074 A 
ATOM     60  C   UNL A   1      38.472  32.551  32.622  1.00  0.00     0.029 A 
ATOM     61  N   UNL A   1      40.082  32.651  31.103  1.00  0.00    -0.354 N 
ATOM     62  N   UNL A   1      42.227  30.719  33.152  1.00  0.00    -0.248 NA
ATOM     63  C   UNL A   1      44.221  30.443  34.214  1.00  0.00     0.031 C 
ATOM     64  C   UNL A   1      39.714  32.612  33.292  1.00  0.00     0.029 A 
ATOM     65  C   UNL A   1      40.708  32.711  32.337  1.00  0.00     0.049 A 
ATOM     66  H   UNL A   1      40.550  32.609  30.239  1.00  0.00     0.167 HD
ATOM     67  C   UNL A   1      42.822  31.925  33.094  1.00  0.00     0.074 A 
ATOM     68  C   UNL A   1      44.096  31.707  33.750  1.00  0.00     0.031 C 
ATOM     69  C   UNL A   1      42.146  32.932  32.475  1.00  0.00     0.037 A 
BRANCH  56  70
ATOM     70  C   UNL A   1      36.422  33.234  30.054  1.00  0.00     0.064 A 
ATOM     71  C   UNL A   1      35.937  33.823  28.871  1.00  0.00     0.173 A 
ATOM     72  C   UNL A   1      35.543  33.352  31.152  1.00  0.00     0.173 A 
ATOM     73  F   UNL A   1      36.522  33.608  27.688  1.00  0.00    -0.203 F 
ATOM     74  C   UNL A   1      34.790  34.620  28.841  1.00  0.00     0.198 A 
ATOM     75  C   UNL A   1      34.435  34.204  31.147  1.00  0.00     0.198 A 
ATOM     76  F   UNL A   1      35.680  32.584  32.242  1.00  0.00    -0.203 F 
ATOM     77  F   UNL A   1      34.389  35.156  27.680  1.00  0.00    -0.200 F 
ATOM     78  C   UNL A   1      34.066  34.851  29.991  1.00  0.00     0.200 A 
ATOM     79  F   UNL A   1      33.718  34.371  32.268  1.00  0.00    -0.200 F 
ATOM     80  F   UNL A   1      32.982  35.638  29.966  1.00  0.00    -0.200 F 
ENDBRANCH  56  70
BRANCH  57  81
ATOM     81  C   UNL A   1      43.434  27.240  34.024  1.00  0.00     0.064 A 
ATOM     82  C   UNL A   1      43.738  26.712  35.293  1.00  0.00     0.173 A 
ATOM     83  C   UNL A   1      44.037  26.562  32.961  1.00  0.00     0.173 A 
ATOM     84  F   UNL A   1      43.408  27.396  36.399  1.00  0.00    -0.203 F 
ATOM     85  C   UNL A   1      44.420  25.492  35.457  1.00  0.00     0.198 A 
ATOM     86  C   UNL A   1      44.596  25.280  33.101  1.00  0.00     0.198 A 
ATOM     87  F   UNL A   1      44.162  27.174  31.780  1.00  0.00    -0.203 F 
ATOM     88  F   UNL A   1      44.695  25.031  36.686  1.00  0.00    -0.200 F 
ATOM     89  C   UNL A   1      44.760  24.729  34.354  1.00  0.00     0.200 A 
ATOM     90  F   UNL A   1      44.982  24.582  32.022  1.00  0.00    -0.200 F 
ATOM     91  F   UNL A   1      45.257  23.491  34.499  1.00  0.00    -0.200 F 
ENDBRANCH  57  81
BRANCH  69  92
ATOM     92  C   UNL A   1      42.692  34.264  32.083  1.00  0.00     0.064 A 
ATOM     93  C   UNL A   1      42.993  34.621  30.764  1.00  0.00     0.173 A 
ATOM     94  C   UNL A   1      42.792  35.296  33.048  1.00  0.00     0.173 A 
ATOM     95  F   UNL A   1      42.831  33.757  29.752  1.00  0.00    -0.203 F 
ATOM     96  C   UNL A   1      43.424  35.907  30.443  1.00  0.00     0.198 A 
ATOM     97  C   UNL A   1      43.159  36.590  32.714  1.00  0.00     0.198 A 
ATOM     98  F   UNL A   1      42.519  35.089  34.345  1.00  0.00    -0.203 F 
ATOM     99  F   UNL A   1      43.748  36.198  29.177  1.00  0.00    -0.200 F 
ATOM    100  C   UNL A   1      43.495  36.892  31.415  1.00  0.00     0.200 A 
ATOM    101  F   UNL A   1      43.168  37.541  33.660  1.00  0.00    -0.200 F 
ATOM    102  F   UNL A   1      43.876  38.135  31.094  1.00  0.00    -0.200 F 
ENDBRANCH  69  92
ENDBRANCH  43  44
ENDBRANCH  36  38
ENDBRANCH  35  36
ENDBRANCH  34  35
ENDBRANCH  33  34
ENDBRANCH  32  33
ENDBRANCH   1  32
TORSDOF 18
ENDMDL
