MODEL 1
REMARK VINA RESULT:     -12.1      0.000      0.000
REMARK SMILES Cc1ccc(S(=O)(=O)n2cc(C(=O)C(=O)NCC(=O)NCC(=O)OCCOCCOC(=O)c3ccc(-c4c5nc(c(-c6c(F)c(F)c(F)c(F)c6F)c6ccc([nH]6)c(-c6c(F)c(F)c(F)c(F)c6F)c6nc(c(-c7c(F)c(F)c(F)c(F)c7F)c7ccc4[nH]7)C=C6)C=C5)cc3)c3ccccc32)cc1
REMARK SMILES IDX 25 1 24 2 22 3 23 4 21 5 20 6 18 7 19 8 17 10 16 11 14 12
REMARK SMILES IDX 15 13 12 15 13 16 11 17 9 18 10 19 101 20 96 21 100 22 97 23
REMARK SMILES IDX 99 24 98 25 6 26 7 27 8 28 5 29 1 30 2 31 3 32 103 33 4 34
REMARK SMILES IDX 102 35 26 36 27 37 28 38 29 39 30 40 31 41 32 42 33 43 34 44
REMARK SMILES IDX 95 45 35 46 94 47 36 48 37 49 38 50 88 51 39 52 93 53 87 54
REMARK SMILES IDX 89 55 40 56 92 57 86 58 85 59 41 61 73 62 53 63 72 64 54 65
REMARK SMILES IDX 57 66 71 67 90 68 55 69 56 70 70 72 91 73 58 74 42 75 43 76
REMARK SMILES IDX 51 77 44 78 45 79 49 80 52 81 46 82 47 83 50 84 48 85 74 86
REMARK SMILES IDX 75 87 83 88 76 89 77 90 81 91 84 92 78 93 79 94 82 95 80 96
REMARK SMILES IDX 59 97 60 98 68 99 61 100 62 101 66 102 69 103 63 104 64 105
REMARK SMILES IDX 67 106 65 107
REMARK H PARENT 20 9 16 14 89 60 57 71
REMARK Flexibility Score: inf
ROOT
ATOM      1  C   UNL A   1      35.579  23.663  23.601  1.00  0.00     0.261 C 
ENDROOT
BRANCH   1   2
ATOM      2  O   UNL A   1      34.766  23.081  22.585  1.00  0.00    -0.462 OA
BRANCH   2   3
ATOM      3  C   UNL A   1      33.884  23.899  21.941  1.00  0.00     0.325 C 
ATOM      4  O   UNL A   1      33.294  23.643  20.902  1.00  0.00    -0.250 OA
BRANCH   3   5
ATOM      5  C   UNL A   1      33.749  25.215  22.714  1.00  0.00     0.238 C 
BRANCH   5   6
ATOM      6  N   UNL A   1      32.759  26.094  22.087  1.00  0.00    -0.344 N 
ATOM      7  C   UNL A   1      32.607  27.442  22.255  1.00  0.00     0.239 C 
ATOM      8  O   UNL A   1      31.517  27.948  21.983  1.00  0.00    -0.273 OA
ATOM      9  H   UNL A   1      32.126  25.661  21.471  1.00  0.00     0.164 HD
BRANCH   7  10
ATOM     10  C   UNL A   1      33.780  28.278  22.775  1.00  0.00     0.216 C 
BRANCH  10  11
ATOM     11  N   UNL A   1      33.297  29.293  23.689  1.00  0.00    -0.340 N 
ATOM     12  C   UNL A   1      33.152  29.256  25.053  1.00  0.00     0.292 C 
ATOM     13  O   UNL A   1      32.441  30.107  25.569  1.00  0.00    -0.265 OA
ATOM     14  H   UNL A   1      33.030  30.141  23.265  1.00  0.00     0.164 HD
BRANCH  12  15
ATOM     15  C   UNL A   1      33.790  28.167  25.941  1.00  0.00     0.252 C 
ATOM     16  O   UNL A   1      34.808  28.426  26.572  1.00  0.00    -0.283 OA
BRANCH  15  17
ATOM     17  C   UNL A   1      33.208  26.818  25.966  1.00  0.00     0.054 A 
ATOM     18  N   UNL A   1      32.926  24.622  26.276  1.00  0.00    -0.240 N 
ATOM     19  C   UNL A   1      33.835  25.649  26.360  1.00  0.00     0.117 A 
ATOM     20  C   UNL A   1      31.685  25.092  25.905  1.00  0.00     0.065 A 
ATOM     21  C   UNL A   1      31.857  26.460  25.642  1.00  0.00     0.012 A 
ATOM     22  C   UNL A   1      30.433  24.467  25.800  1.00  0.00     0.028 A 
ATOM     23  C   UNL A   1      30.742  27.209  25.213  1.00  0.00     0.011 A 
ATOM     24  C   UNL A   1      29.345  25.239  25.386  1.00  0.00     0.002 A 
ATOM     25  C   UNL A   1      29.497  26.586  25.084  1.00  0.00     0.001 A 
BRANCH  18  26
ATOM     26  S   UNL A   1      33.231  23.060  26.860  1.00  0.00     0.268 S 
ATOM     27  O   UNL A   1      32.380  22.917  28.003  1.00  0.00    -0.201 OA
ATOM     28  O   UNL A   1      34.692  22.956  26.882  1.00  0.00    -0.201 OA
BRANCH  26  29
ATOM     29  C   UNL A   1      32.770  21.812  25.729  1.00  0.00     0.088 A 
ATOM     30  C   UNL A   1      32.509  18.621  22.909  1.00  0.00     0.044 C 
ATOM     31  C   UNL A   1      32.544  19.734  23.911  1.00  0.00    -0.051 A 
ATOM     32  C   UNL A   1      33.033  19.474  25.194  1.00  0.00     0.005 A 
ATOM     33  C   UNL A   1      32.139  21.035  23.564  1.00  0.00     0.005 A 
ATOM     34  C   UNL A   1      33.144  20.511  26.106  1.00  0.00     0.022 A 
ATOM     35  C   UNL A   1      32.253  22.087  24.473  1.00  0.00     0.022 A 
ENDBRANCH  26  29
ENDBRANCH  18  26
ENDBRANCH  15  17
ENDBRANCH  12  15
ENDBRANCH  10  11
ENDBRANCH   7  10
ENDBRANCH   5   6
ENDBRANCH   3   5
ENDBRANCH   2   3
ENDBRANCH   1   2
BRANCH   1  36
ATOM     36  C   UNL A   1      36.879  22.895  23.699  1.00  0.00     0.202 C 
BRANCH  36  37
ATOM     37  O   UNL A   1      36.860  22.167  24.924  1.00  0.00    -0.374 OA
BRANCH  37  38
ATOM     38  C   UNL A   1      37.807  21.104  25.012  1.00  0.00     0.202 C 
BRANCH  38  39
ATOM     39  C   UNL A   1      39.085  21.424  25.807  1.00  0.00     0.261 C 
BRANCH  39  40
ATOM     40  O   UNL A   1      38.922  22.671  26.504  1.00  0.00    -0.460 OA
BRANCH  40  41
ATOM     41  C   UNL A   1      40.078  23.279  26.879  1.00  0.00     0.338 C 
ATOM     42  O   UNL A   1      41.108  22.711  27.197  1.00  0.00    -0.246 OA
BRANCH  41  43
ATOM     43  C   UNL A   1      39.807  24.721  27.122  1.00  0.00     0.060 A 
ATOM     44  C   UNL A   1      40.398  25.693  26.296  1.00  0.00     0.016 A 
ATOM     45  C   UNL A   1      39.216  25.092  28.328  1.00  0.00     0.016 A 
ATOM     46  C   UNL A   1      40.487  27.020  26.731  1.00  0.00     0.010 A 
ATOM     47  C   UNL A   1      39.407  26.369  28.801  1.00  0.00     0.010 A 
ATOM     48  C   UNL A   1      40.040  27.338  28.012  1.00  0.00    -0.014 A 
BRANCH  48  49
ATOM     49  C   UNL A   1      40.247  28.610  28.692  1.00  0.00     0.031 A 
ATOM     50  C   UNL A   1      39.135  29.602  28.752  1.00  0.00     0.074 A 
ATOM     51  C   UNL A   1      41.324  28.741  29.497  1.00  0.00     0.049 A 
ATOM     52  N   UNL A   1      39.265  30.831  29.120  1.00  0.00    -0.248 NA
ATOM     53  C   UNL A   1      37.761  29.289  28.363  1.00  0.00     0.031 C 
ATOM     54  C   UNL A   1      41.455  29.644  30.626  1.00  0.00     0.029 A 
ATOM     55  N   UNL A   1      42.593  28.136  29.419  1.00  0.00    -0.354 N 
ATOM     56  C   UNL A   1      38.003  31.349  29.341  1.00  0.00     0.074 A 
ATOM     57  C   UNL A   1      37.104  30.379  28.772  1.00  0.00     0.031 C 
ATOM     58  C   UNL A   1      42.756  29.840  30.873  1.00  0.00     0.029 A 
ATOM     59  C   UNL A   1      43.505  29.108  29.883  1.00  0.00     0.049 A 
ATOM     60  H   UNL A   1      42.800  27.225  29.107  1.00  0.00     0.167 HD
ATOM     61  C   UNL A   1      37.871  32.460  30.126  1.00  0.00     0.037 A 
ATOM     62  C   UNL A   1      44.529  29.579  29.125  1.00  0.00     0.037 A 
ATOM     63  C   UNL A   1      39.188  32.902  30.563  1.00  0.00     0.049 A 
ATOM     64  C   UNL A   1      44.374  31.055  28.897  1.00  0.00     0.074 A 
ATOM     65  C   UNL A   1      39.904  32.520  31.677  1.00  0.00     0.029 A 
ATOM     66  N   UNL A   1      40.096  33.461  29.673  1.00  0.00    -0.354 N 
ATOM     67  N   UNL A   1      43.252  31.687  29.119  1.00  0.00    -0.248 NA
ATOM     68  C   UNL A   1      45.421  31.940  28.410  1.00  0.00     0.031 C 
ATOM     69  C   UNL A   1      41.263  32.750  31.384  1.00  0.00     0.029 A 
ATOM     70  C   UNL A   1      41.382  33.411  30.185  1.00  0.00     0.049 A 
ATOM     71  H   UNL A   1      39.858  33.841  28.796  1.00  0.00     0.167 HD
ATOM     72  C   UNL A   1      43.456  33.030  29.018  1.00  0.00     0.074 A 
ATOM     73  C   UNL A   1      44.790  33.129  28.442  1.00  0.00     0.031 C 
ATOM     74  C   UNL A   1      42.545  33.937  29.486  1.00  0.00     0.037 A 
BRANCH  61  75
ATOM     75  C   UNL A   1      36.596  32.927  30.808  1.00  0.00     0.064 A 
ATOM     76  C   UNL A   1      35.666  33.741  30.113  1.00  0.00     0.173 A 
ATOM     77  C   UNL A   1      36.247  32.663  32.144  1.00  0.00     0.173 A 
ATOM     78  F   UNL A   1      35.790  33.987  28.802  1.00  0.00    -0.203 F 
ATOM     79  C   UNL A   1      34.559  34.329  30.736  1.00  0.00     0.198 A 
ATOM     80  C   UNL A   1      35.162  33.282  32.777  1.00  0.00     0.198 A 
ATOM     81  F   UNL A   1      36.901  31.751  32.870  1.00  0.00    -0.203 F 
ATOM     82  F   UNL A   1      33.722  35.099  30.025  1.00  0.00    -0.200 F 
ATOM     83  C   UNL A   1      34.325  34.124  32.078  1.00  0.00     0.200 A 
ATOM     84  F   UNL A   1      34.930  33.043  34.077  1.00  0.00    -0.200 F 
ATOM     85  F   UNL A   1      33.282  34.707  32.685  1.00  0.00    -0.200 F 
ENDBRANCH  61  75
BRANCH  62  86
ATOM     86  C   UNL A   1      45.060  28.527  28.226  1.00  0.00     0.064 A 
ATOM     87  C   UNL A   1      45.857  27.528  28.834  1.00  0.00     0.173 A 
ATOM     88  C   UNL A   1      44.397  28.197  27.042  1.00  0.00     0.173 A 
ATOM     89  F   UNL A   1      46.507  27.792  29.979  1.00  0.00    -0.203 F 
ATOM     90  C   UNL A   1      45.826  26.210  28.385  1.00  0.00     0.198 A 
ATOM     91  C   UNL A   1      44.387  26.877  26.584  1.00  0.00     0.198 A 
ATOM     92  F   UNL A   1      43.636  29.106  26.417  1.00  0.00    -0.203 F 
ATOM     93  F   UNL A   1      46.435  25.249  29.094  1.00  0.00    -0.200 F 
ATOM     94  C   UNL A   1      45.058  25.880  27.283  1.00  0.00     0.200 A 
ATOM     95  F   UNL A   1      43.633  26.544  25.527  1.00  0.00    -0.200 F 
ATOM     96  F   UNL A   1      44.916  24.594  26.930  1.00  0.00    -0.200 F 
ENDBRANCH  62  86
BRANCH  74  97
ATOM     97  C   UNL A   1      42.761  35.421  29.453  1.00  0.00     0.064 A 
ATOM     98  C   UNL A   1      43.507  36.115  30.417  1.00  0.00     0.173 A 
ATOM     99  C   UNL A   1      42.167  36.215  28.450  1.00  0.00     0.173 A 
ATOM    100  F   UNL A   1      43.932  35.514  31.537  1.00  0.00    -0.203 F 
ATOM    101  C   UNL A   1      43.817  37.466  30.266  1.00  0.00     0.198 A 
ATOM    102  C   UNL A   1      42.416  37.579  28.341  1.00  0.00     0.198 A 
ATOM    103  F   UNL A   1      41.347  35.698  27.525  1.00  0.00    -0.203 F 
ATOM    104  F   UNL A   1      44.642  38.059  31.139  1.00  0.00    -0.200 F 
ATOM    105  C   UNL A   1      43.286  38.192  29.216  1.00  0.00     0.200 A 
ATOM    106  F   UNL A   1      41.831  38.284  27.364  1.00  0.00    -0.200 F 
ATOM    107  F   UNL A   1      43.607  39.482  29.053  1.00  0.00    -0.200 F 
ENDBRANCH  74  97
ENDBRANCH  48  49
ENDBRANCH  41  43
ENDBRANCH  40  41
ENDBRANCH  39  40
ENDBRANCH  38  39
ENDBRANCH  37  38
ENDBRANCH  36  37
ENDBRANCH   1  36
TORSDOF 21
ENDMDL
MODEL 2
REMARK VINA RESULT:     -11.9      3.585      6.702
REMARK SMILES Cc1ccc(S(=O)(=O)n2cc(C(=O)C(=O)NCC(=O)NCC(=O)OCCOCCOC(=O)c3ccc(-c4c5nc(c(-c6c(F)c(F)c(F)c(F)c6F)c6ccc([nH]6)c(-c6c(F)c(F)c(F)c(F)c6F)c6nc(c(-c7c(F)c(F)c(F)c(F)c7F)c7ccc4[nH]7)C=C6)C=C5)cc3)c3ccccc32)cc1
REMARK SMILES IDX 25 1 24 2 22 3 23 4 21 5 20 6 18 7 19 8 17 10 16 11 14 12
REMARK SMILES IDX 15 13 12 15 13 16 11 17 9 18 10 19 101 20 96 21 100 22 97 23
REMARK SMILES IDX 99 24 98 25 6 26 7 27 8 28 5 29 1 30 2 31 3 32 103 33 4 34
REMARK SMILES IDX 102 35 26 36 27 37 28 38 29 39 30 40 31 41 32 42 33 43 34 44
REMARK SMILES IDX 95 45 35 46 94 47 36 48 37 49 38 50 88 51 39 52 93 53 87 54
REMARK SMILES IDX 89 55 40 56 92 57 86 58 85 59 41 61 73 62 53 63 72 64 54 65
REMARK SMILES IDX 57 66 71 67 90 68 55 69 56 70 70 72 91 73 58 74 42 75 43 76
REMARK SMILES IDX 51 77 44 78 45 79 49 80 52 81 46 82 47 83 50 84 48 85 74 86
REMARK SMILES IDX 75 87 83 88 76 89 77 90 81 91 84 92 78 93 79 94 82 95 80 96
REMARK SMILES IDX 59 97 60 98 68 99 61 100 62 101 66 102 69 103 63 104 64 105
REMARK SMILES IDX 67 106 65 107
REMARK H PARENT 20 9 16 14 89 60 57 71
REMARK Flexibility Score: inf
ROOT
ATOM      1  C   UNL A   1      43.422  22.380  25.742  1.00  0.00     0.261 C 
ENDROOT
BRANCH   1   2
ATOM      2  O   UNL A   1      42.246  21.662  25.376  1.00  0.00    -0.462 OA
BRANCH   2   3
ATOM      3  C   UNL A   1      41.516  21.099  26.382  1.00  0.00     0.325 C 
ATOM      4  O   UNL A   1      41.910  20.251  27.168  1.00  0.00    -0.250 OA
BRANCH   3   5
ATOM      5  C   UNL A   1      40.100  21.684  26.375  1.00  0.00     0.238 C 
BRANCH   5   6
ATOM      6  N   UNL A   1      40.111  23.094  26.771  1.00  0.00    -0.344 N 
ATOM      7  C   UNL A   1      39.167  24.048  26.511  1.00  0.00     0.239 C 
ATOM      8  O   UNL A   1      39.501  25.233  26.560  1.00  0.00    -0.273 OA
ATOM      9  H   UNL A   1      40.895  23.392  27.287  1.00  0.00     0.164 HD
BRANCH   7  10
ATOM     10  C   UNL A   1      37.738  23.623  26.166  1.00  0.00     0.216 C 
BRANCH  10  11
ATOM     11  N   UNL A   1      37.587  23.516  24.729  1.00  0.00    -0.340 N 
ATOM     12  C   UNL A   1      36.527  23.066  23.984  1.00  0.00     0.292 C 
ATOM     13  O   UNL A   1      36.740  22.777  22.815  1.00  0.00    -0.265 OA
ATOM     14  H   UNL A   1      38.367  23.812  24.206  1.00  0.00     0.164 HD
BRANCH  12  15
ATOM     15  C   UNL A   1      35.113  22.856  24.566  1.00  0.00     0.252 C 
ATOM     16  O   UNL A   1      34.857  21.815  25.162  1.00  0.00    -0.283 OA
BRANCH  15  17
ATOM     17  C   UNL A   1      34.077  23.873  24.343  1.00  0.00     0.054 A 
ATOM     18  N   UNL A   1      32.894  25.556  23.468  1.00  0.00    -0.240 N 
ATOM     19  C   UNL A   1      34.059  24.837  23.350  1.00  0.00     0.117 A 
ATOM     20  C   UNL A   1      32.100  25.046  24.471  1.00  0.00     0.065 A 
ATOM     21  C   UNL A   1      32.854  24.029  25.076  1.00  0.00     0.012 A 
ATOM     22  C   UNL A   1      30.795  25.352  24.889  1.00  0.00     0.028 A 
ATOM     23  C   UNL A   1      32.294  23.334  26.168  1.00  0.00     0.011 A 
ATOM     24  C   UNL A   1      30.264  24.636  25.963  1.00  0.00     0.002 A 
ATOM     25  C   UNL A   1      31.005  23.650  26.604  1.00  0.00     0.001 A 
BRANCH  18  26
ATOM     26  S   UNL A   1      32.387  26.698  22.322  1.00  0.00     0.268 S 
ATOM     27  O   UNL A   1      31.597  25.959  21.383  1.00  0.00    -0.201 OA
ATOM     28  O   UNL A   1      33.600  27.450  21.992  1.00  0.00    -0.201 OA
BRANCH  26  29
ATOM     29  C   UNL A   1      31.344  27.924  23.004  1.00  0.00     0.088 A 
ATOM     30  C   UNL A   1      28.871  31.289  23.875  1.00  0.00     0.044 C 
ATOM     31  C   UNL A   1      29.717  30.080  23.616  1.00  0.00    -0.051 A 
ATOM     32  C   UNL A   1      29.300  29.157  22.654  1.00  0.00     0.005 A 
ATOM     33  C   UNL A   1      30.938  29.891  24.288  1.00  0.00     0.005 A 
ATOM     34  C   UNL A   1      30.111  28.075  22.349  1.00  0.00     0.022 A 
ATOM     35  C   UNL A   1      31.763  28.809  23.983  1.00  0.00     0.022 A 
ENDBRANCH  26  29
ENDBRANCH  18  26
ENDBRANCH  15  17
ENDBRANCH  12  15
ENDBRANCH  10  11
ENDBRANCH   7  10
ENDBRANCH   5   6
ENDBRANCH   3   5
ENDBRANCH   2   3
ENDBRANCH   1   2
BRANCH   1  36
ATOM     36  C   UNL A   1      43.746  23.388  24.659  1.00  0.00     0.202 C 
BRANCH  36  37
ATOM     37  O   UNL A   1      43.919  24.656  25.286  1.00  0.00    -0.374 OA
BRANCH  37  38
ATOM     38  C   UNL A   1      43.635  24.685  26.683  1.00  0.00     0.202 C 
BRANCH  38  39
ATOM     39  C   UNL A   1      42.860  25.921  27.172  1.00  0.00     0.261 C 
BRANCH  39  40
ATOM     40  O   UNL A   1      43.365  27.098  26.520  1.00  0.00    -0.460 OA
BRANCH  40  41
ATOM     41  C   UNL A   1      42.440  27.823  25.837  1.00  0.00     0.338 C 
ATOM     42  O   UNL A   1      42.299  27.834  24.627  1.00  0.00    -0.246 OA
BRANCH  41  43
ATOM     43  C   UNL A   1      41.825  28.813  26.762  1.00  0.00     0.060 A 
ATOM     44  C   UNL A   1      42.640  29.552  27.637  1.00  0.00     0.016 A 
ATOM     45  C   UNL A   1      40.444  28.780  26.949  1.00  0.00     0.016 A 
ATOM     46  C   UNL A   1      42.078  30.171  28.759  1.00  0.00     0.010 A 
ATOM     47  C   UNL A   1      39.916  29.291  28.110  1.00  0.00     0.010 A 
ATOM     48  C   UNL A   1      40.722  29.987  29.020  1.00  0.00    -0.014 A 
BRANCH  48  49
ATOM     49  C   UNL A   1      40.030  30.382  30.240  1.00  0.00     0.031 A 
ATOM     50  C   UNL A   1      39.260  31.657  30.270  1.00  0.00     0.074 A 
ATOM     51  C   UNL A   1      39.858  29.456  31.210  1.00  0.00     0.049 A 
ATOM     52  N   UNL A   1      38.803  32.216  31.338  1.00  0.00    -0.248 NA
ATOM     53  C   UNL A   1      38.962  32.441  29.072  1.00  0.00     0.031 C 
ATOM     54  C   UNL A   1      38.808  29.440  32.212  1.00  0.00     0.029 A 
ATOM     55  N   UNL A   1      40.656  28.351  31.560  1.00  0.00    -0.354 N 
ATOM     56  C   UNL A   1      37.901  33.193  30.960  1.00  0.00     0.074 A 
ATOM     57  C   UNL A   1      38.104  33.350  29.544  1.00  0.00     0.031 C 
ATOM     58  C   UNL A   1      39.210  28.690  33.246  1.00  0.00     0.029 A 
ATOM     59  C   UNL A   1      40.549  28.237  32.964  1.00  0.00     0.049 A 
ATOM     60  H   UNL A   1      41.178  27.777  30.954  1.00  0.00     0.167 HD
ATOM     61  C   UNL A   1      36.979  33.631  31.869  1.00  0.00     0.037 A 
ATOM     62  C   UNL A   1      41.622  28.305  33.792  1.00  0.00     0.037 A 
ATOM     63  C   UNL A   1      37.186  32.944  33.136  1.00  0.00     0.049 A 
ATOM     64  C   UNL A   1      41.490  29.474  34.723  1.00  0.00     0.074 A 
ATOM     65  C   UNL A   1      36.657  31.746  33.568  1.00  0.00     0.029 A 
ATOM     66  N   UNL A   1      38.300  33.200  33.925  1.00  0.00    -0.354 N 
ATOM     67  N   UNL A   1      40.638  30.443  34.519  1.00  0.00    -0.248 NA
ATOM     68  C   UNL A   1      42.275  29.673  35.933  1.00  0.00     0.031 C 
ATOM     69  C   UNL A   1      37.542  31.239  34.540  1.00  0.00     0.029 A 
ATOM     70  C   UNL A   1      38.510  32.171  34.829  1.00  0.00     0.049 A 
ATOM     71  H   UNL A   1      38.864  34.003  33.852  1.00  0.00     0.167 HD
ATOM     72  C   UNL A   1      40.598  31.255  35.612  1.00  0.00     0.074 A 
ATOM     73  C   UNL A   1      41.733  30.811  36.408  1.00  0.00     0.031 C 
ATOM     74  C   UNL A   1      39.594  32.166  35.801  1.00  0.00     0.037 A 
BRANCH  61  75
ATOM     75  C   UNL A   1      35.687  34.364  31.550  1.00  0.00     0.064 A 
ATOM     76  C   UNL A   1      35.148  35.303  32.465  1.00  0.00     0.173 A 
ATOM     77  C   UNL A   1      34.900  34.159  30.403  1.00  0.00     0.173 A 
ATOM     78  F   UNL A   1      35.830  35.699  33.548  1.00  0.00    -0.203 F 
ATOM     79  C   UNL A   1      33.887  35.887  32.298  1.00  0.00     0.198 A 
ATOM     80  C   UNL A   1      33.622  34.712  30.254  1.00  0.00     0.198 A 
ATOM     81  F   UNL A   1      35.360  33.469  29.354  1.00  0.00    -0.203 F 
ATOM     82  F   UNL A   1      33.430  36.761  33.207  1.00  0.00    -0.200 F 
ATOM     83  C   UNL A   1      33.109  35.566  31.207  1.00  0.00     0.200 A 
ATOM     84  F   UNL A   1      32.893  34.415  29.168  1.00  0.00    -0.200 F 
ATOM     85  F   UNL A   1      31.890  36.101  31.058  1.00  0.00    -0.200 F 
ENDBRANCH  61  75
BRANCH  62  86
ATOM     86  C   UNL A   1      42.830  27.725  33.156  1.00  0.00     0.064 A 
ATOM     87  C   UNL A   1      43.702  28.640  32.520  1.00  0.00     0.173 A 
ATOM     88  C   UNL A   1      43.372  26.523  33.614  1.00  0.00     0.173 A 
ATOM     89  F   UNL A   1      43.232  29.816  32.070  1.00  0.00    -0.203 F 
ATOM     90  C   UNL A   1      45.081  28.444  32.527  1.00  0.00     0.198 A 
ATOM     91  C   UNL A   1      44.755  26.322  33.598  1.00  0.00     0.198 A 
ATOM     92  F   UNL A   1      42.591  25.615  34.215  1.00  0.00    -0.203 F 
ATOM     93  F   UNL A   1      45.896  29.415  32.092  1.00  0.00    -0.200 F 
ATOM     94  C   UNL A   1      45.607  27.302  33.103  1.00  0.00     0.200 A 
ATOM     95  F   UNL A   1      45.275  25.226  34.169  1.00  0.00    -0.200 F 
ATOM     96  F   UNL A   1      46.935  27.172  33.235  1.00  0.00    -0.200 F 
ENDBRANCH  62  86
BRANCH  74  97
ATOM     97  C   UNL A   1      39.477  33.032  37.020  1.00  0.00     0.064 A 
ATOM     98  C   UNL A   1      40.293  34.148  37.256  1.00  0.00     0.173 A 
ATOM     99  C   UNL A   1      38.546  32.727  38.035  1.00  0.00     0.173 A 
ATOM    100  F   UNL A   1      41.357  34.411  36.485  1.00  0.00    -0.203 F 
ATOM    101  C   UNL A   1      40.049  35.018  38.319  1.00  0.00     0.198 A 
ATOM    102  C   UNL A   1      38.353  33.556  39.134  1.00  0.00     0.198 A 
ATOM    103  F   UNL A   1      37.774  31.633  37.988  1.00  0.00    -0.203 F 
ATOM    104  F   UNL A   1      40.767  36.143  38.432  1.00  0.00    -0.200 F 
ATOM    105  C   UNL A   1      39.066  34.730  39.246  1.00  0.00     0.200 A 
ATOM    106  F   UNL A   1      37.450  33.222  40.066  1.00  0.00    -0.200 F 
ATOM    107  F   UNL A   1      38.810  35.580  40.250  1.00  0.00    -0.200 F 
ENDBRANCH  74  97
ENDBRANCH  48  49
ENDBRANCH  41  43
ENDBRANCH  40  41
ENDBRANCH  39  40
ENDBRANCH  38  39
ENDBRANCH  37  38
ENDBRANCH  36  37
ENDBRANCH   1  36
TORSDOF 21
ENDMDL
MODEL 3
REMARK VINA RESULT:     -11.5      3.492      6.307
REMARK SMILES Cc1ccc(S(=O)(=O)n2cc(C(=O)C(=O)NCC(=O)NCC(=O)OCCOCCOC(=O)c3ccc(-c4c5nc(c(-c6c(F)c(F)c(F)c(F)c6F)c6ccc([nH]6)c(-c6c(F)c(F)c(F)c(F)c6F)c6nc(c(-c7c(F)c(F)c(F)c(F)c7F)c7ccc4[nH]7)C=C6)C=C5)cc3)c3ccccc32)cc1
REMARK SMILES IDX 25 1 24 2 22 3 23 4 21 5 20 6 18 7 19 8 17 10 16 11 14 12
REMARK SMILES IDX 15 13 12 15 13 16 11 17 9 18 10 19 101 20 96 21 100 22 97 23
REMARK SMILES IDX 99 24 98 25 6 26 7 27 8 28 5 29 1 30 2 31 3 32 103 33 4 34
REMARK SMILES IDX 102 35 26 36 27 37 28 38 29 39 30 40 31 41 32 42 33 43 34 44
REMARK SMILES IDX 95 45 35 46 94 47 36 48 37 49 38 50 88 51 39 52 93 53 87 54
REMARK SMILES IDX 89 55 40 56 92 57 86 58 85 59 41 61 73 62 53 63 72 64 54 65
REMARK SMILES IDX 57 66 71 67 90 68 55 69 56 70 70 72 91 73 58 74 42 75 43 76
REMARK SMILES IDX 51 77 44 78 45 79 49 80 52 81 46 82 47 83 50 84 48 85 74 86
REMARK SMILES IDX 75 87 83 88 76 89 77 90 81 91 84 92 78 93 79 94 82 95 80 96
REMARK SMILES IDX 59 97 60 98 68 99 61 100 62 101 66 102 69 103 63 104 64 105
REMARK SMILES IDX 67 106 65 107
REMARK H PARENT 20 9 16 14 89 60 57 71
REMARK Flexibility Score: inf
ROOT
ATOM      1  C   UNL A   1      42.689  22.298  26.170  1.00  0.00     0.261 C 
ENDROOT
BRANCH   1   2
ATOM      2  O   UNL A   1      41.787  21.289  25.722  1.00  0.00    -0.462 OA
BRANCH   2   3
ATOM      3  C   UNL A   1      40.713  21.010  26.515  1.00  0.00     0.325 C 
ATOM      4  O   UNL A   1      40.754  20.527  27.636  1.00  0.00    -0.250 OA
BRANCH   3   5
ATOM      5  C   UNL A   1      39.422  21.384  25.777  1.00  0.00     0.238 C 
BRANCH   5   6
ATOM      6  N   UNL A   1      38.687  22.425  26.500  1.00  0.00    -0.344 N 
ATOM      7  C   UNL A   1      37.915  23.425  25.977  1.00  0.00     0.239 C 
ATOM      8  O   UNL A   1      37.702  24.423  26.667  1.00  0.00    -0.273 OA
ATOM      9  H   UNL A   1      38.758  22.402  27.481  1.00  0.00     0.164 HD
BRANCH   7  10
ATOM     10  C   UNL A   1      37.347  23.282  24.563  1.00  0.00     0.216 C 
BRANCH  10  11
ATOM     11  N   UNL A   1      36.421  22.167  24.513  1.00  0.00    -0.340 N 
ATOM     12  C   UNL A   1      35.331  21.889  25.297  1.00  0.00     0.292 C 
ATOM     13  O   UNL A   1      34.892  20.748  25.271  1.00  0.00    -0.265 OA
ATOM     14  H   UNL A   1      36.606  21.506  23.807  1.00  0.00     0.164 HD
BRANCH  12  15
ATOM     15  C   UNL A   1      34.683  22.924  26.241  1.00  0.00     0.252 C 
ATOM     16  O   UNL A   1      34.901  22.859  27.445  1.00  0.00    -0.283 OA
BRANCH  15  17
ATOM     17  C   UNL A   1      33.764  23.931  25.693  1.00  0.00     0.054 A 
ATOM     18  N   UNL A   1      32.906  25.596  24.473  1.00  0.00    -0.240 N 
ATOM     19  C   UNL A   1      34.053  24.886  24.735  1.00  0.00     0.117 A 
ATOM     20  C   UNL A   1      31.839  25.087  25.181  1.00  0.00     0.065 A 
ATOM     21  C   UNL A   1      32.371  24.082  26.003  1.00  0.00     0.012 A 
ATOM     22  C   UNL A   1      30.468  25.385  25.164  1.00  0.00     0.028 A 
ATOM     23  C   UNL A   1      31.501  23.391  26.871  1.00  0.00     0.011 A 
ATOM     24  C   UNL A   1      29.630  24.673  26.025  1.00  0.00     0.002 A 
ATOM     25  C   UNL A   1      30.138  23.699  26.877  1.00  0.00     0.001 A 
BRANCH  18  26
ATOM     26  S   UNL A   1      32.777  26.724  23.214  1.00  0.00     0.268 S 
ATOM     27  O   UNL A   1      32.367  25.964  22.072  1.00  0.00    -0.201 OA
ATOM     28  O   UNL A   1      34.009  27.512  23.301  1.00  0.00    -0.201 OA
BRANCH  26  29
ATOM     29  C   UNL A   1      31.533  27.918  23.498  1.00  0.00     0.088 A 
ATOM     30  C   UNL A   1      28.777  31.173  23.434  1.00  0.00     0.044 C 
ATOM     31  C   UNL A   1      29.711  30.004  23.496  1.00  0.00    -0.051 A 
ATOM     32  C   UNL A   1      29.626  29.017  22.510  1.00  0.00     0.005 A 
ATOM     33  C   UNL A   1      30.694  29.913  24.498  1.00  0.00     0.005 A 
ATOM     34  C   UNL A   1      30.534  27.971  22.512  1.00  0.00     0.022 A 
ATOM     35  C   UNL A   1      31.616  28.867  24.504  1.00  0.00     0.022 A 
ENDBRANCH  26  29
ENDBRANCH  18  26
ENDBRANCH  15  17
ENDBRANCH  12  15
ENDBRANCH  10  11
ENDBRANCH   7  10
ENDBRANCH   5   6
ENDBRANCH   3   5
ENDBRANCH   2   3
ENDBRANCH   1   2
BRANCH   1  36
ATOM     36  C   UNL A   1      43.063  23.185  25.002  1.00  0.00     0.202 C 
BRANCH  36  37
ATOM     37  O   UNL A   1      43.600  24.394  25.532  1.00  0.00    -0.374 OA
BRANCH  37  38
ATOM     38  C   UNL A   1      43.323  24.627  26.911  1.00  0.00     0.202 C 
BRANCH  38  39
ATOM     39  C   UNL A   1      42.567  25.931  27.221  1.00  0.00     0.261 C 
BRANCH  39  40
ATOM     40  O   UNL A   1      43.213  27.033  26.561  1.00  0.00    -0.460 OA
BRANCH  40  41
ATOM     41  C   UNL A   1      42.388  27.841  25.844  1.00  0.00     0.338 C 
ATOM     42  O   UNL A   1      42.327  27.893  24.628  1.00  0.00    -0.246 OA
BRANCH  41  43
ATOM     43  C   UNL A   1      41.789  28.852  26.757  1.00  0.00     0.060 A 
ATOM     44  C   UNL A   1      42.618  29.602  27.610  1.00  0.00     0.016 A 
ATOM     45  C   UNL A   1      40.411  28.830  26.960  1.00  0.00     0.016 A 
ATOM     46  C   UNL A   1      42.073  30.244  28.726  1.00  0.00     0.010 A 
ATOM     47  C   UNL A   1      39.898  29.365  28.118  1.00  0.00     0.010 A 
ATOM     48  C   UNL A   1      40.718  30.073  29.006  1.00  0.00    -0.014 A 
BRANCH  48  49
ATOM     49  C   UNL A   1      40.043  30.494  30.226  1.00  0.00     0.031 A 
ATOM     50  C   UNL A   1      39.204  31.725  30.216  1.00  0.00     0.074 A 
ATOM     51  C   UNL A   1      39.951  29.612  31.247  1.00  0.00     0.049 A 
ATOM     52  N   UNL A   1      38.750  32.315  31.269  1.00  0.00    -0.248 NA
ATOM     53  C   UNL A   1      38.828  32.428  28.990  1.00  0.00     0.031 C 
ATOM     54  C   UNL A   1      38.934  29.593  32.283  1.00  0.00     0.029 A 
ATOM     55  N   UNL A   1      40.819  28.571  31.627  1.00  0.00    -0.354 N 
ATOM     56  C   UNL A   1      37.784  33.220  30.871  1.00  0.00     0.074 A 
ATOM     57  C   UNL A   1      37.935  33.314  29.443  1.00  0.00     0.031 C 
ATOM     58  C   UNL A   1      39.408  28.921  33.340  1.00  0.00     0.029 A 
ATOM     59  C   UNL A   1      40.761  28.526  33.037  1.00  0.00     0.049 A 
ATOM     60  H   UNL A   1      41.354  27.995  31.034  1.00  0.00     0.167 HD
ATOM     61  C   UNL A   1      36.867  33.656  31.787  1.00  0.00     0.037 A 
ATOM     62  C   UNL A   1      41.853  28.695  33.825  1.00  0.00     0.037 A 
ATOM     63  C   UNL A   1      37.149  33.048  33.080  1.00  0.00     0.049 A 
ATOM     64  C   UNL A   1      41.684  29.904  34.699  1.00  0.00     0.074 A 
ATOM     65  C   UNL A   1      36.701  31.848  33.590  1.00  0.00     0.029 A 
ATOM     66  N   UNL A   1      38.271  33.405  33.818  1.00  0.00    -0.354 N 
ATOM     67  N   UNL A   1      40.774  30.813  34.474  1.00  0.00    -0.248 NA
ATOM     68  C   UNL A   1      42.493  30.208  35.871  1.00  0.00     0.031 C 
ATOM     69  C   UNL A   1      37.641  31.442  34.556  1.00  0.00     0.029 A 
ATOM     70  C   UNL A   1      38.564  32.438  34.765  1.00  0.00     0.049 A 
ATOM     71  H   UNL A   1      38.787  34.233  33.685  1.00  0.00     0.167 HD
ATOM     72  C   UNL A   1      40.722  31.678  35.525  1.00  0.00     0.074 A 
ATOM     73  C   UNL A   1      41.904  31.338  36.305  1.00  0.00     0.031 C 
ATOM     74  C   UNL A   1      39.676  32.542  35.700  1.00  0.00     0.037 A 
BRANCH  61  75
ATOM     75  C   UNL A   1      35.527  34.300  31.473  1.00  0.00     0.064 A 
ATOM     76  C   UNL A   1      34.794  33.912  30.323  1.00  0.00     0.173 A 
ATOM     77  C   UNL A   1      34.929  35.333  32.216  1.00  0.00     0.173 A 
ATOM     78  F   UNL A   1      35.166  32.864  29.575  1.00  0.00    -0.203 F 
ATOM     79  C   UNL A   1      33.638  34.577  29.900  1.00  0.00     0.198 A 
ATOM     80  C   UNL A   1      33.795  36.024  31.773  1.00  0.00     0.198 A 
ATOM     81  F   UNL A   1      35.379  35.671  33.429  1.00  0.00    -0.203 F 
ATOM     82  F   UNL A   1      32.997  34.167  28.796  1.00  0.00    -0.200 F 
ATOM     83  C   UNL A   1      33.156  35.656  30.608  1.00  0.00     0.200 A 
ATOM     84  F   UNL A   1      33.320  37.050  32.495  1.00  0.00    -0.200 F 
ATOM     85  F   UNL A   1      32.066  36.313  30.191  1.00  0.00    -0.200 F 
ENDBRANCH  61  75
BRANCH  62  86
ATOM     86  C   UNL A   1      43.072  28.149  33.180  1.00  0.00     0.064 A 
ATOM     87  C   UNL A   1      43.284  26.757  33.321  1.00  0.00     0.173 A 
ATOM     88  C   UNL A   1      43.640  28.784  32.073  1.00  0.00     0.173 A 
ATOM     89  F   UNL A   1      42.749  26.098  34.362  1.00  0.00    -0.203 F 
ATOM     90  C   UNL A   1      43.863  26.010  32.299  1.00  0.00     0.198 A 
ATOM     91  C   UNL A   1      44.240  28.031  31.061  1.00  0.00     0.198 A 
ATOM     92  F   UNL A   1      43.480  30.102  31.894  1.00  0.00    -0.203 F 
ATOM     93  F   UNL A   1      43.876  24.672  32.374  1.00  0.00    -0.200 F 
ATOM     94  C   UNL A   1      44.305  26.645  31.152  1.00  0.00     0.200 A 
ATOM     95  F   UNL A   1      44.656  28.635  29.939  1.00  0.00    -0.200 F 
ATOM     96  F   UNL A   1      44.737  25.919  30.111  1.00  0.00    -0.200 F 
ENDBRANCH  62  86
BRANCH  74  97
ATOM     97  C   UNL A   1      39.548  33.464  36.877  1.00  0.00     0.064 A 
ATOM     98  C   UNL A   1      38.849  33.131  38.046  1.00  0.00     0.173 A 
ATOM     99  C   UNL A   1      40.101  34.761  36.841  1.00  0.00     0.173 A 
ATOM    100  F   UNL A   1      38.095  32.026  38.118  1.00  0.00    -0.203 F 
ATOM    101  C   UNL A   1      38.888  33.948  39.176  1.00  0.00     0.198 A 
ATOM    102  C   UNL A   1      40.075  35.606  37.944  1.00  0.00     0.198 A 
ATOM    103  F   UNL A   1      40.707  35.247  35.749  1.00  0.00    -0.203 F 
ATOM    104  F   UNL A   1      38.318  33.531  40.314  1.00  0.00    -0.200 F 
ATOM    105  C   UNL A   1      39.517  35.177  39.129  1.00  0.00     0.200 A 
ATOM    106  F   UNL A   1      40.621  36.827  37.857  1.00  0.00    -0.200 F 
ATOM    107  F   UNL A   1      39.581  35.949  40.221  1.00  0.00    -0.200 F 
ENDBRANCH  74  97
ENDBRANCH  48  49
ENDBRANCH  41  43
ENDBRANCH  40  41
ENDBRANCH  39  40
ENDBRANCH  38  39
ENDBRANCH  37  38
ENDBRANCH  36  37
ENDBRANCH   1  36
TORSDOF 21
ENDMDL
