MODEL 1
REMARK VINA RESULT:     -10.0      0.000      0.000
REMARK SMILES O=C(OCCOCCOC(=O)C(Cl)(c1ccccc1)c1ccccc1)c1ccc(-c2c3nc(c(-c4c(F)c(F)c(F)c(F)c4F)c4ccc([nH]4)c(-c4c(F)c(F)c(F)c(F)c4F)c4nc(c(-c5c(F)c(F)c(F)c(F)c5F)c5ccc2[nH]5)C=C4)C=C3)cc1
REMARK SMILES IDX 5 1 4 2 3 3 2 4 1 5 26 6 27 7 88 8 28 9 87 10 29 11 30 12
REMARK SMILES IDX 31 13 81 14 32 15 86 16 80 17 82 18 33 19 85 20 79 21 78 22
REMARK SMILES IDX 34 24 66 25 46 26 65 27 47 28 50 29 64 30 83 31 48 32 49 33
REMARK SMILES IDX 63 35 84 36 51 37 35 38 36 39 44 40 37 41 38 42 42 43 45 44
REMARK SMILES IDX 39 45 40 46 43 47 41 48 67 49 68 50 76 51 69 52 70 53 74 54
REMARK SMILES IDX 77 55 71 56 72 57 75 58 73 59 52 60 53 61 61 62 54 63 55 64
REMARK SMILES IDX 59 65 62 66 56 67 57 68 60 69 58 70 6 71 7 72 8 73 9 74
REMARK SMILES IDX 10 75 11 76 12 77 13 78 14 79 15 80 19 81 16 82 18 83 17 84
REMARK SMILES IDX 20 85 21 86 25 87 22 88 24 89 23 90
REMARK H PARENT 82 23 50 34
REMARK Flexibility Score: inf
ROOT
ATOM      1  C   UNL A   1      40.989  19.848  26.527  1.00  0.00     0.202 C 
ENDROOT
BRANCH   1   2
ATOM      2  C   UNL A   1      39.744  20.501  25.917  1.00  0.00     0.261 C 
BRANCH   2   3
ATOM      3  O   UNL A   1      39.878  21.935  25.848  1.00  0.00    -0.460 OA
BRANCH   3   4
ATOM      4  C   UNL A   1      38.944  22.856  26.203  1.00  0.00     0.338 C 
ATOM      5  O   UNL A   1      37.755  22.632  26.013  1.00  0.00    -0.246 OA
BRANCH   4   6
ATOM      6  C   UNL A   1      39.337  24.150  26.822  1.00  0.00     0.060 A 
ATOM      7  C   UNL A   1      40.004  25.145  26.113  1.00  0.00     0.016 A 
ATOM      8  C   UNL A   1      38.960  24.412  28.146  1.00  0.00     0.016 A 
ATOM      9  C   UNL A   1      40.428  26.307  26.725  1.00  0.00     0.010 A 
ATOM     10  C   UNL A   1      39.295  25.633  28.746  1.00  0.00     0.010 A 
ATOM     11  C   UNL A   1      40.053  26.573  28.037  1.00  0.00    -0.014 A 
BRANCH  11  12
ATOM     12  C   UNL A   1      40.536  27.837  28.623  1.00  0.00     0.031 A 
ATOM     13  C   UNL A   1      42.011  28.066  28.729  1.00  0.00     0.074 A 
ATOM     14  C   UNL A   1      39.650  28.819  28.872  1.00  0.00     0.049 A 
ATOM     15  N   UNL A   1      42.653  29.082  29.235  1.00  0.00    -0.248 NA
ATOM     16  C   UNL A   1      42.881  27.017  28.172  1.00  0.00     0.031 C 
ATOM     17  C   UNL A   1      38.201  28.720  28.657  1.00  0.00     0.029 A 
ATOM     18  N   UNL A   1      39.830  30.107  29.298  1.00  0.00    -0.354 N 
ATOM     19  C   UNL A   1      44.000  28.781  29.093  1.00  0.00     0.074 A 
ATOM     20  C   UNL A   1      44.087  27.491  28.447  1.00  0.00     0.031 C 
ATOM     21  C   UNL A   1      37.636  29.912  28.898  1.00  0.00     0.029 A 
ATOM     22  C   UNL A   1      38.662  30.826  29.380  1.00  0.00     0.049 A 
ATOM     23  H   UNL A   1      40.712  30.482  29.523  1.00  0.00     0.167 HD
ATOM     24  C   UNL A   1      45.061  29.522  29.484  1.00  0.00     0.037 A 
ATOM     25  C   UNL A   1      38.448  32.072  29.839  1.00  0.00     0.037 A 
ATOM     26  C   UNL A   1      44.932  30.805  30.119  1.00  0.00     0.049 A 
ATOM     27  C   UNL A   1      39.640  32.837  30.347  1.00  0.00     0.074 A 
ATOM     28  C   UNL A   1      45.913  31.608  30.670  1.00  0.00     0.029 A 
ATOM     29  N   UNL A   1      43.725  31.478  30.272  1.00  0.00    -0.354 N 
ATOM     30  N   UNL A   1      40.907  32.496  30.332  1.00  0.00    -0.248 NA
ATOM     31  C   UNL A   1      39.373  34.143  30.960  1.00  0.00     0.031 C 
ATOM     32  C   UNL A   1      45.295  32.755  31.181  1.00  0.00     0.029 A 
ATOM     33  C   UNL A   1      43.935  32.687  30.912  1.00  0.00     0.049 A 
ATOM     34  H   UNL A   1      42.851  31.145  29.970  1.00  0.00     0.167 HD
ATOM     35  C   UNL A   1      41.589  33.540  30.937  1.00  0.00     0.074 A 
ATOM     36  C   UNL A   1      40.598  34.544  31.267  1.00  0.00     0.031 C 
ATOM     37  C   UNL A   1      42.912  33.655  31.215  1.00  0.00     0.037 A 
BRANCH  24  38
ATOM     38  C   UNL A   1      46.420  28.918  29.300  1.00  0.00     0.064 A 
ATOM     39  C   UNL A   1      47.127  29.035  28.095  1.00  0.00     0.173 A 
ATOM     40  C   UNL A   1      47.006  28.176  30.336  1.00  0.00     0.173 A 
ATOM     41  F   UNL A   1      46.594  29.704  27.061  1.00  0.00    -0.203 F 
ATOM     42  C   UNL A   1      48.361  28.410  27.927  1.00  0.00     0.198 A 
ATOM     43  C   UNL A   1      48.249  27.573  30.173  1.00  0.00     0.198 A 
ATOM     44  F   UNL A   1      46.364  28.024  31.505  1.00  0.00    -0.203 F 
ATOM     45  F   UNL A   1      48.995  28.488  26.748  1.00  0.00    -0.200 F 
ATOM     46  C   UNL A   1      48.922  27.683  28.966  1.00  0.00     0.200 A 
ATOM     47  F   UNL A   1      48.788  26.868  31.178  1.00  0.00    -0.200 F 
ATOM     48  F   UNL A   1      50.105  27.074  28.799  1.00  0.00    -0.200 F 
ENDBRANCH  24  38
BRANCH  25  49
ATOM     49  C   UNL A   1      37.069  32.627  29.920  1.00  0.00     0.064 A 
ATOM     50  C   UNL A   1      36.528  33.401  28.885  1.00  0.00     0.173 A 
ATOM     51  C   UNL A   1      36.270  32.420  31.057  1.00  0.00     0.173 A 
ATOM     52  F   UNL A   1      37.254  33.652  27.786  1.00  0.00    -0.203 F 
ATOM     53  C   UNL A   1      35.255  33.962  28.992  1.00  0.00     0.198 A 
ATOM     54  C   UNL A   1      34.984  32.950  31.147  1.00  0.00     0.198 A 
ATOM     55  F   UNL A   1      36.734  31.694  32.083  1.00  0.00    -0.203 F 
ATOM     56  F   UNL A   1      34.787  34.746  28.011  1.00  0.00    -0.200 F 
ATOM     57  C   UNL A   1      34.482  33.732  30.120  1.00  0.00     0.200 A 
ATOM     58  F   UNL A   1      34.238  32.710  32.235  1.00  0.00    -0.200 F 
ATOM     59  F   UNL A   1      33.261  34.273  30.223  1.00  0.00    -0.200 F 
ENDBRANCH  25  49
BRANCH  37  60
ATOM     60  C   UNL A   1      43.340  34.917  31.895  1.00  0.00     0.064 A 
ATOM     61  C   UNL A   1      43.703  36.054  31.159  1.00  0.00     0.173 A 
ATOM     62  C   UNL A   1      43.365  34.995  33.294  1.00  0.00     0.173 A 
ATOM     63  F   UNL A   1      43.711  36.016  29.818  1.00  0.00    -0.203 F 
ATOM     64  C   UNL A   1      44.101  37.221  31.803  1.00  0.00     0.198 A 
ATOM     65  C   UNL A   1      43.737  36.172  33.935  1.00  0.00     0.198 A 
ATOM     66  F   UNL A   1      43.022  33.932  34.038  1.00  0.00    -0.203 F 
ATOM     67  F   UNL A   1      44.492  38.281  31.083  1.00  0.00    -0.200 F 
ATOM     68  C   UNL A   1      44.112  37.280  33.189  1.00  0.00     0.200 A 
ATOM     69  F   UNL A   1      43.737  36.233  35.273  1.00  0.00    -0.200 F 
ATOM     70  F   UNL A   1      44.493  38.406  33.808  1.00  0.00    -0.200 F 
ENDBRANCH  37  60
ENDBRANCH  11  12
ENDBRANCH   4   6
ENDBRANCH   3   4
ENDBRANCH   2   3
ENDBRANCH   1   2
BRANCH   1  71
ATOM     71  O   UNL A   1      41.628  18.844  25.736  1.00  0.00    -0.374 OA
BRANCH  71  72
ATOM     72  C   UNL A   1      42.986  19.127  25.371  1.00  0.00     0.202 C 
BRANCH  72  73
ATOM     73  C   UNL A   1      43.437  20.410  26.065  1.00  0.00     0.261 C 
BRANCH  73  74
ATOM     74  O   UNL A   1      44.027  21.255  25.069  1.00  0.00    -0.461 OA
BRANCH  74  75
ATOM     75  C   UNL A   1      45.046  22.059  25.515  1.00  0.00     0.336 C 
ATOM     76  O   UNL A   1      46.190  21.652  25.705  1.00  0.00    -0.249 OA
BRANCH  75  77
ATOM     77  C   UNL A   1      44.529  23.497  25.842  1.00  0.00     0.191 C 
ATOM     78  Cl  UNL A   1      43.018  23.726  24.794  1.00  0.00    -0.096 Cl
BRANCH  77  79
ATOM     79  C   UNL A   1      44.112  23.556  27.330  1.00  0.00    -0.011 A 
ATOM     80  C   UNL A   1      42.780  23.360  27.746  1.00  0.00     0.006 A 
ATOM     81  C   UNL A   1      45.078  23.786  28.332  1.00  0.00     0.006 A 
ATOM     82  C   UNL A   1      42.442  23.335  29.101  1.00  0.00     0.000 A 
ATOM     83  C   UNL A   1      44.740  23.742  29.686  1.00  0.00     0.000 A 
ATOM     84  C   UNL A   1      43.424  23.510  30.070  1.00  0.00     0.000 A 
ENDBRANCH  77  79
BRANCH  77  85
ATOM     85  C   UNL A   1      45.491  24.606  25.356  1.00  0.00    -0.011 A 
ATOM     86  C   UNL A   1      45.090  25.962  25.372  1.00  0.00     0.006 A 
ATOM     87  C   UNL A   1      46.819  24.337  24.984  1.00  0.00     0.006 A 
ATOM     88  C   UNL A   1      45.963  26.989  25.004  1.00  0.00     0.000 A 
ATOM     89  C   UNL A   1      47.695  25.367  24.626  1.00  0.00     0.000 A 
ATOM     90  C   UNL A   1      47.266  26.691  24.630  1.00  0.00     0.000 A 
ENDBRANCH  77  85
ENDBRANCH  75  77
ENDBRANCH  74  75
ENDBRANCH  73  74
ENDBRANCH  72  73
ENDBRANCH  71  72
ENDBRANCH   1  71
TORSDOF 16
ENDMDL
MODEL 2
REMARK VINA RESULT:      -9.7      5.184      8.936
REMARK SMILES O=C(OCCOCCOC(=O)C(Cl)(c1ccccc1)c1ccccc1)c1ccc(-c2c3nc(c(-c4c(F)c(F)c(F)c(F)c4F)c4ccc([nH]4)c(-c4c(F)c(F)c(F)c(F)c4F)c4nc(c(-c5c(F)c(F)c(F)c(F)c5F)c5ccc2[nH]5)C=C4)C=C3)cc1
REMARK SMILES IDX 5 1 4 2 3 3 2 4 1 5 26 6 27 7 88 8 28 9 87 10 29 11 30 12
REMARK SMILES IDX 31 13 81 14 32 15 86 16 80 17 82 18 33 19 85 20 79 21 78 22
REMARK SMILES IDX 34 24 66 25 46 26 65 27 47 28 50 29 64 30 83 31 48 32 49 33
REMARK SMILES IDX 63 35 84 36 51 37 35 38 36 39 44 40 37 41 38 42 42 43 45 44
REMARK SMILES IDX 39 45 40 46 43 47 41 48 67 49 68 50 76 51 69 52 70 53 74 54
REMARK SMILES IDX 77 55 71 56 72 57 75 58 73 59 52 60 53 61 61 62 54 63 55 64
REMARK SMILES IDX 59 65 62 66 56 67 57 68 60 69 58 70 6 71 7 72 8 73 9 74
REMARK SMILES IDX 10 75 11 76 12 77 13 78 14 79 15 80 19 81 16 82 18 83 17 84
REMARK SMILES IDX 20 85 21 86 25 87 22 88 24 89 23 90
REMARK H PARENT 82 23 50 34
REMARK Flexibility Score: inf
ROOT
ATOM      1  C   UNL A   1      32.249  28.106  25.694  1.00  0.00     0.202 C 
ENDROOT
BRANCH   1   2
ATOM      2  C   UNL A   1      31.785  29.566  25.740  1.00  0.00     0.261 C 
BRANCH   2   3
ATOM      3  O   UNL A   1      32.903  30.474  25.817  1.00  0.00    -0.460 OA
BRANCH   3   4
ATOM      4  C   UNL A   1      33.278  31.210  26.895  1.00  0.00     0.338 C 
ATOM      5  O   UNL A   1      32.616  32.182  27.239  1.00  0.00    -0.246 OA
BRANCH   4   6
ATOM      6  C   UNL A   1      34.495  30.863  27.678  1.00  0.00     0.060 A 
ATOM      7  C   UNL A   1      34.804  29.554  28.037  1.00  0.00     0.016 A 
ATOM      8  C   UNL A   1      35.404  31.878  28.004  1.00  0.00     0.016 A 
ATOM      9  C   UNL A   1      35.896  29.262  28.828  1.00  0.00     0.010 A 
ATOM     10  C   UNL A   1      36.572  31.576  28.718  1.00  0.00     0.010 A 
ATOM     11  C   UNL A   1      36.803  30.264  29.151  1.00  0.00    -0.014 A 
BRANCH  11  12
ATOM     12  C   UNL A   1      37.950  29.876  29.993  1.00  0.00     0.031 A 
ATOM     13  C   UNL A   1      39.051  29.067  29.385  1.00  0.00     0.074 A 
ATOM     14  C   UNL A   1      38.065  30.414  31.222  1.00  0.00     0.049 A 
ATOM     15  N   UNL A   1      40.130  28.592  29.942  1.00  0.00    -0.248 NA
ATOM     16  C   UNL A   1      38.930  28.767  27.948  1.00  0.00     0.031 C 
ATOM     17  C   UNL A   1      37.097  31.332  31.834  1.00  0.00     0.029 A 
ATOM     18  N   UNL A   1      39.063  30.322  32.154  1.00  0.00    -0.354 N 
ATOM     19  C   UNL A   1      40.798  27.907  28.938  1.00  0.00     0.074 A 
ATOM     20  C   UNL A   1      40.010  28.031  27.733  1.00  0.00     0.031 C 
ATOM     21  C   UNL A   1      37.577  31.761  33.010  1.00  0.00     0.029 A 
ATOM     22  C   UNL A   1      38.832  31.073  33.281  1.00  0.00     0.049 A 
ATOM     23  H   UNL A   1      39.871  29.772  32.028  1.00  0.00     0.167 HD
ATOM     24  C   UNL A   1      41.963  27.226  29.032  1.00  0.00     0.037 A 
ATOM     25  C   UNL A   1      39.539  31.154  34.423  1.00  0.00     0.037 A 
ATOM     26  C   UNL A   1      42.722  27.131  30.250  1.00  0.00     0.049 A 
ATOM     27  C   UNL A   1      40.785  30.317  34.526  1.00  0.00     0.074 A 
ATOM     28  C   UNL A   1      43.852  26.382  30.516  1.00  0.00     0.029 A 
ATOM     29  N   UNL A   1      42.418  27.833  31.411  1.00  0.00    -0.354 N 
ATOM     30  N   UNL A   1      41.350  29.561  33.614  1.00  0.00    -0.248 NA
ATOM     31  C   UNL A   1      41.475  30.318  35.820  1.00  0.00     0.031 C 
ATOM     32  C   UNL A   1      44.216  26.610  31.849  1.00  0.00     0.029 A 
ATOM     33  C   UNL A   1      43.338  27.533  32.400  1.00  0.00     0.049 A 
ATOM     34  H   UNL A   1      41.661  28.452  31.514  1.00  0.00     0.167 HD
ATOM     35  C   UNL A   1      42.458  28.993  34.222  1.00  0.00     0.074 A 
ATOM     36  C   UNL A   1      42.508  29.526  35.569  1.00  0.00     0.031 C 
ATOM     37  C   UNL A   1      43.345  28.095  33.726  1.00  0.00     0.037 A 
BRANCH  24  38
ATOM     38  C   UNL A   1      42.422  26.487  27.812  1.00  0.00     0.064 A 
ATOM     39  C   UNL A   1      41.985  25.188  27.523  1.00  0.00     0.173 A 
ATOM     40  C   UNL A   1      43.347  27.079  26.938  1.00  0.00     0.173 A 
ATOM     41  F   UNL A   1      41.129  24.564  28.347  1.00  0.00    -0.203 F 
ATOM     42  C   UNL A   1      42.476  24.497  26.416  1.00  0.00     0.198 A 
ATOM     43  C   UNL A   1      43.817  26.396  25.820  1.00  0.00     0.198 A 
ATOM     44  F   UNL A   1      43.806  28.318  27.177  1.00  0.00    -0.203 F 
ATOM     45  F   UNL A   1      42.088  23.234  26.189  1.00  0.00    -0.200 F 
ATOM     46  C   UNL A   1      43.388  25.103  25.565  1.00  0.00     0.200 A 
ATOM     47  F   UNL A   1      44.701  26.983  25.001  1.00  0.00    -0.200 F 
ATOM     48  F   UNL A   1      43.867  24.434  24.507  1.00  0.00    -0.200 F 
ENDBRANCH  24  38
BRANCH  25  49
ATOM     49  C   UNL A   1      39.049  31.973  35.565  1.00  0.00     0.064 A 
ATOM     50  C   UNL A   1      39.390  33.326  35.696  1.00  0.00     0.173 A 
ATOM     51  C   UNL A   1      38.251  31.408  36.574  1.00  0.00     0.173 A 
ATOM     52  F   UNL A   1      40.169  33.913  34.776  1.00  0.00    -0.203 F 
ATOM     53  C   UNL A   1      38.972  34.073  36.798  1.00  0.00     0.198 A 
ATOM     54  C   UNL A   1      37.803  32.164  37.655  1.00  0.00     0.198 A 
ATOM     55  F   UNL A   1      37.898  30.116  36.508  1.00  0.00    -0.203 F 
ATOM     56  F   UNL A   1      39.361  35.349  36.926  1.00  0.00    -0.200 F 
ATOM     57  C   UNL A   1      38.174  33.494  37.773  1.00  0.00     0.200 A 
ATOM     58  F   UNL A   1      37.020  31.600  38.585  1.00  0.00    -0.200 F 
ATOM     59  F   UNL A   1      37.775  34.211  38.832  1.00  0.00    -0.200 F 
ENDBRANCH  25  49
BRANCH  37  60
ATOM     60  C   UNL A   1      44.439  27.661  34.650  1.00  0.00     0.064 A 
ATOM     61  C   UNL A   1      44.276  26.563  35.507  1.00  0.00     0.173 A 
ATOM     62  C   UNL A   1      45.666  28.337  34.661  1.00  0.00     0.173 A 
ATOM     63  F   UNL A   1      43.110  25.901  35.541  1.00  0.00    -0.203 F 
ATOM     64  C   UNL A   1      45.300  26.171  36.363  1.00  0.00     0.198 A 
ATOM     65  C   UNL A   1      46.698  27.924  35.499  1.00  0.00     0.198 A 
ATOM     66  F   UNL A   1      45.867  29.391  33.855  1.00  0.00    -0.203 F 
ATOM     67  F   UNL A   1      45.109  25.150  37.210  1.00  0.00    -0.200 F 
ATOM     68  C   UNL A   1      46.511  26.848  36.353  1.00  0.00     0.200 A 
ATOM     69  F   UNL A   1      47.870  28.571  35.482  1.00  0.00    -0.200 F 
ATOM     70  F   UNL A   1      47.497  26.468  37.177  1.00  0.00    -0.200 F 
ENDBRANCH  37  60
ENDBRANCH  11  12
ENDBRANCH   4   6
ENDBRANCH   3   4
ENDBRANCH   2   3
ENDBRANCH   1   2
BRANCH   1  71
ATOM     71  O   UNL A   1      31.326  27.168  25.136  1.00  0.00    -0.374 OA
BRANCH  71  72
ATOM     72  C   UNL A   1      30.734  26.261  26.078  1.00  0.00     0.202 C 
BRANCH  72  73
ATOM     73  C   UNL A   1      30.595  24.885  25.434  1.00  0.00     0.261 C 
BRANCH  73  74
ATOM     74  O   UNL A   1      31.917  24.392  25.177  1.00  0.00    -0.461 OA
BRANCH  74  75
ATOM     75  C   UNL A   1      32.104  23.059  25.444  1.00  0.00     0.336 C 
ATOM     76  O   UNL A   1      31.649  22.502  26.440  1.00  0.00    -0.249 OA
BRANCH  75  77
ATOM     77  C   UNL A   1      33.043  22.398  24.384  1.00  0.00     0.191 C 
ATOM     78  Cl  UNL A   1      32.480  23.059  22.748  1.00  0.00    -0.096 Cl
BRANCH  77  79
ATOM     79  C   UNL A   1      34.495  22.869  24.634  1.00  0.00    -0.011 A 
ATOM     80  C   UNL A   1      34.951  23.255  25.910  1.00  0.00     0.006 A 
ATOM     81  C   UNL A   1      35.427  22.898  23.575  1.00  0.00     0.006 A 
ATOM     82  C   UNL A   1      36.287  23.596  26.127  1.00  0.00     0.000 A 
ATOM     83  C   UNL A   1      36.766  23.222  23.799  1.00  0.00     0.000 A 
ATOM     84  C   UNL A   1      37.197  23.563  25.075  1.00  0.00     0.000 A 
ENDBRANCH  77  79
BRANCH  77  85
ATOM     85  C   UNL A   1      32.830  20.871  24.263  1.00  0.00    -0.011 A 
ATOM     86  C   UNL A   1      32.293  20.313  23.079  1.00  0.00     0.006 A 
ATOM     87  C   UNL A   1      33.250  19.973  25.259  1.00  0.00     0.006 A 
ATOM     88  C   UNL A   1      32.153  18.932  22.917  1.00  0.00     0.000 A 
ATOM     89  C   UNL A   1      33.121  18.590  25.090  1.00  0.00     0.000 A 
ATOM     90  C   UNL A   1      32.568  18.070  23.924  1.00  0.00     0.000 A 
ENDBRANCH  77  85
ENDBRANCH  75  77
ENDBRANCH  74  75
ENDBRANCH  73  74
ENDBRANCH  72  73
ENDBRANCH  71  72
ENDBRANCH   1  71
TORSDOF 16
ENDMDL
MODEL 3
REMARK VINA RESULT:      -9.7      5.235      8.884
REMARK SMILES O=C(OCCOCCOC(=O)C(Cl)(c1ccccc1)c1ccccc1)c1ccc(-c2c3nc(c(-c4c(F)c(F)c(F)c(F)c4F)c4ccc([nH]4)c(-c4c(F)c(F)c(F)c(F)c4F)c4nc(c(-c5c(F)c(F)c(F)c(F)c5F)c5ccc2[nH]5)C=C4)C=C3)cc1
REMARK SMILES IDX 5 1 4 2 3 3 2 4 1 5 26 6 27 7 88 8 28 9 87 10 29 11 30 12
REMARK SMILES IDX 31 13 81 14 32 15 86 16 80 17 82 18 33 19 85 20 79 21 78 22
REMARK SMILES IDX 34 24 66 25 46 26 65 27 47 28 50 29 64 30 83 31 48 32 49 33
REMARK SMILES IDX 63 35 84 36 51 37 35 38 36 39 44 40 37 41 38 42 42 43 45 44
REMARK SMILES IDX 39 45 40 46 43 47 41 48 67 49 68 50 76 51 69 52 70 53 74 54
REMARK SMILES IDX 77 55 71 56 72 57 75 58 73 59 52 60 53 61 61 62 54 63 55 64
REMARK SMILES IDX 59 65 62 66 56 67 57 68 60 69 58 70 6 71 7 72 8 73 9 74
REMARK SMILES IDX 10 75 11 76 12 77 13 78 14 79 15 80 19 81 16 82 18 83 17 84
REMARK SMILES IDX 20 85 21 86 25 87 22 88 24 89 23 90
REMARK H PARENT 82 23 50 34
REMARK Flexibility Score: inf
ROOT
ATOM      1  C   UNL A   1      31.441  28.785  25.024  1.00  0.00     0.202 C 
ENDROOT
BRANCH   1   2
ATOM      2  C   UNL A   1      31.524  29.978  25.983  1.00  0.00     0.261 C 
BRANCH   2   3
ATOM      3  O   UNL A   1      32.860  30.518  26.042  1.00  0.00    -0.460 OA
BRANCH   3   4
ATOM      4  C   UNL A   1      33.364  31.333  27.004  1.00  0.00     0.338 C 
ATOM      5  O   UNL A   1      32.822  32.404  27.251  1.00  0.00    -0.246 OA
BRANCH   4   6
ATOM      6  C   UNL A   1      34.581  30.955  27.773  1.00  0.00     0.060 A 
ATOM      7  C   UNL A   1      34.815  29.653  28.207  1.00  0.00     0.016 A 
ATOM      8  C   UNL A   1      35.564  31.925  28.008  1.00  0.00     0.016 A 
ATOM      9  C   UNL A   1      35.910  29.339  28.985  1.00  0.00     0.010 A 
ATOM     10  C   UNL A   1      36.731  31.591  28.708  1.00  0.00     0.010 A 
ATOM     11  C   UNL A   1      36.890  30.296  29.218  1.00  0.00    -0.014 A 
BRANCH  11  12
ATOM     12  C   UNL A   1      38.036  29.885  30.052  1.00  0.00     0.031 A 
ATOM     13  C   UNL A   1      39.123  29.067  29.431  1.00  0.00     0.074 A 
ATOM     14  C   UNL A   1      38.163  30.409  31.285  1.00  0.00     0.049 A 
ATOM     15  N   UNL A   1      40.198  28.573  29.979  1.00  0.00    -0.248 NA
ATOM     16  C   UNL A   1      38.992  28.783  27.992  1.00  0.00     0.031 C 
ATOM     17  C   UNL A   1      37.209  31.334  31.909  1.00  0.00     0.029 A 
ATOM     18  N   UNL A   1      39.163  30.296  32.211  1.00  0.00    -0.354 N 
ATOM     19  C   UNL A   1      40.853  27.888  28.966  1.00  0.00     0.074 A 
ATOM     20  C   UNL A   1      40.061  28.035  27.765  1.00  0.00     0.031 C 
ATOM     21  C   UNL A   1      37.700  31.746  33.088  1.00  0.00     0.029 A 
ATOM     22  C   UNL A   1      38.947  31.039  33.347  1.00  0.00     0.049 A 
ATOM     23  H   UNL A   1      39.963  29.737  32.077  1.00  0.00     0.167 HD
ATOM     24  C   UNL A   1      42.009  27.192  29.049  1.00  0.00     0.037 A 
ATOM     25  C   UNL A   1      39.659  31.100  34.486  1.00  0.00     0.037 A 
ATOM     26  C   UNL A   1      42.772  27.076  30.262  1.00  0.00     0.049 A 
ATOM     27  C   UNL A   1      40.895  30.247  34.576  1.00  0.00     0.074 A 
ATOM     28  C   UNL A   1      43.893  26.310  30.516  1.00  0.00     0.029 A 
ATOM     29  N   UNL A   1      42.482  27.770  31.431  1.00  0.00    -0.354 N 
ATOM     30  N   UNL A   1      41.446  29.492  33.655  1.00  0.00    -0.248 NA
ATOM     31  C   UNL A   1      41.591  30.227  35.867  1.00  0.00     0.031 C 
ATOM     32  C   UNL A   1      44.266  26.520  31.849  1.00  0.00     0.029 A 
ATOM     33  C   UNL A   1      43.402  27.449  32.413  1.00  0.00     0.049 A 
ATOM     34  H   UNL A   1      41.734  28.399  31.543  1.00  0.00     0.167 HD
ATOM     35  C   UNL A   1      42.549  28.904  34.253  1.00  0.00     0.074 A 
ATOM     36  C   UNL A   1      42.612  29.424  35.604  1.00  0.00     0.031 C 
ATOM     37  C   UNL A   1      43.422  27.999  33.744  1.00  0.00     0.037 A 
BRANCH  24  38
ATOM     38  C   UNL A   1      42.453  26.459  27.820  1.00  0.00     0.064 A 
ATOM     39  C   UNL A   1      42.011  25.161  27.529  1.00  0.00     0.173 A 
ATOM     40  C   UNL A   1      43.369  27.053  26.938  1.00  0.00     0.173 A 
ATOM     41  F   UNL A   1      41.163  24.535  28.360  1.00  0.00    -0.203 F 
ATOM     42  C   UNL A   1      42.488  24.475  26.414  1.00  0.00     0.198 A 
ATOM     43  C   UNL A   1      43.826  26.376  25.812  1.00  0.00     0.198 A 
ATOM     44  F   UNL A   1      43.832  28.290  27.178  1.00  0.00    -0.203 F 
ATOM     45  F   UNL A   1      42.096  23.214  26.185  1.00  0.00    -0.200 F 
ATOM     46  C   UNL A   1      43.392  25.084  25.555  1.00  0.00     0.200 A 
ATOM     47  F   UNL A   1      44.701  26.965  24.985  1.00  0.00    -0.200 F 
ATOM     48  F   UNL A   1      43.858  24.419  24.488  1.00  0.00    -0.200 F 
ENDBRANCH  24  38
BRANCH  25  49
ATOM     49  C   UNL A   1      39.185  31.916  35.638  1.00  0.00     0.064 A 
ATOM     50  C   UNL A   1      38.312  31.389  36.599  1.00  0.00     0.173 A 
ATOM     51  C   UNL A   1      39.573  33.258  35.785  1.00  0.00     0.173 A 
ATOM     52  F   UNL A   1      37.889  30.120  36.496  1.00  0.00    -0.203 F 
ATOM     53  C   UNL A   1      37.830  32.176  37.645  1.00  0.00     0.198 A 
ATOM     54  C   UNL A   1      39.120  34.032  36.851  1.00  0.00     0.198 A 
ATOM     55  F   UNL A   1      40.402  33.821  34.893  1.00  0.00    -0.203 F 
ATOM     56  F   UNL A   1      36.950  31.663  38.516  1.00  0.00    -0.200 F 
ATOM     57  C   UNL A   1      38.239  33.494  37.774  1.00  0.00     0.200 A 
ATOM     58  F   UNL A   1      39.532  35.302  36.976  1.00  0.00    -0.200 F 
ATOM     59  F   UNL A   1      37.774  34.250  38.778  1.00  0.00    -0.200 F 
ENDBRANCH  25  49
BRANCH  37  60
ATOM     60  C   UNL A   1      44.514  27.543  34.660  1.00  0.00     0.064 A 
ATOM     61  C   UNL A   1      44.357  26.411  35.473  1.00  0.00     0.173 A 
ATOM     62  C   UNL A   1      45.735  28.230  34.705  1.00  0.00     0.173 A 
ATOM     63  F   UNL A   1      43.199  25.736  35.475  1.00  0.00    -0.203 F 
ATOM     64  C   UNL A   1      45.379  25.998  36.322  1.00  0.00     0.198 A 
ATOM     65  C   UNL A   1      46.764  27.798  35.534  1.00  0.00     0.198 A 
ATOM     66  F   UNL A   1      45.929  29.316  33.940  1.00  0.00    -0.203 F 
ATOM     67  F   UNL A   1      45.193  24.945  37.128  1.00  0.00    -0.200 F 
ATOM     68  C   UNL A   1      46.583  26.688  36.346  1.00  0.00     0.200 A 
ATOM     69  F   UNL A   1      47.930  28.457  35.550  1.00  0.00    -0.200 F 
ATOM     70  F   UNL A   1      47.567  26.287  37.162  1.00  0.00    -0.200 F 
ENDBRANCH  37  60
ENDBRANCH  11  12
ENDBRANCH   4   6
ENDBRANCH   3   4
ENDBRANCH   2   3
ENDBRANCH   1   2
BRANCH   1  71
ATOM     71  O   UNL A   1      31.549  29.085  23.631  1.00  0.00    -0.374 OA
BRANCH  71  72
ATOM     72  C   UNL A   1      31.452  27.953  22.754  1.00  0.00     0.202 C 
BRANCH  72  73
ATOM     73  C   UNL A   1      32.840  27.606  22.224  1.00  0.00     0.261 C 
BRANCH  73  74
ATOM     74  O   UNL A   1      33.534  26.898  23.261  1.00  0.00    -0.461 OA
BRANCH  74  75
ATOM     75  C   UNL A   1      33.342  25.539  23.267  1.00  0.00     0.336 C 
ATOM     76  O   UNL A   1      32.854  24.925  22.322  1.00  0.00    -0.249 OA
BRANCH  75  77
ATOM     77  C   UNL A   1      33.723  24.923  24.652  1.00  0.00     0.191 C 
ATOM     78  Cl  UNL A   1      34.105  26.368  25.746  1.00  0.00    -0.096 Cl
BRANCH  77  79
ATOM     79  C   UNL A   1      32.494  24.179  25.227  1.00  0.00    -0.011 A 
ATOM     80  C   UNL A   1      32.360  22.778  25.152  1.00  0.00     0.006 A 
ATOM     81  C   UNL A   1      31.468  24.895  25.878  1.00  0.00     0.006 A 
ATOM     82  C   UNL A   1      31.284  22.121  25.751  1.00  0.00     0.000 A 
ATOM     83  C   UNL A   1      30.402  24.235  26.492  1.00  0.00     0.000 A 
ATOM     84  C   UNL A   1      30.315  22.849  26.435  1.00  0.00     0.000 A 
ENDBRANCH  77  79
BRANCH  77  85
ATOM     85  C   UNL A   1      35.047  24.126  24.610  1.00  0.00    -0.011 A 
ATOM     86  C   UNL A   1      35.881  24.059  25.750  1.00  0.00     0.006 A 
ATOM     87  C   UNL A   1      35.426  23.358  23.496  1.00  0.00     0.006 A 
ATOM     88  C   UNL A   1      37.049  23.291  25.762  1.00  0.00     0.000 A 
ATOM     89  C   UNL A   1      36.589  22.580  23.512  1.00  0.00     0.000 A 
ATOM     90  C   UNL A   1      37.403  22.551  24.642  1.00  0.00     0.000 A 
ENDBRANCH  77  85
ENDBRANCH  75  77
ENDBRANCH  74  75
ENDBRANCH  73  74
ENDBRANCH  72  73
ENDBRANCH  71  72
ENDBRANCH   1  71
TORSDOF 16
ENDMDL
