MODEL 1
REMARK VINA RESULT:     -10.2      0.000      0.000
REMARK SMILES O=C(OCCOCCOC(=O)c1cccc2c(Br)ccnc12)c1ccc(-c2c3nc(c(-c4c(F)c(F)c(F)c(F)c4F)c4ccc([nH]4)c(-c4c(F)c(F)c(F)c(F)c4F)c4nc(c(-c5c(F)c(F)c(F)c(F)c5F)c5ccc2[nH]5)C=C4)C=C3)cc1
REMARK SMILES IDX 5 1 4 2 3 3 2 4 1 5 23 6 24 7 85 8 25 9 84 10 26 11 27 12
REMARK SMILES IDX 28 13 78 14 29 15 83 16 77 17 79 18 30 19 82 20 76 21 75 22
REMARK SMILES IDX 31 24 63 25 43 26 62 27 44 28 47 29 61 30 80 31 45 32 46 33
REMARK SMILES IDX 60 35 81 36 48 37 32 38 33 39 41 40 34 41 35 42 39 43 42 44
REMARK SMILES IDX 36 45 37 46 40 47 38 48 64 49 65 50 73 51 66 52 67 53 71 54
REMARK SMILES IDX 74 55 68 56 69 57 72 58 70 59 49 60 50 61 58 62 51 63 52 64
REMARK SMILES IDX 56 65 59 66 53 67 54 68 57 69 55 70 6 71 7 72 8 73 9 74
REMARK SMILES IDX 10 75 11 76 12 77 13 78 22 79 14 80 16 81 21 82 15 83 17 84
REMARK SMILES IDX 20 85 18 86 19 87
REMARK H PARENT 79 23 47 34
REMARK Flexibility Score: inf
ROOT
ATOM      1  C   UNL A   1      33.566  34.125  28.124  1.00  0.00     0.202 C 
ENDROOT
BRANCH   1   2
ATOM      2  C   UNL A   1      34.206  32.794  28.529  1.00  0.00     0.261 C 
BRANCH   2   3
ATOM      3  O   UNL A   1      33.959  31.770  27.561  1.00  0.00    -0.460 OA
BRANCH   3   4
ATOM      4  C   UNL A   1      34.577  30.570  27.458  1.00  0.00     0.338 C 
ATOM      5  O   UNL A   1      34.085  29.743  26.688  1.00  0.00    -0.246 OA
BRANCH   4   6
ATOM      6  C   UNL A   1      35.823  30.167  28.199  1.00  0.00     0.060 A 
ATOM      7  C   UNL A   1      37.030  30.307  27.489  1.00  0.00     0.016 A 
ATOM      8  C   UNL A   1      35.892  29.589  29.471  1.00  0.00     0.016 A 
ATOM      9  C   UNL A   1      38.234  29.816  27.999  1.00  0.00     0.010 A 
ATOM     10  C   UNL A   1      37.077  29.080  29.981  1.00  0.00     0.010 A 
ATOM     11  C   UNL A   1      38.246  29.174  29.237  1.00  0.00    -0.014 A 
BRANCH  11  12
ATOM     12  C   UNL A   1      39.480  28.691  29.862  1.00  0.00     0.031 A 
ATOM     13  C   UNL A   1      40.070  29.403  31.035  1.00  0.00     0.074 A 
ATOM     14  C   UNL A   1      40.122  27.700  29.225  1.00  0.00     0.049 A 
ATOM     15  N   UNL A   1      41.147  29.111  31.714  1.00  0.00    -0.248 NA
ATOM     16  C   UNL A   1      39.383  30.624  31.489  1.00  0.00     0.031 C 
ATOM     17  C   UNL A   1      39.655  27.066  27.989  1.00  0.00     0.029 A 
ATOM     18  N   UNL A   1      41.305  27.077  29.500  1.00  0.00    -0.354 N 
ATOM     19  C   UNL A   1      41.251  30.089  32.694  1.00  0.00     0.074 A 
ATOM     20  C   UNL A   1      40.171  31.025  32.479  1.00  0.00     0.031 C 
ATOM     21  C   UNL A   1      40.538  26.130  27.618  1.00  0.00     0.029 A 
ATOM     22  C   UNL A   1      41.624  26.103  28.590  1.00  0.00     0.049 A 
ATOM     23  H   UNL A   1      41.871  27.303  30.272  1.00  0.00     0.167 HD
ATOM     24  C   UNL A   1      42.162  30.161  33.692  1.00  0.00     0.037 A 
ATOM     25  C   UNL A   1      42.673  25.265  28.568  1.00  0.00     0.037 A 
ATOM     26  C   UNL A   1      43.241  29.215  33.837  1.00  0.00     0.049 A 
ATOM     27  C   UNL A   1      43.649  25.341  29.704  1.00  0.00     0.074 A 
ATOM     28  C   UNL A   1      44.187  29.124  34.841  1.00  0.00     0.029 A 
ATOM     29  N   UNL A   1      43.523  28.202  32.927  1.00  0.00    -0.354 N 
ATOM     30  N   UNL A   1      43.666  26.173  30.720  1.00  0.00    -0.248 NA
ATOM     31  C   UNL A   1      44.732  24.355  29.710  1.00  0.00     0.031 C 
ATOM     32  C   UNL A   1      45.071  28.090  34.511  1.00  0.00     0.029 A 
ATOM     33  C   UNL A   1      44.646  27.499  33.330  1.00  0.00     0.049 A 
ATOM     34  H   UNL A   1      43.001  28.012  32.114  1.00  0.00     0.167 HD
ATOM     35  C   UNL A   1      44.755  25.809  31.494  1.00  0.00     0.074 A 
ATOM     36  C   UNL A   1      45.352  24.656  30.842  1.00  0.00     0.031 C 
ATOM     37  C   UNL A   1      45.225  26.374  32.634  1.00  0.00     0.037 A 
BRANCH  24  38
ATOM     38  C   UNL A   1      42.018  31.258  34.710  1.00  0.00     0.064 A 
ATOM     39  C   UNL A   1      42.792  32.429  34.633  1.00  0.00     0.173 A 
ATOM     40  C   UNL A   1      41.050  31.187  35.724  1.00  0.00     0.173 A 
ATOM     41  F   UNL A   1      43.736  32.553  33.687  1.00  0.00    -0.203 F 
ATOM     42  C   UNL A   1      42.612  33.474  35.536  1.00  0.00     0.198 A 
ATOM     43  C   UNL A   1      40.853  32.246  36.608  1.00  0.00     0.198 A 
ATOM     44  F   UNL A   1      40.277  30.098  35.846  1.00  0.00    -0.203 F 
ATOM     45  F   UNL A   1      43.384  34.567  35.456  1.00  0.00    -0.200 F 
ATOM     46  C   UNL A   1      41.636  33.387  36.515  1.00  0.00     0.200 A 
ATOM     47  F   UNL A   1      39.896  32.168  37.544  1.00  0.00    -0.200 F 
ATOM     48  F   UNL A   1      41.447  34.403  37.369  1.00  0.00    -0.200 F 
ENDBRANCH  24  38
BRANCH  25  49
ATOM     49  C   UNL A   1      42.747  24.237  27.503  1.00  0.00     0.064 A 
ATOM     50  C   UNL A   1      43.468  24.487  26.328  1.00  0.00     0.173 A 
ATOM     51  C   UNL A   1      42.214  22.951  27.684  1.00  0.00     0.173 A 
ATOM     52  F   UNL A   1      43.998  25.700  26.114  1.00  0.00    -0.203 F 
ATOM     53  C   UNL A   1      43.654  23.491  25.373  1.00  0.00     0.198 A 
ATOM     54  C   UNL A   1      42.422  21.949  26.739  1.00  0.00     0.198 A 
ATOM     55  F   UNL A   1      41.539  22.655  28.804  1.00  0.00    -0.203 F 
ATOM     56  F   UNL A   1      44.342  23.758  24.256  1.00  0.00    -0.200 F 
ATOM     57  C   UNL A   1      43.141  22.219  25.584  1.00  0.00     0.200 A 
ATOM     58  F   UNL A   1      41.950  20.714  26.960  1.00  0.00    -0.200 F 
ATOM     59  F   UNL A   1      43.349  21.253  24.679  1.00  0.00    -0.200 F 
ENDBRANCH  25  49
BRANCH  37  60
ATOM     60  C   UNL A   1      46.462  25.765  33.221  1.00  0.00     0.064 A 
ATOM     61  C   UNL A   1      47.736  26.247  32.890  1.00  0.00     0.173 A 
ATOM     62  C   UNL A   1      46.371  24.721  34.153  1.00  0.00     0.173 A 
ATOM     63  F   UNL A   1      47.871  27.235  31.992  1.00  0.00    -0.203 F 
ATOM     64  C   UNL A   1      48.879  25.687  33.452  1.00  0.00     0.198 A 
ATOM     65  C   UNL A   1      47.515  24.187  34.739  1.00  0.00     0.198 A 
ATOM     66  F   UNL A   1      45.173  24.230  34.508  1.00  0.00    -0.203 F 
ATOM     67  F   UNL A   1      50.089  26.129  33.082  1.00  0.00    -0.200 F 
ATOM     68  C   UNL A   1      48.766  24.665  34.382  1.00  0.00     0.200 A 
ATOM     69  F   UNL A   1      47.405  23.210  35.650  1.00  0.00    -0.200 F 
ATOM     70  F   UNL A   1      49.868  24.134  34.929  1.00  0.00    -0.200 F 
ENDBRANCH  37  60
ENDBRANCH  11  12
ENDBRANCH   4   6
ENDBRANCH   3   4
ENDBRANCH   2   3
ENDBRANCH   1   2
BRANCH   1  71
ATOM     71  O   UNL A   1      32.663  34.654  29.094  1.00  0.00    -0.374 OA
BRANCH  71  72
ATOM     72  C   UNL A   1      33.194  35.683  29.926  1.00  0.00     0.202 C 
BRANCH  72  73
ATOM     73  C   UNL A   1      32.999  35.343  31.402  1.00  0.00     0.261 C 
BRANCH  73  74
ATOM     74  O   UNL A   1      34.281  35.212  32.041  1.00  0.00    -0.460 OA
BRANCH  74  75
ATOM     75  C   UNL A   1      34.729  33.944  32.248  1.00  0.00     0.340 C 
ATOM     76  O   UNL A   1      34.109  32.909  32.086  1.00  0.00    -0.246 OA
BRANCH  75  77
ATOM     77  C   UNL A   1      36.141  34.049  32.679  1.00  0.00     0.086 A 
ATOM     78  C   UNL A   1      36.386  34.128  34.058  1.00  0.00     0.018 A 
ATOM     79  C   UNL A   1      37.173  34.105  31.725  1.00  0.00     0.086 A 
ATOM     80  C   UNL A   1      37.686  34.245  34.515  1.00  0.00     0.002 A 
ATOM     81  C   UNL A   1      38.498  34.222  32.196  1.00  0.00     0.015 A 
ATOM     82  N   UNL A   1      36.916  34.097  30.396  1.00  0.00    -0.255 NA
ATOM     83  C   UNL A   1      38.730  34.280  33.594  1.00  0.00     0.011 A 
ATOM     84  C   UNL A   1      39.526  34.295  31.221  1.00  0.00     0.028 A 
ATOM     85  C   UNL A   1      37.919  34.201  29.502  1.00  0.00     0.113 A 
ATOM     86  Br  UNL A   1      41.372  34.396  31.680  1.00  0.00    -0.050 Br
ATOM     87  C   UNL A   1      39.237  34.299  29.861  1.00  0.00     0.036 A 
ENDBRANCH  75  77
ENDBRANCH  74  75
ENDBRANCH  73  74
ENDBRANCH  72  73
ENDBRANCH  71  72
ENDBRANCH   1  71
TORSDOF 14
ENDMDL
MODEL 2
REMARK VINA RESULT:     -10.1      5.158     11.522
REMARK SMILES O=C(OCCOCCOC(=O)c1cccc2c(Br)ccnc12)c1ccc(-c2c3nc(c(-c4c(F)c(F)c(F)c(F)c4F)c4ccc([nH]4)c(-c4c(F)c(F)c(F)c(F)c4F)c4nc(c(-c5c(F)c(F)c(F)c(F)c5F)c5ccc2[nH]5)C=C4)C=C3)cc1
REMARK SMILES IDX 5 1 4 2 3 3 2 4 1 5 23 6 24 7 85 8 25 9 84 10 26 11 27 12
REMARK SMILES IDX 28 13 78 14 29 15 83 16 77 17 79 18 30 19 82 20 76 21 75 22
REMARK SMILES IDX 31 24 63 25 43 26 62 27 44 28 47 29 61 30 80 31 45 32 46 33
REMARK SMILES IDX 60 35 81 36 48 37 32 38 33 39 41 40 34 41 35 42 39 43 42 44
REMARK SMILES IDX 36 45 37 46 40 47 38 48 64 49 65 50 73 51 66 52 67 53 71 54
REMARK SMILES IDX 74 55 68 56 69 57 72 58 70 59 49 60 50 61 58 62 51 63 52 64
REMARK SMILES IDX 56 65 59 66 53 67 54 68 57 69 55 70 6 71 7 72 8 73 9 74
REMARK SMILES IDX 10 75 11 76 12 77 13 78 22 79 14 80 16 81 21 82 15 83 17 84
REMARK SMILES IDX 20 85 18 86 19 87
REMARK H PARENT 79 23 47 34
REMARK Flexibility Score: inf
ROOT
ATOM      1  C   UNL A   1      44.835  22.157  23.706  1.00  0.00     0.202 C 
ENDROOT
BRANCH   1   2
ATOM      2  C   UNL A   1      45.489  23.277  24.519  1.00  0.00     0.261 C 
BRANCH   2   3
ATOM      3  O   UNL A   1      44.645  24.427  24.615  1.00  0.00    -0.460 OA
BRANCH   3   4
ATOM      4  C   UNL A   1      44.945  25.624  25.172  1.00  0.00     0.338 C 
ATOM      5  O   UNL A   1      45.929  26.222  24.735  1.00  0.00    -0.246 OA
BRANCH   4   6
ATOM      6  C   UNL A   1      44.169  26.288  26.277  1.00  0.00     0.060 A 
ATOM      7  C   UNL A   1      44.369  27.674  26.417  1.00  0.00     0.016 A 
ATOM      8  C   UNL A   1      43.353  25.660  27.224  1.00  0.00     0.016 A 
ATOM      9  C   UNL A   1      43.840  28.378  27.501  1.00  0.00     0.010 A 
ATOM     10  C   UNL A   1      42.837  26.343  28.315  1.00  0.00     0.010 A 
ATOM     11  C   UNL A   1      43.097  27.699  28.467  1.00  0.00    -0.014 A 
BRANCH  11  12
ATOM     12  C   UNL A   1      42.459  28.382  29.596  1.00  0.00     0.031 A 
ATOM     13  C   UNL A   1      41.144  29.069  29.426  1.00  0.00     0.074 A 
ATOM     14  C   UNL A   1      43.192  28.498  30.713  1.00  0.00     0.049 A 
ATOM     15  N   UNL A   1      40.435  29.712  30.315  1.00  0.00    -0.248 NA
ATOM     16  C   UNL A   1      40.558  29.064  28.075  1.00  0.00     0.031 C 
ATOM     17  C   UNL A   1      44.548  27.966  30.877  1.00  0.00     0.029 A 
ATOM     18  N   UNL A   1      42.926  29.119  31.899  1.00  0.00    -0.354 N 
ATOM     19  C   UNL A   1      39.306  30.161  29.643  1.00  0.00     0.074 A 
ATOM     20  C   UNL A   1      39.455  29.781  28.256  1.00  0.00     0.031 C 
ATOM     21  C   UNL A   1      44.991  28.271  32.104  1.00  0.00     0.029 A 
ATOM     22  C   UNL A   1      43.951  29.016  32.803  1.00  0.00     0.049 A 
ATOM     23  H   UNL A   1      42.084  29.592  32.086  1.00  0.00     0.167 HD
ATOM     24  C   UNL A   1      38.239  30.807  30.166  1.00  0.00     0.037 A 
ATOM     25  C   UNL A   1      44.021  29.458  34.068  1.00  0.00     0.037 A 
ATOM     26  C   UNL A   1      38.160  31.193  31.554  1.00  0.00     0.049 A 
ATOM     27  C   UNL A   1      42.812  30.140  34.636  1.00  0.00     0.074 A 
ATOM     28  C   UNL A   1      37.110  31.782  32.233  1.00  0.00     0.029 A 
ATOM     29  N   UNL A   1      39.194  31.038  32.470  1.00  0.00    -0.354 N 
ATOM     30  N   UNL A   1      41.679  30.434  34.043  1.00  0.00    -0.248 NA
ATOM     31  C   UNL A   1      42.876  30.528  36.047  1.00  0.00     0.031 C 
ATOM     32  C   UNL A   1      37.528  32.030  33.545  1.00  0.00     0.029 A 
ATOM     33  C   UNL A   1      38.820  31.547  33.702  1.00  0.00     0.049 A 
ATOM     34  H   UNL A   1      40.067  30.627  32.272  1.00  0.00     0.167 HD
ATOM     35  C   UNL A   1      40.888  31.035  35.007  1.00  0.00     0.074 A 
ATOM     36  C   UNL A   1      41.664  31.031  36.234  1.00  0.00     0.031 C 
ATOM     37  C   UNL A   1      39.637  31.549  34.892  1.00  0.00     0.037 A 
BRANCH  24  38
ATOM     38  C   UNL A   1      37.073  31.105  29.264  1.00  0.00     0.064 A 
ATOM     39  C   UNL A   1      36.141  30.109  28.925  1.00  0.00     0.173 A 
ATOM     40  C   UNL A   1      36.829  32.406  28.798  1.00  0.00     0.173 A 
ATOM     41  F   UNL A   1      36.323  28.846  29.340  1.00  0.00    -0.203 F 
ATOM     42  C   UNL A   1      35.024  30.400  28.146  1.00  0.00     0.198 A 
ATOM     43  C   UNL A   1      35.696  32.700  28.041  1.00  0.00     0.198 A 
ATOM     44  F   UNL A   1      37.679  33.401  29.092  1.00  0.00    -0.203 F 
ATOM     45  F   UNL A   1      34.168  29.424  27.814  1.00  0.00    -0.200 F 
ATOM     46  C   UNL A   1      34.796  31.697  27.714  1.00  0.00     0.200 A 
ATOM     47  F   UNL A   1      35.467  33.958  27.639  1.00  0.00    -0.200 F 
ATOM     48  F   UNL A   1      33.709  31.980  26.983  1.00  0.00    -0.200 F 
ENDBRANCH  24  38
BRANCH  25  49
ATOM     49  C   UNL A   1      45.228  29.145  34.871  1.00  0.00     0.064 A 
ATOM     50  C   UNL A   1      45.330  27.922  35.546  1.00  0.00     0.173 A 
ATOM     51  C   UNL A   1      46.346  29.994  34.878  1.00  0.00     0.173 A 
ATOM     52  F   UNL A   1      44.288  27.078  35.563  1.00  0.00    -0.203 F 
ATOM     53  C   UNL A   1      46.505  27.558  36.200  1.00  0.00     0.198 A 
ATOM     54  C   UNL A   1      47.528  29.617  35.511  1.00  0.00     0.198 A 
ATOM     55  F   UNL A   1      46.306  31.163  34.222  1.00  0.00    -0.203 F 
ATOM     56  F   UNL A   1      46.573  26.385  36.844  1.00  0.00    -0.200 F 
ATOM     57  C   UNL A   1      47.606  28.400  36.173  1.00  0.00     0.200 A 
ATOM     58  F   UNL A   1      48.600  30.419  35.458  1.00  0.00    -0.200 F 
ATOM     59  F   UNL A   1      48.746  28.034  36.774  1.00  0.00    -0.200 F 
ENDBRANCH  25  49
BRANCH  37  60
ATOM     60  C   UNL A   1      39.056  32.174  36.124  1.00  0.00     0.064 A 
ATOM     61  C   UNL A   1      39.293  33.522  36.435  1.00  0.00     0.173 A 
ATOM     62  C   UNL A   1      38.224  31.435  36.977  1.00  0.00     0.173 A 
ATOM     63  F   UNL A   1      40.095  34.263  35.656  1.00  0.00    -0.203 F 
ATOM     64  C   UNL A   1      38.737  34.099  37.572  1.00  0.00     0.198 A 
ATOM     65  C   UNL A   1      37.642  32.026  38.094  1.00  0.00     0.198 A 
ATOM     66  F   UNL A   1      37.961  30.144  36.718  1.00  0.00    -0.203 F 
ATOM     67  F   UNL A   1      39.018  35.373  37.878  1.00  0.00    -0.200 F 
ATOM     68  C   UNL A   1      37.906  33.354  38.394  1.00  0.00     0.200 A 
ATOM     69  F   UNL A   1      36.825  31.310  38.879  1.00  0.00    -0.200 F 
ATOM     70  F   UNL A   1      37.363  33.915  39.483  1.00  0.00    -0.200 F 
ENDBRANCH  37  60
ENDBRANCH  11  12
ENDBRANCH   4   6
ENDBRANCH   3   4
ENDBRANCH   2   3
ENDBRANCH   1   2
BRANCH   1  71
ATOM     71  O   UNL A   1      44.163  21.179  24.500  1.00  0.00    -0.374 OA
BRANCH  71  72
ATOM     72  C   UNL A   1      44.958  20.066  24.900  1.00  0.00     0.202 C 
BRANCH  72  73
ATOM     73  C   UNL A   1      44.089  18.831  25.126  1.00  0.00     0.261 C 
BRANCH  73  74
ATOM     74  O   UNL A   1      42.712  19.226  25.255  1.00  0.00    -0.460 OA
BRANCH  74  75
ATOM     75  C   UNL A   1      42.209  19.271  26.518  1.00  0.00     0.340 C 
ATOM     76  O   UNL A   1      42.389  18.462  27.410  1.00  0.00    -0.246 OA
BRANCH  75  77
ATOM     77  C   UNL A   1      41.418  20.517  26.625  1.00  0.00     0.086 A 
ATOM     78  C   UNL A   1      41.996  21.585  27.329  1.00  0.00     0.018 A 
ATOM     79  C   UNL A   1      40.128  20.590  26.071  1.00  0.00     0.086 A 
ATOM     80  C   UNL A   1      41.294  22.766  27.475  1.00  0.00     0.002 A 
ATOM     81  C   UNL A   1      39.416  21.800  26.219  1.00  0.00     0.015 A 
ATOM     82  N   UNL A   1      39.556  19.529  25.455  1.00  0.00    -0.255 NA
ATOM     83  C   UNL A   1      40.023  22.876  26.916  1.00  0.00     0.011 A 
ATOM     84  C   UNL A   1      38.109  21.851  25.670  1.00  0.00     0.028 A 
ATOM     85  C   UNL A   1      38.300  19.609  24.975  1.00  0.00     0.113 A 
ATOM     86  Br  UNL A   1      37.032  23.421  25.729  1.00  0.00    -0.050 Br
ATOM     87  C   UNL A   1      37.537  20.744  25.054  1.00  0.00     0.036 A 
ENDBRANCH  75  77
ENDBRANCH  74  75
ENDBRANCH  73  74
ENDBRANCH  72  73
ENDBRANCH  71  72
ENDBRANCH   1  71
TORSDOF 14
ENDMDL
MODEL 3
REMARK VINA RESULT:     -10.1      0.938      7.574
REMARK SMILES O=C(OCCOCCOC(=O)c1cccc2c(Br)ccnc12)c1ccc(-c2c3nc(c(-c4c(F)c(F)c(F)c(F)c4F)c4ccc([nH]4)c(-c4c(F)c(F)c(F)c(F)c4F)c4nc(c(-c5c(F)c(F)c(F)c(F)c5F)c5ccc2[nH]5)C=C4)C=C3)cc1
REMARK SMILES IDX 5 1 4 2 3 3 2 4 1 5 23 6 24 7 85 8 25 9 84 10 26 11 27 12
REMARK SMILES IDX 28 13 78 14 29 15 83 16 77 17 79 18 30 19 82 20 76 21 75 22
REMARK SMILES IDX 31 24 63 25 43 26 62 27 44 28 47 29 61 30 80 31 45 32 46 33
REMARK SMILES IDX 60 35 81 36 48 37 32 38 33 39 41 40 34 41 35 42 39 43 42 44
REMARK SMILES IDX 36 45 37 46 40 47 38 48 64 49 65 50 73 51 66 52 67 53 71 54
REMARK SMILES IDX 74 55 68 56 69 57 72 58 70 59 49 60 50 61 58 62 51 63 52 64
REMARK SMILES IDX 56 65 59 66 53 67 54 68 57 69 55 70 6 71 7 72 8 73 9 74
REMARK SMILES IDX 10 75 11 76 12 77 13 78 22 79 14 80 16 81 21 82 15 83 17 84
REMARK SMILES IDX 20 85 18 86 19 87
REMARK H PARENT 79 23 47 34
REMARK Flexibility Score: inf
ROOT
ATOM      1  C   UNL A   1      32.718  33.560  27.640  1.00  0.00     0.202 C 
ENDROOT
BRANCH   1   2
ATOM      2  C   UNL A   1      33.873  32.626  28.013  1.00  0.00     0.261 C 
BRANCH   2   3
ATOM      3  O   UNL A   1      33.579  31.264  27.692  1.00  0.00    -0.460 OA
BRANCH   3   4
ATOM      4  C   UNL A   1      34.462  30.276  27.412  1.00  0.00     0.338 C 
ATOM      5  O   UNL A   1      34.194  29.525  26.474  1.00  0.00    -0.246 OA
BRANCH   4   6
ATOM      6  C   UNL A   1      35.750  30.028  28.149  1.00  0.00     0.060 A 
ATOM      7  C   UNL A   1      36.929  30.236  27.408  1.00  0.00     0.016 A 
ATOM      8  C   UNL A   1      35.891  29.528  29.448  1.00  0.00     0.016 A 
ATOM      9  C   UNL A   1      38.180  29.883  27.918  1.00  0.00     0.010 A 
ATOM     10  C   UNL A   1      37.125  29.156  29.960  1.00  0.00     0.010 A 
ATOM     11  C   UNL A   1      38.269  29.313  29.189  1.00  0.00    -0.014 A 
BRANCH  11  12
ATOM     12  C   UNL A   1      39.551  28.977  29.813  1.00  0.00     0.031 A 
ATOM     13  C   UNL A   1      40.357  27.818  29.324  1.00  0.00     0.074 A 
ATOM     14  C   UNL A   1      39.864  29.650  30.931  1.00  0.00     0.049 A 
ATOM     15  N   UNL A   1      41.513  27.386  29.752  1.00  0.00    -0.248 NA
ATOM     16  C   UNL A   1      39.778  27.017  28.233  1.00  0.00     0.031 C 
ATOM     17  C   UNL A   1      39.033  30.698  31.531  1.00  0.00     0.029 A 
ATOM     18  N   UNL A   1      40.930  29.539  31.775  1.00  0.00    -0.354 N 
ATOM     19  C   UNL A   1      41.816  26.283  28.966  1.00  0.00     0.074 A 
ATOM     20  C   UNL A   1      40.693  26.067  28.082  1.00  0.00     0.031 C 
ATOM     21  C   UNL A   1      39.631  31.146  32.643  1.00  0.00     0.029 A 
ATOM     22  C   UNL A   1      40.879  30.417  32.826  1.00  0.00     0.049 A 
ATOM     23  H   UNL A   1      41.662  28.895  31.643  1.00  0.00     0.167 HD
ATOM     24  C   UNL A   1      42.953  25.549  28.980  1.00  0.00     0.037 A 
ATOM     25  C   UNL A   1      41.766  30.620  33.813  1.00  0.00     0.037 A 
ATOM     26  C   UNL A   1      44.029  25.790  29.910  1.00  0.00     0.049 A 
ATOM     27  C   UNL A   1      43.034  29.819  33.786  1.00  0.00     0.074 A 
ATOM     28  C   UNL A   1      45.265  25.175  29.986  1.00  0.00     0.029 A 
ATOM     29  N   UNL A   1      43.979  26.719  30.943  1.00  0.00    -0.354 N 
ATOM     30  N   UNL A   1      43.392  28.873  32.949  1.00  0.00    -0.248 NA
ATOM     31  C   UNL A   1      44.029  30.125  34.817  1.00  0.00     0.031 C 
ATOM     32  C   UNL A   1      45.939  25.696  31.096  1.00  0.00     0.029 A 
ATOM     33  C   UNL A   1      45.149  26.675  31.681  1.00  0.00     0.049 A 
ATOM     34  H   UNL A   1      43.221  27.321  31.124  1.00  0.00     0.167 HD
ATOM     35  C   UNL A   1      44.658  28.474  33.344  1.00  0.00     0.074 A 
ATOM     36  C   UNL A   1      45.015  29.307  34.477  1.00  0.00     0.031 C 
ATOM     37  C   UNL A   1      45.452  27.504  32.824  1.00  0.00     0.037 A 
BRANCH  24  38
ATOM     38  C   UNL A   1      43.110  24.457  27.958  1.00  0.00     0.064 A 
ATOM     39  C   UNL A   1      42.708  23.139  28.234  1.00  0.00     0.173 A 
ATOM     40  C   UNL A   1      43.584  24.733  26.667  1.00  0.00     0.173 A 
ATOM     41  F   UNL A   1      42.249  22.814  29.453  1.00  0.00    -0.203 F 
ATOM     42  C   UNL A   1      42.790  22.141  27.266  1.00  0.00     0.198 A 
ATOM     43  C   UNL A   1      43.638  23.739  25.691  1.00  0.00     0.198 A 
ATOM     44  F   UNL A   1      43.977  25.973  26.340  1.00  0.00    -0.203 F 
ATOM     45  F   UNL A   1      42.427  20.886  27.566  1.00  0.00    -0.200 F 
ATOM     46  C   UNL A   1      43.244  22.444  25.992  1.00  0.00     0.200 A 
ATOM     47  F   UNL A   1      44.061  24.036  24.454  1.00  0.00    -0.200 F 
ATOM     48  F   UNL A   1      43.300  21.488  25.054  1.00  0.00    -0.200 F 
ENDBRANCH  24  38
BRANCH  25  49
ATOM     49  C   UNL A   1      41.509  31.699  34.797  1.00  0.00     0.064 A 
ATOM     50  C   UNL A   1      42.048  32.977  34.602  1.00  0.00     0.173 A 
ATOM     51  C   UNL A   1      40.627  31.517  35.873  1.00  0.00     0.173 A 
ATOM     52  F   UNL A   1      42.893  33.199  33.584  1.00  0.00    -0.203 F 
ATOM     53  C   UNL A   1      41.715  34.034  35.445  1.00  0.00     0.198 A 
ATOM     54  C   UNL A   1      40.276  32.581  36.701  1.00  0.00     0.198 A 
ATOM     55  F   UNL A   1      40.064  30.318  36.085  1.00  0.00    -0.203 F 
ATOM     56  F   UNL A   1      42.250  35.245  35.240  1.00  0.00    -0.200 F 
ATOM     57  C   UNL A   1      40.821  33.838  36.487  1.00  0.00     0.200 A 
ATOM     58  F   UNL A   1      39.389  32.395  37.689  1.00  0.00    -0.200 F 
ATOM     59  F   UNL A   1      40.477  34.864  37.278  1.00  0.00    -0.200 F 
ENDBRANCH  25  49
BRANCH  37  60
ATOM     60  C   UNL A   1      46.768  27.282  33.505  1.00  0.00     0.064 A 
ATOM     61  C   UNL A   1      47.907  28.015  33.139  1.00  0.00     0.173 A 
ATOM     62  C   UNL A   1      46.883  26.363  34.558  1.00  0.00     0.173 A 
ATOM     63  F   UNL A   1      47.847  28.895  32.128  1.00  0.00    -0.203 F 
ATOM     64  C   UNL A   1      49.121  27.815  33.787  1.00  0.00     0.198 A 
ATOM     65  C   UNL A   1      48.091  26.191  35.226  1.00  0.00     0.198 A 
ATOM     66  F   UNL A   1      45.820  25.643  34.949  1.00  0.00    -0.203 F 
ATOM     67  F   UNL A   1      50.209  28.488  33.387  1.00  0.00    -0.200 F 
ATOM     68  C   UNL A   1      49.210  26.911  34.834  1.00  0.00     0.200 A 
ATOM     69  F   UNL A   1      48.172  25.330  36.249  1.00  0.00    -0.200 F 
ATOM     70  F   UNL A   1      50.379  26.727  35.463  1.00  0.00    -0.200 F 
ENDBRANCH  37  60
ENDBRANCH  11  12
ENDBRANCH   4   6
ENDBRANCH   3   4
ENDBRANCH   2   3
ENDBRANCH   1   2
BRANCH   1  71
ATOM     71  O   UNL A   1      32.559  34.669  28.524  1.00  0.00    -0.374 OA
BRANCH  71  72
ATOM     72  C   UNL A   1      33.643  34.895  29.423  1.00  0.00     0.202 C 
BRANCH  72  73
ATOM     73  C   UNL A   1      33.129  35.196  30.829  1.00  0.00     0.261 C 
BRANCH  73  74
ATOM     74  O   UNL A   1      34.227  35.190  31.756  1.00  0.00    -0.460 OA
BRANCH  74  75
ATOM     75  C   UNL A   1      34.722  33.971  32.103  1.00  0.00     0.340 C 
ATOM     76  O   UNL A   1      34.113  32.918  32.154  1.00  0.00    -0.246 OA
BRANCH  75  77
ATOM     77  C   UNL A   1      36.165  34.152  32.379  1.00  0.00     0.086 A 
ATOM     78  C   UNL A   1      36.532  34.459  33.697  1.00  0.00     0.018 A 
ATOM     79  C   UNL A   1      37.105  34.053  31.337  1.00  0.00     0.086 A 
ATOM     80  C   UNL A   1      37.865  34.656  34.007  1.00  0.00     0.002 A 
ATOM     81  C   UNL A   1      38.465  34.252  31.659  1.00  0.00     0.015 A 
ATOM     82  N   UNL A   1      36.729  33.824  30.057  1.00  0.00    -0.255 NA
ATOM     83  C   UNL A   1      38.821  34.542  33.001  1.00  0.00     0.011 A 
ATOM     84  C   UNL A   1      39.398  34.166  30.594  1.00  0.00     0.028 A 
ATOM     85  C   UNL A   1      37.644  33.783  29.070  1.00  0.00     0.113 A 
ATOM     86  Br  UNL A   1      41.276  34.350  30.858  1.00  0.00    -0.050 Br
ATOM     87  C   UNL A   1      38.987  33.945  29.285  1.00  0.00     0.036 A 
ENDBRANCH  75  77
ENDBRANCH  74  75
ENDBRANCH  73  74
ENDBRANCH  72  73
ENDBRANCH  71  72
ENDBRANCH   1  71
TORSDOF 14
ENDMDL
