MODEL 1
REMARK VINA RESULT:     -10.8      0.000      0.000
REMARK SMILES O=C(OCCOCCOC(=O)[C@H]1CC[C@@H](CNc2cccc(F)c2[N+](=O)[O-])O1)c1ccc(-c2c3nc(c(-c4c(F)c(F)c(F)c(F)c4F)c4ccc([nH]4)c(-c4c(F)c(F)c(F)c(F)c4F)c4nc(c(-c5c(F)c(F)c(F)c(F)c5F)c5ccc2[nH]5)C=C4)C=C3)cc1
REMARK SMILES IDX 7 1 6 2 5 3 4 4 3 5 2 6 1 7 29 8 30 9 91 10 31 11 90 12
REMARK SMILES IDX 32 13 33 14 34 15 84 16 35 17 89 18 83 19 85 20 36 21 88 22
REMARK SMILES IDX 82 23 81 24 37 26 69 27 49 28 68 29 50 30 53 31 67 32 86 33
REMARK SMILES IDX 51 34 52 35 66 37 87 38 54 39 38 40 39 41 47 42 40 43 41 44
REMARK SMILES IDX 45 45 48 46 42 47 43 48 46 49 44 50 70 51 71 52 79 53 72 54
REMARK SMILES IDX 73 55 77 56 80 57 74 58 75 59 78 60 76 61 55 62 56 63 64 64
REMARK SMILES IDX 57 65 58 66 62 67 65 68 59 69 60 70 63 71 61 72 8 73 9 74
REMARK SMILES IDX 10 75 11 76 12 77 13 78 28 79 14 80 15 81 16 82 17 83 18 85
REMARK SMILES IDX 19 86 24 87 20 88 22 89 21 90 23 91 25 92 26 93 27 94
REMARK H PARENT 85 25 53 36 17 84
REMARK Flexibility Score: inf
ROOT
ATOM      1  C   UNL A   1      33.755  19.395  25.364  1.00  0.00     0.202 C 
ENDROOT
BRANCH   1   2
ATOM      2  O   UNL A   1      34.913  19.786  24.617  1.00  0.00    -0.374 OA
BRANCH   2   3
ATOM      3  C   UNL A   1      35.525  21.017  24.997  1.00  0.00     0.202 C 
BRANCH   3   4
ATOM      4  C   UNL A   1      37.034  21.112  24.769  1.00  0.00     0.261 C 
BRANCH   4   5
ATOM      5  O   UNL A   1      37.704  21.340  26.022  1.00  0.00    -0.460 OA
BRANCH   5   6
ATOM      6  C   UNL A   1      39.033  21.475  26.236  1.00  0.00     0.338 C 
ATOM      7  O   UNL A   1      39.775  20.509  26.082  1.00  0.00    -0.246 OA
BRANCH   6   8
ATOM      8  C   UNL A   1      39.637  22.763  26.667  1.00  0.00     0.060 A 
ATOM      9  C   UNL A   1      40.735  22.845  27.524  1.00  0.00     0.016 A 
ATOM     10  C   UNL A   1      39.153  23.945  26.088  1.00  0.00     0.016 A 
ATOM     11  C   UNL A   1      41.303  24.057  27.861  1.00  0.00     0.010 A 
ATOM     12  C   UNL A   1      39.764  25.172  26.366  1.00  0.00     0.010 A 
ATOM     13  C   UNL A   1      40.846  25.220  27.253  1.00  0.00    -0.014 A 
BRANCH  13  14
ATOM     14  C   UNL A   1      41.559  26.464  27.574  1.00  0.00     0.031 A 
ATOM     15  C   UNL A   1      40.910  27.457  28.475  1.00  0.00     0.074 A 
ATOM     16  C   UNL A   1      42.836  26.590  27.168  1.00  0.00     0.049 A 
ATOM     17  N   UNL A   1      41.341  28.630  28.848  1.00  0.00    -0.248 NA
ATOM     18  C   UNL A   1      39.610  27.075  29.056  1.00  0.00     0.031 C 
ATOM     19  C   UNL A   1      43.576  25.579  26.403  1.00  0.00     0.029 A 
ATOM     20  N   UNL A   1      43.751  27.587  27.368  1.00  0.00    -0.354 N 
ATOM     21  C   UNL A   1      40.356  29.140  29.678  1.00  0.00     0.074 A 
ATOM     22  C   UNL A   1      39.310  28.147  29.776  1.00  0.00     0.031 C 
ATOM     23  C   UNL A   1      44.838  25.997  26.228  1.00  0.00     0.029 A 
ATOM     24  C   UNL A   1      44.968  27.338  26.781  1.00  0.00     0.049 A 
ATOM     25  H   UNL A   1      43.556  28.403  27.883  1.00  0.00     0.167 HD
ATOM     26  C   UNL A   1      40.339  30.347  30.283  1.00  0.00     0.037 A 
ATOM     27  C   UNL A   1      46.044  28.137  26.664  1.00  0.00     0.037 A 
ATOM     28  C   UNL A   1      41.409  31.299  30.165  1.00  0.00     0.049 A 
ATOM     29  C   UNL A   1      45.952  29.516  27.257  1.00  0.00     0.074 A 
ATOM     30  C   UNL A   1      41.488  32.577  30.680  1.00  0.00     0.029 A 
ATOM     31  N   UNL A   1      42.593  31.063  29.478  1.00  0.00    -0.354 N 
ATOM     32  N   UNL A   1      44.983  30.038  27.975  1.00  0.00    -0.248 NA
ATOM     33  C   UNL A   1      47.069  30.431  26.997  1.00  0.00     0.031 C 
ATOM     34  C   UNL A   1      42.704  33.132  30.269  1.00  0.00     0.029 A 
ATOM     35  C   UNL A   1      43.399  32.184  29.530  1.00  0.00     0.049 A 
ATOM     36  H   UNL A   1      42.823  30.221  29.021  1.00  0.00     0.167 HD
ATOM     37  C   UNL A   1      45.365  31.342  28.243  1.00  0.00     0.074 A 
ATOM     38  C   UNL A   1      46.672  31.523  27.639  1.00  0.00     0.031 C 
ATOM     39  C   UNL A   1      44.694  32.311  28.909  1.00  0.00     0.037 A 
BRANCH  26  40
ATOM     40  C   UNL A   1      39.114  30.726  31.052  1.00  0.00     0.064 A 
ATOM     41  C   UNL A   1      38.050  31.366  30.397  1.00  0.00     0.173 A 
ATOM     42  C   UNL A   1      38.999  30.498  32.429  1.00  0.00     0.173 A 
ATOM     43  F   UNL A   1      38.109  31.597  29.077  1.00  0.00    -0.203 F 
ATOM     44  C   UNL A   1      36.923  31.779  31.100  1.00  0.00     0.198 A 
ATOM     45  C   UNL A   1      37.862  30.896  33.125  1.00  0.00     0.198 A 
ATOM     46  F   UNL A   1      39.979  29.865  33.091  1.00  0.00    -0.203 F 
ATOM     47  F   UNL A   1      35.927  32.405  30.457  1.00  0.00    -0.200 F 
ATOM     48  C   UNL A   1      36.828  31.544  32.463  1.00  0.00     0.200 A 
ATOM     49  F   UNL A   1      37.759  30.648  34.439  1.00  0.00    -0.200 F 
ATOM     50  F   UNL A   1      35.739  31.936  33.137  1.00  0.00    -0.200 F 
ENDBRANCH  26  40
BRANCH  27  51
ATOM     51  C   UNL A   1      47.232  27.689  25.888  1.00  0.00     0.064 A 
ATOM     52  C   UNL A   1      48.381  27.206  26.536  1.00  0.00     0.173 A 
ATOM     53  C   UNL A   1      47.253  27.738  24.488  1.00  0.00     0.173 A 
ATOM     54  F   UNL A   1      48.416  27.130  27.876  1.00  0.00    -0.203 F 
ATOM     55  C   UNL A   1      49.511  26.818  25.819  1.00  0.00     0.198 A 
ATOM     56  C   UNL A   1      48.374  27.317  23.769  1.00  0.00     0.198 A 
ATOM     57  F   UNL A   1      46.176  28.167  23.816  1.00  0.00    -0.203 F 
ATOM     58  F   UNL A   1      50.605  26.400  26.472  1.00  0.00    -0.200 F 
ATOM     59  C   UNL A   1      49.503  26.867  24.436  1.00  0.00     0.200 A 
ATOM     60  F   UNL A   1      48.354  27.338  22.430  1.00  0.00    -0.200 F 
ATOM     61  F   UNL A   1      50.582  26.473  23.745  1.00  0.00    -0.200 F 
ENDBRANCH  27  51
BRANCH  39  62
ATOM     62  C   UNL A   1      45.350  33.651  29.006  1.00  0.00     0.064 A 
ATOM     63  C   UNL A   1      45.148  34.615  28.010  1.00  0.00     0.173 A 
ATOM     64  C   UNL A   1      46.268  33.928  30.029  1.00  0.00     0.173 A 
ATOM     65  F   UNL A   1      44.286  34.384  27.009  1.00  0.00    -0.203 F 
ATOM     66  C   UNL A   1      45.868  35.804  28.018  1.00  0.00     0.198 A 
ATOM     67  C   UNL A   1      46.967  35.129  30.047  1.00  0.00     0.198 A 
ATOM     68  F   UNL A   1      46.478  33.035  31.008  1.00  0.00    -0.203 F 
ATOM     69  F   UNL A   1      45.696  36.696  27.034  1.00  0.00    -0.200 F 
ATOM     70  C   UNL A   1      46.777  36.059  29.035  1.00  0.00     0.200 A 
ATOM     71  F   UNL A   1      47.831  35.384  31.039  1.00  0.00    -0.200 F 
ATOM     72  F   UNL A   1      47.473  37.205  29.039  1.00  0.00    -0.200 F 
ENDBRANCH  39  62
ENDBRANCH  13  14
ENDBRANCH   6   8
ENDBRANCH   5   6
ENDBRANCH   4   5
ENDBRANCH   3   4
ENDBRANCH   2   3
ENDBRANCH   1   2
BRANCH   1  73
ATOM     73  C   UNL A   1      32.510  19.613  24.501  1.00  0.00     0.261 C 
BRANCH  73  74
ATOM     74  O   UNL A   1      31.715  20.657  25.086  1.00  0.00    -0.461 OA
BRANCH  74  75
ATOM     75  C   UNL A   1      31.928  21.927  24.632  1.00  0.00     0.335 C 
ATOM     76  O   UNL A   1      32.269  22.230  23.502  1.00  0.00    -0.249 OA
BRANCH  75  77
ATOM     77  C   UNL A   1      31.568  22.952  25.726  1.00  0.00     0.228 C 
ATOM     78  C   UNL A   1      32.448  22.764  26.948  1.00  0.00     0.047 C 
ATOM     79  O   UNL A   1      31.742  24.322  25.335  1.00  0.00    -0.361 OA
ATOM     80  C   UNL A   1      33.624  23.657  26.633  1.00  0.00     0.037 C 
ATOM     81  C   UNL A   1      32.981  24.820  25.887  1.00  0.00     0.138 C 
BRANCH  81  82
ATOM     82  C   UNL A   1      33.861  25.392  24.758  1.00  0.00     0.145 C 
BRANCH  82  83
ATOM     83  N   UNL A   1      33.141  26.380  23.969  1.00  0.00    -0.377 N 
ATOM     84  H   UNL A   1      32.946  26.156  23.030  1.00  0.00     0.160 HD
BRANCH  83  85
ATOM     85  C   UNL A   1      32.706  27.611  24.437  1.00  0.00     0.116 A 
ATOM     86  C   UNL A   1      33.417  28.305  25.432  1.00  0.00     0.033 A 
ATOM     87  C   UNL A   1      31.492  28.195  24.009  1.00  0.00     0.327 A 
ATOM     88  C   UNL A   1      32.959  29.522  25.955  1.00  0.00     0.006 A 
ATOM     89  C   UNL A   1      31.037  29.411  24.520  1.00  0.00     0.202 A 
ATOM     90  C   UNL A   1      31.770  30.077  25.496  1.00  0.00     0.047 A 
ATOM     91  F   UNL A   1      29.910  29.983  24.077  1.00  0.00    -0.199 F 
BRANCH  87  92
ATOM     92  N   UNL A   1      30.647  27.509  23.047  1.00  0.00     0.068 N 
ATOM     93  O   UNL A   1      30.133  26.432  23.396  1.00  0.00    -0.258 OA
ATOM     94  O   UNL A   1      30.446  28.056  21.955  1.00  0.00    -0.258 OA
ENDBRANCH  87  92
ENDBRANCH  83  85
ENDBRANCH  82  83
ENDBRANCH  81  82
ENDBRANCH  75  77
ENDBRANCH  74  75
ENDBRANCH  73  74
ENDBRANCH   1  73
TORSDOF 18
ENDMDL
MODEL 2
REMARK VINA RESULT:     -10.8      2.187      3.401
REMARK SMILES O=C(OCCOCCOC(=O)[C@H]1CC[C@@H](CNc2cccc(F)c2[N+](=O)[O-])O1)c1ccc(-c2c3nc(c(-c4c(F)c(F)c(F)c(F)c4F)c4ccc([nH]4)c(-c4c(F)c(F)c(F)c(F)c4F)c4nc(c(-c5c(F)c(F)c(F)c(F)c5F)c5ccc2[nH]5)C=C4)C=C3)cc1
REMARK SMILES IDX 7 1 6 2 5 3 4 4 3 5 2 6 1 7 29 8 30 9 91 10 31 11 90 12
REMARK SMILES IDX 32 13 33 14 34 15 84 16 35 17 89 18 83 19 85 20 36 21 88 22
REMARK SMILES IDX 82 23 81 24 37 26 69 27 49 28 68 29 50 30 53 31 67 32 86 33
REMARK SMILES IDX 51 34 52 35 66 37 87 38 54 39 38 40 39 41 47 42 40 43 41 44
REMARK SMILES IDX 45 45 48 46 42 47 43 48 46 49 44 50 70 51 71 52 79 53 72 54
REMARK SMILES IDX 73 55 77 56 80 57 74 58 75 59 78 60 76 61 55 62 56 63 64 64
REMARK SMILES IDX 57 65 58 66 62 67 65 68 59 69 60 70 63 71 61 72 8 73 9 74
REMARK SMILES IDX 10 75 11 76 12 77 13 78 28 79 14 80 15 81 16 82 17 83 18 85
REMARK SMILES IDX 19 86 24 87 20 88 22 89 21 90 23 91 25 92 26 93 27 94
REMARK H PARENT 85 25 53 36 17 84
REMARK Flexibility Score: inf
ROOT
ATOM      1  C   UNL A   1      38.628  23.192  26.402  1.00  0.00     0.202 C 
ENDROOT
BRANCH   1   2
ATOM      2  O   UNL A   1      39.432  22.024  26.599  1.00  0.00    -0.374 OA
BRANCH   2   3
ATOM      3  C   UNL A   1      39.278  20.980  25.638  1.00  0.00     0.202 C 
BRANCH   3   4
ATOM      4  C   UNL A   1      39.604  19.569  26.125  1.00  0.00     0.261 C 
BRANCH   4   5
ATOM      5  O   UNL A   1      40.821  19.108  25.510  1.00  0.00    -0.460 OA
BRANCH   5   6
ATOM      6  C   UNL A   1      42.086  19.269  25.960  1.00  0.00     0.338 C 
ATOM      7  O   UNL A   1      42.809  18.289  26.111  1.00  0.00    -0.246 OA
BRANCH   6   8
ATOM      8  C   UNL A   1      42.640  20.608  26.298  1.00  0.00     0.060 A 
ATOM      9  C   UNL A   1      43.041  21.535  25.336  1.00  0.00     0.016 A 
ATOM     10  C   UNL A   1      42.645  20.999  27.645  1.00  0.00     0.016 A 
ATOM     11  C   UNL A   1      43.500  22.788  25.685  1.00  0.00     0.010 A 
ATOM     12  C   UNL A   1      43.042  22.290  28.006  1.00  0.00     0.010 A 
ATOM     13  C   UNL A   1      43.465  23.185  27.017  1.00  0.00    -0.014 A 
BRANCH  13  14
ATOM     14  C   UNL A   1      43.870  24.567  27.311  1.00  0.00     0.031 A 
ATOM     15  C   UNL A   1      42.840  25.537  27.775  1.00  0.00     0.074 A 
ATOM     16  C   UNL A   1      45.183  24.862  27.299  1.00  0.00     0.049 A 
ATOM     17  N   UNL A   1      42.972  26.807  28.043  1.00  0.00    -0.248 NA
ATOM     18  C   UNL A   1      41.480  25.011  27.989  1.00  0.00     0.031 C 
ATOM     19  C   UNL A   1      46.255  23.908  26.994  1.00  0.00     0.029 A 
ATOM     20  N   UNL A   1      45.847  26.023  27.587  1.00  0.00    -0.354 N 
ATOM     21  C   UNL A   1      41.712  27.238  28.425  1.00  0.00     0.074 A 
ATOM     22  C   UNL A   1      40.827  26.097  28.377  1.00  0.00     0.031 C 
ATOM     23  C   UNL A   1      47.440  24.517  27.141  1.00  0.00     0.029 A 
ATOM     24  C   UNL A   1      47.211  25.920  27.456  1.00  0.00     0.049 A 
ATOM     25  H   UNL A   1      45.391  26.852  27.861  1.00  0.00     0.167 HD
ATOM     26  C   UNL A   1      41.345  28.492  28.767  1.00  0.00     0.037 A 
ATOM     27  C   UNL A   1      48.155  26.875  27.531  1.00  0.00     0.037 A 
ATOM     28  C   UNL A   1      42.265  29.595  28.813  1.00  0.00     0.049 A 
ATOM     29  C   UNL A   1      47.700  28.281  27.808  1.00  0.00     0.074 A 
ATOM     30  C   UNL A   1      42.007  30.923  29.088  1.00  0.00     0.029 A 
ATOM     31  N   UNL A   1      43.629  29.484  28.576  1.00  0.00    -0.354 N 
ATOM     32  N   UNL A   1      46.491  28.712  28.088  1.00  0.00    -0.248 NA
ATOM     33  C   UNL A   1      48.716  29.338  27.742  1.00  0.00     0.031 C 
ATOM     34  C   UNL A   1      43.211  31.625  28.975  1.00  0.00     0.029 A 
ATOM     35  C   UNL A   1      44.225  30.728  28.668  1.00  0.00     0.049 A 
ATOM     36  H   UNL A   1      44.101  28.644  28.372  1.00  0.00     0.167 HD
ATOM     37  C   UNL A   1      46.596  30.086  28.220  1.00  0.00     0.074 A 
ATOM     38  C   UNL A   1      47.994  30.416  28.023  1.00  0.00     0.031 C 
ATOM     39  C   UNL A   1      45.625  31.000  28.462  1.00  0.00     0.037 A 
BRANCH  26  40
ATOM     40  C   UNL A   1      39.897  28.745  29.042  1.00  0.00     0.064 A 
ATOM     41  C   UNL A   1      39.057  29.182  28.007  1.00  0.00     0.173 A 
ATOM     42  C   UNL A   1      39.346  28.596  30.321  1.00  0.00     0.173 A 
ATOM     43  F   UNL A   1      39.536  29.329  26.763  1.00  0.00    -0.203 F 
ATOM     44  C   UNL A   1      37.719  29.477  28.248  1.00  0.00     0.198 A 
ATOM     45  C   UNL A   1      38.002  28.876  30.555  1.00  0.00     0.198 A 
ATOM     46  F   UNL A   1      40.104  28.155  31.336  1.00  0.00    -0.203 F 
ATOM     47  F   UNL A   1      36.939  29.911  27.248  1.00  0.00    -0.200 F 
ATOM     48  C   UNL A   1      37.192  29.324  29.521  1.00  0.00     0.200 A 
ATOM     49  F   UNL A   1      37.486  28.705  31.780  1.00  0.00    -0.200 F 
ATOM     50  F   UNL A   1      35.901  29.603  29.751  1.00  0.00    -0.200 F 
ENDBRANCH  26  40
BRANCH  27  51
ATOM     51  C   UNL A   1      49.579  26.546  27.250  1.00  0.00     0.064 A 
ATOM     52  C   UNL A   1      50.500  26.361  28.295  1.00  0.00     0.173 A 
ATOM     53  C   UNL A   1      50.057  26.418  25.940  1.00  0.00     0.173 A 
ATOM     54  F   UNL A   1      50.098  26.465  29.572  1.00  0.00    -0.203 F 
ATOM     55  C   UNL A   1      51.842  26.090  28.042  1.00  0.00     0.198 A 
ATOM     56  C   UNL A   1      51.395  26.113  25.687  1.00  0.00     0.198 A 
ATOM     57  F   UNL A   1      49.218  26.562  24.904  1.00  0.00    -0.203 F 
ATOM     58  F   UNL A   1      52.701  25.958  29.062  1.00  0.00    -0.200 F 
ATOM     59  C   UNL A   1      52.287  25.958  26.737  1.00  0.00     0.200 A 
ATOM     60  F   UNL A   1      51.818  25.958  24.425  1.00  0.00    -0.200 F 
ATOM     61  F   UNL A   1      53.574  25.675  26.493  1.00  0.00    -0.200 F 
ENDBRANCH  27  51
BRANCH  39  62
ATOM     62  C   UNL A   1      46.038  32.436  28.511  1.00  0.00     0.064 A 
ATOM     63  C   UNL A   1      46.391  33.033  29.728  1.00  0.00     0.173 A 
ATOM     64  C   UNL A   1      45.970  33.242  27.366  1.00  0.00     0.173 A 
ATOM     65  F   UNL A   1      46.458  32.298  30.848  1.00  0.00    -0.203 F 
ATOM     66  C   UNL A   1      46.634  34.400  29.803  1.00  0.00     0.198 A 
ATOM     67  C   UNL A   1      46.238  34.603  27.441  1.00  0.00     0.198 A 
ATOM     68  F   UNL A   1      45.650  32.704  26.180  1.00  0.00    -0.203 F 
ATOM     69  F   UNL A   1      46.926  34.962  30.984  1.00  0.00    -0.200 F 
ATOM     70  C   UNL A   1      46.556  35.183  28.661  1.00  0.00     0.200 A 
ATOM     71  F   UNL A   1      46.182  35.357  26.335  1.00  0.00    -0.200 F 
ATOM     72  F   UNL A   1      46.787  36.501  28.737  1.00  0.00    -0.200 F 
ENDBRANCH  39  62
ENDBRANCH  13  14
ENDBRANCH   6   8
ENDBRANCH   5   6
ENDBRANCH   4   5
ENDBRANCH   3   4
ENDBRANCH   2   3
ENDBRANCH   1   2
BRANCH   1  73
ATOM     73  C   UNL A   1      37.467  22.845  25.467  1.00  0.00     0.261 C 
BRANCH  73  74
ATOM     74  O   UNL A   1      36.243  23.324  26.047  1.00  0.00    -0.461 OA
BRANCH  74  75
ATOM     75  C   UNL A   1      35.281  23.770  25.187  1.00  0.00     0.335 C 
ATOM     76  O   UNL A   1      34.693  24.834  25.270  1.00  0.00    -0.249 OA
BRANCH  75  77
ATOM     77  C   UNL A   1      35.112  22.783  24.016  1.00  0.00     0.228 C 
ATOM     78  C   UNL A   1      33.925  21.868  24.252  1.00  0.00     0.047 C 
ATOM     79  O   UNL A   1      34.870  23.406  22.745  1.00  0.00    -0.361 OA
ATOM     80  C   UNL A   1      32.793  22.649  23.630  1.00  0.00     0.037 C 
ATOM     81  C   UNL A   1      33.459  23.331  22.441  1.00  0.00     0.138 C 
BRANCH  81  82
ATOM     82  C   UNL A   1      32.914  24.744  22.153  1.00  0.00     0.145 C 
BRANCH  82  83
ATOM     83  N   UNL A   1      32.522  25.425  23.377  1.00  0.00    -0.377 N 
ATOM     84  H   UNL A   1      33.085  25.288  24.174  1.00  0.00     0.160 HD
BRANCH  83  85
ATOM     85  C   UNL A   1      31.418  26.254  23.509  1.00  0.00     0.116 A 
ATOM     86  C   UNL A   1      30.112  25.734  23.503  1.00  0.00     0.033 A 
ATOM     87  C   UNL A   1      31.535  27.662  23.573  1.00  0.00     0.327 A 
ATOM     88  C   UNL A   1      28.985  26.565  23.578  1.00  0.00     0.006 A 
ATOM     89  C   UNL A   1      30.416  28.491  23.658  1.00  0.00     0.202 A 
ATOM     90  C   UNL A   1      29.138  27.945  23.659  1.00  0.00     0.047 A 
ATOM     91  F   UNL A   1      30.534  29.822  23.766  1.00  0.00    -0.199 F 
BRANCH  87  92
ATOM     92  N   UNL A   1      32.840  28.294  23.500  1.00  0.00     0.068 N 
ATOM     93  O   UNL A   1      33.345  28.443  22.374  1.00  0.00    -0.258 OA
ATOM     94  O   UNL A   1      33.353  28.693  24.554  1.00  0.00    -0.258 OA
ENDBRANCH  87  92
ENDBRANCH  83  85
ENDBRANCH  82  83
ENDBRANCH  81  82
ENDBRANCH  75  77
ENDBRANCH  74  75
ENDBRANCH  73  74
ENDBRANCH   1  73
TORSDOF 18
ENDMDL
MODEL 3
REMARK VINA RESULT:     -10.7      1.977      2.971
REMARK SMILES O=C(OCCOCCOC(=O)[C@H]1CC[C@@H](CNc2cccc(F)c2[N+](=O)[O-])O1)c1ccc(-c2c3nc(c(-c4c(F)c(F)c(F)c(F)c4F)c4ccc([nH]4)c(-c4c(F)c(F)c(F)c(F)c4F)c4nc(c(-c5c(F)c(F)c(F)c(F)c5F)c5ccc2[nH]5)C=C4)C=C3)cc1
REMARK SMILES IDX 7 1 6 2 5 3 4 4 3 5 2 6 1 7 29 8 30 9 91 10 31 11 90 12
REMARK SMILES IDX 32 13 33 14 34 15 84 16 35 17 89 18 83 19 85 20 36 21 88 22
REMARK SMILES IDX 82 23 81 24 37 26 69 27 49 28 68 29 50 30 53 31 67 32 86 33
REMARK SMILES IDX 51 34 52 35 66 37 87 38 54 39 38 40 39 41 47 42 40 43 41 44
REMARK SMILES IDX 45 45 48 46 42 47 43 48 46 49 44 50 70 51 71 52 79 53 72 54
REMARK SMILES IDX 73 55 77 56 80 57 74 58 75 59 78 60 76 61 55 62 56 63 64 64
REMARK SMILES IDX 57 65 58 66 62 67 65 68 59 69 60 70 63 71 61 72 8 73 9 74
REMARK SMILES IDX 10 75 11 76 12 77 13 78 28 79 14 80 15 81 16 82 17 83 18 85
REMARK SMILES IDX 19 86 24 87 20 88 22 89 21 90 23 91 25 92 26 93 27 94
REMARK H PARENT 85 25 53 36 17 84
REMARK Flexibility Score: inf
ROOT
ATOM      1  C   UNL A   1      37.730  22.283  25.657  1.00  0.00     0.202 C 
ENDROOT
BRANCH   1   2
ATOM      2  O   UNL A   1      38.983  21.595  25.728  1.00  0.00    -0.374 OA
BRANCH   2   3
ATOM      3  C   UNL A   1      39.005  20.264  25.214  1.00  0.00     0.202 C 
BRANCH   3   4
ATOM      4  C   UNL A   1      39.626  19.205  26.124  1.00  0.00     0.261 C 
BRANCH   4   5
ATOM      5  O   UNL A   1      40.931  18.846  25.636  1.00  0.00    -0.460 OA
BRANCH   5   6
ATOM      6  C   UNL A   1      42.131  19.263  26.103  1.00  0.00     0.338 C 
ATOM      7  O   UNL A   1      43.023  18.445  26.306  1.00  0.00    -0.246 OA
BRANCH   6   8
ATOM      8  C   UNL A   1      42.410  20.694  26.398  1.00  0.00     0.060 A 
ATOM      9  C   UNL A   1      42.647  21.179  27.684  1.00  0.00     0.016 A 
ATOM     10  C   UNL A   1      42.560  21.572  25.314  1.00  0.00     0.016 A 
ATOM     11  C   UNL A   1      42.956  22.504  27.912  1.00  0.00     0.010 A 
ATOM     12  C   UNL A   1      42.942  22.900  25.528  1.00  0.00     0.010 A 
ATOM     13  C   UNL A   1      43.144  23.360  26.834  1.00  0.00    -0.014 A 
BRANCH  13  14
ATOM     14  C   UNL A   1      43.573  24.732  27.139  1.00  0.00     0.031 A 
ATOM     15  C   UNL A   1      42.606  25.664  27.785  1.00  0.00     0.074 A 
ATOM     16  C   UNL A   1      44.869  25.048  26.966  1.00  0.00     0.049 A 
ATOM     17  N   UNL A   1      42.764  26.921  28.096  1.00  0.00    -0.248 NA
ATOM     18  C   UNL A   1      41.293  25.107  28.154  1.00  0.00     0.031 C 
ATOM     19  C   UNL A   1      45.899  24.125  26.472  1.00  0.00     0.029 A 
ATOM     20  N   UNL A   1      45.557  26.203  27.219  1.00  0.00    -0.354 N 
ATOM     21  C   UNL A   1      41.563  27.314  28.665  1.00  0.00     0.074 A 
ATOM     22  C   UNL A   1      40.689  26.164  28.679  1.00  0.00     0.031 C 
ATOM     23  C   UNL A   1      47.088  24.744  26.488  1.00  0.00     0.029 A 
ATOM     24  C   UNL A   1      46.891  26.127  26.901  1.00  0.00     0.049 A 
ATOM     25  H   UNL A   1      45.135  27.010  27.593  1.00  0.00     0.167 HD
ATOM     26  C   UNL A   1      41.235  28.544  29.115  1.00  0.00     0.037 A 
ATOM     27  C   UNL A   1      47.830  27.091  26.896  1.00  0.00     0.037 A 
ATOM     28  C   UNL A   1      42.143  29.657  29.091  1.00  0.00     0.049 A 
ATOM     29  C   UNL A   1      47.404  28.475  27.302  1.00  0.00     0.074 A 
ATOM     30  C   UNL A   1      41.914  30.966  29.464  1.00  0.00     0.029 A 
ATOM     31  N   UNL A   1      43.464  29.579  28.668  1.00  0.00    -0.354 N 
ATOM     32  N   UNL A   1      46.240  28.874  27.762  1.00  0.00    -0.248 NA
ATOM     33  C   UNL A   1      48.392  29.549  27.152  1.00  0.00     0.031 C 
ATOM     34  C   UNL A   1      43.086  31.692  29.226  1.00  0.00     0.029 A 
ATOM     35  C   UNL A   1      44.056  30.825  28.742  1.00  0.00     0.049 A 
ATOM     36  H   UNL A   1      43.911  28.757  28.361  1.00  0.00     0.167 HD
ATOM     37  C   UNL A   1      46.350  30.242  27.947  1.00  0.00     0.074 A 
ATOM     38  C   UNL A   1      47.707  30.602  27.581  1.00  0.00     0.031 C 
ATOM     39  C   UNL A   1      45.414  31.128  28.363  1.00  0.00     0.037 A 
BRANCH  26  40
ATOM     40  C   UNL A   1      39.835  28.762  29.594  1.00  0.00     0.064 A 
ATOM     41  C   UNL A   1      38.848  29.191  28.693  1.00  0.00     0.173 A 
ATOM     42  C   UNL A   1      39.472  28.587  30.936  1.00  0.00     0.173 A 
ATOM     43  F   UNL A   1      39.145  29.362  27.397  1.00  0.00    -0.203 F 
ATOM     44  C   UNL A   1      37.552  29.454  29.124  1.00  0.00     0.198 A 
ATOM     45  C   UNL A   1      38.170  28.835  31.360  1.00  0.00     0.198 A 
ATOM     46  F   UNL A   1      40.376  28.153  31.827  1.00  0.00    -0.203 F 
ATOM     47  F   UNL A   1      36.631  29.881  28.249  1.00  0.00    -0.200 F 
ATOM     48  C   UNL A   1      37.213  29.276  30.456  1.00  0.00     0.200 A 
ATOM     49  F   UNL A   1      37.835  28.639  32.643  1.00  0.00    -0.200 F 
ATOM     50  F   UNL A   1      35.962  29.523  30.869  1.00  0.00    -0.200 F 
ENDBRANCH  26  40
BRANCH  27  51
ATOM     51  C   UNL A   1      49.205  26.798  26.411  1.00  0.00     0.064 A 
ATOM     52  C   UNL A   1      49.547  26.963  25.058  1.00  0.00     0.173 A 
ATOM     53  C   UNL A   1      50.206  26.339  27.278  1.00  0.00     0.173 A 
ATOM     54  F   UNL A   1      48.631  27.406  24.182  1.00  0.00    -0.203 F 
ATOM     55  C   UNL A   1      50.822  26.656  24.588  1.00  0.00     0.198 A 
ATOM     56  C   UNL A   1      51.492  26.064  26.811  1.00  0.00     0.198 A 
ATOM     57  F   UNL A   1      49.943  26.185  28.583  1.00  0.00    -0.203 F 
ATOM     58  F   UNL A   1      51.102  26.788  23.284  1.00  0.00    -0.200 F 
ATOM     59  C   UNL A   1      51.796  26.214  25.467  1.00  0.00     0.200 A 
ATOM     60  F   UNL A   1      52.441  25.663  27.668  1.00  0.00    -0.200 F 
ATOM     61  F   UNL A   1      53.029  25.940  25.018  1.00  0.00    -0.200 F 
ENDBRANCH  27  51
BRANCH  39  62
ATOM     62  C   UNL A   1      45.818  32.566  28.427  1.00  0.00     0.064 A 
ATOM     63  C   UNL A   1      45.681  33.394  27.306  1.00  0.00     0.173 A 
ATOM     64  C   UNL A   1      46.448  33.084  29.568  1.00  0.00     0.173 A 
ATOM     65  F   UNL A   1      45.092  32.933  26.193  1.00  0.00    -0.203 F 
ATOM     66  C   UNL A   1      46.188  34.688  27.314  1.00  0.00     0.198 A 
ATOM     67  C   UNL A   1      46.931  34.386  29.580  1.00  0.00     0.198 A 
ATOM     68  F   UNL A   1      46.586  32.325  30.666  1.00  0.00    -0.203 F 
ATOM     69  F   UNL A   1      46.087  35.452  26.218  1.00  0.00    -0.200 F 
ATOM     70  C   UNL A   1      46.814  35.183  28.450  1.00  0.00     0.200 A 
ATOM     71  F   UNL A   1      47.519  34.870  30.683  1.00  0.00    -0.200 F 
ATOM     72  F   UNL A   1      47.306  36.429  28.454  1.00  0.00    -0.200 F 
ENDBRANCH  39  62
ENDBRANCH  13  14
ENDBRANCH   6   8
ENDBRANCH   5   6
ENDBRANCH   4   5
ENDBRANCH   3   4
ENDBRANCH   2   3
ENDBRANCH   1   2
BRANCH   1  73
ATOM     73  C   UNL A   1      36.652  21.307  25.177  1.00  0.00     0.261 C 
BRANCH  73  74
ATOM     74  O   UNL A   1      35.558  21.327  26.107  1.00  0.00    -0.461 OA
BRANCH  74  75
ATOM     75  C   UNL A   1      34.324  21.002  25.621  1.00  0.00     0.335 C 
ATOM     76  O   UNL A   1      34.078  20.073  24.872  1.00  0.00    -0.249 OA
BRANCH  75  77
ATOM     77  C   UNL A   1      33.248  21.915  26.241  1.00  0.00     0.228 C 
ATOM     78  C   UNL A   1      33.784  23.323  26.431  1.00  0.00     0.047 C 
ATOM     79  O   UNL A   1      32.062  22.059  25.446  1.00  0.00    -0.361 OA
ATOM     80  C   UNL A   1      33.438  23.974  25.114  1.00  0.00     0.037 C 
ATOM     81  C   UNL A   1      32.110  23.323  24.747  1.00  0.00     0.138 C 
BRANCH  81  82
ATOM     82  C   UNL A   1      31.934  23.088  23.233  1.00  0.00     0.145 C 
BRANCH  82  83
ATOM     83  N   UNL A   1      31.083  24.102  22.631  1.00  0.00    -0.377 N 
ATOM     84  H   UNL A   1      30.439  23.808  21.946  1.00  0.00     0.160 HD
BRANCH  83  85
ATOM     85  C   UNL A   1      31.108  25.453  22.947  1.00  0.00     0.116 A 
ATOM     86  C   UNL A   1      30.097  26.036  23.731  1.00  0.00     0.033 A 
ATOM     87  C   UNL A   1      32.093  26.329  22.436  1.00  0.00     0.327 A 
ATOM     88  C   UNL A   1      30.079  27.409  24.011  1.00  0.00     0.006 A 
ATOM     89  C   UNL A   1      32.084  27.695  22.721  1.00  0.00     0.202 A 
ATOM     90  C   UNL A   1      31.075  28.239  23.507  1.00  0.00     0.047 A 
ATOM     91  F   UNL A   1      33.046  28.513  22.273  1.00  0.00    -0.199 F 
BRANCH  87  92
ATOM     92  N   UNL A   1      33.128  25.832  21.548  1.00  0.00     0.068 N 
ATOM     93  O   UNL A   1      34.207  25.485  22.058  1.00  0.00    -0.258 OA
ATOM     94  O   UNL A   1      32.864  25.735  20.342  1.00  0.00    -0.258 OA
ENDBRANCH  87  92
ENDBRANCH  83  85
ENDBRANCH  82  83
ENDBRANCH  81  82
ENDBRANCH  75  77
ENDBRANCH  74  75
ENDBRANCH  73  74
ENDBRANCH   1  73
TORSDOF 18
ENDMDL
