MODEL 1
REMARK VINA RESULT:     -13.0      0.000      0.000
REMARK SMILES Cc1ccc(C(=O)N2CCCC[C@@H]2C(=O)OCCOCCOC(=O)c2ccc(-c3c4nc(c(-c5c(F)c(F)c(F)c(F)c5F)c5ccc([nH]5)c(-c5c(F)c(F)c(F)c(F)c5F)c5nc(c(-c6c(F)c(F)c(F)c(F)c6F)c6ccc3[nH]6)C=C5)C=C4)cc2)cc1S(=O)(=O)N1CCCCC1
REMARK SMILES IDX 18 1 17 2 16 3 14 4 15 5 13 6 8 7 9 8 10 9 12 10 11 11 6 12
REMARK SMILES IDX 7 13 5 14 1 15 2 16 3 17 89 18 4 19 88 20 90 21 91 22 92 23
REMARK SMILES IDX 93 24 94 25 98 26 95 27 97 28 96 29 19 30 20 31 21 32 22 33
REMARK SMILES IDX 23 34 24 35 25 36 26 37 87 38 27 39 86 40 28 41 29 42 30 43
REMARK SMILES IDX 80 44 31 45 85 46 79 47 81 48 32 49 84 50 78 51 77 52 33 54
REMARK SMILES IDX 65 55 45 56 64 57 46 58 49 59 63 60 82 61 47 62 48 63 62 65
REMARK SMILES IDX 83 66 50 67 34 68 35 69 43 70 36 71 37 72 41 73 44 74 38 75
REMARK SMILES IDX 39 76 42 77 40 78 66 79 67 80 75 81 68 82 69 83 73 84 76 85
REMARK SMILES IDX 70 86 71 87 74 88 72 89 51 90 52 91 60 92 53 93 54 94 58 95
REMARK SMILES IDX 61 96 55 97 56 98 59 99 57 100
REMARK H PARENT 81 53 49 64
REMARK Flexibility Score: inf
ROOT
ATOM      1  C   UNL A   1      36.732  23.720  25.224  1.00  0.00     0.202 C 
ENDROOT
BRANCH   1   2
ATOM      2  C   UNL A   1      35.401  23.095  25.664  1.00  0.00     0.261 C 
BRANCH   2   3
ATOM      3  O   UNL A   1      35.453  21.647  25.705  1.00  0.00    -0.462 OA
BRANCH   3   4
ATOM      4  C   UNL A   1      34.269  20.959  25.703  1.00  0.00     0.328 C 
ATOM      5  O   UNL A   1      33.372  21.101  26.524  1.00  0.00    -0.250 OA
BRANCH   4   6
ATOM      6  C   UNL A   1      34.100  20.115  24.414  1.00  0.00     0.195 C 
ATOM      7  N   UNL A   1      32.809  20.066  23.649  1.00  0.00    -0.325 N 
ATOM      8  C   UNL A   1      32.131  18.794  23.407  1.00  0.00     0.121 C 
ATOM      9  C   UNL A   1      32.663  17.591  24.148  1.00  0.00     0.022 C 
ATOM     10  C   UNL A   1      34.713  18.736  24.785  1.00  0.00     0.037 C 
ATOM     11  C   UNL A   1      34.170  17.569  24.002  1.00  0.00     0.005 C 
BRANCH   7  12
ATOM     12  C   UNL A   1      32.367  21.062  22.744  1.00  0.00     0.254 C 
ATOM     13  O   UNL A   1      31.662  20.817  21.764  1.00  0.00    -0.269 OA
BRANCH  12  14
ATOM     14  C   UNL A   1      32.469  22.473  23.105  1.00  0.00     0.041 A 
ATOM     15  C   UNL A   1      31.680  26.250  22.419  1.00  0.00     0.046 C 
ATOM     16  C   UNL A   1      32.368  25.109  23.005  1.00  0.00    -0.031 A 
ATOM     17  C   UNL A   1      33.317  24.463  22.206  1.00  0.00     0.005 A 
ATOM     18  C   UNL A   1      31.738  24.553  24.096  1.00  0.00     0.086 A 
ATOM     19  C   UNL A   1      33.392  23.113  22.277  1.00  0.00     0.014 A 
ATOM     20  C   UNL A   1      31.719  23.159  24.102  1.00  0.00     0.035 A 
BRANCH  18  21
ATOM     21  S   UNL A   1      30.804  25.657  25.227  1.00  0.00     0.243 S 
ATOM     22  O   UNL A   1      29.612  26.076  24.517  1.00  0.00    -0.207 OA
ATOM     23  O   UNL A   1      30.723  24.930  26.478  1.00  0.00    -0.207 OA
BRANCH  21  24
ATOM     24  N   UNL A   1      31.737  27.135  25.595  1.00  0.00    -0.198 NA
ATOM     25  C   UNL A   1      30.914  28.745  25.231  1.00  0.00     0.102 C 
ATOM     26  C   UNL A   1      33.369  27.009  26.510  1.00  0.00     0.102 C 
ATOM     27  C   UNL A   1      31.781  30.467  25.834  1.00  0.00     0.017 C 
ATOM     28  C   UNL A   1      34.318  28.720  27.027  1.00  0.00     0.017 C 
ATOM     29  C   UNL A   1      33.510  30.425  26.670  1.00  0.00     0.003 C 
ENDBRANCH  21  24
ENDBRANCH  18  21
ENDBRANCH  12  14
ENDBRANCH   7  12
ENDBRANCH   4   6
ENDBRANCH   3   4
ENDBRANCH   2   3
ENDBRANCH   1   2
BRANCH   1  30
ATOM     30  O   UNL A   1      37.495  23.981  26.395  1.00  0.00    -0.374 OA
BRANCH  30  31
ATOM     31  C   UNL A   1      38.806  23.431  26.452  1.00  0.00     0.202 C 
BRANCH  31  32
ATOM     32  C   UNL A   1      38.918  21.978  25.966  1.00  0.00     0.261 C 
BRANCH  32  33
ATOM     33  O   UNL A   1      39.709  21.216  26.897  1.00  0.00    -0.460 OA
BRANCH  33  34
ATOM     34  C   UNL A   1      40.952  20.890  26.460  1.00  0.00     0.338 C 
ATOM     35  O   UNL A   1      41.299  19.789  26.067  1.00  0.00    -0.246 OA
BRANCH  34  36
ATOM     36  C   UNL A   1      41.899  21.996  26.776  1.00  0.00     0.060 A 
ATOM     37  C   UNL A   1      41.962  22.516  28.081  1.00  0.00     0.016 A 
ATOM     38  C   UNL A   1      42.508  22.687  25.731  1.00  0.00     0.016 A 
ATOM     39  C   UNL A   1      42.563  23.763  28.319  1.00  0.00     0.010 A 
ATOM     40  C   UNL A   1      42.992  23.963  25.951  1.00  0.00     0.010 A 
ATOM     41  C   UNL A   1      43.038  24.519  27.243  1.00  0.00    -0.014 A 
BRANCH  41  42
ATOM     42  C   UNL A   1      43.450  25.958  27.318  1.00  0.00     0.031 A 
ATOM     43  C   UNL A   1      42.303  27.002  27.437  1.00  0.00     0.074 A 
ATOM     44  C   UNL A   1      44.675  26.044  27.900  1.00  0.00     0.049 A 
ATOM     45  N   UNL A   1      42.278  28.260  27.803  1.00  0.00    -0.248 NA
ATOM     46  C   UNL A   1      40.980  26.562  27.034  1.00  0.00     0.031 C 
ATOM     47  C   UNL A   1      44.966  26.360  29.286  1.00  0.00     0.029 A 
ATOM     48  N   UNL A   1      45.884  25.456  27.542  1.00  0.00    -0.354 N 
ATOM     49  C   UNL A   1      40.951  28.658  28.192  1.00  0.00     0.074 A 
ATOM     50  C   UNL A   1      40.210  27.545  27.492  1.00  0.00     0.031 C 
ATOM     51  C   UNL A   1      46.269  26.415  29.552  1.00  0.00     0.029 A 
ATOM     52  C   UNL A   1      46.911  25.981  28.361  1.00  0.00     0.049 A 
ATOM     53  H   UNL A   1      46.005  24.784  26.833  1.00  0.00     0.167 HD
ATOM     54  C   UNL A   1      40.617  29.762  29.275  1.00  0.00     0.037 A 
ATOM     55  C   UNL A   1      47.960  26.646  27.837  1.00  0.00     0.037 A 
ATOM     56  C   UNL A   1      42.257  30.462  29.292  1.00  0.00     0.049 A 
ATOM     57  C   UNL A   1      47.677  28.130  27.751  1.00  0.00     0.074 A 
ATOM     58  C   UNL A   1      43.078  31.215  30.186  1.00  0.00     0.029 A 
ATOM     59  N   UNL A   1      43.176  30.443  28.157  1.00  0.00    -0.354 N 
ATOM     60  N   UNL A   1      46.500  28.711  27.879  1.00  0.00    -0.248 NA
ATOM     61  C   UNL A   1      48.773  29.080  27.613  1.00  0.00     0.031 C 
ATOM     62  C   UNL A   1      44.426  31.204  29.821  1.00  0.00     0.029 A 
ATOM     63  C   UNL A   1      44.491  30.786  28.518  1.00  0.00     0.049 A 
ATOM     64  H   UNL A   1      42.905  30.215  27.239  1.00  0.00     0.167 HD
ATOM     65  C   UNL A   1      46.662  30.070  27.715  1.00  0.00     0.074 A 
ATOM     66  C   UNL A   1      48.108  30.243  27.625  1.00  0.00     0.031 C 
ATOM     67  C   UNL A   1      45.659  31.008  27.665  1.00  0.00     0.037 A 
BRANCH  54  68
ATOM     68  C   UNL A   1      38.924  30.310  30.383  1.00  0.00     0.064 A 
ATOM     69  C   UNL A   1      38.627  30.453  31.970  1.00  0.00     0.173 A 
ATOM     70  C   UNL A   1      37.455  30.805  29.993  1.00  0.00     0.173 A 
ATOM     71  F   UNL A   1      39.498  30.070  32.947  1.00  0.00    -0.203 F 
ATOM     72  C   UNL A   1      37.495  30.910  32.724  1.00  0.00     0.198 A 
ATOM     73  C   UNL A   1      36.334  31.262  30.784  1.00  0.00     0.198 A 
ATOM     74  F   UNL A   1      36.999  30.920  28.718  1.00  0.00    -0.203 F 
ATOM     75  F   UNL A   1      37.574  30.917  34.066  1.00  0.00    -0.200 F 
ATOM     76  C   UNL A   1      36.355  31.326  32.136  1.00  0.00     0.200 A 
ATOM     77  F   UNL A   1      35.225  31.672  30.146  1.00  0.00    -0.200 F 
ATOM     78  F   UNL A   1      35.311  31.765  32.847  1.00  0.00    -0.200 F 
ENDBRANCH  54  68
BRANCH  55  79
ATOM     79  C   UNL A   1      48.686  25.687  26.944  1.00  0.00     0.064 A 
ATOM     80  C   UNL A   1      48.613  26.079  25.579  1.00  0.00     0.173 A 
ATOM     81  C   UNL A   1      49.909  25.168  27.398  1.00  0.00     0.173 A 
ATOM     82  F   UNL A   1      47.461  26.569  25.091  1.00  0.00    -0.203 F 
ATOM     83  C   UNL A   1      49.773  26.267  24.829  1.00  0.00     0.198 A 
ATOM     84  C   UNL A   1      51.070  25.360  26.636  1.00  0.00     0.198 A 
ATOM     85  F   UNL A   1      50.033  24.772  28.671  1.00  0.00    -0.203 F 
ATOM     86  F   UNL A   1      49.712  26.902  23.648  1.00  0.00    -0.200 F 
ATOM     87  C   UNL A   1      51.004  25.963  25.385  1.00  0.00     0.200 A 
ATOM     88  F   UNL A   1      52.270  25.135  27.190  1.00  0.00    -0.200 F 
ATOM     89  F   UNL A   1      52.130  26.345  24.762  1.00  0.00    -0.200 F 
ENDBRANCH  55  79
BRANCH  67  90
ATOM     90  C   UNL A   1      45.918  32.435  27.173  1.00  0.00     0.064 A 
ATOM     91  C   UNL A   1      45.244  32.989  26.069  1.00  0.00     0.173 A 
ATOM     92  C   UNL A   1      46.782  33.333  27.850  1.00  0.00     0.173 A 
ATOM     93  F   UNL A   1      44.306  32.296  25.408  1.00  0.00    -0.203 F 
ATOM     94  C   UNL A   1      45.487  34.291  25.620  1.00  0.00     0.198 A 
ATOM     95  C   UNL A   1      46.990  34.646  27.427  1.00  0.00     0.198 A 
ATOM     96  F   UNL A   1      47.447  32.991  28.961  1.00  0.00    -0.203 F 
ATOM     97  F   UNL A   1      44.859  34.741  24.525  1.00  0.00    -0.200 F 
ATOM     98  C   UNL A   1      46.353  35.121  26.304  1.00  0.00     0.200 A 
ATOM     99  F   UNL A   1      47.803  35.447  28.129  1.00  0.00    -0.200 F 
ATOM    100  F   UNL A   1      46.552  36.382  25.896  1.00  0.00    -0.200 F 
ENDBRANCH  67  90
ENDBRANCH  41  42
ENDBRANCH  34  36
ENDBRANCH  33  34
ENDBRANCH  32  33
ENDBRANCH  31  32
ENDBRANCH  30  31
ENDBRANCH   1  30
TORSDOF 18
ENDMDL
MODEL 2
REMARK VINA RESULT:     -12.4      4.725     11.141
REMARK SMILES Cc1ccc(C(=O)N2CCCC[C@@H]2C(=O)OCCOCCOC(=O)c2ccc(-c3c4nc(c(-c5c(F)c(F)c(F)c(F)c5F)c5ccc([nH]5)c(-c5c(F)c(F)c(F)c(F)c5F)c5nc(c(-c6c(F)c(F)c(F)c(F)c6F)c6ccc3[nH]6)C=C5)C=C4)cc2)cc1S(=O)(=O)N1CCCCC1
REMARK SMILES IDX 18 1 17 2 16 3 14 4 15 5 13 6 8 7 9 8 10 9 12 10 11 11 6 12
REMARK SMILES IDX 7 13 5 14 1 15 2 16 3 17 89 18 4 19 88 20 90 21 91 22 92 23
REMARK SMILES IDX 93 24 94 25 98 26 95 27 97 28 96 29 19 30 20 31 21 32 22 33
REMARK SMILES IDX 23 34 24 35 25 36 26 37 87 38 27 39 86 40 28 41 29 42 30 43
REMARK SMILES IDX 80 44 31 45 85 46 79 47 81 48 32 49 84 50 78 51 77 52 33 54
REMARK SMILES IDX 65 55 45 56 64 57 46 58 49 59 63 60 82 61 47 62 48 63 62 65
REMARK SMILES IDX 83 66 50 67 34 68 35 69 43 70 36 71 37 72 41 73 44 74 38 75
REMARK SMILES IDX 39 76 42 77 40 78 66 79 67 80 75 81 68 82 69 83 73 84 76 85
REMARK SMILES IDX 70 86 71 87 74 88 72 89 51 90 52 91 60 92 53 93 54 94 58 95
REMARK SMILES IDX 61 96 55 97 56 98 59 99 57 100
REMARK H PARENT 81 53 49 64
REMARK Flexibility Score: inf
ROOT
ATOM      1  C   UNL A   1      34.327  28.574  26.849  1.00  0.00     0.202 C 
ENDROOT
BRANCH   1   2
ATOM      2  C   UNL A   1      33.081  28.084  26.100  1.00  0.00     0.261 C 
BRANCH   2   3
ATOM      3  O   UNL A   1      33.350  27.781  24.709  1.00  0.00    -0.462 OA
BRANCH   3   4
ATOM      4  C   UNL A   1      32.585  28.398  23.754  1.00  0.00     0.328 C 
ATOM      5  O   UNL A   1      32.958  28.669  22.621  1.00  0.00    -0.250 OA
BRANCH   4   6
ATOM      6  C   UNL A   1      31.107  28.531  24.204  1.00  0.00     0.195 C 
ATOM      7  N   UNL A   1      30.076  27.483  23.898  1.00  0.00    -0.325 N 
ATOM      8  C   UNL A   1      28.865  27.820  23.153  1.00  0.00     0.121 C 
ATOM      9  C   UNL A   1      28.817  29.191  22.524  1.00  0.00     0.022 C 
ATOM     10  C   UNL A   1      30.724  29.984  23.810  1.00  0.00     0.037 C 
ATOM     11  C   UNL A   1      29.255  30.207  23.558  1.00  0.00     0.005 C 
BRANCH   7  12
ATOM     12  C   UNL A   1      29.914  26.273  24.618  1.00  0.00     0.254 C 
ATOM     13  O   UNL A   1      28.860  25.951  25.166  1.00  0.00    -0.269 OA
BRANCH  12  14
ATOM     14  C   UNL A   1      30.900  25.204  24.478  1.00  0.00     0.041 A 
ATOM     15  C   UNL A   1      34.488  23.958  23.516  1.00  0.00     0.046 C 
ATOM     16  C   UNL A   1      33.068  23.853  23.815  1.00  0.00    -0.031 A 
ATOM     17  C   UNL A   1      32.179  24.199  22.792  1.00  0.00     0.005 A 
ATOM     18  C   UNL A   1      32.761  23.819  25.157  1.00  0.00     0.086 A 
ATOM     19  C   UNL A   1      31.050  24.866  23.133  1.00  0.00     0.014 A 
ATOM     20  C   UNL A   1      31.665  24.603  25.516  1.00  0.00     0.035 A 
BRANCH  18  21
ATOM     21  S   UNL A   1      33.936  23.002  26.306  1.00  0.00     0.243 S 
ATOM     22  O   UNL A   1      35.182  23.738  26.230  1.00  0.00    -0.207 OA
ATOM     23  O   UNL A   1      33.210  22.871  27.554  1.00  0.00    -0.207 OA
BRANCH  21  24
ATOM     24  N   UNL A   1      34.286  21.331  25.782  1.00  0.00    -0.198 NA
ATOM     25  C   UNL A   1      32.832  20.253  25.427  1.00  0.00     0.102 C 
ATOM     26  C   UNL A   1      36.050  20.816  25.409  1.00  0.00     0.102 C 
ATOM     27  C   UNL A   1      33.118  18.433  24.597  1.00  0.00     0.017 C 
ATOM     28  C   UNL A   1      36.378  18.956  24.682  1.00  0.00     0.017 C 
ATOM     29  C   UNL A   1      34.903  17.789  24.297  1.00  0.00     0.003 C 
ENDBRANCH  21  24
ENDBRANCH  18  21
ENDBRANCH  12  14
ENDBRANCH   7  12
ENDBRANCH   4   6
ENDBRANCH   3   4
ENDBRANCH   2   3
ENDBRANCH   1   2
BRANCH   1  30
ATOM     30  O   UNL A   1      33.974  29.762  27.546  1.00  0.00    -0.374 OA
BRANCH  30  31
ATOM     31  C   UNL A   1      35.031  30.647  27.898  1.00  0.00     0.202 C 
BRANCH  31  32
ATOM     32  C   UNL A   1      34.735  32.135  27.654  1.00  0.00     0.261 C 
BRANCH  32  33
ATOM     33  O   UNL A   1      33.682  32.570  28.534  1.00  0.00    -0.460 OA
BRANCH  33  34
ATOM     34  C   UNL A   1      33.924  33.738  29.182  1.00  0.00     0.338 C 
ATOM     35  O   UNL A   1      33.466  34.826  28.878  1.00  0.00    -0.246 OA
BRANCH  34  36
ATOM     36  C   UNL A   1      35.036  33.547  30.157  1.00  0.00     0.060 A 
ATOM     37  C   UNL A   1      36.356  33.859  29.787  1.00  0.00     0.016 A 
ATOM     38  C   UNL A   1      34.802  32.810  31.316  1.00  0.00     0.016 A 
ATOM     39  C   UNL A   1      37.437  33.363  30.533  1.00  0.00     0.010 A 
ATOM     40  C   UNL A   1      35.868  32.228  31.977  1.00  0.00     0.010 A 
ATOM     41  C   UNL A   1      37.198  32.499  31.608  1.00  0.00    -0.014 A 
BRANCH  41  42
ATOM     42  C   UNL A   1      38.247  31.693  32.313  1.00  0.00     0.031 A 
ATOM     43  C   UNL A   1      38.609  30.320  31.677  1.00  0.00     0.074 A 
ATOM     44  C   UNL A   1      39.106  32.532  32.949  1.00  0.00     0.049 A 
ATOM     45  N   UNL A   1      39.628  29.510  31.827  1.00  0.00    -0.248 NA
ATOM     46  C   UNL A   1      37.638  29.754  30.758  1.00  0.00     0.031 C 
ATOM     47  C   UNL A   1      40.406  32.974  32.482  1.00  0.00     0.029 A 
ATOM     48  N   UNL A   1      38.861  33.514  33.904  1.00  0.00    -0.354 N 
ATOM     49  C   UNL A   1      39.744  28.614  30.708  1.00  0.00     0.074 A 
ATOM     50  C   UNL A   1      38.330  28.764  30.202  1.00  0.00     0.031 C 
ATOM     51  C   UNL A   1      41.037  33.763  33.349  1.00  0.00     0.029 A 
ATOM     52  C   UNL A   1      40.098  34.005  34.386  1.00  0.00     0.049 A 
ATOM     53  H   UNL A   1      37.972  33.818  34.198  1.00  0.00     0.167 HD
ATOM     54  C   UNL A   1      41.102  28.009  30.169  1.00  0.00     0.037 A 
ATOM     55  C   UNL A   1      40.435  33.908  35.688  1.00  0.00     0.037 A 
ATOM     56  C   UNL A   1      42.043  28.418  31.628  1.00  0.00     0.049 A 
ATOM     57  C   UNL A   1      41.178  32.618  35.963  1.00  0.00     0.074 A 
ATOM     58  C   UNL A   1      43.408  28.652  31.977  1.00  0.00     0.029 A 
ATOM     59  N   UNL A   1      41.480  28.528  32.971  1.00  0.00    -0.354 N 
ATOM     60  N   UNL A   1      41.258  31.574  35.162  1.00  0.00    -0.248 NA
ATOM     61  C   UNL A   1      41.986  32.479  37.167  1.00  0.00     0.031 C 
ATOM     62  C   UNL A   1      43.548  29.282  33.215  1.00  0.00     0.029 A 
ATOM     63  C   UNL A   1      42.357  29.147  33.878  1.00  0.00     0.049 A 
ATOM     64  H   UNL A   1      40.582  28.205  33.214  1.00  0.00     0.167 HD
ATOM     65  C   UNL A   1      42.005  30.599  35.785  1.00  0.00     0.074 A 
ATOM     66  C   UNL A   1      42.490  31.250  36.998  1.00  0.00     0.031 C 
ATOM     67  C   UNL A   1      42.223  29.323  35.324  1.00  0.00     0.037 A 
BRANCH  54  68
ATOM     68  C   UNL A   1      41.727  27.062  28.405  1.00  0.00     0.064 A 
ATOM     69  C   UNL A   1      42.043  27.591  26.907  1.00  0.00     0.173 A 
ATOM     70  C   UNL A   1      42.132  25.561  28.035  1.00  0.00     0.173 A 
ATOM     71  F   UNL A   1      41.799  28.863  26.478  1.00  0.00    -0.203 F 
ATOM     72  C   UNL A   1      42.551  26.957  25.723  1.00  0.00     0.198 A 
ATOM     73  C   UNL A   1      42.645  24.954  26.828  1.00  0.00     0.198 A 
ATOM     74  F   UNL A   1      42.086  24.519  28.907  1.00  0.00    -0.203 F 
ATOM     75  F   UNL A   1      42.715  27.697  24.613  1.00  0.00    -0.200 F 
ATOM     76  C   UNL A   1      42.864  25.645  25.684  1.00  0.00     0.200 A 
ATOM     77  F   UNL A   1      42.946  23.645  26.846  1.00  0.00    -0.200 F 
ATOM     78  F   UNL A   1      43.352  25.067  24.581  1.00  0.00    -0.200 F 
ENDBRANCH  54  68
BRANCH  55  79
ATOM     79  C   UNL A   1      39.425  34.695  36.463  1.00  0.00     0.064 A 
ATOM     80  C   UNL A   1      38.706  33.877  37.376  1.00  0.00     0.173 A 
ATOM     81  C   UNL A   1      39.791  35.977  36.903  1.00  0.00     0.173 A 
ATOM     82  F   UNL A   1      38.319  32.646  37.000  1.00  0.00    -0.203 F 
ATOM     83  C   UNL A   1      38.672  34.185  38.736  1.00  0.00     0.198 A 
ATOM     84  C   UNL A   1      39.752  36.279  38.271  1.00  0.00     0.198 A 
ATOM     85  F   UNL A   1      40.460  36.797  36.081  1.00  0.00    -0.203 F 
ATOM     86  F   UNL A   1      38.242  33.271  39.619  1.00  0.00    -0.200 F 
ATOM     87  C   UNL A   1      39.251  35.359  39.186  1.00  0.00     0.200 A 
ATOM     88  F   UNL A   1      40.371  37.379  38.725  1.00  0.00    -0.200 F 
ATOM     89  F   UNL A   1      39.420  35.558  40.502  1.00  0.00    -0.200 F 
ENDBRANCH  55  79
BRANCH  67  90
ATOM     90  C   UNL A   1      42.799  28.230  36.230  1.00  0.00     0.064 A 
ATOM     91  C   UNL A   1      42.102  27.043  36.522  1.00  0.00     0.173 A 
ATOM     92  C   UNL A   1      44.113  28.290  36.760  1.00  0.00     0.173 A 
ATOM     93  F   UNL A   1      40.898  26.795  35.987  1.00  0.00    -0.203 F 
ATOM     94  C   UNL A   1      42.630  26.049  37.352  1.00  0.00     0.198 A 
ATOM     95  C   UNL A   1      44.655  27.278  37.553  1.00  0.00     0.198 A 
ATOM     96  F   UNL A   1      44.940  29.315  36.520  1.00  0.00    -0.203 F 
ATOM     97  F   UNL A   1      41.892  24.970  37.644  1.00  0.00    -0.200 F 
ATOM     98  C   UNL A   1      43.908  26.164  37.861  1.00  0.00     0.200 A 
ATOM     99  F   UNL A   1      45.913  27.389  38.001  1.00  0.00    -0.200 F 
ATOM    100  F   UNL A   1      44.428  25.191  38.621  1.00  0.00    -0.200 F 
ENDBRANCH  67  90
ENDBRANCH  41  42
ENDBRANCH  34  36
ENDBRANCH  33  34
ENDBRANCH  32  33
ENDBRANCH  31  32
ENDBRANCH  30  31
ENDBRANCH   1  30
TORSDOF 18
ENDMDL
MODEL 3
REMARK VINA RESULT:     -11.9      4.690     11.327
REMARK SMILES Cc1ccc(C(=O)N2CCCC[C@@H]2C(=O)OCCOCCOC(=O)c2ccc(-c3c4nc(c(-c5c(F)c(F)c(F)c(F)c5F)c5ccc([nH]5)c(-c5c(F)c(F)c(F)c(F)c5F)c5nc(c(-c6c(F)c(F)c(F)c(F)c6F)c6ccc3[nH]6)C=C5)C=C4)cc2)cc1S(=O)(=O)N1CCCCC1
REMARK SMILES IDX 18 1 17 2 16 3 14 4 15 5 13 6 8 7 9 8 10 9 12 10 11 11 6 12
REMARK SMILES IDX 7 13 5 14 1 15 2 16 3 17 89 18 4 19 88 20 90 21 91 22 92 23
REMARK SMILES IDX 93 24 94 25 98 26 95 27 97 28 96 29 19 30 20 31 21 32 22 33
REMARK SMILES IDX 23 34 24 35 25 36 26 37 87 38 27 39 86 40 28 41 29 42 30 43
REMARK SMILES IDX 80 44 31 45 85 46 79 47 81 48 32 49 84 50 78 51 77 52 33 54
REMARK SMILES IDX 65 55 45 56 64 57 46 58 49 59 63 60 82 61 47 62 48 63 62 65
REMARK SMILES IDX 83 66 50 67 34 68 35 69 43 70 36 71 37 72 41 73 44 74 38 75
REMARK SMILES IDX 39 76 42 77 40 78 66 79 67 80 75 81 68 82 69 83 73 84 76 85
REMARK SMILES IDX 70 86 71 87 74 88 72 89 51 90 52 91 60 92 53 93 54 94 58 95
REMARK SMILES IDX 61 96 55 97 56 98 59 99 57 100
REMARK H PARENT 81 53 49 64
REMARK Flexibility Score: inf
ROOT
ATOM      1  C   UNL A   1      33.138  28.209  25.483  1.00  0.00     0.202 C 
ENDROOT
BRANCH   1   2
ATOM      2  C   UNL A   1      33.241  26.891  26.262  1.00  0.00     0.261 C 
BRANCH   2   3
ATOM      3  O   UNL A   1      34.219  25.984  25.696  1.00  0.00    -0.462 OA
BRANCH   3   4
ATOM      4  C   UNL A   1      33.786  24.761  25.257  1.00  0.00     0.328 C 
ATOM      5  O   UNL A   1      32.960  24.583  24.372  1.00  0.00    -0.250 OA
BRANCH   4   6
ATOM      6  C   UNL A   1      34.620  23.606  25.871  1.00  0.00     0.195 C 
ATOM      7  N   UNL A   1      35.115  22.449  25.052  1.00  0.00    -0.325 N 
ATOM      8  C   UNL A   1      34.755  21.077  25.401  1.00  0.00     0.121 C 
ATOM      9  C   UNL A   1      33.697  20.904  26.464  1.00  0.00     0.022 C 
ATOM     10  C   UNL A   1      33.844  23.230  27.163  1.00  0.00     0.037 C 
ATOM     11  C   UNL A   1      34.038  21.810  27.629  1.00  0.00     0.005 C 
BRANCH   7  12
ATOM     12  C   UNL A   1      36.258  22.482  24.215  1.00  0.00     0.254 C 
ATOM     13  O   UNL A   1      36.215  22.809  23.029  1.00  0.00    -0.269 OA
BRANCH  12  14
ATOM     14  C   UNL A   1      37.594  22.429  24.803  1.00  0.00     0.041 A 
ATOM     15  C   UNL A   1      39.979  22.605  27.907  1.00  0.00     0.046 C 
ATOM     16  C   UNL A   1      39.605  22.633  26.501  1.00  0.00    -0.031 A 
ATOM     17  C   UNL A   1      39.036  23.817  26.022  1.00  0.00     0.005 A 
ATOM     18  C   UNL A   1      39.475  21.395  25.913  1.00  0.00     0.086 A 
ATOM     19  C   UNL A   1      38.024  23.717  25.127  1.00  0.00     0.014 A 
ATOM     20  C   UNL A   1      38.362  21.265  25.082  1.00  0.00     0.035 A 
BRANCH  18  21
ATOM     21  S   UNL A   1      40.576  20.037  26.473  1.00  0.00     0.243 S 
ATOM     22  O   UNL A   1      40.588  20.075  27.923  1.00  0.00    -0.207 OA
ATOM     23  O   UNL A   1      40.124  18.865  25.752  1.00  0.00    -0.207 OA
BRANCH  21  24
ATOM     24  N   UNL A   1      42.256  20.311  25.933  1.00  0.00    -0.198 NA
ATOM     25  C   UNL A   1      43.321  18.816  25.750  1.00  0.00     0.102 C 
ATOM     26  C   UNL A   1      42.795  22.019  25.376  1.00  0.00     0.102 C 
ATOM     27  C   UNL A   1      45.152  18.991  24.914  1.00  0.00     0.017 C 
ATOM     28  C   UNL A   1      44.665  22.247  24.639  1.00  0.00     0.017 C 
ATOM     29  C   UNL A   1      45.820  20.727  24.430  1.00  0.00     0.003 C 
ENDBRANCH  21  24
ENDBRANCH  18  21
ENDBRANCH  12  14
ENDBRANCH   7  12
ENDBRANCH   4   6
ENDBRANCH   3   4
ENDBRANCH   2   3
ENDBRANCH   1   2
BRANCH   1  30
ATOM     30  O   UNL A   1      32.629  29.198  26.369  1.00  0.00    -0.374 OA
BRANCH  30  31
ATOM     31  C   UNL A   1      33.267  30.470  26.359  1.00  0.00     0.202 C 
BRANCH  31  32
ATOM     32  C   UNL A   1      33.614  31.029  27.747  1.00  0.00     0.261 C 
BRANCH  32  33
ATOM     33  O   UNL A   1      34.480  32.171  27.606  1.00  0.00    -0.460 OA
BRANCH  33  34
ATOM     34  C   UNL A   1      34.322  33.129  28.554  1.00  0.00     0.338 C 
ATOM     35  O   UNL A   1      33.549  34.070  28.490  1.00  0.00    -0.246 OA
BRANCH  34  36
ATOM     36  C   UNL A   1      35.412  33.017  29.565  1.00  0.00     0.060 A 
ATOM     37  C   UNL A   1      36.738  33.313  29.203  1.00  0.00     0.016 A 
ATOM     38  C   UNL A   1      35.156  32.364  30.768  1.00  0.00     0.016 A 
ATOM     39  C   UNL A   1      37.805  32.880  30.007  1.00  0.00     0.010 A 
ATOM     40  C   UNL A   1      36.210  31.840  31.493  1.00  0.00     0.010 A 
ATOM     41  C   UNL A   1      37.547  32.094  31.135  1.00  0.00    -0.014 A 
BRANCH  41  42
ATOM     42  C   UNL A   1      38.584  31.349  31.921  1.00  0.00     0.031 A 
ATOM     43  C   UNL A   1      39.121  30.034  31.286  1.00  0.00     0.074 A 
ATOM     44  C   UNL A   1      39.303  32.229  32.664  1.00  0.00     0.049 A 
ATOM     45  N   UNL A   1      40.183  29.302  31.515  1.00  0.00    -0.248 NA
ATOM     46  C   UNL A   1      38.297  29.426  30.256  1.00  0.00     0.031 C 
ATOM     47  C   UNL A   1      40.601  32.791  32.346  1.00  0.00     0.029 A 
ATOM     48  N   UNL A   1      38.883  33.153  33.618  1.00  0.00    -0.354 N 
ATOM     49  C   UNL A   1      40.484  28.461  30.388  1.00  0.00     0.074 A 
ATOM     50  C   UNL A   1      39.120  28.516  29.745  1.00  0.00     0.031 C 
ATOM     51  C   UNL A   1      41.075  33.596  33.294  1.00  0.00     0.029 A 
ATOM     52  C   UNL A   1      40.020  33.723  34.237  1.00  0.00     0.049 A 
ATOM     53  H   UNL A   1      37.947  33.373  33.828  1.00  0.00     0.167 HD
ATOM     54  C   UNL A   1      41.935  27.987  29.973  1.00  0.00     0.037 A 
ATOM     55  C   UNL A   1      40.234  33.605  35.563  1.00  0.00     0.037 A 
ATOM     56  C   UNL A   1      42.689  28.416  31.532  1.00  0.00     0.049 A 
ATOM     57  C   UNL A   1      41.051  32.369  35.875  1.00  0.00     0.074 A 
ATOM     58  C   UNL A   1      43.989  28.745  32.025  1.00  0.00     0.029 A 
ATOM     59  N   UNL A   1      41.988  28.431  32.813  1.00  0.00    -0.354 N 
ATOM     60  N   UNL A   1      41.297  31.366  35.057  1.00  0.00    -0.248 NA
ATOM     61  C   UNL A   1      41.744  32.251  37.151  1.00  0.00     0.031 C 
ATOM     62  C   UNL A   1      43.952  29.338  33.289  1.00  0.00     0.029 A 
ATOM     63  C   UNL A   1      42.717  29.083  33.822  1.00  0.00     0.049 A 
ATOM     64  H   UNL A   1      41.101  28.028  32.954  1.00  0.00     0.167 HD
ATOM     65  C   UNL A   1      42.057  30.431  35.725  1.00  0.00     0.074 A 
ATOM     66  C   UNL A   1      42.363  31.073  36.999  1.00  0.00     0.031 C 
ATOM     67  C   UNL A   1      42.425  29.194  35.252  1.00  0.00     0.037 A 
BRANCH  54  68
ATOM     68  C   UNL A   1      42.808  27.159  28.255  1.00  0.00     0.064 A 
ATOM     69  C   UNL A   1      44.340  26.962  27.767  1.00  0.00     0.173 A 
ATOM     70  C   UNL A   1      42.228  26.427  26.959  1.00  0.00     0.173 A 
ATOM     71  F   UNL A   1      45.422  27.482  28.416  1.00  0.00    -0.203 F 
ATOM     72  C   UNL A   1      44.939  26.320  26.632  1.00  0.00     0.198 A 
ATOM     73  C   UNL A   1      42.863  25.786  25.829  1.00  0.00     0.198 A 
ATOM     74  F   UNL A   1      40.904  26.242  26.712  1.00  0.00    -0.203 F 
ATOM     75  F   UNL A   1      46.279  26.321  26.521  1.00  0.00    -0.200 F 
ATOM     76  C   UNL A   1      44.206  25.722  25.671  1.00  0.00     0.200 A 
ATOM     77  F   UNL A   1      42.085  25.199  24.905  1.00  0.00    -0.200 F 
ATOM     78  F   UNL A   1      44.774  25.111  24.624  1.00  0.00    -0.200 F 
ENDBRANCH  54  68
BRANCH  55  79
ATOM     79  C   UNL A   1      39.090  34.279  36.254  1.00  0.00     0.064 A 
ATOM     80  C   UNL A   1      38.304  33.357  36.996  1.00  0.00     0.173 A 
ATOM     81  C   UNL A   1      39.325  35.535  36.836  1.00  0.00     0.173 A 
ATOM     82  F   UNL A   1      38.038  32.146  36.478  1.00  0.00    -0.203 F 
ATOM     83  C   UNL A   1      38.076  33.549  38.359  1.00  0.00     0.198 A 
ATOM     84  C   UNL A   1      39.092  35.720  38.206  1.00  0.00     0.198 A 
ATOM     85  F   UNL A   1      40.049  36.449  36.177  1.00  0.00    -0.203 F 
ATOM     86  F   UNL A   1      37.585  32.546  39.104  1.00  0.00    -0.200 F 
ATOM     87  C   UNL A   1      38.526  34.706  38.971  1.00  0.00     0.200 A 
ATOM     88  F   UNL A   1      39.584  36.805  38.822  1.00  0.00    -0.200 F 
ATOM     89  F   UNL A   1      38.512  34.802  40.309  1.00  0.00    -0.200 F 
ENDBRANCH  55  79
BRANCH  67  90
ATOM     90  C   UNL A   1      42.998  28.118  36.179  1.00  0.00     0.064 A 
ATOM     91  C   UNL A   1      42.328  26.909  36.441  1.00  0.00     0.173 A 
ATOM     92  C   UNL A   1      44.286  28.219  36.764  1.00  0.00     0.173 A 
ATOM     93  F   UNL A   1      41.155  26.624  35.856  1.00  0.00    -0.203 F 
ATOM     94  C   UNL A   1      42.852  25.931  37.292  1.00  0.00     0.198 A 
ATOM     95  C   UNL A   1      44.827  27.222  37.578  1.00  0.00     0.198 A 
ATOM     96  F   UNL A   1      45.089  29.271  36.559  1.00  0.00    -0.203 F 
ATOM     97  F   UNL A   1      42.137  24.828  37.551  1.00  0.00    -0.200 F 
ATOM     98  C   UNL A   1      44.104  26.085  37.853  1.00  0.00     0.200 A 
ATOM     99  F   UNL A   1      46.061  27.373  38.078  1.00  0.00    -0.200 F 
ATOM    100  F   UNL A   1      44.622  25.127  38.634  1.00  0.00    -0.200 F 
ENDBRANCH  67  90
ENDBRANCH  41  42
ENDBRANCH  34  36
ENDBRANCH  33  34
ENDBRANCH  32  33
ENDBRANCH  31  32
ENDBRANCH  30  31
ENDBRANCH   1  30
TORSDOF 18
ENDMDL
