MODEL 1
REMARK VINA RESULT:     -11.7      0.000      0.000
REMARK SMILES [NH3+][C@]1(C(=O)OCCOCCOC(=O)c2ccc(-c3c4nc(c(-c5c(F)c(F)c(F)c(F)c5F)c5ccc([nH]5)c(-c5c(F)c(F)c(F)c(F)c5F)c5nc(c(-c6c(F)c(F)c(F)c(F)c6F)c6ccc3[nH]6)C=C5)C=C4)cc2)CC[N@H+](Cc2ccccc2O)C1
REMARK SMILES IDX 7 1 6 2 5 3 3 4 4 5 2 6 77 7 88 8 78 9 79 10 1 12 80 16
REMARK SMILES IDX 81 17 82 18 86 19 83 20 85 21 84 22 87 23 8 25 9 26 10 27
REMARK SMILES IDX 11 28 12 29 13 30 14 31 15 32 76 33 16 34 75 35 17 36 18 37
REMARK SMILES IDX 19 38 69 39 20 40 74 41 68 42 70 43 21 44 73 45 67 46 66 47
REMARK SMILES IDX 22 49 54 50 34 51 53 52 35 53 38 54 52 55 71 56 36 57 37 58
REMARK SMILES IDX 51 60 72 61 39 62 23 63 24 64 32 65 25 66 26 67 30 68 33 69
REMARK SMILES IDX 27 70 28 71 31 72 29 73 55 74 56 75 64 76 57 77 58 78 62 79
REMARK SMILES IDX 65 80 59 81 60 82 63 83 61 84 40 85 41 86 49 87 42 88 43 89
REMARK SMILES IDX 47 90 50 91 44 92 45 93 48 94 46 95
REMARK H PARENT 79 11 1 13 1 14 1 15 87 24 70 48 38 59
REMARK Flexibility Score: inf
ROOT
ATOM      1  C   UNL A   1      31.641  27.321  25.191  1.00  0.00     0.202 C 
ENDROOT
BRANCH   1   2
ATOM      2  C   UNL A   1      30.792  26.371  26.041  1.00  0.00     0.261 C 
BRANCH   2   3
ATOM      3  O   UNL A   1      31.538  25.253  26.564  1.00  0.00    -0.458 OA
BRANCH   3   4
ATOM      4  C   UNL A   1      30.902  24.049  26.452  1.00  0.00     0.374 C 
ATOM      5  O   UNL A   1      30.058  23.647  27.247  1.00  0.00    -0.244 OA
BRANCH   4   6
ATOM      6  C   UNL A   1      31.431  23.205  25.276  1.00  0.00     0.246 C 
ATOM      7  C   UNL A   1      32.951  23.355  25.211  1.00  0.00     0.148 C 
ATOM      8  C   UNL A   1      31.302  21.676  25.451  1.00  0.00     0.344 C 
ATOM      9  C   UNL A   1      33.414  22.126  24.459  1.00  0.00     0.270 C 
ATOM     10  N   UNL A   1      32.489  21.060  24.834  1.00  0.00    -0.325 N 
ATOM     11  H   UNL A   1      32.928  20.469  25.541  1.00  0.00     0.348 HD
BRANCH   6  12
ATOM     12  N   UNL A   1      30.798  23.649  24.008  1.00  0.00    -0.338 N 
ATOM     13  H   UNL A   1      31.193  24.546  23.726  1.00  0.00     0.345 HD
ATOM     14  H   UNL A   1      29.792  23.749  24.147  1.00  0.00     0.345 HD
ATOM     15  H   UNL A   1      30.973  22.957  23.280  1.00  0.00     0.345 HD
ENDBRANCH   6  12
BRANCH  10  16
ATOM     16  C   UNL A   1      32.257  20.030  23.817  1.00  0.00     0.303 C 
BRANCH  16  17
ATOM     17  C   UNL A   1      32.841  18.653  24.073  1.00  0.00     0.048 A 
ATOM     18  C   UNL A   1      33.261  17.889  22.966  1.00  0.00     0.013 A 
ATOM     19  C   UNL A   1      33.016  18.092  25.347  1.00  0.00     0.124 A 
ATOM     20  C   UNL A   1      33.900  16.658  23.131  1.00  0.00     0.001 A 
ATOM     21  C   UNL A   1      33.693  16.884  25.516  1.00  0.00     0.046 A 
ATOM     22  C   UNL A   1      34.142  16.169  24.410  1.00  0.00     0.004 A 
BRANCH  19  23
ATOM     23  O   UNL A   1      32.528  18.644  26.498  1.00  0.00    -0.507 OA
ATOM     24  H   UNL A   1      32.941  19.401  26.866  1.00  0.00     0.293 HD
ENDBRANCH  19  23
ENDBRANCH  16  17
ENDBRANCH  10  16
ENDBRANCH   4   6
ENDBRANCH   3   4
ENDBRANCH   2   3
ENDBRANCH   1   2
BRANCH   1  25
ATOM     25  O   UNL A   1      31.267  28.697  25.171  1.00  0.00    -0.374 OA
BRANCH  25  26
ATOM     26  C   UNL A   1      32.311  29.648  25.369  1.00  0.00     0.202 C 
BRANCH  26  27
ATOM     27  C   UNL A   1      32.008  30.832  26.293  1.00  0.00     0.261 C 
BRANCH  27  28
ATOM     28  O   UNL A   1      32.817  30.793  27.482  1.00  0.00    -0.460 OA
BRANCH  28  29
ATOM     29  C   UNL A   1      33.653  31.847  27.626  1.00  0.00     0.338 C 
ATOM     30  O   UNL A   1      33.358  33.035  27.621  1.00  0.00    -0.246 OA
BRANCH  29  31
ATOM     31  C   UNL A   1      35.001  31.377  27.995  1.00  0.00     0.060 A 
ATOM     32  C   UNL A   1      35.165  30.000  28.187  1.00  0.00     0.016 A 
ATOM     33  C   UNL A   1      36.063  32.258  28.210  1.00  0.00     0.016 A 
ATOM     34  C   UNL A   1      36.374  29.500  28.660  1.00  0.00     0.010 A 
ATOM     35  C   UNL A   1      37.275  31.756  28.698  1.00  0.00     0.010 A 
ATOM     36  C   UNL A   1      37.418  30.382  28.965  1.00  0.00    -0.014 A 
BRANCH  36  37
ATOM     37  C   UNL A   1      38.581  29.879  29.735  1.00  0.00     0.031 A 
ATOM     38  C   UNL A   1      38.789  30.385  31.135  1.00  0.00     0.074 A 
ATOM     39  C   UNL A   1      39.404  28.953  29.216  1.00  0.00     0.049 A 
ATOM     40  N   UNL A   1      39.736  30.099  31.992  1.00  0.00    -0.248 NA
ATOM     41  C   UNL A   1      37.794  31.346  31.639  1.00  0.00     0.031 C 
ATOM     42  C   UNL A   1      39.273  28.354  27.890  1.00  0.00     0.029 A 
ATOM     43  N   UNL A   1      40.517  28.354  29.750  1.00  0.00    -0.354 N 
ATOM     44  C   UNL A   1      39.452  30.842  33.129  1.00  0.00     0.074 A 
ATOM     45  C   UNL A   1      38.264  31.617  32.846  1.00  0.00     0.031 C 
ATOM     46  C   UNL A   1      40.275  27.477  27.707  1.00  0.00     0.029 A 
ATOM     47  C   UNL A   1      41.132  27.475  28.893  1.00  0.00     0.049 A 
ATOM     48  H   UNL A   1      40.843  28.536  30.660  1.00  0.00     0.167 HD
ATOM     49  C   UNL A   1      40.118  30.869  34.308  1.00  0.00     0.037 A 
ATOM     50  C   UNL A   1      42.268  26.769  29.045  1.00  0.00     0.037 A 
ATOM     51  C   UNL A   1      41.297  30.094  34.586  1.00  0.00     0.049 A 
ATOM     52  C   UNL A   1      43.031  26.869  30.341  1.00  0.00     0.074 A 
ATOM     53  C   UNL A   1      42.037  30.037  35.754  1.00  0.00     0.029 A 
ATOM     54  N   UNL A   1      41.913  29.244  33.679  1.00  0.00    -0.354 N 
ATOM     55  N   UNL A   1      42.745  27.557  31.419  1.00  0.00    -0.248 NA
ATOM     56  C   UNL A   1      44.275  26.091  30.440  1.00  0.00     0.031 C 
ATOM     57  C   UNL A   1      43.128  29.188  35.538  1.00  0.00     0.029 A 
ATOM     58  C   UNL A   1      43.040  28.678  34.253  1.00  0.00     0.049 A 
ATOM     59  H   UNL A   1      41.595  29.069  32.764  1.00  0.00     0.167 HD
ATOM     60  C   UNL A   1      43.753  27.276  32.333  1.00  0.00     0.074 A 
ATOM     61  C   UNL A   1      44.654  26.345  31.685  1.00  0.00     0.031 C 
ATOM     62  C   UNL A   1      43.920  27.746  33.594  1.00  0.00     0.037 A 
BRANCH  49  63
ATOM     63  C   UNL A   1      39.598  31.786  35.375  1.00  0.00     0.064 A 
ATOM     64  C   UNL A   1      40.048  33.110  35.494  1.00  0.00     0.173 A 
ATOM     65  C   UNL A   1      38.616  31.342  36.274  1.00  0.00     0.173 A 
ATOM     66  F   UNL A   1      40.998  33.576  34.669  1.00  0.00    -0.203 F 
ATOM     67  C   UNL A   1      39.550  33.948  36.489  1.00  0.00     0.198 A 
ATOM     68  C   UNL A   1      38.101  32.191  37.249  1.00  0.00     0.198 A 
ATOM     69  F   UNL A   1      38.151  30.086  36.202  1.00  0.00    -0.203 F 
ATOM     70  F   UNL A   1      40.027  35.195  36.612  1.00  0.00    -0.200 F 
ATOM     71  C   UNL A   1      38.573  33.491  37.360  1.00  0.00     0.200 A 
ATOM     72  F   UNL A   1      37.151  31.751  38.084  1.00  0.00    -0.200 F 
ATOM     73  F   UNL A   1      38.091  34.301  38.313  1.00  0.00    -0.200 F 
ENDBRANCH  49  63
BRANCH  50  74
ATOM     74  C   UNL A   1      42.763  25.911  27.936  1.00  0.00     0.064 A 
ATOM     75  C   UNL A   1      42.382  24.567  27.834  1.00  0.00     0.173 A 
ATOM     76  C   UNL A   1      43.639  26.417  26.964  1.00  0.00     0.173 A 
ATOM     77  F   UNL A   1      41.566  24.030  28.754  1.00  0.00    -0.203 F 
ATOM     78  C   UNL A   1      42.869  23.757  26.810  1.00  0.00     0.198 A 
ATOM     79  C   UNL A   1      44.104  25.614  25.926  1.00  0.00     0.198 A 
ATOM     80  F   UNL A   1      44.036  27.697  27.019  1.00  0.00    -0.203 F 
ATOM     81  F   UNL A   1      42.524  22.463  26.760  1.00  0.00    -0.200 F 
ATOM     82  C   UNL A   1      43.726  24.282  25.854  1.00  0.00     0.200 A 
ATOM     83  F   UNL A   1      44.922  26.129  24.999  1.00  0.00    -0.200 F 
ATOM     84  F   UNL A   1      44.192  23.503  24.868  1.00  0.00    -0.200 F 
ENDBRANCH  50  74
BRANCH  62  85
ATOM     85  C   UNL A   1      45.098  27.238  34.370  1.00  0.00     0.064 A 
ATOM     86  C   UNL A   1      46.325  27.917  34.373  1.00  0.00     0.173 A 
ATOM     87  C   UNL A   1      44.984  26.082  35.158  1.00  0.00     0.173 A 
ATOM     88  F   UNL A   1      46.489  29.018  33.625  1.00  0.00    -0.203 F 
ATOM     89  C   UNL A   1      47.402  27.444  35.120  1.00  0.00     0.198 A 
ATOM     90  C   UNL A   1      46.053  25.629  35.926  1.00  0.00     0.198 A 
ATOM     91  F   UNL A   1      43.828  25.401  35.195  1.00  0.00    -0.203 F 
ATOM     92  F   UNL A   1      48.578  28.085  35.075  1.00  0.00    -0.200 F 
ATOM     93  C   UNL A   1      47.262  26.307  35.901  1.00  0.00     0.200 A 
ATOM     94  F   UNL A   1      45.913  24.538  36.690  1.00  0.00    -0.200 F 
ATOM     95  F   UNL A   1      48.297  25.860  36.626  1.00  0.00    -0.200 F 
ENDBRANCH  62  85
ENDBRANCH  36  37
ENDBRANCH  29  31
ENDBRANCH  28  29
ENDBRANCH  27  28
ENDBRANCH  26  27
ENDBRANCH  25  26
ENDBRANCH   1  25
TORSDOF 18
ENDMDL
MODEL 2
REMARK VINA RESULT:     -11.6      0.834      7.397
REMARK SMILES [NH3+][C@]1(C(=O)OCCOCCOC(=O)c2ccc(-c3c4nc(c(-c5c(F)c(F)c(F)c(F)c5F)c5ccc([nH]5)c(-c5c(F)c(F)c(F)c(F)c5F)c5nc(c(-c6c(F)c(F)c(F)c(F)c6F)c6ccc3[nH]6)C=C5)C=C4)cc2)CC[N@H+](Cc2ccccc2O)C1
REMARK SMILES IDX 7 1 6 2 5 3 3 4 4 5 2 6 77 7 88 8 78 9 79 10 1 12 80 16
REMARK SMILES IDX 81 17 82 18 86 19 83 20 85 21 84 22 87 23 8 25 9 26 10 27
REMARK SMILES IDX 11 28 12 29 13 30 14 31 15 32 76 33 16 34 75 35 17 36 18 37
REMARK SMILES IDX 19 38 69 39 20 40 74 41 68 42 70 43 21 44 73 45 67 46 66 47
REMARK SMILES IDX 22 49 54 50 34 51 53 52 35 53 38 54 52 55 71 56 36 57 37 58
REMARK SMILES IDX 51 60 72 61 39 62 23 63 24 64 32 65 25 66 26 67 30 68 33 69
REMARK SMILES IDX 27 70 28 71 31 72 29 73 55 74 56 75 64 76 57 77 58 78 62 79
REMARK SMILES IDX 65 80 59 81 60 82 63 83 61 84 40 85 41 86 49 87 42 88 43 89
REMARK SMILES IDX 47 90 50 91 44 92 45 93 48 94 46 95
REMARK H PARENT 79 11 1 13 1 14 1 15 87 24 70 48 38 59
REMARK Flexibility Score: inf
ROOT
ATOM      1  C   UNL A   1      31.294  27.538  25.119  1.00  0.00     0.202 C 
ENDROOT
BRANCH   1   2
ATOM      2  C   UNL A   1      30.928  26.297  25.937  1.00  0.00     0.261 C 
BRANCH   2   3
ATOM      3  O   UNL A   1      31.344  25.063  25.318  1.00  0.00    -0.458 OA
BRANCH   3   4
ATOM      4  C   UNL A   1      31.586  24.045  26.196  1.00  0.00     0.374 C 
ATOM      5  O   UNL A   1      30.992  23.907  27.261  1.00  0.00    -0.244 OA
BRANCH   4   6
ATOM      6  C   UNL A   1      32.756  23.144  25.754  1.00  0.00     0.246 C 
ATOM      7  C   UNL A   1      33.569  22.756  26.989  1.00  0.00     0.148 C 
ATOM      8  C   UNL A   1      32.351  21.749  25.228  1.00  0.00     0.344 C 
ATOM      9  C   UNL A   1      34.292  21.492  26.576  1.00  0.00     0.270 C 
ATOM     10  N   UNL A   1      33.385  20.795  25.668  1.00  0.00    -0.325 N 
ATOM     11  H   UNL A   1      32.913  20.046  26.174  1.00  0.00     0.348 HD
BRANCH   6  12
ATOM     12  N   UNL A   1      33.600  23.859  24.763  1.00  0.00    -0.338 N 
ATOM     13  H   UNL A   1      33.706  24.833  25.047  1.00  0.00     0.345 HD
ATOM     14  H   UNL A   1      33.156  23.817  23.845  1.00  0.00     0.345 HD
ATOM     15  H   UNL A   1      34.518  23.417  24.717  1.00  0.00     0.345 HD
ENDBRANCH   6  12
BRANCH  10  16
ATOM     16  C   UNL A   1      34.024  19.977  24.633  1.00  0.00     0.303 C 
BRANCH  16  17
ATOM     17  C   UNL A   1      33.704  18.494  24.620  1.00  0.00     0.048 A 
ATOM     18  C   UNL A   1      34.066  17.742  23.484  1.00  0.00     0.013 A 
ATOM     19  C   UNL A   1      33.090  17.808  25.678  1.00  0.00     0.124 A 
ATOM     20  C   UNL A   1      33.895  16.357  23.443  1.00  0.00     0.001 A 
ATOM     21  C   UNL A   1      32.959  16.419  25.658  1.00  0.00     0.046 A 
ATOM     22  C   UNL A   1      33.368  15.691  24.544  1.00  0.00     0.004 A 
BRANCH  19  23
ATOM     23  O   UNL A   1      32.554  18.420  26.777  1.00  0.00    -0.507 OA
ATOM     24  H   UNL A   1      31.925  19.106  26.670  1.00  0.00     0.293 HD
ENDBRANCH  19  23
ENDBRANCH  16  17
ENDBRANCH  10  16
ENDBRANCH   4   6
ENDBRANCH   3   4
ENDBRANCH   2   3
ENDBRANCH   1   2
BRANCH   1  25
ATOM     25  O   UNL A   1      31.735  28.690  25.834  1.00  0.00    -0.374 OA
BRANCH  25  26
ATOM     26  C   UNL A   1      31.490  29.956  25.225  1.00  0.00     0.202 C 
BRANCH  26  27
ATOM     27  C   UNL A   1      31.572  31.191  26.129  1.00  0.00     0.261 C 
BRANCH  27  28
ATOM     28  O   UNL A   1      32.527  31.005  27.189  1.00  0.00    -0.460 OA
BRANCH  28  29
ATOM     29  C   UNL A   1      33.305  32.084  27.438  1.00  0.00     0.338 C 
ATOM     30  O   UNL A   1      32.964  33.259  27.451  1.00  0.00    -0.246 OA
BRANCH  29  31
ATOM     31  C   UNL A   1      34.637  31.651  27.897  1.00  0.00     0.060 A 
ATOM     32  C   UNL A   1      34.789  30.300  28.232  1.00  0.00     0.016 A 
ATOM     33  C   UNL A   1      35.696  32.547  28.059  1.00  0.00     0.016 A 
ATOM     34  C   UNL A   1      35.978  29.848  28.794  1.00  0.00     0.010 A 
ATOM     35  C   UNL A   1      36.889  32.095  28.636  1.00  0.00     0.010 A 
ATOM     36  C   UNL A   1      37.016  30.755  29.044  1.00  0.00    -0.014 A 
BRANCH  36  37
ATOM     37  C   UNL A   1      38.149  30.330  29.900  1.00  0.00     0.031 A 
ATOM     38  C   UNL A   1      39.146  29.354  29.340  1.00  0.00     0.074 A 
ATOM     39  C   UNL A   1      38.317  30.843  31.130  1.00  0.00     0.049 A 
ATOM     40  N   UNL A   1      40.208  28.834  29.901  1.00  0.00    -0.248 NA
ATOM     41  C   UNL A   1      38.915  28.904  27.957  1.00  0.00     0.031 C 
ATOM     42  C   UNL A   1      37.443  31.831  31.759  1.00  0.00     0.029 A 
ATOM     43  N   UNL A   1      39.285  30.600  32.071  1.00  0.00    -0.354 N 
ATOM     44  C   UNL A   1      40.766  27.996  28.945  1.00  0.00     0.074 A 
ATOM     45  C   UNL A   1      39.913  28.051  27.779  1.00  0.00     0.031 C 
ATOM     46  C   UNL A   1      37.909  32.104  32.990  1.00  0.00     0.029 A 
ATOM     47  C   UNL A   1      39.097  31.289  33.243  1.00  0.00     0.049 A 
ATOM     48  H   UNL A   1      40.042  29.989  31.920  1.00  0.00     0.167 HD
ATOM     49  C   UNL A   1      41.896  27.254  29.029  1.00  0.00     0.037 A 
ATOM     50  C   UNL A   1      39.796  31.248  34.394  1.00  0.00     0.037 A 
ATOM     51  C   UNL A   1      42.743  27.204  30.191  1.00  0.00     0.049 A 
ATOM     52  C   UNL A   1      41.010  30.360  34.488  1.00  0.00     0.074 A 
ATOM     53  C   UNL A   1      43.918  26.497  30.371  1.00  0.00     0.029 A 
ATOM     54  N   UNL A   1      42.500  27.888  31.373  1.00  0.00    -0.354 N 
ATOM     55  N   UNL A   1      41.544  29.588  33.573  1.00  0.00    -0.248 NA
ATOM     56  C   UNL A   1      41.719  30.340  35.775  1.00  0.00     0.031 C 
ATOM     57  C   UNL A   1      44.361  26.715  31.681  1.00  0.00     0.029 A 
ATOM     58  C   UNL A   1      43.489  27.597  32.298  1.00  0.00     0.049 A 
ATOM     59  H   UNL A   1      41.737  28.490  31.530  1.00  0.00     0.167 HD
ATOM     60  C   UNL A   1      42.664  29.013  34.162  1.00  0.00     0.074 A 
ATOM     61  C   UNL A   1      42.738  29.535  35.510  1.00  0.00     0.031 C 
ATOM     62  C   UNL A   1      43.550  28.133  33.634  1.00  0.00     0.037 A 
BRANCH  49  63
ATOM     63  C   UNL A   1      42.264  26.417  27.841  1.00  0.00     0.064 A 
ATOM     64  C   UNL A   1      41.697  25.152  27.625  1.00  0.00     0.173 A 
ATOM     65  C   UNL A   1      43.176  26.899  26.890  1.00  0.00     0.173 A 
ATOM     66  F   UNL A   1      40.832  24.640  28.514  1.00  0.00    -0.203 F 
ATOM     67  C   UNL A   1      42.047  24.391  26.513  1.00  0.00     0.198 A 
ATOM     68  C   UNL A   1      43.503  26.147  25.765  1.00  0.00     0.198 A 
ATOM     69  F   UNL A   1      43.745  28.103  27.048  1.00  0.00    -0.203 F 
ATOM     70  F   UNL A   1      41.527  23.165  26.350  1.00  0.00    -0.200 F 
ATOM     71  C   UNL A   1      42.944  24.891  25.581  1.00  0.00     0.200 A 
ATOM     72  F   UNL A   1      44.362  26.636  24.860  1.00  0.00    -0.200 F 
ATOM     73  F   UNL A   1      43.276  24.159  24.508  1.00  0.00    -0.200 F 
ENDBRANCH  49  63
BRANCH  50  74
ATOM     74  C   UNL A   1      39.359  32.064  35.557  1.00  0.00     0.064 A 
ATOM     75  C   UNL A   1      38.480  31.545  36.517  1.00  0.00     0.173 A 
ATOM     76  C   UNL A   1      39.801  33.384  35.723  1.00  0.00     0.173 A 
ATOM     77  F   UNL A   1      38.009  30.296  36.388  1.00  0.00    -0.203 F 
ATOM     78  C   UNL A   1      38.048  32.322  37.591  1.00  0.00     0.198 A 
ATOM     79  C   UNL A   1      39.390  34.151  36.811  1.00  0.00     0.198 A 
ATOM     80  F   UNL A   1      40.641  33.929  34.829  1.00  0.00    -0.203 F 
ATOM     81  F   UNL A   1      37.174  31.817  38.471  1.00  0.00    -0.200 F 
ATOM     82  C   UNL A   1      38.508  33.622  37.739  1.00  0.00     0.200 A 
ATOM     83  F   UNL A   1      39.846  35.402  36.956  1.00  0.00    -0.200 F 
ATOM     84  F   UNL A   1      38.095  34.367  38.774  1.00  0.00    -0.200 F 
ENDBRANCH  50  74
BRANCH  62  85
ATOM     85  C   UNL A   1      44.696  27.703  34.502  1.00  0.00     0.064 A 
ATOM     86  C   UNL A   1      45.891  28.435  34.558  1.00  0.00     0.173 A 
ATOM     87  C   UNL A   1      44.578  26.571  35.324  1.00  0.00     0.173 A 
ATOM     88  F   UNL A   1      46.057  29.516  33.782  1.00  0.00    -0.203 F 
ATOM     89  C   UNL A   1      46.935  28.035  35.390  1.00  0.00     0.198 A 
ATOM     90  C   UNL A   1      45.611  26.192  36.175  1.00  0.00     0.198 A 
ATOM     91  F   UNL A   1      43.451  25.843  35.313  1.00  0.00    -0.203 F 
ATOM     92  F   UNL A   1      48.084  28.725  35.396  1.00  0.00    -0.200 F 
ATOM     93  C   UNL A   1      46.791  26.921  36.202  1.00  0.00     0.200 A 
ATOM     94  F   UNL A   1      45.467  25.122  36.969  1.00  0.00    -0.200 F 
ATOM     95  F   UNL A   1      47.794  26.543  37.008  1.00  0.00    -0.200 F 
ENDBRANCH  62  85
ENDBRANCH  36  37
ENDBRANCH  29  31
ENDBRANCH  28  29
ENDBRANCH  27  28
ENDBRANCH  26  27
ENDBRANCH  25  26
ENDBRANCH   1  25
TORSDOF 18
ENDMDL
MODEL 3
REMARK VINA RESULT:     -11.5      4.112      6.023
REMARK SMILES [NH3+][C@]1(C(=O)OCCOCCOC(=O)c2ccc(-c3c4nc(c(-c5c(F)c(F)c(F)c(F)c5F)c5ccc([nH]5)c(-c5c(F)c(F)c(F)c(F)c5F)c5nc(c(-c6c(F)c(F)c(F)c(F)c6F)c6ccc3[nH]6)C=C5)C=C4)cc2)CC[N@H+](Cc2ccccc2O)C1
REMARK SMILES IDX 7 1 6 2 5 3 3 4 4 5 2 6 77 7 88 8 78 9 79 10 1 12 80 16
REMARK SMILES IDX 81 17 82 18 86 19 83 20 85 21 84 22 87 23 8 25 9 26 10 27
REMARK SMILES IDX 11 28 12 29 13 30 14 31 15 32 76 33 16 34 75 35 17 36 18 37
REMARK SMILES IDX 19 38 69 39 20 40 74 41 68 42 70 43 21 44 73 45 67 46 66 47
REMARK SMILES IDX 22 49 54 50 34 51 53 52 35 53 38 54 52 55 71 56 36 57 37 58
REMARK SMILES IDX 51 60 72 61 39 62 23 63 24 64 32 65 25 66 26 67 30 68 33 69
REMARK SMILES IDX 27 70 28 71 31 72 29 73 55 74 56 75 64 76 57 77 58 78 62 79
REMARK SMILES IDX 65 80 59 81 60 82 63 83 61 84 40 85 41 86 49 87 42 88 43 89
REMARK SMILES IDX 47 90 50 91 44 92 45 93 48 94 46 95
REMARK H PARENT 79 11 1 13 1 14 1 15 87 24 70 48 38 59
REMARK Flexibility Score: inf
ROOT
ATOM      1  C   UNL A   1      34.311  32.340  28.432  1.00  0.00     0.202 C 
ENDROOT
BRANCH   1   2
ATOM      2  C   UNL A   1      34.168  31.051  27.618  1.00  0.00     0.261 C 
BRANCH   2   3
ATOM      3  O   UNL A   1      32.805  30.759  27.248  1.00  0.00    -0.458 OA
BRANCH   3   4
ATOM      4  C   UNL A   1      32.579  29.453  26.916  1.00  0.00     0.374 C 
ATOM      5  O   UNL A   1      32.779  28.511  27.677  1.00  0.00    -0.244 OA
BRANCH   4   6
ATOM      6  C   UNL A   1      32.143  29.281  25.447  1.00  0.00     0.246 C 
ATOM      7  C   UNL A   1      33.389  29.058  24.590  1.00  0.00     0.148 C 
ATOM      8  C   UNL A   1      31.352  27.990  25.142  1.00  0.00     0.344 C 
ATOM      9  C   UNL A   1      32.868  28.364  23.350  1.00  0.00     0.270 C 
ATOM     10  N   UNL A   1      31.754  27.534  23.800  1.00  0.00    -0.325 N 
ATOM     11  H   UNL A   1      32.069  26.568  23.888  1.00  0.00     0.348 HD
BRANCH   6  12
ATOM     12  N   UNL A   1      31.394  30.481  24.997  1.00  0.00    -0.338 N 
ATOM     13  H   UNL A   1      32.039  31.264  24.888  1.00  0.00     0.345 HD
ATOM     14  H   UNL A   1      30.683  30.718  25.690  1.00  0.00     0.345 HD
ATOM     15  H   UNL A   1      30.944  30.285  24.103  1.00  0.00     0.345 HD
ENDBRANCH   6  12
BRANCH  10  16
ATOM     16  C   UNL A   1      30.686  27.315  22.820  1.00  0.00     0.303 C 
BRANCH  16  17
ATOM     17  C   UNL A   1      29.622  28.389  22.696  1.00  0.00     0.048 A 
ATOM     18  C   UNL A   1      28.313  28.085  23.122  1.00  0.00     0.013 A 
ATOM     19  C   UNL A   1      29.856  29.683  22.207  1.00  0.00     0.124 A 
ATOM     20  C   UNL A   1      27.307  29.054  23.133  1.00  0.00     0.001 A 
ATOM     21  C   UNL A   1      28.866  30.664  22.260  1.00  0.00     0.046 A 
ATOM     22  C   UNL A   1      27.592  30.354  22.729  1.00  0.00     0.004 A 
BRANCH  19  23
ATOM     23  O   UNL A   1      31.028  30.079  21.626  1.00  0.00    -0.507 OA
ATOM     24  H   UNL A   1      31.215  29.841  20.740  1.00  0.00     0.293 HD
ENDBRANCH  19  23
ENDBRANCH  16  17
ENDBRANCH  10  16
ENDBRANCH   4   6
ENDBRANCH   3   4
ENDBRANCH   2   3
ENDBRANCH   1   2
BRANCH   1  25
ATOM     25  O   UNL A   1      33.603  33.489  27.974  1.00  0.00    -0.374 OA
BRANCH  25  26
ATOM     26  C   UNL A   1      34.068  34.756  28.435  1.00  0.00     0.202 C 
BRANCH  26  27
ATOM     27  C   UNL A   1      33.067  35.631  29.196  1.00  0.00     0.261 C 
BRANCH  27  28
ATOM     28  O   UNL A   1      32.547  34.951  30.353  1.00  0.00    -0.460 OA
BRANCH  28  29
ATOM     29  C   UNL A   1      32.787  35.579  31.527  1.00  0.00     0.338 C 
ATOM     30  O   UNL A   1      32.110  36.451  32.054  1.00  0.00    -0.246 OA
BRANCH  29  31
ATOM     31  C   UNL A   1      33.911  34.932  32.227  1.00  0.00     0.060 A 
ATOM     32  C   UNL A   1      35.154  35.574  32.166  1.00  0.00     0.016 A 
ATOM     33  C   UNL A   1      33.777  33.700  32.872  1.00  0.00     0.016 A 
ATOM     34  C   UNL A   1      36.285  34.958  32.693  1.00  0.00     0.010 A 
ATOM     35  C   UNL A   1      34.917  33.075  33.390  1.00  0.00     0.010 A 
ATOM     36  C   UNL A   1      36.179  33.683  33.262  1.00  0.00    -0.014 A 
BRANCH  36  37
ATOM     37  C   UNL A   1      37.417  32.920  33.550  1.00  0.00     0.031 A 
ATOM     38  C   UNL A   1      38.137  33.180  34.843  1.00  0.00     0.074 A 
ATOM     39  C   UNL A   1      37.862  31.979  32.700  1.00  0.00     0.049 A 
ATOM     40  N   UNL A   1      39.238  32.644  35.306  1.00  0.00    -0.248 NA
ATOM     41  C   UNL A   1      37.533  34.179  35.740  1.00  0.00     0.031 C 
ATOM     42  C   UNL A   1      37.220  31.607  31.442  1.00  0.00     0.029 A 
ATOM     43  N   UNL A   1      38.962  31.163  32.774  1.00  0.00    -0.354 N 
ATOM     44  C   UNL A   1      39.458  33.242  36.540  1.00  0.00     0.074 A 
ATOM     45  C   UNL A   1      38.397  34.203  36.743  1.00  0.00     0.031 C 
ATOM     46  C   UNL A   1      37.945  30.641  30.852  1.00  0.00     0.029 A 
ATOM     47  C   UNL A   1      39.115  30.347  31.680  1.00  0.00     0.049 A 
ATOM     48  H   UNL A   1      39.583  31.162  33.538  1.00  0.00     0.167 HD
ATOM     49  C   UNL A   1      40.452  33.003  37.428  1.00  0.00     0.037 A 
ATOM     50  C   UNL A   1      40.100  29.480  31.378  1.00  0.00     0.037 A 
ATOM     51  C   UNL A   1      41.505  32.045  37.222  1.00  0.00     0.049 A 
ATOM     52  C   UNL A   1      41.234  29.283  32.351  1.00  0.00     0.074 A 
ATOM     53  C   UNL A   1      42.550  31.716  38.067  1.00  0.00     0.029 A 
ATOM     54  N   UNL A   1      41.647  31.264  36.084  1.00  0.00    -0.354 N 
ATOM     55  N   UNL A   1      41.424  29.835  33.524  1.00  0.00    -0.248 NA
ATOM     56  C   UNL A   1      42.289  28.339  31.956  1.00  0.00     0.031 C 
ATOM     57  C   UNL A   1      43.352  30.770  37.420  1.00  0.00     0.029 A 
ATOM     58  C   UNL A   1      42.779  30.472  36.194  1.00  0.00     0.049 A 
ATOM     59  H   UNL A   1      41.034  31.271  35.314  1.00  0.00     0.167 HD
ATOM     60  C   UNL A   1      42.601  29.289  34.020  1.00  0.00     0.074 A 
ATOM     61  C   UNL A   1      43.076  28.352  33.023  1.00  0.00     0.031 C 
ATOM     62  C   UNL A   1      43.232  29.539  35.193  1.00  0.00     0.037 A 
BRANCH  49  63
ATOM     63  C   UNL A   1      40.461  33.813  38.690  1.00  0.00     0.064 A 
ATOM     64  C   UNL A   1      39.726  33.425  39.821  1.00  0.00     0.173 A 
ATOM     65  C   UNL A   1      41.238  34.978  38.779  1.00  0.00     0.173 A 
ATOM     66  F   UNL A   1      38.955  32.329  39.780  1.00  0.00    -0.203 F 
ATOM     67  C   UNL A   1      39.751  34.188  40.986  1.00  0.00     0.198 A 
ATOM     68  C   UNL A   1      41.282  35.722  39.954  1.00  0.00     0.198 A 
ATOM     69  F   UNL A   1      41.961  35.391  37.727  1.00  0.00    -0.203 F 
ATOM     70  F   UNL A   1      39.006  33.823  42.039  1.00  0.00    -0.200 F 
ATOM     71  C   UNL A   1      40.533  35.330  41.054  1.00  0.00     0.200 A 
ATOM     72  F   UNL A   1      42.046  36.821  40.022  1.00  0.00    -0.200 F 
ATOM     73  F   UNL A   1      40.561  36.060  42.179  1.00  0.00    -0.200 F 
ENDBRANCH  49  63
BRANCH  50  74
ATOM     74  C   UNL A   1      40.065  28.738  30.090  1.00  0.00     0.064 A 
ATOM     75  C   UNL A   1      39.457  27.480  29.995  1.00  0.00     0.173 A 
ATOM     76  C   UNL A   1      40.653  29.268  28.933  1.00  0.00     0.173 A 
ATOM     77  F   UNL A   1      38.903  26.919  31.080  1.00  0.00    -0.203 F 
ATOM     78  C   UNL A   1      39.451  26.773  28.794  1.00  0.00     0.198 A 
ATOM     79  C   UNL A   1      40.623  28.573  27.726  1.00  0.00     0.198 A 
ATOM     80  F   UNL A   1      41.251  30.469  28.972  1.00  0.00    -0.203 F 
ATOM     81  F   UNL A   1      38.901  25.552  28.740  1.00  0.00    -0.200 F 
ATOM     82  C   UNL A   1      40.029  27.322  27.659  1.00  0.00     0.200 A 
ATOM     83  F   UNL A   1      41.173  29.113  26.631  1.00  0.00    -0.200 F 
ATOM     84  F   UNL A   1      40.021  26.644  26.504  1.00  0.00    -0.200 F 
ENDBRANCH  50  74
BRANCH  62  85
ATOM     85  C   UNL A   1      44.486  28.768  35.481  1.00  0.00     0.064 A 
ATOM     86  C   UNL A   1      44.451  27.519  36.120  1.00  0.00     0.173 A 
ATOM     87  C   UNL A   1      45.733  29.263  35.072  1.00  0.00     0.173 A 
ATOM     88  F   UNL A   1      43.284  27.011  36.543  1.00  0.00    -0.203 F 
ATOM     89  C   UNL A   1      45.623  26.805  36.356  1.00  0.00     0.198 A 
ATOM     90  C   UNL A   1      46.899  28.532  35.283  1.00  0.00     0.198 A 
ATOM     91  F   UNL A   1      45.819  30.449  34.450  1.00  0.00    -0.203 F 
ATOM     92  F   UNL A   1      45.570  25.633  37.005  1.00  0.00    -0.200 F 
ATOM     93  C   UNL A   1      46.843  27.307  35.931  1.00  0.00     0.200 A 
ATOM     94  F   UNL A   1      48.076  29.013  34.861  1.00  0.00    -0.200 F 
ATOM     95  F   UNL A   1      47.969  26.613  36.152  1.00  0.00    -0.200 F 
ENDBRANCH  62  85
ENDBRANCH  36  37
ENDBRANCH  29  31
ENDBRANCH  28  29
ENDBRANCH  27  28
ENDBRANCH  26  27
ENDBRANCH  25  26
ENDBRANCH   1  25
TORSDOF 18
ENDMDL
