MODEL 1
REMARK VINA RESULT:     -13.0      0.000      0.000
REMARK SMILES COc1ccc(-c2cc(Cl)cc3c2O[C@@H](C(F)(F)F)C(C(=O)OCCOCCOC(=O)c2ccc(-c4c5nc(c(-c6c(F)c(F)c(F)c(F)c6F)c6ccc([nH]6)c(-c6c(F)c(F)c(F)c(F)c6F)c6nc(c(-c7c(F)c(F)c(F)c(F)c7F)c7ccc4[nH]7)C=C6)C=C5)cc2)=C3)cc1C
REMARK SMILES IDX 26 1 25 2 24 3 23 4 21 5 22 6 20 7 7 8 8 9 13 10 9 11 12 12
REMARK SMILES IDX 14 13 10 14 11 15 95 16 15 17 6 18 3 19 4 20 97 21 5 22
REMARK SMILES IDX 96 23 98 24 2 25 1 26 16 27 17 28 18 29 19 30 27 31 28 32
REMARK SMILES IDX 29 33 30 34 31 35 32 36 33 37 94 38 34 39 93 40 35 41 36 42
REMARK SMILES IDX 37 43 87 44 38 45 92 46 86 47 88 48 39 49 91 50 85 51 84 52
REMARK SMILES IDX 40 54 72 55 52 56 71 57 53 58 56 59 70 60 89 61 54 62 55 63
REMARK SMILES IDX 69 65 90 66 57 67 41 68 42 69 50 70 43 71 44 72 48 73 51 74
REMARK SMILES IDX 45 75 46 76 49 77 47 78 73 79 74 80 82 81 75 82 76 83 80 84
REMARK SMILES IDX 83 85 77 86 78 87 81 88 79 89 58 90 59 91 67 92 60 93 61 94
REMARK SMILES IDX 65 95 68 96 62 97 63 98 66 99 64 100
REMARK H PARENT 88 53 56 64
REMARK Flexibility Score: inf
ROOT
ATOM      1  O   UNL A   1      32.807  27.406  23.439  1.00  0.00    -0.374 OA
ENDROOT
BRANCH   1   2
ATOM      2  C   UNL A   1      33.625  27.062  22.339  1.00  0.00     0.202 C 
BRANCH   2   3
ATOM      3  C   UNL A   1      33.314  25.638  21.973  1.00  0.00     0.261 C 
BRANCH   3   4
ATOM      4  O   UNL A   1      33.921  24.616  22.805  1.00  0.00    -0.460 OA
BRANCH   4   5
ATOM      5  C   UNL A   1      33.427  24.257  24.024  1.00  0.00     0.338 C 
ATOM      6  O   UNL A   1      33.850  24.576  25.118  1.00  0.00    -0.246 OA
BRANCH   5   7
ATOM      7  C   UNL A   1      32.087  23.567  23.804  1.00  0.00     0.087 C 
ATOM      8  C   UNL A   1      34.354  20.509  25.116  1.00  0.00     0.026 A 
ATOM      9  C   UNL A   1      34.119  19.212  24.594  1.00  0.00     0.033 A 
ATOM     10  C   UNL A   1      33.303  21.442  24.902  1.00  0.00     0.135 A 
ATOM     11  C   UNL A   1      33.054  18.933  23.741  1.00  0.00     0.042 A 
ATOM     12  C   UNL A   1      32.491  21.248  23.751  1.00  0.00     0.019 A 
ATOM     13  O   UNL A   1      32.895  22.505  25.782  1.00  0.00    -0.475 OA
ATOM     14  Cl  UNL A   1      32.827  17.333  23.156  1.00  0.00    -0.084 Cl
ATOM     15  C   UNL A   1      32.280  19.969  23.248  1.00  0.00     0.032 A 
ATOM     16  C   UNL A   1      31.916  22.447  23.072  1.00  0.00     0.027 C 
ATOM     17  C   UNL A   1      31.693  23.243  25.228  1.00  0.00     0.316 C 
BRANCH   8  18
ATOM     18  C   UNL A   1      35.831  20.758  25.370  1.00  0.00    -0.014 A 
ATOM     19  C   UNL A   1      38.608  21.527  25.637  1.00  0.00     0.121 A 
ATOM     20  C   UNL A   1      38.228  20.316  25.055  1.00  0.00     0.047 A 
ATOM     21  C   UNL A   1      37.616  22.460  25.905  1.00  0.00    -0.008 A 
ATOM     22  C   UNL A   1      36.863  19.952  24.897  1.00  0.00     0.013 A 
ATOM     23  C   UNL A   1      36.256  22.036  25.870  1.00  0.00     0.016 A 
ATOM     24  C   UNL A   1      37.971  23.914  26.060  1.00  0.00     0.048 C 
BRANCH  19  25
ATOM     25  O   UNL A   1      39.951  21.777  25.767  1.00  0.00    -0.496 OA
ATOM     26  C   UNL A   1      40.521  21.291  26.990  1.00  0.00     0.278 C 
ENDBRANCH  19  25
ENDBRANCH   8  18
BRANCH  17  27
ATOM     27  C   UNL A   1      30.992  24.518  25.813  1.00  0.00     0.430 C 
ATOM     28  F   UNL A   1      30.760  25.464  24.851  1.00  0.00    -0.167 F 
ATOM     29  F   UNL A   1      29.752  24.209  26.276  1.00  0.00    -0.167 F 
ATOM     30  F   UNL A   1      31.631  25.127  26.818  1.00  0.00    -0.167 F 
ENDBRANCH  17  27
ENDBRANCH   5   7
ENDBRANCH   4   5
ENDBRANCH   3   4
ENDBRANCH   2   3
ENDBRANCH   1   2
BRANCH   1  31
ATOM     31  C   UNL A   1      33.418  28.298  24.357  1.00  0.00     0.202 C 
BRANCH  31  32
ATOM     32  C   UNL A   1      33.203  27.907  25.827  1.00  0.00     0.261 C 
BRANCH  32  33
ATOM     33  O   UNL A   1      34.368  28.266  26.605  1.00  0.00    -0.460 OA
BRANCH  33  34
ATOM     34  C   UNL A   1      34.218  29.293  27.490  1.00  0.00     0.338 C 
ATOM     35  O   UNL A   1      33.180  29.918  27.669  1.00  0.00    -0.246 OA
BRANCH  34  36
ATOM     36  C   UNL A   1      35.552  29.726  28.022  1.00  0.00     0.060 A 
ATOM     37  C   UNL A   1      36.638  30.039  27.189  1.00  0.00     0.016 A 
ATOM     38  C   UNL A   1      35.803  29.533  29.366  1.00  0.00     0.016 A 
ATOM     39  C   UNL A   1      37.967  30.005  27.690  1.00  0.00     0.010 A 
ATOM     40  C   UNL A   1      37.098  29.461  29.846  1.00  0.00     0.010 A 
ATOM     41  C   UNL A   1      38.209  29.630  29.012  1.00  0.00    -0.014 A 
BRANCH  41  42
ATOM     42  C   UNL A   1      39.488  29.205  29.642  1.00  0.00     0.031 A 
ATOM     43  C   UNL A   1      40.133  27.949  29.160  1.00  0.00     0.074 A 
ATOM     44  C   UNL A   1      40.290  30.104  30.280  1.00  0.00     0.049 A 
ATOM     45  N   UNL A   1      41.333  27.596  29.458  1.00  0.00    -0.248 NA
ATOM     46  C   UNL A   1      39.472  26.954  28.324  1.00  0.00     0.031 C 
ATOM     47  C   UNL A   1      41.767  30.137  30.301  1.00  0.00     0.029 A 
ATOM     48  N   UNL A   1      39.981  31.305  30.932  1.00  0.00    -0.354 N 
ATOM     49  C   UNL A   1      41.711  26.547  28.665  1.00  0.00     0.074 A 
ATOM     50  C   UNL A   1      40.479  26.105  28.071  1.00  0.00     0.031 C 
ATOM     51  C   UNL A   1      42.203  31.115  31.110  1.00  0.00     0.029 A 
ATOM     52  C   UNL A   1      41.044  31.618  31.808  1.00  0.00     0.049 A 
ATOM     53  H   UNL A   1      39.164  31.838  30.802  1.00  0.00     0.167 HD
ATOM     54  C   UNL A   1      43.042  26.244  28.599  1.00  0.00     0.037 A 
ATOM     55  C   UNL A   1      40.805  31.615  33.147  1.00  0.00     0.037 A 
ATOM     56  C   UNL A   1      43.774  26.961  29.658  1.00  0.00     0.049 A 
ATOM     57  C   UNL A   1      41.475  30.411  33.763  1.00  0.00     0.074 A 
ATOM     58  C   UNL A   1      44.684  27.999  29.747  1.00  0.00     0.029 A 
ATOM     59  N   UNL A   1      43.337  26.744  30.954  1.00  0.00    -0.354 N 
ATOM     60  N   UNL A   1      42.259  29.624  33.075  1.00  0.00    -0.248 NA
ATOM     61  C   UNL A   1      41.334  29.950  35.135  1.00  0.00     0.031 C 
ATOM     62  C   UNL A   1      44.711  28.436  31.121  1.00  0.00     0.029 A 
ATOM     63  C   UNL A   1      43.849  27.642  31.863  1.00  0.00     0.049 A 
ATOM     64  H   UNL A   1      42.721  26.017  31.201  1.00  0.00     0.167 HD
ATOM     65  C   UNL A   1      42.641  28.551  33.798  1.00  0.00     0.074 A 
ATOM     66  C   UNL A   1      42.038  28.800  35.102  1.00  0.00     0.031 C 
ATOM     67  C   UNL A   1      43.393  27.549  33.253  1.00  0.00     0.037 A 
BRANCH  54  68
ATOM     68  C   UNL A   1      43.725  25.318  27.610  1.00  0.00     0.064 A 
ATOM     69  C   UNL A   1      43.452  23.931  27.626  1.00  0.00     0.173 A 
ATOM     70  C   UNL A   1      44.697  25.701  26.664  1.00  0.00     0.173 A 
ATOM     71  F   UNL A   1      42.552  23.410  28.471  1.00  0.00    -0.203 F 
ATOM     72  C   UNL A   1      44.097  23.021  26.777  1.00  0.00     0.198 A 
ATOM     73  C   UNL A   1      45.324  24.797  25.798  1.00  0.00     0.198 A 
ATOM     74  F   UNL A   1      45.104  26.964  26.546  1.00  0.00    -0.203 F 
ATOM     75  F   UNL A   1      43.806  21.715  26.860  1.00  0.00    -0.200 F 
ATOM     76  C   UNL A   1      45.029  23.455  25.859  1.00  0.00     0.200 A 
ATOM     77  F   UNL A   1      46.226  25.246  24.912  1.00  0.00    -0.200 F 
ATOM     78  F   UNL A   1      45.642  22.587  25.042  1.00  0.00    -0.200 F 
ENDBRANCH  54  68
BRANCH  55  79
ATOM     79  C   UNL A   1      39.480  32.280  33.393  1.00  0.00     0.064 A 
ATOM     80  C   UNL A   1      39.385  33.610  32.905  1.00  0.00     0.173 A 
ATOM     81  C   UNL A   1      38.290  31.532  33.417  1.00  0.00     0.173 A 
ATOM     82  F   UNL A   1      40.489  34.372  32.833  1.00  0.00    -0.203 F 
ATOM     83  C   UNL A   1      38.226  34.083  32.285  1.00  0.00     0.198 A 
ATOM     84  C   UNL A   1      37.124  32.023  32.809  1.00  0.00     0.198 A 
ATOM     85  F   UNL A   1      38.305  30.257  33.833  1.00  0.00    -0.203 F 
ATOM     86  F   UNL A   1      38.238  35.266  31.651  1.00  0.00    -0.200 F 
ATOM     87  C   UNL A   1      37.111  33.269  32.196  1.00  0.00     0.200 A 
ATOM     88  F   UNL A   1      36.041  31.238  32.704  1.00  0.00    -0.200 F 
ATOM     89  F   UNL A   1      36.059  33.652  31.458  1.00  0.00    -0.200 F 
ENDBRANCH  55  79
BRANCH  67  90
ATOM     90  C   UNL A   1      43.709  26.333  34.055  1.00  0.00     0.064 A 
ATOM     91  C   UNL A   1      42.692  25.570  34.635  1.00  0.00     0.173 A 
ATOM     92  C   UNL A   1      45.034  25.918  34.297  1.00  0.00     0.173 A 
ATOM     93  F   UNL A   1      41.408  25.941  34.517  1.00  0.00    -0.203 F 
ATOM     94  C   UNL A   1      42.977  24.401  35.332  1.00  0.00     0.198 A 
ATOM     95  C   UNL A   1      45.319  24.797  35.065  1.00  0.00     0.198 A 
ATOM     96  F   UNL A   1      46.087  26.552  33.760  1.00  0.00    -0.203 F 
ATOM     97  F   UNL A   1      41.972  23.633  35.772  1.00  0.00    -0.200 F 
ATOM     98  C   UNL A   1      44.289  24.019  35.553  1.00  0.00     0.200 A 
ATOM     99  F   UNL A   1      46.596  24.464  35.302  1.00  0.00    -0.200 F 
ATOM    100  F   UNL A   1      44.562  22.894  36.224  1.00  0.00    -0.200 F 
ENDBRANCH  67  90
ENDBRANCH  41  42
ENDBRANCH  34  36
ENDBRANCH  33  34
ENDBRANCH  32  33
ENDBRANCH  31  32
ENDBRANCH   1  31
TORSDOF 17
ENDMDL
MODEL 2
REMARK VINA RESULT:     -13.0      0.873      2.105
REMARK SMILES COc1ccc(-c2cc(Cl)cc3c2O[C@@H](C(F)(F)F)C(C(=O)OCCOCCOC(=O)c2ccc(-c4c5nc(c(-c6c(F)c(F)c(F)c(F)c6F)c6ccc([nH]6)c(-c6c(F)c(F)c(F)c(F)c6F)c6nc(c(-c7c(F)c(F)c(F)c(F)c7F)c7ccc4[nH]7)C=C6)C=C5)cc2)=C3)cc1C
REMARK SMILES IDX 26 1 25 2 24 3 23 4 21 5 22 6 20 7 7 8 8 9 13 10 9 11 12 12
REMARK SMILES IDX 14 13 10 14 11 15 95 16 15 17 6 18 3 19 4 20 97 21 5 22
REMARK SMILES IDX 96 23 98 24 2 25 1 26 16 27 17 28 18 29 19 30 27 31 28 32
REMARK SMILES IDX 29 33 30 34 31 35 32 36 33 37 94 38 34 39 93 40 35 41 36 42
REMARK SMILES IDX 37 43 87 44 38 45 92 46 86 47 88 48 39 49 91 50 85 51 84 52
REMARK SMILES IDX 40 54 72 55 52 56 71 57 53 58 56 59 70 60 89 61 54 62 55 63
REMARK SMILES IDX 69 65 90 66 57 67 41 68 42 69 50 70 43 71 44 72 48 73 51 74
REMARK SMILES IDX 45 75 46 76 49 77 47 78 73 79 74 80 82 81 75 82 76 83 80 84
REMARK SMILES IDX 83 85 77 86 78 87 81 88 79 89 58 90 59 91 67 92 60 93 61 94
REMARK SMILES IDX 65 95 68 96 62 97 63 98 66 99 64 100
REMARK H PARENT 88 53 56 64
REMARK Flexibility Score: inf
ROOT
ATOM      1  O   UNL A   1      32.909  27.814  23.478  1.00  0.00    -0.374 OA
ENDROOT
BRANCH   1   2
ATOM      2  C   UNL A   1      33.664  27.416  22.351  1.00  0.00     0.202 C 
BRANCH   2   3
ATOM      3  C   UNL A   1      33.278  26.001  22.026  1.00  0.00     0.261 C 
BRANCH   3   4
ATOM      4  O   UNL A   1      33.937  24.965  22.798  1.00  0.00    -0.460 OA
BRANCH   4   5
ATOM      5  C   UNL A   1      33.465  24.513  23.995  1.00  0.00     0.338 C 
ATOM      6  O   UNL A   1      33.926  24.725  25.100  1.00  0.00    -0.246 OA
BRANCH   5   7
ATOM      7  C   UNL A   1      32.100  23.881  23.755  1.00  0.00     0.087 C 
ATOM      8  C   UNL A   1      34.217  20.729  25.096  1.00  0.00     0.026 A 
ATOM      9  C   UNL A   1      33.935  19.444  24.569  1.00  0.00     0.033 A 
ATOM     10  C   UNL A   1      33.210  21.706  24.867  1.00  0.00     0.135 A 
ATOM     11  C   UNL A   1      32.872  19.210  23.700  1.00  0.00     0.042 A 
ATOM     12  C   UNL A   1      32.407  21.547  23.704  1.00  0.00     0.019 A 
ATOM     13  O   UNL A   1      32.834  22.784  25.743  1.00  0.00    -0.475 OA
ATOM     14  Cl  UNL A   1      32.586  17.622  23.110  1.00  0.00    -0.084 Cl
ATOM     15  C   UNL A   1      32.150  20.278  23.197  1.00  0.00     0.032 A 
ATOM     16  C   UNL A   1      31.893  22.769  23.019  1.00  0.00     0.027 C 
ATOM     17  C   UNL A   1      31.672  23.573  25.173  1.00  0.00     0.316 C 
BRANCH   8  18
ATOM     18  C   UNL A   1      35.700  20.916  25.372  1.00  0.00    -0.014 A 
ATOM     19  C   UNL A   1      38.505  21.560  25.671  1.00  0.00     0.121 A 
ATOM     20  C   UNL A   1      38.078  20.353  25.115  1.00  0.00     0.047 A 
ATOM     21  C   UNL A   1      37.553  22.545  25.897  1.00  0.00    -0.008 A 
ATOM     22  C   UNL A   1      36.700  20.049  24.939  1.00  0.00     0.013 A 
ATOM     23  C   UNL A   1      36.176  22.184  25.846  1.00  0.00     0.016 A 
ATOM     24  C   UNL A   1      37.973  23.985  26.021  1.00  0.00     0.048 C 
BRANCH  19  25
ATOM     25  O   UNL A   1      39.856  21.751  25.821  1.00  0.00    -0.496 OA
ATOM     26  C   UNL A   1      40.528  20.675  26.490  1.00  0.00     0.278 C 
ENDBRANCH  19  25
ENDBRANCH   8  18
BRANCH  17  27
ATOM     27  C   UNL A   1      31.017  24.876  25.748  1.00  0.00     0.430 C 
ATOM     28  F   UNL A   1      31.784  25.448  26.728  1.00  0.00    -0.167 F 
ATOM     29  F   UNL A   1      30.943  25.834  24.788  1.00  0.00    -0.167 F 
ATOM     30  F   UNL A   1      29.782  24.739  26.244  1.00  0.00    -0.167 F 
ENDBRANCH  17  27
ENDBRANCH   5   7
ENDBRANCH   4   5
ENDBRANCH   3   4
ENDBRANCH   2   3
ENDBRANCH   1   2
BRANCH   1  31
ATOM     31  C   UNL A   1      33.651  28.540  24.444  1.00  0.00     0.202 C 
BRANCH  31  32
ATOM     32  C   UNL A   1      33.314  28.151  25.892  1.00  0.00     0.261 C 
BRANCH  32  33
ATOM     33  O   UNL A   1      34.458  28.398  26.744  1.00  0.00    -0.460 OA
BRANCH  33  34
ATOM     34  C   UNL A   1      34.369  29.462  27.593  1.00  0.00     0.338 C 
ATOM     35  O   UNL A   1      33.364  30.141  27.761  1.00  0.00    -0.246 OA
BRANCH  34  36
ATOM     36  C   UNL A   1      35.729  29.848  28.094  1.00  0.00     0.060 A 
ATOM     37  C   UNL A   1      36.805  30.125  27.237  1.00  0.00     0.016 A 
ATOM     38  C   UNL A   1      36.004  29.645  29.432  1.00  0.00     0.016 A 
ATOM     39  C   UNL A   1      38.143  30.045  27.706  1.00  0.00     0.010 A 
ATOM     40  C   UNL A   1      37.306  29.528  29.882  1.00  0.00     0.010 A 
ATOM     41  C   UNL A   1      38.403  29.660  29.023  1.00  0.00    -0.014 A 
BRANCH  41  42
ATOM     42  C   UNL A   1      39.681  29.191  29.622  1.00  0.00     0.031 A 
ATOM     43  C   UNL A   1      40.211  27.860  29.209  1.00  0.00     0.074 A 
ATOM     44  C   UNL A   1      40.576  30.074  30.150  1.00  0.00     0.049 A 
ATOM     45  N   UNL A   1      41.398  27.443  29.476  1.00  0.00    -0.248 NA
ATOM     46  C   UNL A   1      39.440  26.856  28.485  1.00  0.00     0.031 C 
ATOM     47  C   UNL A   1      42.050  30.001  30.099  1.00  0.00     0.029 A 
ATOM     48  N   UNL A   1      40.385  31.339  30.721  1.00  0.00    -0.354 N 
ATOM     49  C   UNL A   1      41.661  26.313  28.750  1.00  0.00     0.074 A 
ATOM     50  C   UNL A   1      40.372  25.920  28.251  1.00  0.00     0.031 C 
ATOM     51  C   UNL A   1      42.595  31.002  30.808  1.00  0.00     0.029 A 
ATOM     52  C   UNL A   1      41.511  31.638  31.519  1.00  0.00     0.049 A 
ATOM     53  H   UNL A   1      39.600  31.919  30.589  1.00  0.00     0.167 HD
ATOM     54  C   UNL A   1      42.963  25.911  28.646  1.00  0.00     0.037 A 
ATOM     55  C   UNL A   1      41.343  31.751  32.864  1.00  0.00     0.037 A 
ATOM     56  C   UNL A   1      43.797  26.649  29.610  1.00  0.00     0.049 A 
ATOM     57  C   UNL A   1      41.959  30.550  33.539  1.00  0.00     0.074 A 
ATOM     58  C   UNL A   1      44.780  27.622  29.575  1.00  0.00     0.029 A 
ATOM     59  N   UNL A   1      43.415  26.561  30.938  1.00  0.00    -0.354 N 
ATOM     60  N   UNL A   1      42.651  29.660  32.879  1.00  0.00    -0.248 NA
ATOM     61  C   UNL A   1      41.859  30.204  34.948  1.00  0.00     0.031 C 
ATOM     62  C   UNL A   1      44.909  28.156  30.909  1.00  0.00     0.029 A 
ATOM     63  C   UNL A   1      44.034  27.483  31.750  1.00  0.00     0.049 A 
ATOM     64  H   UNL A   1      42.764  25.901  31.270  1.00  0.00     0.167 HD
ATOM     65  C   UNL A   1      42.995  28.619  33.664  1.00  0.00     0.074 A 
ATOM     66  C   UNL A   1      42.480  29.006  34.971  1.00  0.00     0.031 C 
ATOM     67  C   UNL A   1      43.647  27.527  33.163  1.00  0.00     0.037 A 
BRANCH  54  68
ATOM     68  C   UNL A   1      43.527  24.866  27.701  1.00  0.00     0.064 A 
ATOM     69  C   UNL A   1      44.383  25.249  26.643  1.00  0.00     0.173 A 
ATOM     70  C   UNL A   1      43.230  23.489  27.729  1.00  0.00     0.173 A 
ATOM     71  F   UNL A   1      44.758  26.525  26.480  1.00  0.00    -0.203 F 
ATOM     72  C   UNL A   1      44.886  24.336  25.705  1.00  0.00     0.198 A 
ATOM     73  C   UNL A   1      43.750  22.572  26.808  1.00  0.00     0.198 A 
ATOM     74  F   UNL A   1      42.404  22.966  28.634  1.00  0.00    -0.203 F 
ATOM     75  F   UNL A   1      45.676  24.770  24.713  1.00  0.00    -0.200 F 
ATOM     76  C   UNL A   1      44.574  22.996  25.791  1.00  0.00     0.200 A 
ATOM     77  F   UNL A   1      43.433  21.273  26.916  1.00  0.00    -0.200 F 
ATOM     78  F   UNL A   1      45.058  22.121  24.899  1.00  0.00    -0.200 F 
ENDBRANCH  54  68
BRANCH  55  79
ATOM     79  C   UNL A   1      40.081  32.527  33.120  1.00  0.00     0.064 A 
ATOM     80  C   UNL A   1      39.038  31.778  33.724  1.00  0.00     0.173 A 
ATOM     81  C   UNL A   1      40.126  33.900  33.420  1.00  0.00     0.173 A 
ATOM     82  F   UNL A   1      38.951  30.456  33.499  1.00  0.00    -0.203 F 
ATOM     83  C   UNL A   1      38.230  32.322  34.726  1.00  0.00     0.198 A 
ATOM     84  C   UNL A   1      39.296  34.442  34.415  1.00  0.00     0.198 A 
ATOM     85  F   UNL A   1      41.102  34.668  32.915  1.00  0.00    -0.203 F 
ATOM     86  F   UNL A   1      37.397  31.530  35.420  1.00  0.00    -0.200 F 
ATOM     87  C   UNL A   1      38.394  33.642  35.103  1.00  0.00     0.200 A 
ATOM     88  F   UNL A   1      39.456  35.717  34.799  1.00  0.00    -0.200 F 
ATOM     89  F   UNL A   1      37.742  34.119  36.173  1.00  0.00    -0.200 F 
ENDBRANCH  55  79
BRANCH  67  90
ATOM     90  C   UNL A   1      43.920  26.353  34.040  1.00  0.00     0.064 A 
ATOM     91  C   UNL A   1      45.230  25.959  34.326  1.00  0.00     0.173 A 
ATOM     92  C   UNL A   1      42.884  25.568  34.587  1.00  0.00     0.173 A 
ATOM     93  F   UNL A   1      46.272  26.605  33.781  1.00  0.00    -0.203 F 
ATOM     94  C   UNL A   1      45.491  24.903  35.193  1.00  0.00     0.198 A 
ATOM     95  C   UNL A   1      43.149  24.463  35.383  1.00  0.00     0.198 A 
ATOM     96  F   UNL A   1      41.591  25.875  34.409  1.00  0.00    -0.203 F 
ATOM     97  F   UNL A   1      46.756  24.629  35.537  1.00  0.00    -0.200 F 
ATOM     98  C   UNL A   1      44.452  24.151  35.714  1.00  0.00     0.200 A 
ATOM     99  F   UNL A   1      42.133  23.723  35.849  1.00  0.00    -0.200 F 
ATOM    100  F   UNL A   1      44.705  23.136  36.548  1.00  0.00    -0.200 F 
ENDBRANCH  67  90
ENDBRANCH  41  42
ENDBRANCH  34  36
ENDBRANCH  33  34
ENDBRANCH  32  33
ENDBRANCH  31  32
ENDBRANCH   1  31
TORSDOF 17
ENDMDL
MODEL 3
REMARK VINA RESULT:     -12.9      3.193      9.440
REMARK SMILES COc1ccc(-c2cc(Cl)cc3c2O[C@@H](C(F)(F)F)C(C(=O)OCCOCCOC(=O)c2ccc(-c4c5nc(c(-c6c(F)c(F)c(F)c(F)c6F)c6ccc([nH]6)c(-c6c(F)c(F)c(F)c(F)c6F)c6nc(c(-c7c(F)c(F)c(F)c(F)c7F)c7ccc4[nH]7)C=C6)C=C5)cc2)=C3)cc1C
REMARK SMILES IDX 26 1 25 2 24 3 23 4 21 5 22 6 20 7 7 8 8 9 13 10 9 11 12 12
REMARK SMILES IDX 14 13 10 14 11 15 95 16 15 17 6 18 3 19 4 20 97 21 5 22
REMARK SMILES IDX 96 23 98 24 2 25 1 26 16 27 17 28 18 29 19 30 27 31 28 32
REMARK SMILES IDX 29 33 30 34 31 35 32 36 33 37 94 38 34 39 93 40 35 41 36 42
REMARK SMILES IDX 37 43 87 44 38 45 92 46 86 47 88 48 39 49 91 50 85 51 84 52
REMARK SMILES IDX 40 54 72 55 52 56 71 57 53 58 56 59 70 60 89 61 54 62 55 63
REMARK SMILES IDX 69 65 90 66 57 67 41 68 42 69 50 70 43 71 44 72 48 73 51 74
REMARK SMILES IDX 45 75 46 76 49 77 47 78 73 79 74 80 82 81 75 82 76 83 80 84
REMARK SMILES IDX 83 85 77 86 78 87 81 88 79 89 58 90 59 91 67 92 60 93 61 94
REMARK SMILES IDX 65 95 68 96 62 97 63 98 66 99 64 100
REMARK H PARENT 88 53 56 64
REMARK Flexibility Score: inf
ROOT
ATOM      1  O   UNL A   1      36.582  22.956  23.471  1.00  0.00    -0.374 OA
ENDROOT
BRANCH   1   2
ATOM      2  C   UNL A   1      35.190  23.087  23.257  1.00  0.00     0.202 C 
BRANCH   2   3
ATOM      3  C   UNL A   1      34.829  24.524  23.500  1.00  0.00     0.261 C 
BRANCH   3   4
ATOM      4  O   UNL A   1      33.462  24.901  23.196  1.00  0.00    -0.460 OA
BRANCH   4   5
ATOM      5  C   UNL A   1      32.559  25.269  24.151  1.00  0.00     0.338 C 
ATOM      6  O   UNL A   1      31.355  25.380  24.028  1.00  0.00    -0.246 OA
BRANCH   5   7
ATOM      7  C   UNL A   1      33.279  25.291  25.493  1.00  0.00     0.087 C 
ATOM      8  C   UNL A   1      31.551  28.928  25.449  1.00  0.00     0.026 A 
ATOM      9  C   UNL A   1      32.232  30.015  26.052  1.00  0.00     0.033 A 
ATOM     10  C   UNL A   1      32.025  27.641  25.822  1.00  0.00     0.135 A 
ATOM     11  C   UNL A   1      33.416  29.849  26.768  1.00  0.00     0.042 A 
ATOM     12  C   UNL A   1      33.395  27.538  26.190  1.00  0.00     0.019 A 
ATOM     13  O   UNL A   1      31.245  26.442  25.978  1.00  0.00    -0.475 OA
ATOM     14  Cl  UNL A   1      34.181  31.213  27.479  1.00  0.00    -0.084 Cl
ATOM     15  C   UNL A   1      34.049  28.619  26.771  1.00  0.00     0.032 A 
ATOM     16  C   UNL A   1      34.121  26.268  25.891  1.00  0.00     0.027 C 
ATOM     17  C   UNL A   1      32.105  25.286  26.448  1.00  0.00     0.316 C 
BRANCH   8  18
ATOM     18  C   UNL A   1      30.792  29.356  24.204  1.00  0.00    -0.014 A 
ATOM     19  C   UNL A   1      29.040  30.104  22.026  1.00  0.00     0.121 A 
ATOM     20  C   UNL A   1      29.917  29.022  21.932  1.00  0.00     0.047 A 
ATOM     21  C   UNL A   1      28.873  30.700  23.268  1.00  0.00    -0.008 A 
ATOM     22  C   UNL A   1      30.756  28.635  23.013  1.00  0.00     0.013 A 
ATOM     23  C   UNL A   1      29.808  30.397  24.300  1.00  0.00     0.016 A 
ATOM     24  C   UNL A   1      27.637  31.509  23.556  1.00  0.00     0.048 C 
BRANCH  19  25
ATOM     25  O   UNL A   1      28.289  30.413  20.920  1.00  0.00    -0.496 OA
ATOM     26  C   UNL A   1      28.322  31.801  20.560  1.00  0.00     0.278 C 
ENDBRANCH  19  25
ENDBRANCH   8  18
BRANCH  17  27
ATOM     27  C   UNL A   1      31.683  23.790  26.649  1.00  0.00     0.430 C 
ATOM     28  F   UNL A   1      32.148  22.985  25.644  1.00  0.00    -0.167 F 
ATOM     29  F   UNL A   1      32.256  23.280  27.770  1.00  0.00    -0.167 F 
ATOM     30  F   UNL A   1      30.369  23.563  26.758  1.00  0.00    -0.167 F 
ENDBRANCH  17  27
ENDBRANCH   5   7
ENDBRANCH   4   5
ENDBRANCH   3   4
ENDBRANCH   2   3
ENDBRANCH   1   2
BRANCH   1  31
ATOM     31  C   UNL A   1      36.938  21.887  24.331  1.00  0.00     0.202 C 
BRANCH  31  32
ATOM     32  C   UNL A   1      37.585  22.349  25.646  1.00  0.00     0.261 C 
BRANCH  32  33
ATOM     33  O   UNL A   1      39.008  22.088  25.609  1.00  0.00    -0.460 OA
BRANCH  33  34
ATOM     34  C   UNL A   1      39.737  22.524  26.677  1.00  0.00     0.338 C 
ATOM     35  O   UNL A   1      40.234  21.799  27.528  1.00  0.00    -0.246 OA
BRANCH  34  36
ATOM     36  C   UNL A   1      39.626  24.014  26.813  1.00  0.00     0.060 A 
ATOM     37  C   UNL A   1      40.417  24.907  26.073  1.00  0.00     0.016 A 
ATOM     38  C   UNL A   1      38.935  24.511  27.900  1.00  0.00     0.016 A 
ATOM     39  C   UNL A   1      40.616  26.239  26.522  1.00  0.00     0.010 A 
ATOM     40  C   UNL A   1      39.159  25.796  28.360  1.00  0.00     0.010 A 
ATOM     41  C   UNL A   1      40.051  26.667  27.724  1.00  0.00    -0.014 A 
BRANCH  41  42
ATOM     42  C   UNL A   1      40.388  27.864  28.540  1.00  0.00     0.031 A 
ATOM     43  C   UNL A   1      39.455  29.027  28.513  1.00  0.00     0.074 A 
ATOM     44  C   UNL A   1      41.225  27.770  29.612  1.00  0.00     0.049 A 
ATOM     45  N   UNL A   1      39.513  30.016  29.333  1.00  0.00    -0.248 NA
ATOM     46  C   UNL A   1      38.388  29.203  27.535  1.00  0.00     0.031 C 
ATOM     47  C   UNL A   1      41.133  28.500  30.894  1.00  0.00     0.029 A 
ATOM     48  N   UNL A   1      42.271  26.878  29.881  1.00  0.00    -0.354 N 
ATOM     49  C   UNL A   1      38.381  30.776  29.215  1.00  0.00     0.074 A 
ATOM     50  C   UNL A   1      37.777  30.303  27.999  1.00  0.00     0.031 C 
ATOM     51  C   UNL A   1      42.187  28.215  31.673  1.00  0.00     0.029 A 
ATOM     52  C   UNL A   1      43.109  27.461  30.857  1.00  0.00     0.049 A 
ATOM     53  H   UNL A   1      42.399  25.996  29.462  1.00  0.00     0.167 HD
ATOM     54  C   UNL A   1      38.105  31.669  30.211  1.00  0.00     0.037 A 
ATOM     55  C   UNL A   1      44.381  27.790  30.508  1.00  0.00     0.037 A 
ATOM     56  C   UNL A   1      39.280  31.825  31.087  1.00  0.00     0.049 A 
ATOM     57  C   UNL A   1      44.492  29.292  30.411  1.00  0.00     0.074 A 
ATOM     58  C   UNL A   1      39.641  31.491  32.380  1.00  0.00     0.029 A 
ATOM     59  N   UNL A   1      40.456  32.209  30.465  1.00  0.00    -0.354 N 
ATOM     60  N   UNL A   1      43.515  30.085  30.762  1.00  0.00    -0.248 NA
ATOM     61  C   UNL A   1      45.632  30.046  29.912  1.00  0.00     0.031 C 
ATOM     62  C   UNL A   1      41.075  31.618  32.477  1.00  0.00     0.029 A 
ATOM     63  C   UNL A   1      41.571  32.060  31.258  1.00  0.00     0.049 A 
ATOM     64  H   UNL A   1      40.491  32.557  29.544  1.00  0.00     0.167 HD
ATOM     65  C   UNL A   1      43.794  31.372  30.473  1.00  0.00     0.074 A 
ATOM     66  C   UNL A   1      45.149  31.305  29.942  1.00  0.00     0.031 C 
ATOM     67  C   UNL A   1      42.879  32.368  30.673  1.00  0.00     0.037 A 
BRANCH  54  68
ATOM     68  C   UNL A   1      36.806  32.421  30.437  1.00  0.00     0.064 A 
ATOM     69  C   UNL A   1      36.367  33.383  29.499  1.00  0.00     0.173 A 
ATOM     70  C   UNL A   1      35.974  32.299  31.568  1.00  0.00     0.173 A 
ATOM     71  F   UNL A   1      37.051  33.617  28.371  1.00  0.00    -0.203 F 
ATOM     72  C   UNL A   1      35.207  34.148  29.685  1.00  0.00     0.198 A 
ATOM     73  C   UNL A   1      34.803  33.045  31.743  1.00  0.00     0.198 A 
ATOM     74  F   UNL A   1      36.264  31.469  32.569  1.00  0.00    -0.203 F 
ATOM     75  F   UNL A   1      34.859  35.060  28.765  1.00  0.00    -0.200 F 
ATOM     76  C   UNL A   1      34.422  33.976  30.805  1.00  0.00     0.200 A 
ATOM     77  F   UNL A   1      34.055  32.855  32.841  1.00  0.00    -0.200 F 
ATOM     78  F   UNL A   1      33.309  34.702  30.981  1.00  0.00    -0.200 F 
ENDBRANCH  54  68
BRANCH  55  79
ATOM     79  C   UNL A   1      44.950  26.672  29.679  1.00  0.00     0.064 A 
ATOM     80  C   UNL A   1      45.019  25.419  30.343  1.00  0.00     0.173 A 
ATOM     81  C   UNL A   1      44.760  26.637  28.287  1.00  0.00     0.173 A 
ATOM     82  F   UNL A   1      45.175  25.381  31.677  1.00  0.00    -0.203 F 
ATOM     83  C   UNL A   1      44.705  24.225  29.690  1.00  0.00     0.198 A 
ATOM     84  C   UNL A   1      44.465  25.429  27.635  1.00  0.00     0.198 A 
ATOM     85  F   UNL A   1      44.651  27.780  27.594  1.00  0.00    -0.203 F 
ATOM     86  F   UNL A   1      44.577  23.089  30.393  1.00  0.00    -0.200 F 
ATOM     87  C   UNL A   1      44.382  24.239  28.346  1.00  0.00     0.200 A 
ATOM     88  F   UNL A   1      44.135  25.432  26.335  1.00  0.00    -0.200 F 
ATOM     89  F   UNL A   1      43.917  23.127  27.757  1.00  0.00    -0.200 F 
ENDBRANCH  55  79
BRANCH  67  90
ATOM     90  C   UNL A   1      43.188  33.762  30.247  1.00  0.00     0.064 A 
ATOM     91  C   UNL A   1      43.363  34.079  28.897  1.00  0.00     0.173 A 
ATOM     92  C   UNL A   1      43.355  34.810  31.175  1.00  0.00     0.173 A 
ATOM     93  F   UNL A   1      43.298  33.124  27.957  1.00  0.00    -0.203 F 
ATOM     94  C   UNL A   1      43.591  35.389  28.489  1.00  0.00     0.198 A 
ATOM     95  C   UNL A   1      43.667  36.101  30.770  1.00  0.00     0.198 A 
ATOM     96  F   UNL A   1      43.174  34.629  32.491  1.00  0.00    -0.203 F 
ATOM     97  F   UNL A   1      43.636  35.675  27.181  1.00  0.00    -0.200 F 
ATOM     98  C   UNL A   1      43.751  36.397  29.425  1.00  0.00     0.200 A 
ATOM     99  F   UNL A   1      43.856  37.056  31.690  1.00  0.00    -0.200 F 
ATOM    100  F   UNL A   1      43.969  37.657  29.030  1.00  0.00    -0.200 F 
ENDBRANCH  67  90
ENDBRANCH  41  42
ENDBRANCH  34  36
ENDBRANCH  33  34
ENDBRANCH  32  33
ENDBRANCH  31  32
ENDBRANCH   1  31
TORSDOF 17
ENDMDL
