MODEL 1
REMARK VINA RESULT:     -11.8      0.000      0.000
REMARK SMILES CC(C)(C)OC(=O)N1CCC[C@H]1C(=O)N[C@@H](Cc1ccccc1)C(=O)OCCOCCOC(=O)c1ccc(-c2c3nc(c(-c4c(F)c(F)c(F)c(F)c4F)c4ccc([nH]4)c(-c4c(F)c(F)c(F)c(F)c4F)c4nc(c(-c5c(F)c(F)c(F)c(F)c5F)c5ccc2[nH]5)C=C4)C=C3)cc1
REMARK SMILES IDX 27 1 26 2 24 3 25 4 16 5 15 6 13 7 14 8 12 10 8 11 9 12
REMARK SMILES IDX 10 13 11 14 6 15 7 16 5 17 2 18 1 19 3 20 4 21 17 22 18 23
REMARK SMILES IDX 19 24 23 25 20 26 22 27 21 28 28 29 29 30 30 31 31 32 32 33
REMARK SMILES IDX 33 34 34 35 35 36 36 37 97 38 37 39 96 40 38 41 39 42 40 43
REMARK SMILES IDX 90 44 41 45 95 46 89 47 91 48 42 49 94 50 88 51 87 52 43 54
REMARK SMILES IDX 75 55 55 56 74 57 56 58 59 59 73 60 92 61 57 62 58 63 72 65
REMARK SMILES IDX 93 66 60 67 44 68 45 69 53 70 46 71 47 72 51 73 54 74 48 75
REMARK SMILES IDX 49 76 52 77 50 78 76 79 77 80 85 81 78 82 79 83 83 84 86 85
REMARK SMILES IDX 80 86 81 87 84 88 82 89 61 90 62 91 70 92 63 93 64 94 68 95
REMARK SMILES IDX 71 96 65 97 66 98 69 99 67 100
REMARK H PARENT 15 9 91 53 59 64
REMARK Flexibility Score: inf
ROOT
ATOM      1  C   UNL A   1      32.323  26.696  26.131  1.00  0.00     0.261 C 
ENDROOT
BRANCH   1   2
ATOM      2  O   UNL A   1      31.087  26.292  26.757  1.00  0.00    -0.462 OA
BRANCH   2   3
ATOM      3  C   UNL A   1      30.375  25.285  26.188  1.00  0.00     0.329 C 
ATOM      4  O   UNL A   1      29.913  24.331  26.805  1.00  0.00    -0.250 OA
BRANCH   3   5
ATOM      5  C   UNL A   1      30.390  25.366  24.641  1.00  0.00     0.196 C 
BRANCH   5   6
ATOM      6  N   UNL A   1      30.531  24.084  23.914  1.00  0.00    -0.341 N 
ATOM      7  C   UNL A   1      31.581  23.218  23.752  1.00  0.00     0.243 C 
ATOM      8  O   UNL A   1      31.406  22.266  22.983  1.00  0.00    -0.273 OA
ATOM      9  H   UNL A   1      29.708  23.798  23.457  1.00  0.00     0.164 HD
BRANCH   7  10
ATOM     10  C   UNL A   1      32.935  23.425  24.480  1.00  0.00     0.178 C 
ATOM     11  N   UNL A   1      33.709  22.185  24.644  1.00  0.00    -0.296 N 
ATOM     12  C   UNL A   1      35.009  22.241  24.022  1.00  0.00     0.124 C 
ATOM     13  C   UNL A   1      35.265  23.729  23.870  1.00  0.00     0.024 C 
ATOM     14  C   UNL A   1      33.870  24.324  23.662  1.00  0.00     0.037 C 
BRANCH  11  15
ATOM     15  C   UNL A   1      33.208  21.186  25.423  1.00  0.00     0.410 C 
ATOM     16  O   UNL A   1      33.495  21.146  26.611  1.00  0.00    -0.224 OA
BRANCH  15  17
ATOM     17  O   UNL A   1      32.475  20.237  24.790  1.00  0.00    -0.444 OA
BRANCH  17  18
ATOM     18  C   UNL A   1      33.066  18.906  24.647  1.00  0.00     0.106 C 
ATOM     19  C   UNL A   1      32.600  18.373  23.285  1.00  0.00     0.056 C 
ATOM     20  C   UNL A   1      32.531  17.985  25.750  1.00  0.00     0.056 C 
ATOM     21  C   UNL A   1      34.611  18.902  24.618  1.00  0.00     0.056 C 
ENDBRANCH  17  18
ENDBRANCH  15  17
ENDBRANCH  11  15
ENDBRANCH   7  10
ENDBRANCH   5   6
BRANCH   5  22
ATOM     22  C   UNL A   1      29.093  26.096  24.204  1.00  0.00     0.072 C 
BRANCH  22  23
ATOM     23  C   UNL A   1      29.324  27.379  23.421  1.00  0.00    -0.045 A 
ATOM     24  C   UNL A   1      30.624  27.762  23.050  1.00  0.00     0.004 A 
ATOM     25  C   UNL A   1      28.260  28.244  23.125  1.00  0.00     0.004 A 
ATOM     26  C   UNL A   1      30.856  28.998  22.441  1.00  0.00     0.000 A 
ATOM     27  C   UNL A   1      28.496  29.481  22.522  1.00  0.00     0.000 A 
ATOM     28  C   UNL A   1      29.794  29.862  22.187  1.00  0.00     0.000 A 
ENDBRANCH  22  23
ENDBRANCH   5  22
ENDBRANCH   3   5
ENDBRANCH   2   3
ENDBRANCH   1   2
BRANCH   1  29
ATOM     29  C   UNL A   1      32.701  28.112  26.589  1.00  0.00     0.202 C 
BRANCH  29  30
ATOM     30  O   UNL A   1      31.633  29.058  26.606  1.00  0.00    -0.374 OA
BRANCH  30  31
ATOM     31  C   UNL A   1      31.864  30.210  25.795  1.00  0.00     0.202 C 
BRANCH  31  32
ATOM     32  C   UNL A   1      31.902  31.522  26.567  1.00  0.00     0.261 C 
BRANCH  32  33
ATOM     33  O   UNL A   1      32.872  31.362  27.617  1.00  0.00    -0.460 OA
BRANCH  33  34
ATOM     34  C   UNL A   1      33.748  32.382  27.707  1.00  0.00     0.338 C 
ATOM     35  O   UNL A   1      33.513  33.576  27.644  1.00  0.00    -0.246 OA
BRANCH  34  36
ATOM     36  C   UNL A   1      35.065  31.840  28.086  1.00  0.00     0.060 A 
ATOM     37  C   UNL A   1      35.147  30.453  28.258  1.00  0.00     0.016 A 
ATOM     38  C   UNL A   1      36.184  32.655  28.286  1.00  0.00     0.016 A 
ATOM     39  C   UNL A   1      36.326  29.883  28.716  1.00  0.00     0.010 A 
ATOM     40  C   UNL A   1      37.369  32.083  28.744  1.00  0.00     0.010 A 
ATOM     41  C   UNL A   1      37.420  30.704  29.011  1.00  0.00    -0.014 A 
BRANCH  41  42
ATOM     42  C   UNL A   1      38.546  30.134  29.776  1.00  0.00     0.031 A 
ATOM     43  C   UNL A   1      38.734  30.570  31.199  1.00  0.00     0.074 A 
ATOM     44  C   UNL A   1      39.347  29.214  29.218  1.00  0.00     0.049 A 
ATOM     45  N   UNL A   1      39.639  30.204  32.069  1.00  0.00    -0.248 NA
ATOM     46  C   UNL A   1      37.773  31.560  31.711  1.00  0.00     0.031 C 
ATOM     47  C   UNL A   1      39.225  28.712  27.850  1.00  0.00     0.029 A 
ATOM     48  N   UNL A   1      40.423  28.543  29.734  1.00  0.00    -0.354 N 
ATOM     49  C   UNL A   1      39.365  30.927  33.221  1.00  0.00     0.074 A 
ATOM     50  C   UNL A   1      38.232  31.778  32.933  1.00  0.00     0.031 C 
ATOM     51  C   UNL A   1      40.201  27.816  27.630  1.00  0.00     0.029 A 
ATOM     52  C   UNL A   1      41.027  27.707  28.832  1.00  0.00     0.049 A 
ATOM     53  H   UNL A   1      40.732  28.651  30.663  1.00  0.00     0.167 HD
ATOM     54  C   UNL A   1      39.999  30.875  34.416  1.00  0.00     0.037 A 
ATOM     55  C   UNL A   1      42.138  26.958  28.962  1.00  0.00     0.037 A 
ATOM     56  C   UNL A   1      41.124  30.017  34.682  1.00  0.00     0.049 A 
ATOM     57  C   UNL A   1      42.852  26.942  30.286  1.00  0.00     0.074 A 
ATOM     58  C   UNL A   1      41.820  29.846  35.864  1.00  0.00     0.029 A 
ATOM     59  N   UNL A   1      41.725  29.194  33.739  1.00  0.00    -0.354 N 
ATOM     60  N   UNL A   1      42.563  27.590  31.390  1.00  0.00    -0.248 NA
ATOM     61  C   UNL A   1      44.038  26.083  30.388  1.00  0.00     0.031 C 
ATOM     62  C   UNL A   1      42.881  28.968  35.620  1.00  0.00     0.029 A 
ATOM     63  C   UNL A   1      42.808  28.539  34.303  1.00  0.00     0.049 A 
ATOM     64  H   UNL A   1      41.424  29.089  32.807  1.00  0.00     0.167 HD
ATOM     65  C   UNL A   1      43.517  27.208  32.323  1.00  0.00     0.074 A 
ATOM     66  C   UNL A   1      44.384  26.256  31.657  1.00  0.00     0.031 C 
ATOM     67  C   UNL A   1      43.662  27.604  33.612  1.00  0.00     0.037 A 
BRANCH  54  68
ATOM     68  C   UNL A   1      39.519  31.805  35.493  1.00  0.00     0.064 A 
ATOM     69  C   UNL A   1      38.559  31.417  36.441  1.00  0.00     0.173 A 
ATOM     70  C   UNL A   1      40.024  33.111  35.572  1.00  0.00     0.173 A 
ATOM     71  F   UNL A   1      38.031  30.184  36.402  1.00  0.00    -0.203 F 
ATOM     72  C   UNL A   1      38.092  32.315  37.399  1.00  0.00     0.198 A 
ATOM     73  C   UNL A   1      39.580  33.996  36.552  1.00  0.00     0.198 A 
ATOM     74  F   UNL A   1      40.945  33.536  34.695  1.00  0.00    -0.203 F 
ATOM     75  F   UNL A   1      37.126  31.941  38.251  1.00  0.00    -0.200 F 
ATOM     76  C   UNL A   1      38.605  33.601  37.457  1.00  0.00     0.200 A 
ATOM     77  F   UNL A   1      40.086  35.235  36.614  1.00  0.00    -0.200 F 
ATOM     78  F   UNL A   1      38.154  34.464  38.377  1.00  0.00    -0.200 F 
ENDBRANCH  54  68
BRANCH  55  79
ATOM     79  C   UNL A   1      42.627  26.178  27.799  1.00  0.00     0.064 A 
ATOM     80  C   UNL A   1      42.115  24.907  27.506  1.00  0.00     0.173 A 
ATOM     81  C   UNL A   1      43.588  26.712  26.926  1.00  0.00     0.173 A 
ATOM     82  F   UNL A   1      41.207  24.347  28.318  1.00  0.00    -0.203 F 
ATOM     83  C   UNL A   1      42.548  24.199  26.386  1.00  0.00     0.198 A 
ATOM     84  C   UNL A   1      44.000  26.015  25.794  1.00  0.00     0.198 A 
ATOM     85  F   UNL A   1      44.104  27.928  27.159  1.00  0.00    -0.203 F 
ATOM     86  F   UNL A   1      42.061  22.975  26.141  1.00  0.00    -0.200 F 
ATOM     87  C   UNL A   1      43.482  24.757  25.526  1.00  0.00     0.200 A 
ATOM     88  F   UNL A   1      44.888  26.567  24.955  1.00  0.00    -0.200 F 
ATOM     89  F   UNL A   1      43.883  24.083  24.439  1.00  0.00    -0.200 F 
ENDBRANCH  55  79
BRANCH  67  90
ATOM     90  C   UNL A   1      44.789  26.991  34.394  1.00  0.00     0.064 A 
ATOM     91  C   UNL A   1      44.636  25.776  35.078  1.00  0.00     0.173 A 
ATOM     92  C   UNL A   1      46.051  27.605  34.419  1.00  0.00     0.173 A 
ATOM     93  F   UNL A   1      43.446  25.157  35.095  1.00  0.00    -0.203 F 
ATOM     94  C   UNL A   1      45.697  25.212  35.780  1.00  0.00     0.198 A 
ATOM     95  C   UNL A   1      47.118  27.021  35.094  1.00  0.00     0.198 A 
ATOM     96  F   UNL A   1      46.252  28.764  33.774  1.00  0.00    -0.203 F 
ATOM     97  F   UNL A   1      45.515  24.076  36.467  1.00  0.00    -0.200 F 
ATOM     98  C   UNL A   1      46.939  25.830  35.781  1.00  0.00     0.200 A 
ATOM     99  F   UNL A   1      48.322  27.612  35.080  1.00  0.00    -0.200 F 
ATOM    100  F   UNL A   1      47.961  25.281  36.449  1.00  0.00    -0.200 F 
ENDBRANCH  67  90
ENDBRANCH  41  42
ENDBRANCH  34  36
ENDBRANCH  33  34
ENDBRANCH  32  33
ENDBRANCH  31  32
ENDBRANCH  30  31
ENDBRANCH  29  30
ENDBRANCH   1  29
TORSDOF 21
ENDMDL
MODEL 2
REMARK VINA RESULT:     -11.7      0.473      7.116
REMARK SMILES CC(C)(C)OC(=O)N1CCC[C@H]1C(=O)N[C@@H](Cc1ccccc1)C(=O)OCCOCCOC(=O)c1ccc(-c2c3nc(c(-c4c(F)c(F)c(F)c(F)c4F)c4ccc([nH]4)c(-c4c(F)c(F)c(F)c(F)c4F)c4nc(c(-c5c(F)c(F)c(F)c(F)c5F)c5ccc2[nH]5)C=C4)C=C3)cc1
REMARK SMILES IDX 27 1 26 2 24 3 25 4 16 5 15 6 13 7 14 8 12 10 8 11 9 12
REMARK SMILES IDX 10 13 11 14 6 15 7 16 5 17 2 18 1 19 3 20 4 21 17 22 18 23
REMARK SMILES IDX 19 24 23 25 20 26 22 27 21 28 28 29 29 30 30 31 31 32 32 33
REMARK SMILES IDX 33 34 34 35 35 36 36 37 97 38 37 39 96 40 38 41 39 42 40 43
REMARK SMILES IDX 90 44 41 45 95 46 89 47 91 48 42 49 94 50 88 51 87 52 43 54
REMARK SMILES IDX 75 55 55 56 74 57 56 58 59 59 73 60 92 61 57 62 58 63 72 65
REMARK SMILES IDX 93 66 60 67 44 68 45 69 53 70 46 71 47 72 51 73 54 74 48 75
REMARK SMILES IDX 49 76 52 77 50 78 76 79 77 80 85 81 78 82 79 83 83 84 86 85
REMARK SMILES IDX 80 86 81 87 84 88 82 89 61 90 62 91 70 92 63 93 64 94 68 95
REMARK SMILES IDX 71 96 65 97 66 98 69 99 67 100
REMARK H PARENT 15 9 91 53 59 64
REMARK Flexibility Score: inf
ROOT
ATOM      1  C   UNL A   1      32.439  26.566  26.185  1.00  0.00     0.261 C 
ENDROOT
BRANCH   1   2
ATOM      2  O   UNL A   1      31.276  26.041  26.860  1.00  0.00    -0.462 OA
BRANCH   2   3
ATOM      3  C   UNL A   1      30.509  25.128  26.209  1.00  0.00     0.329 C 
ATOM      4  O   UNL A   1      30.002  24.147  26.741  1.00  0.00    -0.250 OA
BRANCH   3   5
ATOM      5  C   UNL A   1      30.519  25.350  24.676  1.00  0.00     0.196 C 
BRANCH   5   6
ATOM      6  N   UNL A   1      30.658  24.140  23.835  1.00  0.00    -0.341 N 
ATOM      7  C   UNL A   1      31.694  23.268  23.624  1.00  0.00     0.243 C 
ATOM      8  O   UNL A   1      31.526  22.398  22.763  1.00  0.00    -0.273 OA
ATOM      9  H   UNL A   1      29.845  23.918  23.327  1.00  0.00     0.164 HD
BRANCH   7  10
ATOM     10  C   UNL A   1      33.027  23.374  24.411  1.00  0.00     0.178 C 
ATOM     11  N   UNL A   1      33.775  22.108  24.471  1.00  0.00    -0.296 N 
ATOM     12  C   UNL A   1      35.096  22.202  23.899  1.00  0.00     0.124 C 
ATOM     13  C   UNL A   1      35.381  23.692  23.908  1.00  0.00     0.024 C 
ATOM     14  C   UNL A   1      34.004  24.333  23.719  1.00  0.00     0.037 C 
BRANCH  11  15
ATOM     15  C   UNL A   1      33.233  21.045  25.127  1.00  0.00     0.410 C 
ATOM     16  O   UNL A   1      33.326  20.976  26.344  1.00  0.00    -0.224 OA
BRANCH  15  17
ATOM     17  O   UNL A   1      32.686  20.074  24.355  1.00  0.00    -0.444 OA
BRANCH  17  18
ATOM     18  C   UNL A   1      33.215  18.716  24.495  1.00  0.00     0.106 C 
ATOM     19  C   UNL A   1      32.852  17.978  23.199  1.00  0.00     0.056 C 
ATOM     20  C   UNL A   1      32.529  18.017  25.674  1.00  0.00     0.056 C 
ATOM     21  C   UNL A   1      34.753  18.651  24.626  1.00  0.00     0.056 C 
ENDBRANCH  17  18
ENDBRANCH  15  17
ENDBRANCH  11  15
ENDBRANCH   7  10
ENDBRANCH   5   6
BRANCH   5  22
ATOM     22  C   UNL A   1      29.220  26.116  24.312  1.00  0.00     0.072 C 
BRANCH  22  23
ATOM     23  C   UNL A   1      29.437  27.353  23.453  1.00  0.00    -0.045 A 
ATOM     24  C   UNL A   1      30.730  27.714  23.039  1.00  0.00     0.004 A 
ATOM     25  C   UNL A   1      28.367  28.199  23.126  1.00  0.00     0.004 A 
ATOM     26  C   UNL A   1      30.950  28.914  22.357  1.00  0.00     0.000 A 
ATOM     27  C   UNL A   1      28.591  29.400  22.450  1.00  0.00     0.000 A 
ATOM     28  C   UNL A   1      29.883  29.761  22.072  1.00  0.00     0.000 A 
ENDBRANCH  22  23
ENDBRANCH   5  22
ENDBRANCH   3   5
ENDBRANCH   2   3
ENDBRANCH   1   2
BRANCH   1  29
ATOM     29  C   UNL A   1      32.646  28.038  26.570  1.00  0.00     0.202 C 
BRANCH  29  30
ATOM     30  O   UNL A   1      31.550  28.907  26.289  1.00  0.00    -0.374 OA
BRANCH  30  31
ATOM     31  C   UNL A   1      31.917  30.102  25.601  1.00  0.00     0.202 C 
BRANCH  31  32
ATOM     32  C   UNL A   1      31.701  31.378  26.403  1.00  0.00     0.261 C 
BRANCH  32  33
ATOM     33  O   UNL A   1      32.596  31.321  27.529  1.00  0.00    -0.460 OA
BRANCH  33  34
ATOM     34  C   UNL A   1      33.449  32.362  27.597  1.00  0.00     0.338 C 
ATOM     35  O   UNL A   1      33.196  33.545  27.454  1.00  0.00    -0.246 OA
BRANCH  34  36
ATOM     36  C   UNL A   1      34.757  31.869  28.064  1.00  0.00     0.060 A 
ATOM     37  C   UNL A   1      34.839  30.507  28.377  1.00  0.00     0.016 A 
ATOM     38  C   UNL A   1      35.868  32.707  28.209  1.00  0.00     0.016 A 
ATOM     39  C   UNL A   1      36.007  29.993  28.921  1.00  0.00     0.010 A 
ATOM     40  C   UNL A   1      37.042  32.190  28.754  1.00  0.00     0.010 A 
ATOM     41  C   UNL A   1      37.091  30.846  29.160  1.00  0.00    -0.014 A 
BRANCH  41  42
ATOM     42  C   UNL A   1      38.197  30.363  30.008  1.00  0.00     0.031 A 
ATOM     43  C   UNL A   1      39.165  29.377  29.424  1.00  0.00     0.074 A 
ATOM     44  C   UNL A   1      38.353  30.838  31.254  1.00  0.00     0.049 A 
ATOM     45  N   UNL A   1      40.215  28.819  29.969  1.00  0.00    -0.248 NA
ATOM     46  C   UNL A   1      38.910  28.954  28.038  1.00  0.00     0.031 C 
ATOM     47  C   UNL A   1      37.477  31.817  31.895  1.00  0.00     0.029 A 
ATOM     48  N   UNL A   1      39.301  30.555  32.199  1.00  0.00    -0.354 N 
ATOM     49  C   UNL A   1      40.736  27.974  28.999  1.00  0.00     0.074 A 
ATOM     50  C   UNL A   1      39.870  28.063  27.844  1.00  0.00     0.031 C 
ATOM     51  C   UNL A   1      37.924  32.046  33.141  1.00  0.00     0.029 A 
ATOM     52  C   UNL A   1      39.097  31.208  33.387  1.00  0.00     0.049 A 
ATOM     53  H   UNL A   1      40.056  29.942  32.042  1.00  0.00     0.167 HD
ATOM     54  C   UNL A   1      41.844  27.200  29.066  1.00  0.00     0.037 A 
ATOM     55  C   UNL A   1      39.774  31.118  34.546  1.00  0.00     0.037 A 
ATOM     56  C   UNL A   1      42.695  27.130  30.225  1.00  0.00     0.049 A 
ATOM     57  C   UNL A   1      40.982  30.224  34.614  1.00  0.00     0.074 A 
ATOM     58  C   UNL A   1      43.867  26.416  30.395  1.00  0.00     0.029 A 
ATOM     59  N   UNL A   1      42.450  27.791  31.421  1.00  0.00    -0.354 N 
ATOM     60  N   UNL A   1      41.500  29.461  33.680  1.00  0.00    -0.248 NA
ATOM     61  C   UNL A   1      41.706  30.185  35.890  1.00  0.00     0.031 C 
ATOM     62  C   UNL A   1      44.296  26.596  31.714  1.00  0.00     0.029 A 
ATOM     63  C   UNL A   1      43.430  27.474  32.348  1.00  0.00     0.049 A 
ATOM     64  H   UNL A   1      41.692  28.398  31.586  1.00  0.00     0.167 HD
ATOM     65  C   UNL A   1      42.619  28.865  34.246  1.00  0.00     0.074 A 
ATOM     66  C   UNL A   1      42.712  29.370  35.602  1.00  0.00     0.031 C 
ATOM     67  C   UNL A   1      43.492  27.984  33.696  1.00  0.00     0.037 A 
BRANCH  54  68
ATOM     68  C   UNL A   1      42.160  26.341  27.875  1.00  0.00     0.064 A 
ATOM     69  C   UNL A   1      41.530  25.106  27.658  1.00  0.00     0.173 A 
ATOM     70  C   UNL A   1      43.119  26.759  26.941  1.00  0.00     0.173 A 
ATOM     71  F   UNL A   1      40.616  24.651  28.528  1.00  0.00    -0.203 F 
ATOM     72  C   UNL A   1      41.879  24.304  26.573  1.00  0.00     0.198 A 
ATOM     73  C   UNL A   1      43.441  25.971  25.839  1.00  0.00     0.198 A 
ATOM     74  F   UNL A   1      43.752  27.932  27.097  1.00  0.00    -0.203 F 
ATOM     75  F   UNL A   1      41.311  23.099  26.422  1.00  0.00    -0.200 F 
ATOM     76  C   UNL A   1      42.830  24.738  25.662  1.00  0.00     0.200 A 
ATOM     77  F   UNL A   1      44.351  26.398  24.954  1.00  0.00    -0.200 F 
ATOM     78  F   UNL A   1      43.166  23.965  24.621  1.00  0.00    -0.200 F 
ENDBRANCH  54  68
BRANCH  55  79
ATOM     79  C   UNL A   1      39.308  31.894  35.721  1.00  0.00     0.064 A 
ATOM     80  C   UNL A   1      39.719  33.217  35.931  1.00  0.00     0.173 A 
ATOM     81  C   UNL A   1      38.399  31.340  36.637  1.00  0.00     0.173 A 
ATOM     82  F   UNL A   1      40.598  33.786  35.094  1.00  0.00    -0.203 F 
ATOM     83  C   UNL A   1      39.241  33.954  37.013  1.00  0.00     0.198 A 
ATOM     84  C   UNL A   1      37.902  32.086  37.701  1.00  0.00     0.198 A 
ATOM     85  F   UNL A   1      37.969  30.080  36.475  1.00  0.00    -0.203 F 
ATOM     86  F   UNL A   1      39.669  35.210  37.206  1.00  0.00    -0.200 F 
ATOM     87  C   UNL A   1      38.327  33.392  37.891  1.00  0.00     0.200 A 
ATOM     88  F   UNL A   1      37.003  31.545  38.535  1.00  0.00    -0.200 F 
ATOM     89  F   UNL A   1      37.853  34.109  38.919  1.00  0.00    -0.200 F 
ENDBRANCH  55  79
BRANCH  67  90
ATOM     90  C   UNL A   1      44.635  27.525  34.555  1.00  0.00     0.064 A 
ATOM     91  C   UNL A   1      45.839  28.243  34.623  1.00  0.00     0.173 A 
ATOM     92  C   UNL A   1      44.507  26.381  35.357  1.00  0.00     0.173 A 
ATOM     93  F   UNL A   1      46.016  29.337  33.867  1.00  0.00    -0.203 F 
ATOM     94  C   UNL A   1      46.881  27.815  35.441  1.00  0.00     0.198 A 
ATOM     95  C   UNL A   1      45.538  25.975  36.198  1.00  0.00     0.198 A 
ATOM     96  F   UNL A   1      43.372  25.664  35.335  1.00  0.00    -0.203 F 
ATOM     97  F   UNL A   1      48.040  28.487  35.452  1.00  0.00    -0.200 F 
ATOM     98  C   UNL A   1      46.727  26.687  36.234  1.00  0.00     0.200 A 
ATOM     99  F   UNL A   1      45.380  24.894  36.976  1.00  0.00    -0.200 F 
ATOM    100  F   UNL A   1      47.727  26.282  37.027  1.00  0.00    -0.200 F 
ENDBRANCH  67  90
ENDBRANCH  41  42
ENDBRANCH  34  36
ENDBRANCH  33  34
ENDBRANCH  32  33
ENDBRANCH  31  32
ENDBRANCH  30  31
ENDBRANCH  29  30
ENDBRANCH   1  29
TORSDOF 21
ENDMDL
MODEL 3
REMARK VINA RESULT:     -11.6      2.202      3.241
REMARK SMILES CC(C)(C)OC(=O)N1CCC[C@H]1C(=O)N[C@@H](Cc1ccccc1)C(=O)OCCOCCOC(=O)c1ccc(-c2c3nc(c(-c4c(F)c(F)c(F)c(F)c4F)c4ccc([nH]4)c(-c4c(F)c(F)c(F)c(F)c4F)c4nc(c(-c5c(F)c(F)c(F)c(F)c5F)c5ccc2[nH]5)C=C4)C=C3)cc1
REMARK SMILES IDX 27 1 26 2 24 3 25 4 16 5 15 6 13 7 14 8 12 10 8 11 9 12
REMARK SMILES IDX 10 13 11 14 6 15 7 16 5 17 2 18 1 19 3 20 4 21 17 22 18 23
REMARK SMILES IDX 19 24 23 25 20 26 22 27 21 28 28 29 29 30 30 31 31 32 32 33
REMARK SMILES IDX 33 34 34 35 35 36 36 37 97 38 37 39 96 40 38 41 39 42 40 43
REMARK SMILES IDX 90 44 41 45 95 46 89 47 91 48 42 49 94 50 88 51 87 52 43 54
REMARK SMILES IDX 75 55 55 56 74 57 56 58 59 59 73 60 92 61 57 62 58 63 72 65
REMARK SMILES IDX 93 66 60 67 44 68 45 69 53 70 46 71 47 72 51 73 54 74 48 75
REMARK SMILES IDX 49 76 52 77 50 78 76 79 77 80 85 81 78 82 79 83 83 84 86 85
REMARK SMILES IDX 80 86 81 87 84 88 82 89 61 90 62 91 70 92 63 93 64 94 68 95
REMARK SMILES IDX 71 96 65 97 66 98 69 99 67 100
REMARK H PARENT 15 9 91 53 59 64
REMARK Flexibility Score: inf
ROOT
ATOM      1  C   UNL A   1      33.271  29.422  26.107  1.00  0.00     0.261 C 
ENDROOT
BRANCH   1   2
ATOM      2  O   UNL A   1      33.308  28.245  26.941  1.00  0.00    -0.462 OA
BRANCH   2   3
ATOM      3  C   UNL A   1      32.142  27.597  27.195  1.00  0.00     0.329 C 
ATOM      4  O   UNL A   1      31.371  27.892  28.102  1.00  0.00    -0.250 OA
BRANCH   3   5
ATOM      5  C   UNL A   1      31.994  26.312  26.343  1.00  0.00     0.196 C 
BRANCH   5   6
ATOM      6  N   UNL A   1      31.448  25.122  27.032  1.00  0.00    -0.341 N 
ATOM      7  C   UNL A   1      31.470  23.783  26.736  1.00  0.00     0.243 C 
ATOM      8  O   UNL A   1      30.818  23.037  27.474  1.00  0.00    -0.273 OA
ATOM      9  H   UNL A   1      30.975  25.334  27.869  1.00  0.00     0.164 HD
BRANCH   7  10
ATOM     10  C   UNL A   1      32.257  23.226  25.521  1.00  0.00     0.178 C 
ATOM     11  N   UNL A   1      33.116  22.079  25.855  1.00  0.00    -0.296 N 
ATOM     12  C   UNL A   1      32.793  20.890  25.104  1.00  0.00     0.124 C 
ATOM     13  C   UNL A   1      32.021  21.423  23.911  1.00  0.00     0.024 C 
ATOM     14  C   UNL A   1      31.307  22.662  24.458  1.00  0.00     0.037 C 
BRANCH  11  15
ATOM     15  C   UNL A   1      34.159  22.257  26.712  1.00  0.00     0.410 C 
ATOM     16  O   UNL A   1      34.181  21.646  27.772  1.00  0.00    -0.224 OA
BRANCH  15  17
ATOM     17  O   UNL A   1      35.081  23.185  26.357  1.00  0.00    -0.444 OA
BRANCH  17  18
ATOM     18  C   UNL A   1      36.045  22.822  25.317  1.00  0.00     0.106 C 
ATOM     19  C   UNL A   1      37.325  23.612  25.622  1.00  0.00     0.056 C 
ATOM     20  C   UNL A   1      35.509  23.256  23.947  1.00  0.00     0.056 C 
ATOM     21  C   UNL A   1      36.436  21.328  25.315  1.00  0.00     0.056 C 
ENDBRANCH  17  18
ENDBRANCH  15  17
ENDBRANCH  11  15
ENDBRANCH   7  10
ENDBRANCH   5   6
BRANCH   5  22
ATOM     22  C   UNL A   1      31.123  26.672  25.111  1.00  0.00     0.072 C 
BRANCH  22  23
ATOM     23  C   UNL A   1      31.789  26.413  23.769  1.00  0.00    -0.045 A 
ATOM     24  C   UNL A   1      33.087  26.887  23.515  1.00  0.00     0.004 A 
ATOM     25  C   UNL A   1      31.096  25.769  22.733  1.00  0.00     0.004 A 
ATOM     26  C   UNL A   1      33.656  26.762  22.246  1.00  0.00     0.000 A 
ATOM     27  C   UNL A   1      31.666  25.651  21.463  1.00  0.00     0.000 A 
ATOM     28  C   UNL A   1      32.942  26.154  21.217  1.00  0.00     0.000 A 
ENDBRANCH  22  23
ENDBRANCH   5  22
ENDBRANCH   3   5
ENDBRANCH   2   3
ENDBRANCH   1   2
BRANCH   1  29
ATOM     29  C   UNL A   1      33.039  30.668  26.973  1.00  0.00     0.202 C 
BRANCH  29  30
ATOM     30  O   UNL A   1      31.742  31.256  26.869  1.00  0.00    -0.374 OA
BRANCH  30  31
ATOM     31  C   UNL A   1      31.748  32.683  26.889  1.00  0.00     0.202 C 
BRANCH  31  32
ATOM     32  C   UNL A   1      32.947  33.294  27.601  1.00  0.00     0.261 C 
BRANCH  32  33
ATOM     33  O   UNL A   1      32.431  34.080  28.690  1.00  0.00    -0.460 OA
BRANCH  33  34
ATOM     34  C   UNL A   1      33.200  35.140  29.008  1.00  0.00     0.338 C 
ATOM     35  O   UNL A   1      32.966  36.319  28.806  1.00  0.00    -0.246 OA
BRANCH  34  36
ATOM     36  C   UNL A   1      34.331  34.672  29.828  1.00  0.00     0.060 A 
ATOM     37  C   UNL A   1      35.604  34.768  29.254  1.00  0.00     0.016 A 
ATOM     38  C   UNL A   1      34.160  34.140  31.110  1.00  0.00     0.016 A 
ATOM     39  C   UNL A   1      36.704  34.251  29.923  1.00  0.00     0.010 A 
ATOM     40  C   UNL A   1      35.265  33.623  31.784  1.00  0.00     0.010 A 
ATOM     41  C   UNL A   1      36.526  33.630  31.165  1.00  0.00    -0.014 A 
BRANCH  41  42
ATOM     42  C   UNL A   1      37.632  32.825  31.718  1.00  0.00     0.031 A 
ATOM     43  C   UNL A   1      38.195  33.208  33.055  1.00  0.00     0.074 A 
ATOM     44  C   UNL A   1      38.084  31.749  31.054  1.00  0.00     0.049 A 
ATOM     45  N   UNL A   1      39.156  32.650  33.744  1.00  0.00    -0.248 NA
ATOM     46  C   UNL A   1      37.596  34.387  33.702  1.00  0.00     0.031 C 
ATOM     47  C   UNL A   1      37.581  31.287  29.762  1.00  0.00     0.029 A 
ATOM     48  N   UNL A   1      39.070  30.857  31.378  1.00  0.00    -0.354 N 
ATOM     49  C   UNL A   1      39.284  33.415  34.894  1.00  0.00     0.074 A 
ATOM     50  C   UNL A   1      38.329  34.497  34.798  1.00  0.00     0.031 C 
ATOM     51  C   UNL A   1      38.274  30.197  29.394  1.00  0.00     0.029 A 
ATOM     52  C   UNL A   1      39.283  29.908  30.412  1.00  0.00     0.049 A 
ATOM     53  H   UNL A   1      39.577  30.893  32.221  1.00  0.00     0.167 HD
ATOM     54  C   UNL A   1      40.121  33.224  35.941  1.00  0.00     0.037 A 
ATOM     55  C   UNL A   1      40.206  28.931  30.354  1.00  0.00     0.037 A 
ATOM     56  C   UNL A   1      41.062  32.138  36.019  1.00  0.00     0.049 A 
ATOM     57  C   UNL A   1      41.153  28.756  31.510  1.00  0.00     0.074 A 
ATOM     58  C   UNL A   1      41.929  31.817  37.046  1.00  0.00     0.029 A 
ATOM     59  N   UNL A   1      41.266  31.202  35.013  1.00  0.00    -0.354 N 
ATOM     60  N   UNL A   1      41.242  29.453  32.619  1.00  0.00    -0.248 NA
ATOM     61  C   UNL A   1      42.119  27.656  31.415  1.00  0.00     0.031 C 
ATOM     62  C   UNL A   1      42.702  30.725  36.637  1.00  0.00     0.029 A 
ATOM     63  C   UNL A   1      42.272  30.323  35.380  1.00  0.00     0.049 A 
ATOM     64  H   UNL A   1      40.767  31.167  34.165  1.00  0.00     0.167 HD
ATOM     65  C   UNL A   1      42.258  28.868  33.361  1.00  0.00     0.074 A 
ATOM     66  C   UNL A   1      42.745  27.747  32.581  1.00  0.00     0.031 C 
ATOM     67  C   UNL A   1      42.744  29.221  34.577  1.00  0.00     0.037 A 
BRANCH  54  68
ATOM     68  C   UNL A   1      40.083  34.237  37.050  1.00  0.00     0.064 A 
ATOM     69  C   UNL A   1      39.202  34.122  38.136  1.00  0.00     0.173 A 
ATOM     70  C   UNL A   1      40.938  35.348  37.017  1.00  0.00     0.173 A 
ATOM     71  F   UNL A   1      38.351  33.087  38.210  1.00  0.00    -0.203 F 
ATOM     72  C   UNL A   1      39.149  35.102  39.126  1.00  0.00     0.198 A 
ATOM     73  C   UNL A   1      40.908  36.309  38.025  1.00  0.00     0.198 A 
ATOM     74  F   UNL A   1      41.803  35.509  36.005  1.00  0.00    -0.203 F 
ATOM     75  F   UNL A   1      38.254  35.004  40.118  1.00  0.00    -0.200 F 
ATOM     76  C   UNL A   1      40.005  36.192  39.072  1.00  0.00     0.200 A 
ATOM     77  F   UNL A   1      41.744  37.355  37.978  1.00  0.00    -0.200 F 
ATOM     78  F   UNL A   1      39.952  37.135  40.022  1.00  0.00    -0.200 F 
ENDBRANCH  54  68
BRANCH  55  79
ATOM     79  C   UNL A   1      40.268  28.061  29.153  1.00  0.00     0.064 A 
ATOM     80  C   UNL A   1      39.573  26.847  29.096  1.00  0.00     0.173 A 
ATOM     81  C   UNL A   1      40.991  28.454  28.015  1.00  0.00     0.173 A 
ATOM     82  F   UNL A   1      38.882  26.420  30.162  1.00  0.00    -0.203 F 
ATOM     83  C   UNL A   1      39.601  26.057  27.948  1.00  0.00     0.198 A 
ATOM     84  C   UNL A   1      40.996  27.678  26.861  1.00  0.00     0.198 A 
ATOM     85  F   UNL A   1      41.667  29.612  28.018  1.00  0.00    -0.203 F 
ATOM     86  F   UNL A   1      38.947  24.887  27.927  1.00  0.00    -0.200 F 
ATOM     87  C   UNL A   1      40.303  26.477  26.828  1.00  0.00     0.200 A 
ATOM     88  F   UNL A   1      41.660  28.098  25.775  1.00  0.00    -0.200 F 
ATOM     89  F   UNL A   1      40.312  25.726  25.719  1.00  0.00    -0.200 F 
ENDBRANCH  55  79
BRANCH  67  90
ATOM     90  C   UNL A   1      43.846  28.374  35.148  1.00  0.00     0.064 A 
ATOM     91  C   UNL A   1      43.573  27.235  35.920  1.00  0.00     0.173 A 
ATOM     92  C   UNL A   1      45.188  28.680  34.878  1.00  0.00     0.173 A 
ATOM     93  F   UNL A   1      42.307  26.907  36.217  1.00  0.00    -0.203 F 
ATOM     94  C   UNL A   1      44.606  26.449  36.423  1.00  0.00     0.198 A 
ATOM     95  C   UNL A   1      46.217  27.873  35.355  1.00  0.00     0.198 A 
ATOM     96  F   UNL A   1      45.502  29.754  34.137  1.00  0.00    -0.203 F 
ATOM     97  F   UNL A   1      44.325  25.394  37.200  1.00  0.00    -0.200 F 
ATOM     98  C   UNL A   1      45.926  26.763  36.133  1.00  0.00     0.200 A 
ATOM     99  F   UNL A   1      47.490  28.169  35.060  1.00  0.00    -0.200 F 
ATOM    100  F   UNL A   1      46.918  26.001  36.611  1.00  0.00    -0.200 F 
ENDBRANCH  67  90
ENDBRANCH  41  42
ENDBRANCH  34  36
ENDBRANCH  33  34
ENDBRANCH  32  33
ENDBRANCH  31  32
ENDBRANCH  30  31
ENDBRANCH  29  30
ENDBRANCH   1  29
TORSDOF 21
ENDMDL
