MODEL 1
REMARK VINA RESULT:     -12.2      0.000      0.000
REMARK SMILES COc1ccc(F)c(NC(=O)N2CCCC[C@@H]2C(=O)OCCOCCOC(=O)c2ccc(-c3c4nc(c(-c5c(F)c(F)c(F)c(F)c5F)c5ccc([nH]5)c(-c5c(F)c(F)c(F)c(F)c5F)c5nc(c(-c6c(F)c(F)c(F)c(F)c6F)c6ccc3[nH]6)C=C5)C=C4)cc2)c1
REMARK SMILES IDX 22 1 21 2 20 3 18 4 19 5 17 6 12 7 13 8 14 9 16 10 15 11
REMARK SMILES IDX 10 12 9 13 11 15 8 16 3 17 4 18 92 19 5 20 6 21 7 22 2 23
REMARK SMILES IDX 1 24 23 25 24 26 25 27 26 28 27 29 28 30 29 31 30 32 91 33
REMARK SMILES IDX 31 34 90 35 32 36 33 37 34 38 84 39 35 40 89 41 83 42 85 43
REMARK SMILES IDX 36 44 88 45 82 46 81 47 37 49 69 50 49 51 68 52 50 53 53 54
REMARK SMILES IDX 67 55 86 56 51 57 52 58 66 60 87 61 54 62 38 63 39 64 47 65
REMARK SMILES IDX 40 66 41 67 45 68 48 69 42 70 43 71 46 72 44 73 70 74 71 75
REMARK SMILES IDX 79 76 72 77 73 78 77 79 80 80 74 81 75 82 78 83 76 84 55 85
REMARK SMILES IDX 56 86 64 87 57 88 58 89 62 90 65 91 59 92 60 93 63 94 61 95
REMARK H PARENT 9 14 85 48 53 59
REMARK Flexibility Score: inf
ROOT
ATOM      1  C   UNL A   1      35.687  23.828  24.272  1.00  0.00     0.202 C 
ENDROOT
BRANCH   1   2
ATOM      2  C   UNL A   1      34.442  24.368  25.006  1.00  0.00     0.261 C 
BRANCH   2   3
ATOM      3  O   UNL A   1      34.332  25.800  25.095  1.00  0.00    -0.462 OA
BRANCH   3   4
ATOM      4  C   UNL A   1      33.218  26.261  24.477  1.00  0.00     0.329 C 
ATOM      5  O   UNL A   1      32.831  25.828  23.397  1.00  0.00    -0.250 OA
BRANCH   4   6
ATOM      6  C   UNL A   1      32.404  27.293  25.250  1.00  0.00     0.196 C 
ATOM      7  N   UNL A   1      32.209  28.635  24.658  1.00  0.00    -0.311 N 
ATOM      8  C   UNL A   1      31.493  29.599  25.491  1.00  0.00     0.122 C 
ATOM      9  C   UNL A   1      31.981  29.658  26.934  1.00  0.00     0.022 C 
ATOM     10  C   UNL A   1      32.955  27.386  26.688  1.00  0.00     0.037 C 
ATOM     11  C   UNL A   1      32.066  28.271  27.550  1.00  0.00     0.005 C 
BRANCH   7  12
ATOM     12  C   UNL A   1      32.490  29.028  23.373  1.00  0.00     0.322 C 
ATOM     13  N   UNL A   1      31.540  29.088  22.408  1.00  0.00    -0.305 N 
ATOM     14  H   UNL A   1      31.902  28.960  21.502  1.00  0.00     0.171 HD
ATOM     15  O   UNL A   1      33.648  29.295  23.038  1.00  0.00    -0.248 OA
BRANCH  13  16
ATOM     16  C   UNL A   1      30.146  29.295  22.426  1.00  0.00     0.082 A 
ATOM     17  C   UNL A   1      28.206  30.708  22.699  1.00  0.00     0.121 A 
ATOM     18  C   UNL A   1      27.433  29.601  23.064  1.00  0.00     0.049 A 
ATOM     19  C   UNL A   1      29.538  30.544  22.288  1.00  0.00     0.075 A 
ATOM     20  C   UNL A   1      27.999  28.326  23.045  1.00  0.00     0.045 A 
ATOM     21  C   UNL A   1      29.346  28.183  22.727  1.00  0.00     0.147 A 
ATOM     22  F   UNL A   1      29.911  26.969  22.837  1.00  0.00    -0.205 F 
BRANCH  17  23
ATOM     23  O   UNL A   1      27.757  32.000  22.802  1.00  0.00    -0.497 OA
ATOM     24  C   UNL A   1      28.768  32.968  22.496  1.00  0.00     0.278 C 
ENDBRANCH  17  23
ENDBRANCH  13  16
ENDBRANCH   7  12
ENDBRANCH   4   6
ENDBRANCH   3   4
ENDBRANCH   2   3
ENDBRANCH   1   2
BRANCH   1  25
ATOM     25  O   UNL A   1      35.814  22.444  23.947  1.00  0.00    -0.374 OA
BRANCH  25  26
ATOM     26  C   UNL A   1      35.924  21.515  25.028  1.00  0.00     0.202 C 
BRANCH  26  27
ATOM     27  C   UNL A   1      37.235  20.747  25.147  1.00  0.00     0.261 C 
BRANCH  27  28
ATOM     28  O   UNL A   1      38.326  21.680  25.153  1.00  0.00    -0.460 OA
BRANCH  28  29
ATOM     29  C   UNL A   1      39.310  21.370  26.024  1.00  0.00     0.338 C 
ATOM     30  O   UNL A   1      39.931  20.321  26.094  1.00  0.00    -0.246 OA
BRANCH  29  31
ATOM     31  C   UNL A   1      39.717  22.588  26.751  1.00  0.00     0.060 A 
ATOM     32  C   UNL A   1      38.993  23.757  26.472  1.00  0.00     0.016 A 
ATOM     33  C   UNL A   1      40.757  22.597  27.684  1.00  0.00     0.016 A 
ATOM     34  C   UNL A   1      39.364  24.959  27.052  1.00  0.00     0.010 A 
ATOM     35  C   UNL A   1      41.145  23.811  28.252  1.00  0.00     0.010 A 
ATOM     36  C   UNL A   1      40.485  24.999  27.888  1.00  0.00    -0.014 A 
BRANCH  36  37
ATOM     37  C   UNL A   1      41.105  26.309  28.164  1.00  0.00     0.031 A 
ATOM     38  C   UNL A   1      42.513  26.531  27.693  1.00  0.00     0.074 A 
ATOM     39  C   UNL A   1      40.405  27.295  28.745  1.00  0.00     0.049 A 
ATOM     40  N   UNL A   1      43.281  27.579  27.832  1.00  0.00    -0.248 NA
ATOM     41  C   UNL A   1      43.141  25.419  26.957  1.00  0.00     0.031 C 
ATOM     42  C   UNL A   1      39.009  27.203  29.166  1.00  0.00     0.029 A 
ATOM     43  N   UNL A   1      40.777  28.573  29.073  1.00  0.00    -0.354 N 
ATOM     44  C   UNL A   1      44.478  27.250  27.210  1.00  0.00     0.074 A 
ATOM     45  C   UNL A   1      44.353  25.896  26.721  1.00  0.00     0.031 C 
ATOM     46  C   UNL A   1      38.642  28.377  29.704  1.00  0.00     0.029 A 
ATOM     47  C   UNL A   1      39.787  29.286  29.699  1.00  0.00     0.049 A 
ATOM     48  H   UNL A   1      41.668  28.942  28.878  1.00  0.00     0.167 HD
ATOM     49  C   UNL A   1      45.578  28.020  27.051  1.00  0.00     0.037 A 
ATOM     50  C   UNL A   1      39.818  30.524  30.226  1.00  0.00     0.037 A 
ATOM     51  C   UNL A   1      45.683  29.368  27.540  1.00  0.00     0.049 A 
ATOM     52  C   UNL A   1      41.087  31.330  30.124  1.00  0.00     0.074 A 
ATOM     53  C   UNL A   1      46.752  30.240  27.438  1.00  0.00     0.029 A 
ATOM     54  N   UNL A   1      44.680  30.039  28.227  1.00  0.00    -0.354 N 
ATOM     55  N   UNL A   1      42.221  31.014  29.545  1.00  0.00    -0.248 NA
ATOM     56  C   UNL A   1      41.083  32.660  30.745  1.00  0.00     0.031 C 
ATOM     57  C   UNL A   1      46.418  31.414  28.116  1.00  0.00     0.029 A 
ATOM     58  C   UNL A   1      45.117  31.303  28.581  1.00  0.00     0.049 A 
ATOM     59  H   UNL A   1      43.790  29.669  28.432  1.00  0.00     0.167 HD
ATOM     60  C   UNL A   1      43.056  32.112  29.710  1.00  0.00     0.074 A 
ATOM     61  C   UNL A   1      42.292  33.107  30.436  1.00  0.00     0.031 C 
ATOM     62  C   UNL A   1      44.336  32.281  29.298  1.00  0.00     0.037 A 
BRANCH  49  63
ATOM     63  C   UNL A   1      46.758  27.422  26.345  1.00  0.00     0.064 A 
ATOM     64  C   UNL A   1      47.742  26.734  27.071  1.00  0.00     0.173 A 
ATOM     65  C   UNL A   1      46.948  27.575  24.964  1.00  0.00     0.173 A 
ATOM     66  F   UNL A   1      47.608  26.557  28.394  1.00  0.00    -0.203 F 
ATOM     67  C   UNL A   1      48.883  26.240  26.443  1.00  0.00     0.198 A 
ATOM     68  C   UNL A   1      48.075  27.052  24.334  1.00  0.00     0.198 A 
ATOM     69  F   UNL A   1      46.027  28.206  24.220  1.00  0.00    -0.203 F 
ATOM     70  F   UNL A   1      49.826  25.618  27.164  1.00  0.00    -0.200 F 
ATOM     71  C   UNL A   1      49.046  26.396  25.075  1.00  0.00     0.200 A 
ATOM     72  F   UNL A   1      48.218  27.177  23.007  1.00  0.00    -0.200 F 
ATOM     73  F   UNL A   1      50.140  25.911  24.470  1.00  0.00    -0.200 F 
ENDBRANCH  49  63
BRANCH  50  74
ATOM     74  C   UNL A   1      38.605  31.064  30.892  1.00  0.00     0.064 A 
ATOM     75  C   UNL A   1      38.449  30.993  32.285  1.00  0.00     0.173 A 
ATOM     76  C   UNL A   1      37.560  31.624  30.146  1.00  0.00     0.173 A 
ATOM     77  F   UNL A   1      39.421  30.468  33.045  1.00  0.00    -0.203 F 
ATOM     78  C   UNL A   1      37.280  31.434  32.902  1.00  0.00     0.198 A 
ATOM     79  C   UNL A   1      36.402  32.090  30.768  1.00  0.00     0.198 A 
ATOM     80  F   UNL A   1      37.672  31.734  28.815  1.00  0.00    -0.203 F 
ATOM     81  F   UNL A   1      37.140  31.316  34.229  1.00  0.00    -0.200 F 
ATOM     82  C   UNL A   1      36.259  31.984  32.143  1.00  0.00     0.200 A 
ATOM     83  F   UNL A   1      35.428  32.642  30.033  1.00  0.00    -0.200 F 
ATOM     84  F   UNL A   1      35.137  32.414  32.737  1.00  0.00    -0.200 F 
ENDBRANCH  50  74
BRANCH  62  85
ATOM     85  C   UNL A   1      44.999  33.596  29.591  1.00  0.00     0.064 A 
ATOM     86  C   UNL A   1      44.926  34.648  28.664  1.00  0.00     0.173 A 
ATOM     87  C   UNL A   1      45.789  33.781  30.734  1.00  0.00     0.173 A 
ATOM     88  F   UNL A   1      44.193  34.517  27.548  1.00  0.00    -0.203 F 
ATOM     89  C   UNL A   1      45.638  35.828  28.860  1.00  0.00     0.198 A 
ATOM     90  C   UNL A   1      46.474  34.976  30.943  1.00  0.00     0.198 A 
ATOM     91  F   UNL A   1      45.885  32.809  31.654  1.00  0.00    -0.203 F 
ATOM     92  F   UNL A   1      45.590  36.799  27.938  1.00  0.00    -0.200 F 
ATOM     93  C   UNL A   1      46.408  35.991  30.001  1.00  0.00     0.200 A 
ATOM     94  F   UNL A   1      47.199  35.142  32.057  1.00  0.00    -0.200 F 
ATOM     95  F   UNL A   1      47.089  37.130  30.192  1.00  0.00    -0.200 F 
ENDBRANCH  62  85
ENDBRANCH  36  37
ENDBRANCH  29  31
ENDBRANCH  28  29
ENDBRANCH  27  28
ENDBRANCH  26  27
ENDBRANCH  25  26
ENDBRANCH   1  25
TORSDOF 17
ENDMDL
MODEL 2
REMARK VINA RESULT:     -12.2      0.568      7.223
REMARK SMILES COc1ccc(F)c(NC(=O)N2CCCC[C@@H]2C(=O)OCCOCCOC(=O)c2ccc(-c3c4nc(c(-c5c(F)c(F)c(F)c(F)c5F)c5ccc([nH]5)c(-c5c(F)c(F)c(F)c(F)c5F)c5nc(c(-c6c(F)c(F)c(F)c(F)c6F)c6ccc3[nH]6)C=C5)C=C4)cc2)c1
REMARK SMILES IDX 22 1 21 2 20 3 18 4 19 5 17 6 12 7 13 8 14 9 16 10 15 11
REMARK SMILES IDX 10 12 9 13 11 15 8 16 3 17 4 18 92 19 5 20 6 21 7 22 2 23
REMARK SMILES IDX 1 24 23 25 24 26 25 27 26 28 27 29 28 30 29 31 30 32 91 33
REMARK SMILES IDX 31 34 90 35 32 36 33 37 34 38 84 39 35 40 89 41 83 42 85 43
REMARK SMILES IDX 36 44 88 45 82 46 81 47 37 49 69 50 49 51 68 52 50 53 53 54
REMARK SMILES IDX 67 55 86 56 51 57 52 58 66 60 87 61 54 62 38 63 39 64 47 65
REMARK SMILES IDX 40 66 41 67 45 68 48 69 42 70 43 71 46 72 44 73 70 74 71 75
REMARK SMILES IDX 79 76 72 77 73 78 77 79 80 80 74 81 75 82 78 83 76 84 55 85
REMARK SMILES IDX 56 86 64 87 57 88 58 89 62 90 65 91 59 92 60 93 63 94 61 95
REMARK H PARENT 9 14 85 48 53 59
REMARK Flexibility Score: inf
ROOT
ATOM      1  C   UNL A   1      34.971  23.597  24.542  1.00  0.00     0.202 C 
ENDROOT
BRANCH   1   2
ATOM      2  C   UNL A   1      34.033  24.673  23.957  1.00  0.00     0.261 C 
BRANCH   2   3
ATOM      3  O   UNL A   1      33.083  25.250  24.871  1.00  0.00    -0.462 OA
BRANCH   3   4
ATOM      4  C   UNL A   1      32.250  26.121  24.252  1.00  0.00     0.329 C 
ATOM      5  O   UNL A   1      31.825  25.939  23.116  1.00  0.00    -0.250 OA
BRANCH   4   6
ATOM      6  C   UNL A   1      31.783  27.307  25.088  1.00  0.00     0.196 C 
ATOM      7  N   UNL A   1      31.906  28.668  24.523  1.00  0.00    -0.311 N 
ATOM      8  C   UNL A   1      31.518  29.763  25.411  1.00  0.00     0.122 C 
ATOM      9  C   UNL A   1      32.097  29.656  26.817  1.00  0.00     0.022 C 
ATOM     10  C   UNL A   1      32.430  27.216  26.485  1.00  0.00     0.037 C 
ATOM     11  C   UNL A   1      31.858  28.278  27.414  1.00  0.00     0.005 C 
BRANCH   7  12
ATOM     12  C   UNL A   1      32.196  29.009  23.224  1.00  0.00     0.322 C 
ATOM     13  N   UNL A   1      31.234  29.183  22.287  1.00  0.00    -0.305 N 
ATOM     14  H   UNL A   1      31.548  29.000  21.372  1.00  0.00     0.171 HD
ATOM     15  O   UNL A   1      33.368  29.120  22.853  1.00  0.00    -0.248 OA
BRANCH  13  16
ATOM     16  C   UNL A   1      29.879  29.570  22.341  1.00  0.00     0.082 A 
ATOM     17  C   UNL A   1      28.149  31.232  22.617  1.00  0.00     0.121 A 
ATOM     18  C   UNL A   1      27.254  30.250  23.055  1.00  0.00     0.049 A 
ATOM     19  C   UNL A   1      29.431  30.881  22.170  1.00  0.00     0.075 A 
ATOM     20  C   UNL A   1      27.651  28.913  23.072  1.00  0.00     0.045 A 
ATOM     21  C   UNL A   1      28.955  28.584  22.717  1.00  0.00     0.147 A 
ATOM     22  F   UNL A   1      29.363  27.312  22.860  1.00  0.00    -0.205 F 
BRANCH  17  23
ATOM     23  O   UNL A   1      27.873  32.575  22.679  1.00  0.00    -0.497 OA
ATOM     24  C   UNL A   1      29.015  33.363  23.035  1.00  0.00     0.278 C 
ENDBRANCH  17  23
ENDBRANCH  13  16
ENDBRANCH   7  12
ENDBRANCH   4   6
ENDBRANCH   3   4
ENDBRANCH   2   3
ENDBRANCH   1   2
BRANCH   1  25
ATOM     25  O   UNL A   1      35.170  22.348  23.880  1.00  0.00    -0.374 OA
BRANCH  25  26
ATOM     26  C   UNL A   1      35.726  21.273  24.642  1.00  0.00     0.202 C 
BRANCH  26  27
ATOM     27  C   UNL A   1      37.246  21.170  24.682  1.00  0.00     0.261 C 
BRANCH  27  28
ATOM     28  O   UNL A   1      37.719  21.697  25.931  1.00  0.00    -0.460 OA
BRANCH  28  29
ATOM     29  C   UNL A   1      39.036  21.496  26.150  1.00  0.00     0.338 C 
ATOM     30  O   UNL A   1      39.723  20.578  25.730  1.00  0.00    -0.246 OA
BRANCH  29  31
ATOM     31  C   UNL A   1      39.611  22.696  26.788  1.00  0.00     0.060 A 
ATOM     32  C   UNL A   1      38.983  23.918  26.507  1.00  0.00     0.016 A 
ATOM     33  C   UNL A   1      40.715  22.639  27.643  1.00  0.00     0.016 A 
ATOM     34  C   UNL A   1      39.511  25.100  27.001  1.00  0.00     0.010 A 
ATOM     35  C   UNL A   1      41.259  23.831  28.124  1.00  0.00     0.010 A 
ATOM     36  C   UNL A   1      40.690  25.062  27.752  1.00  0.00    -0.014 A 
BRANCH  36  37
ATOM     37  C   UNL A   1      41.452  26.315  27.921  1.00  0.00     0.031 A 
ATOM     38  C   UNL A   1      40.805  27.429  28.693  1.00  0.00     0.074 A 
ATOM     39  C   UNL A   1      42.711  26.424  27.470  1.00  0.00     0.049 A 
ATOM     40  N   UNL A   1      41.255  28.627  28.957  1.00  0.00    -0.248 NA
ATOM     41  C   UNL A   1      39.468  27.152  29.248  1.00  0.00     0.031 C 
ATOM     42  C   UNL A   1      43.452  25.371  26.779  1.00  0.00     0.029 A 
ATOM     43  N   UNL A   1      43.588  27.475  27.534  1.00  0.00    -0.354 N 
ATOM     44  C   UNL A   1      40.258  29.244  29.700  1.00  0.00     0.074 A 
ATOM     45  C   UNL A   1      39.164  28.307  29.818  1.00  0.00     0.031 C 
ATOM     46  C   UNL A   1      44.676  25.833  26.477  1.00  0.00     0.029 A 
ATOM     47  C   UNL A   1      44.788  27.222  26.918  1.00  0.00     0.049 A 
ATOM     48  H   UNL A   1      43.377  28.327  27.978  1.00  0.00     0.167 HD
ATOM     49  C   UNL A   1      40.265  30.481  30.246  1.00  0.00     0.037 A 
ATOM     50  C   UNL A   1      45.841  28.035  26.718  1.00  0.00     0.037 A 
ATOM     51  C   UNL A   1      41.365  31.400  30.122  1.00  0.00     0.049 A 
ATOM     52  C   UNL A   1      45.789  29.443  27.250  1.00  0.00     0.074 A 
ATOM     53  C   UNL A   1      41.478  32.680  30.632  1.00  0.00     0.029 A 
ATOM     54  N   UNL A   1      42.542  31.133  29.437  1.00  0.00    -0.354 N 
ATOM     55  N   UNL A   1      44.842  30.030  27.944  1.00  0.00    -0.248 NA
ATOM     56  C   UNL A   1      46.948  30.303  26.976  1.00  0.00     0.031 C 
ATOM     57  C   UNL A   1      42.697  33.210  30.204  1.00  0.00     0.029 A 
ATOM     58  C   UNL A   1      43.375  32.237  29.485  1.00  0.00     0.049 A 
ATOM     59  H   UNL A   1      42.752  30.284  28.983  1.00  0.00     0.167 HD
ATOM     60  C   UNL A   1      45.298  31.315  28.209  1.00  0.00     0.074 A 
ATOM     61  C   UNL A   1      46.613  31.419  27.609  1.00  0.00     0.031 C 
ATOM     62  C   UNL A   1      44.685  32.316  28.887  1.00  0.00     0.037 A 
BRANCH  49  63
ATOM     63  C   UNL A   1      39.047  30.923  31.001  1.00  0.00     0.064 A 
ATOM     64  C   UNL A   1      38.956  30.705  32.384  1.00  0.00     0.173 A 
ATOM     65  C   UNL A   1      37.948  31.509  30.355  1.00  0.00     0.173 A 
ATOM     66  F   UNL A   1      39.979  30.152  33.052  1.00  0.00    -0.203 F 
ATOM     67  C   UNL A   1      37.801  31.038  33.088  1.00  0.00     0.198 A 
ATOM     68  C   UNL A   1      36.808  31.869  31.068  1.00  0.00     0.198 A 
ATOM     69  F   UNL A   1      37.992  31.758  29.037  1.00  0.00    -0.203 F 
ATOM     70  F   UNL A   1      37.724  30.787  34.403  1.00  0.00    -0.200 F 
ATOM     71  C   UNL A   1      36.730  31.623  32.430  1.00  0.00     0.200 A 
ATOM     72  F   UNL A   1      35.784  32.462  30.436  1.00  0.00    -0.200 F 
ATOM     73  F   UNL A   1      35.623  31.954  33.111  1.00  0.00    -0.200 F 
ENDBRANCH  49  63
BRANCH  50  74
ATOM     74  C   UNL A   1      47.026  27.526  25.981  1.00  0.00     0.064 A 
ATOM     75  C   UNL A   1      48.111  26.949  26.659  1.00  0.00     0.173 A 
ATOM     76  C   UNL A   1      47.115  27.644  24.588  1.00  0.00     0.173 A 
ATOM     77  F   UNL A   1      48.074  26.810  27.992  1.00  0.00    -0.203 F 
ATOM     78  C   UNL A   1      49.252  26.537  25.973  1.00  0.00     0.198 A 
ATOM     79  C   UNL A   1      48.246  27.206  23.900  1.00  0.00     0.198 A 
ATOM     80  F   UNL A   1      46.095  28.168  23.894  1.00  0.00    -0.203 F 
ATOM     81  F   UNL A   1      50.290  26.027  26.650  1.00  0.00    -0.200 F 
ATOM     82  C   UNL A   1      49.317  26.664  24.594  1.00  0.00     0.200 A 
ATOM     83  F   UNL A   1      48.296  27.309  22.566  1.00  0.00    -0.200 F 
ATOM     84  F   UNL A   1      50.412  26.262  23.934  1.00  0.00    -0.200 F 
ENDBRANCH  50  74
BRANCH  62  85
ATOM     85  C   UNL A   1      45.428  33.611  29.048  1.00  0.00     0.064 A 
ATOM     86  C   UNL A   1      46.226  33.832  30.182  1.00  0.00     0.173 A 
ATOM     87  C   UNL A   1      45.269  34.666  28.140  1.00  0.00     0.173 A 
ATOM     88  F   UNL A   1      46.400  32.857  31.088  1.00  0.00    -0.203 F 
ATOM     89  C   UNL A   1      46.819  35.069  30.412  1.00  0.00     0.198 A 
ATOM     90  C   UNL A   1      45.892  35.893  28.356  1.00  0.00     0.198 A 
ATOM     91  F   UNL A   1      44.524  34.502  27.037  1.00  0.00    -0.203 F 
ATOM     92  F   UNL A   1      47.537  35.271  31.525  1.00  0.00    -0.200 F 
ATOM     93  C   UNL A   1      46.655  36.098  29.496  1.00  0.00     0.200 A 
ATOM     94  F   UNL A   1      45.751  36.879  27.459  1.00  0.00    -0.200 F 
ATOM     95  F   UNL A   1      47.230  37.288  29.714  1.00  0.00    -0.200 F 
ENDBRANCH  62  85
ENDBRANCH  36  37
ENDBRANCH  29  31
ENDBRANCH  28  29
ENDBRANCH  27  28
ENDBRANCH  26  27
ENDBRANCH  25  26
ENDBRANCH   1  25
TORSDOF 17
ENDMDL
MODEL 3
REMARK VINA RESULT:     -12.1      4.241      9.630
REMARK SMILES COc1ccc(F)c(NC(=O)N2CCCC[C@@H]2C(=O)OCCOCCOC(=O)c2ccc(-c3c4nc(c(-c5c(F)c(F)c(F)c(F)c5F)c5ccc([nH]5)c(-c5c(F)c(F)c(F)c(F)c5F)c5nc(c(-c6c(F)c(F)c(F)c(F)c6F)c6ccc3[nH]6)C=C5)C=C4)cc2)c1
REMARK SMILES IDX 22 1 21 2 20 3 18 4 19 5 17 6 12 7 13 8 14 9 16 10 15 11
REMARK SMILES IDX 10 12 9 13 11 15 8 16 3 17 4 18 92 19 5 20 6 21 7 22 2 23
REMARK SMILES IDX 1 24 23 25 24 26 25 27 26 28 27 29 28 30 29 31 30 32 91 33
REMARK SMILES IDX 31 34 90 35 32 36 33 37 34 38 84 39 35 40 89 41 83 42 85 43
REMARK SMILES IDX 36 44 88 45 82 46 81 47 37 49 69 50 49 51 68 52 50 53 53 54
REMARK SMILES IDX 67 55 86 56 51 57 52 58 66 60 87 61 54 62 38 63 39 64 47 65
REMARK SMILES IDX 40 66 41 67 45 68 48 69 42 70 43 71 46 72 44 73 70 74 71 75
REMARK SMILES IDX 79 76 72 77 73 78 77 79 80 80 74 81 75 82 78 83 76 84 55 85
REMARK SMILES IDX 56 86 64 87 57 88 58 89 62 90 65 91 59 92 60 93 63 94 61 95
REMARK H PARENT 9 14 85 48 53 59
REMARK Flexibility Score: inf
ROOT
ATOM      1  C   UNL A   1      31.952  29.087  25.434  1.00  0.00     0.202 C 
ENDROOT
BRANCH   1   2
ATOM      2  C   UNL A   1      33.127  28.315  24.800  1.00  0.00     0.261 C 
BRANCH   2   3
ATOM      3  O   UNL A   1      33.106  26.885  24.961  1.00  0.00    -0.462 OA
BRANCH   3   4
ATOM      4  C   UNL A   1      33.642  26.247  23.893  1.00  0.00     0.329 C 
ATOM      5  O   UNL A   1      33.554  26.680  22.749  1.00  0.00    -0.250 OA
BRANCH   4   6
ATOM      6  C   UNL A   1      34.456  24.996  24.202  1.00  0.00     0.196 C 
ATOM      7  N   UNL A   1      34.078  23.722  23.551  1.00  0.00    -0.311 N 
ATOM      8  C   UNL A   1      34.847  22.548  23.959  1.00  0.00     0.122 C 
ATOM      9  C   UNL A   1      35.017  22.409  25.467  1.00  0.00     0.022 C 
ATOM     10  C   UNL A   1      34.562  24.837  25.733  1.00  0.00     0.037 C 
ATOM     11  C   UNL A   1      35.512  23.703  26.093  1.00  0.00     0.005 C 
BRANCH   7  12
ATOM     12  C   UNL A   1      33.199  23.546  22.512  1.00  0.00     0.322 C 
ATOM     13  N   UNL A   1      31.855  23.558  22.687  1.00  0.00    -0.305 N 
ATOM     14  H   UNL A   1      31.373  23.024  22.015  1.00  0.00     0.171 HD
ATOM     15  O   UNL A   1      33.614  23.319  21.372  1.00  0.00    -0.248 OA
BRANCH  13  16
ATOM     16  C   UNL A   1      31.001  24.171  23.626  1.00  0.00     0.082 A 
ATOM     17  C   UNL A   1      29.720  26.055  24.428  1.00  0.00     0.121 A 
ATOM     18  C   UNL A   1      29.828  25.588  25.742  1.00  0.00     0.049 A 
ATOM     19  C   UNL A   1      30.224  25.299  23.359  1.00  0.00     0.075 A 
ATOM     20  C   UNL A   1      30.466  24.373  25.993  1.00  0.00     0.045 A 
ATOM     21  C   UNL A   1      31.045  23.676  24.938  1.00  0.00     0.147 A 
ATOM     22  F   UNL A   1      31.766  22.575  25.208  1.00  0.00    -0.205 F 
BRANCH  17  23
ATOM     23  O   UNL A   1      29.211  27.290  24.113  1.00  0.00    -0.497 OA
ATOM     24  C   UNL A   1      29.833  27.872  22.962  1.00  0.00     0.278 C 
ENDBRANCH  17  23
ENDBRANCH  13  16
ENDBRANCH   7  12
ENDBRANCH   4   6
ENDBRANCH   3   4
ENDBRANCH   2   3
ENDBRANCH   1   2
BRANCH   1  25
ATOM     25  O   UNL A   1      32.177  30.171  26.335  1.00  0.00    -0.374 OA
BRANCH  25  26
ATOM     26  C   UNL A   1      31.343  31.326  26.207  1.00  0.00     0.202 C 
BRANCH  26  27
ATOM     27  C   UNL A   1      31.856  32.620  26.826  1.00  0.00     0.261 C 
BRANCH  27  28
ATOM     28  O   UNL A   1      32.857  32.305  27.808  1.00  0.00    -0.460 OA
BRANCH  28  29
ATOM     29  C   UNL A   1      33.810  33.252  27.945  1.00  0.00     0.338 C 
ATOM     30  O   UNL A   1      33.647  34.460  28.015  1.00  0.00    -0.246 OA
BRANCH  29  31
ATOM     31  C   UNL A   1      35.099  32.602  28.249  1.00  0.00     0.060 A 
ATOM     32  C   UNL A   1      35.079  31.207  28.400  1.00  0.00     0.016 A 
ATOM     33  C   UNL A   1      36.294  33.316  28.371  1.00  0.00     0.016 A 
ATOM     34  C   UNL A   1      36.231  30.531  28.766  1.00  0.00     0.010 A 
ATOM     35  C   UNL A   1      37.450  32.639  28.759  1.00  0.00     0.010 A 
ATOM     36  C   UNL A   1      37.401  31.257  29.015  1.00  0.00    -0.014 A 
BRANCH  36  37
ATOM     37  C   UNL A   1      38.480  30.603  29.780  1.00  0.00     0.031 A 
ATOM     38  C   UNL A   1      38.631  30.968  31.229  1.00  0.00     0.074 A 
ATOM     39  C   UNL A   1      39.246  29.654  29.221  1.00  0.00     0.049 A 
ATOM     40  N   UNL A   1      39.509  30.554  32.104  1.00  0.00    -0.248 NA
ATOM     41  C   UNL A   1      37.654  31.931  31.768  1.00  0.00     0.031 C 
ATOM     42  C   UNL A   1      39.124  29.175  27.847  1.00  0.00     0.029 A 
ATOM     43  N   UNL A   1      40.277  28.921  29.749  1.00  0.00    -0.354 N 
ATOM     44  C   UNL A   1      39.194  31.207  33.287  1.00  0.00     0.074 A 
ATOM     45  C   UNL A   1      38.068  32.071  33.017  1.00  0.00     0.031 C 
ATOM     46  C   UNL A   1      40.052  28.226  27.636  1.00  0.00     0.029 A 
ATOM     47  C   UNL A   1      40.853  28.062  28.848  1.00  0.00     0.049 A 
ATOM     48  H   UNL A   1      40.573  29.003  30.684  1.00  0.00     0.167 HD
ATOM     49  C   UNL A   1      39.787  31.082  34.495  1.00  0.00     0.037 A 
ATOM     50  C   UNL A   1      41.923  27.257  28.988  1.00  0.00     0.037 A 
ATOM     51  C   UNL A   1      40.904  30.212  34.748  1.00  0.00     0.049 A 
ATOM     52  C   UNL A   1      42.630  27.206  30.317  1.00  0.00     0.074 A 
ATOM     53  C   UNL A   1      41.586  30.009  35.933  1.00  0.00     0.029 A 
ATOM     54  N   UNL A   1      41.505  29.402  33.794  1.00  0.00    -0.354 N 
ATOM     55  N   UNL A   1      42.338  27.832  31.433  1.00  0.00    -0.248 NA
ATOM     56  C   UNL A   1      43.813  26.340  30.409  1.00  0.00     0.031 C 
ATOM     57  C   UNL A   1      42.636  29.124  35.682  1.00  0.00     0.029 A 
ATOM     58  C   UNL A   1      42.568  28.720  34.358  1.00  0.00     0.049 A 
ATOM     59  H   UNL A   1      41.216  29.325  32.855  1.00  0.00     0.167 HD
ATOM     60  C   UNL A   1      43.282  27.419  32.364  1.00  0.00     0.074 A 
ATOM     61  C   UNL A   1      44.151  26.480  31.684  1.00  0.00     0.031 C 
ATOM     62  C   UNL A   1      43.416  27.783  33.663  1.00  0.00     0.037 A 
BRANCH  49  63
ATOM     63  C   UNL A   1      39.262  31.916  35.626  1.00  0.00     0.064 A 
ATOM     64  C   UNL A   1      39.722  33.229  35.810  1.00  0.00     0.173 A 
ATOM     65  C   UNL A   1      38.348  31.404  36.560  1.00  0.00     0.173 A 
ATOM     66  F   UNL A   1      40.593  33.768  34.944  1.00  0.00    -0.203 F 
ATOM     67  C   UNL A   1      39.303  33.990  36.898  1.00  0.00     0.198 A 
ATOM     68  C   UNL A   1      37.908  32.179  37.629  1.00  0.00     0.198 A 
ATOM     69  F   UNL A   1      37.862  30.161  36.418  1.00  0.00    -0.203 F 
ATOM     70  F   UNL A   1      39.784  35.228  37.072  1.00  0.00    -0.200 F 
ATOM     71  C   UNL A   1      38.394  33.466  37.804  1.00  0.00     0.200 A 
ATOM     72  F   UNL A   1      37.007  31.682  38.488  1.00  0.00    -0.200 F 
ATOM     73  F   UNL A   1      37.983  34.203  38.846  1.00  0.00    -0.200 F 
ENDBRANCH  49  63
BRANCH  50  74
ATOM     74  C   UNL A   1      42.377  26.440  27.833  1.00  0.00     0.064 A 
ATOM     75  C   UNL A   1      43.370  26.909  26.958  1.00  0.00     0.173 A 
ATOM     76  C   UNL A   1      41.799  25.196  27.557  1.00  0.00     0.173 A 
ATOM     77  F   UNL A   1      43.956  28.094  27.180  1.00  0.00    -0.203 F 
ATOM     78  C   UNL A   1      43.744  26.175  25.835  1.00  0.00     0.198 A 
ATOM     79  C   UNL A   1      42.194  24.449  26.447  1.00  0.00     0.198 A 
ATOM     80  F   UNL A   1      40.862  24.696  28.376  1.00  0.00    -0.203 F 
ATOM     81  F   UNL A   1      44.664  26.665  24.994  1.00  0.00    -0.200 F 
ATOM     82  C   UNL A   1      43.157  24.945  25.582  1.00  0.00     0.200 A 
ATOM     83  F   UNL A   1      41.641  23.250  26.219  1.00  0.00    -0.200 F 
ATOM     84  F   UNL A   1      43.522  24.236  24.504  1.00  0.00    -0.200 F 
ENDBRANCH  50  74
BRANCH  62  85
ATOM     85  C   UNL A   1      44.524  27.152  34.457  1.00  0.00     0.064 A 
ATOM     86  C   UNL A   1      44.312  25.935  35.124  1.00  0.00     0.173 A 
ATOM     87  C   UNL A   1      45.754  27.799  34.642  1.00  0.00     0.173 A 
ATOM     88  F   UNL A   1      43.148  25.283  34.988  1.00  0.00    -0.203 F 
ATOM     89  C   UNL A   1      45.283  25.400  35.965  1.00  0.00     0.198 A 
ATOM     90  C   UNL A   1      46.735  27.244  35.460  1.00  0.00     0.198 A 
ATOM     91  F   UNL A   1      46.008  28.960  34.021  1.00  0.00    -0.203 F 
ATOM     92  F   UNL A   1      45.040  24.262  36.628  1.00  0.00    -0.200 F 
ATOM     93  C   UNL A   1      46.495  26.054  36.129  1.00  0.00     0.200 A 
ATOM     94  F   UNL A   1      47.915  27.864  35.599  1.00  0.00    -0.200 F 
ATOM     95  F   UNL A   1      47.432  25.536  36.935  1.00  0.00    -0.200 F 
ENDBRANCH  62  85
ENDBRANCH  36  37
ENDBRANCH  29  31
ENDBRANCH  28  29
ENDBRANCH  27  28
ENDBRANCH  26  27
ENDBRANCH  25  26
ENDBRANCH   1  25
TORSDOF 17
ENDMDL
