MODEL 1
REMARK VINA RESULT:     -11.0      0.000      0.000
REMARK SMILES CC(C)Cc1ccc([C@@H](C)C(=O)OCCOCCOC(=O)c2ccc(-c3c4nc(c(-c5c(F)c(F)c(F)c(F)c5F)c5ccc([nH]5)c(-c5c(F)c(F)c(F)c(F)c5F)c5nc(c(-c6c(F)c(F)c(F)c(F)c6F)c6ccc3[nH]6)C=C5)C=C4)cc2)cc1
REMARK SMILES IDX 15 1 14 2 13 3 11 4 12 5 9 6 10 7 8 8 5 9 6 10 86 11 7 12
REMARK SMILES IDX 85 13 4 14 2 15 1 16 3 17 16 18 17 19 18 20 19 21 20 22
REMARK SMILES IDX 21 23 22 24 23 25 84 26 24 27 83 28 25 29 26 30 27 31 77 32
REMARK SMILES IDX 28 33 82 34 76 35 78 36 29 37 81 38 75 39 74 40 30 42 62 43
REMARK SMILES IDX 42 44 61 45 43 46 46 47 60 48 79 49 44 50 45 51 59 53 80 54
REMARK SMILES IDX 47 55 31 56 32 57 40 58 33 59 34 60 38 61 41 62 35 63 36 64
REMARK SMILES IDX 39 65 37 66 63 67 64 68 72 69 65 70 66 71 70 72 73 73 67 74
REMARK SMILES IDX 68 75 71 76 69 77 48 78 49 79 57 80 50 81 51 82 55 83 58 84
REMARK SMILES IDX 52 85 53 86 56 87 54 88
REMARK H PARENT 78 41 46 52
REMARK Flexibility Score: inf
ROOT
ATOM      1  C   UNL A   1      36.657  22.876  24.585  1.00  0.00     0.202 C 
ENDROOT
BRANCH   1   2
ATOM      2  C   UNL A   1      35.467  23.629  23.986  1.00  0.00     0.261 C 
BRANCH   2   3
ATOM      3  O   UNL A   1      34.802  22.823  22.997  1.00  0.00    -0.463 OA
BRANCH   3   4
ATOM      4  C   UNL A   1      33.625  23.309  22.525  1.00  0.00     0.313 C 
ATOM      5  O   UNL A   1      33.518  24.336  21.860  1.00  0.00    -0.252 OA
BRANCH   4   6
ATOM      6  C   UNL A   1      32.412  22.490  22.933  1.00  0.00     0.126 C 
ATOM      7  C   UNL A   1      31.458  23.371  23.738  1.00  0.00     0.025 C 
BRANCH   6   8
ATOM      8  C   UNL A   1      32.651  21.152  23.624  1.00  0.00    -0.034 A 
ATOM      9  C   UNL A   1      32.731  18.645  24.935  1.00  0.00    -0.048 A 
ATOM     10  C   UNL A   1      33.081  19.817  25.615  1.00  0.00     0.004 A 
ATOM     11  C   UNL A   1      32.417  18.724  23.574  1.00  0.00     0.004 A 
ATOM     12  C   UNL A   1      33.038  21.057  24.968  1.00  0.00     0.005 A 
ATOM     13  C   UNL A   1      32.377  19.962  22.927  1.00  0.00     0.005 A 
BRANCH   9  14
ATOM     14  C   UNL A   1      32.594  17.335  25.677  1.00  0.00     0.038 C 
BRANCH  14  15
ATOM     15  C   UNL A   1      33.217  16.147  24.908  1.00  0.00    -0.013 C 
ATOM     16  C   UNL A   1      34.748  16.144  24.976  1.00  0.00     0.008 C 
ATOM     17  C   UNL A   1      32.681  14.821  25.453  1.00  0.00     0.008 C 
ENDBRANCH  14  15
ENDBRANCH   9  14
ENDBRANCH   6   8
ENDBRANCH   4   6
ENDBRANCH   3   4
ENDBRANCH   2   3
ENDBRANCH   1   2
BRANCH   1  18
ATOM     18  O   UNL A   1      36.880  21.564  24.069  1.00  0.00    -0.374 OA
BRANCH  18  19
ATOM     19  C   UNL A   1      36.863  20.485  25.006  1.00  0.00     0.202 C 
BRANCH  19  20
ATOM     20  C   UNL A   1      38.230  19.898  25.373  1.00  0.00     0.261 C 
BRANCH  20  21
ATOM     21  O   UNL A   1      39.237  20.918  25.498  1.00  0.00    -0.460 OA
BRANCH  21  22
ATOM     22  C   UNL A   1      40.010  20.831  26.603  1.00  0.00     0.338 C 
ATOM     23  O   UNL A   1      40.515  19.827  27.082  1.00  0.00    -0.246 OA
BRANCH  22  24
ATOM     24  C   UNL A   1      40.325  22.182  27.104  1.00  0.00     0.060 A 
ATOM     25  C   UNL A   1      39.658  23.263  26.513  1.00  0.00     0.016 A 
ATOM     26  C   UNL A   1      41.305  22.399  28.075  1.00  0.00     0.016 A 
ATOM     27  C   UNL A   1      40.004  24.570  26.853  1.00  0.00     0.010 A 
ATOM     28  C   UNL A   1      41.659  23.711  28.407  1.00  0.00     0.010 A 
ATOM     29  C   UNL A   1      41.036  24.800  27.772  1.00  0.00    -0.014 A 
BRANCH  29  30
ATOM     30  C   UNL A   1      41.560  26.176  27.956  1.00  0.00     0.031 A 
ATOM     31  C   UNL A   1      42.926  26.510  27.423  1.00  0.00     0.074 A 
ATOM     32  C   UNL A   1      40.829  27.117  28.577  1.00  0.00     0.049 A 
ATOM     33  N   UNL A   1      43.609  27.622  27.527  1.00  0.00    -0.248 NA
ATOM     34  C   UNL A   1      43.616  25.447  26.676  1.00  0.00     0.031 C 
ATOM     35  C   UNL A   1      39.480  26.926  29.105  1.00  0.00     0.029 A 
ATOM     36  N   UNL A   1      41.129  28.422  28.883  1.00  0.00    -0.354 N 
ATOM     37  C   UNL A   1      44.812  27.387  26.874  1.00  0.00     0.074 A 
ATOM     38  C   UNL A   1      44.775  26.024  26.390  1.00  0.00     0.031 C 
ATOM     39  C   UNL A   1      39.077  28.066  29.693  1.00  0.00     0.029 A 
ATOM     40  C   UNL A   1      40.151  29.054  29.610  1.00  0.00     0.049 A 
ATOM     41  H   UNL A   1      41.966  28.861  28.607  1.00  0.00     0.167 HD
ATOM     42  C   UNL A   1      45.851  28.235  26.692  1.00  0.00     0.037 A 
ATOM     43  C   UNL A   1      40.140  30.280  30.169  1.00  0.00     0.037 A 
ATOM     44  C   UNL A   1      45.880  29.596  27.156  1.00  0.00     0.049 A 
ATOM     45  C   UNL A   1      41.330  31.188  29.992  1.00  0.00     0.074 A 
ATOM     46  C   UNL A   1      46.870  30.547  26.977  1.00  0.00     0.029 A 
ATOM     47  N   UNL A   1      44.875  30.199  27.895  1.00  0.00    -0.354 N 
ATOM     48  N   UNL A   1      42.447  30.971  29.341  1.00  0.00    -0.248 NA
ATOM     49  C   UNL A   1      41.258  32.511  30.628  1.00  0.00     0.031 C 
ATOM     50  C   UNL A   1      46.486  31.709  27.652  1.00  0.00     0.029 A 
ATOM     51  C   UNL A   1      45.234  31.499  28.208  1.00  0.00     0.049 A 
ATOM     52  H   UNL A   1      44.030  29.767  28.159  1.00  0.00     0.167 HD
ATOM     53  C   UNL A   1      43.195  32.135  29.464  1.00  0.00     0.074 A 
ATOM     54  C   UNL A   1      42.402  33.061  30.245  1.00  0.00     0.031 C 
ATOM     55  C   UNL A   1      44.428  32.412  28.975  1.00  0.00     0.037 A 
BRANCH  42  56
ATOM     56  C   UNL A   1      47.063  27.712  25.979  1.00  0.00     0.064 A 
ATOM     57  C   UNL A   1      47.172  27.751  24.583  1.00  0.00     0.173 A 
ATOM     58  C   UNL A   1      48.153  27.222  26.712  1.00  0.00     0.173 A 
ATOM     59  F   UNL A   1      46.151  28.200  23.838  1.00  0.00    -0.203 F 
ATOM     60  C   UNL A   1      48.326  27.305  23.944  1.00  0.00     0.198 A 
ATOM     61  C   UNL A   1      49.315  26.799  26.072  1.00  0.00     0.198 A 
ATOM     62  F   UNL A   1      48.099  27.168  28.052  1.00  0.00    -0.203 F 
ATOM     63  F   UNL A   1      48.398  27.323  22.606  1.00  0.00    -0.200 F 
ATOM     64  C   UNL A   1      49.399  26.838  24.689  1.00  0.00     0.200 A 
ATOM     65  F   UNL A   1      50.355  26.358  26.794  1.00  0.00    -0.200 F 
ATOM     66  F   UNL A   1      50.514  26.421  24.073  1.00  0.00    -0.200 F 
ENDBRANCH  42  56
BRANCH  43  67
ATOM     67  C   UNL A   1      38.974  30.714  30.982  1.00  0.00     0.064 A 
ATOM     68  C   UNL A   1      37.893  31.390  30.399  1.00  0.00     0.173 A 
ATOM     69  C   UNL A   1      38.934  30.490  32.366  1.00  0.00     0.173 A 
ATOM     70  F   UNL A   1      37.898  31.654  29.084  1.00  0.00    -0.203 F 
ATOM     71  C   UNL A   1      36.826  31.843  31.175  1.00  0.00     0.198 A 
ATOM     72  C   UNL A   1      37.854  30.917  33.135  1.00  0.00     0.198 A 
ATOM     73  F   UNL A   1      39.945  29.850  32.972  1.00  0.00    -0.203 F 
ATOM     74  F   UNL A   1      35.830  32.532  30.602  1.00  0.00    -0.200 F 
ATOM     75  C   UNL A   1      36.806  31.602  32.540  1.00  0.00     0.200 A 
ATOM     76  F   UNL A   1      37.834  30.673  34.452  1.00  0.00    -0.200 F 
ATOM     77  F   UNL A   1      35.781  32.040  33.284  1.00  0.00    -0.200 F 
ENDBRANCH  43  67
BRANCH  55  78
ATOM     78  C   UNL A   1      44.987  33.780  29.235  1.00  0.00     0.064 A 
ATOM     79  C   UNL A   1      45.799  34.043  30.346  1.00  0.00     0.173 A 
ATOM     80  C   UNL A   1      44.752  34.827  28.329  1.00  0.00     0.173 A 
ATOM     81  F   UNL A   1      46.041  33.080  31.248  1.00  0.00    -0.203 F 
ATOM     82  C   UNL A   1      46.344  35.308  30.550  1.00  0.00     0.198 A 
ATOM     83  C   UNL A   1      45.320  36.082  28.522  1.00  0.00     0.198 A 
ATOM     84  F   UNL A   1      43.987  34.623  27.246  1.00  0.00    -0.203 F 
ATOM     85  F   UNL A   1      47.089  35.547  31.639  1.00  0.00    -0.200 F 
ATOM     86  C   UNL A   1      46.111  36.324  29.634  1.00  0.00     0.200 A 
ATOM     87  F   UNL A   1      45.105  37.058  27.629  1.00  0.00    -0.200 F 
ATOM     88  F   UNL A   1      46.646  37.537  29.827  1.00  0.00    -0.200 F 
ENDBRANCH  55  78
ENDBRANCH  29  30
ENDBRANCH  22  24
ENDBRANCH  21  22
ENDBRANCH  20  21
ENDBRANCH  19  20
ENDBRANCH  18  19
ENDBRANCH   1  18
TORSDOF 17
ENDMDL
MODEL 2
REMARK VINA RESULT:     -11.0      0.562      7.648
REMARK SMILES CC(C)Cc1ccc([C@@H](C)C(=O)OCCOCCOC(=O)c2ccc(-c3c4nc(c(-c5c(F)c(F)c(F)c(F)c5F)c5ccc([nH]5)c(-c5c(F)c(F)c(F)c(F)c5F)c5nc(c(-c6c(F)c(F)c(F)c(F)c6F)c6ccc3[nH]6)C=C5)C=C4)cc2)cc1
REMARK SMILES IDX 15 1 14 2 13 3 11 4 12 5 9 6 10 7 8 8 5 9 6 10 86 11 7 12
REMARK SMILES IDX 85 13 4 14 2 15 1 16 3 17 16 18 17 19 18 20 19 21 20 22
REMARK SMILES IDX 21 23 22 24 23 25 84 26 24 27 83 28 25 29 26 30 27 31 77 32
REMARK SMILES IDX 28 33 82 34 76 35 78 36 29 37 81 38 75 39 74 40 30 42 62 43
REMARK SMILES IDX 42 44 61 45 43 46 46 47 60 48 79 49 44 50 45 51 59 53 80 54
REMARK SMILES IDX 47 55 31 56 32 57 40 58 33 59 34 60 38 61 41 62 35 63 36 64
REMARK SMILES IDX 39 65 37 66 63 67 64 68 72 69 65 70 66 71 70 72 73 73 67 74
REMARK SMILES IDX 68 75 71 76 69 77 48 78 49 79 57 80 50 81 51 82 55 83 58 84
REMARK SMILES IDX 52 85 53 86 56 87 54 88
REMARK H PARENT 78 41 46 52
REMARK Flexibility Score: inf
ROOT
ATOM      1  C   UNL A   1      36.594  23.104  24.550  1.00  0.00     0.202 C 
ENDROOT
BRANCH   1   2
ATOM      2  C   UNL A   1      35.330  23.736  23.962  1.00  0.00     0.261 C 
BRANCH   2   3
ATOM      3  O   UNL A   1      34.660  22.810  23.087  1.00  0.00    -0.463 OA
BRANCH   3   4
ATOM      4  C   UNL A   1      33.455  23.210  22.606  1.00  0.00     0.313 C 
ATOM      5  O   UNL A   1      33.298  24.144  21.824  1.00  0.00    -0.252 OA
BRANCH   4   6
ATOM      6  C   UNL A   1      32.278  22.425  23.161  1.00  0.00     0.126 C 
ATOM      7  C   UNL A   1      31.787  23.092  24.445  1.00  0.00     0.025 C 
BRANCH   6   8
ATOM      8  C   UNL A   1      32.443  20.920  23.342  1.00  0.00    -0.034 A 
ATOM      9  C   UNL A   1      33.101  18.178  23.590  1.00  0.00    -0.048 A 
ATOM     10  C   UNL A   1      32.372  18.640  22.488  1.00  0.00     0.004 A 
ATOM     11  C   UNL A   1      33.430  19.081  24.606  1.00  0.00     0.004 A 
ATOM     12  C   UNL A   1      32.050  19.996  22.364  1.00  0.00     0.005 A 
ATOM     13  C   UNL A   1      33.107  20.435  24.483  1.00  0.00     0.005 A 
BRANCH   9  14
ATOM     14  C   UNL A   1      33.611  16.756  23.636  1.00  0.00     0.038 C 
BRANCH  14  15
ATOM     15  C   UNL A   1      33.791  16.233  25.079  1.00  0.00    -0.013 C 
ATOM     16  C   UNL A   1      32.828  15.088  25.411  1.00  0.00     0.008 C 
ATOM     17  C   UNL A   1      35.231  15.766  25.300  1.00  0.00     0.008 C 
ENDBRANCH  14  15
ENDBRANCH   9  14
ENDBRANCH   6   8
ENDBRANCH   4   6
ENDBRANCH   3   4
ENDBRANCH   2   3
ENDBRANCH   1   2
BRANCH   1  18
ATOM     18  O   UNL A   1      36.911  21.798  24.071  1.00  0.00    -0.374 OA
BRANCH  18  19
ATOM     19  C   UNL A   1      36.849  20.726  25.014  1.00  0.00     0.202 C 
BRANCH  19  20
ATOM     20  C   UNL A   1      38.157  19.963  25.245  1.00  0.00     0.261 C 
BRANCH  20  21
ATOM     21  O   UNL A   1      39.279  20.851  25.394  1.00  0.00    -0.460 OA
BRANCH  21  22
ATOM     22  C   UNL A   1      39.975  20.711  26.545  1.00  0.00     0.338 C 
ATOM     23  O   UNL A   1      40.343  19.671  27.070  1.00  0.00    -0.246 OA
BRANCH  22  24
ATOM     24  C   UNL A   1      40.403  22.033  27.038  1.00  0.00     0.060 A 
ATOM     25  C   UNL A   1      39.892  23.163  26.386  1.00  0.00     0.016 A 
ATOM     26  C   UNL A   1      41.341  22.169  28.065  1.00  0.00     0.016 A 
ATOM     27  C   UNL A   1      40.356  24.434  26.723  1.00  0.00     0.010 A 
ATOM     28  C   UNL A   1      41.813  23.444  28.393  1.00  0.00     0.010 A 
ATOM     29  C   UNL A   1      41.349  24.577  27.700  1.00  0.00    -0.014 A 
BRANCH  29  30
ATOM     30  C   UNL A   1      42.006  25.893  27.890  1.00  0.00     0.031 A 
ATOM     31  C   UNL A   1      41.261  26.981  28.611  1.00  0.00     0.074 A 
ATOM     32  C   UNL A   1      43.252  26.115  27.437  1.00  0.00     0.049 A 
ATOM     33  N   UNL A   1      41.609  28.223  28.832  1.00  0.00    -0.248 NA
ATOM     34  C   UNL A   1      39.940  26.622  29.153  1.00  0.00     0.031 C 
ATOM     35  C   UNL A   1      44.091  25.131  26.755  1.00  0.00     0.029 A 
ATOM     36  N   UNL A   1      44.024  27.251  27.471  1.00  0.00    -0.354 N 
ATOM     37  C   UNL A   1      40.550  28.795  29.523  1.00  0.00     0.074 A 
ATOM     38  C   UNL A   1      39.537  27.772  29.673  1.00  0.00     0.031 C 
ATOM     39  C   UNL A   1      45.253  25.714  26.411  1.00  0.00     0.029 A 
ATOM     40  C   UNL A   1      45.226  27.117  26.822  1.00  0.00     0.049 A 
ATOM     41  H   UNL A   1      43.742  28.081  27.919  1.00  0.00     0.167 HD
ATOM     42  C   UNL A   1      40.435  30.059  29.993  1.00  0.00     0.037 A 
ATOM     43  C   UNL A   1      46.181  28.032  26.562  1.00  0.00     0.037 A 
ATOM     44  C   UNL A   1      41.450  31.070  29.862  1.00  0.00     0.049 A 
ATOM     45  C   UNL A   1      46.007  29.446  27.056  1.00  0.00     0.074 A 
ATOM     46  C   UNL A   1      41.443  32.366  30.348  1.00  0.00     0.029 A 
ATOM     47  N   UNL A   1      42.650  30.900  29.191  1.00  0.00    -0.354 N 
ATOM     48  N   UNL A   1      45.019  29.968  27.742  1.00  0.00    -0.248 NA
ATOM     49  C   UNL A   1      47.082  30.398  26.740  1.00  0.00     0.031 C 
ATOM     50  C   UNL A   1      42.619  32.996  29.927  1.00  0.00     0.029 A 
ATOM     51  C   UNL A   1      43.380  32.077  29.222  1.00  0.00     0.049 A 
ATOM     52  H   UNL A   1      42.942  30.066  28.756  1.00  0.00     0.167 HD
ATOM     53  C   UNL A   1      45.365  31.295  27.962  1.00  0.00     0.074 A 
ATOM     54  C   UNL A   1      46.658  31.499  27.346  1.00  0.00     0.031 C 
ATOM     55  C   UNL A   1      44.672  32.259  28.615  1.00  0.00     0.037 A 
BRANCH  42  56
ATOM     56  C   UNL A   1      39.155  30.438  30.676  1.00  0.00     0.064 A 
ATOM     57  C   UNL A   1      38.991  30.307  32.062  1.00  0.00     0.173 A 
ATOM     58  C   UNL A   1      38.100  30.994  29.937  1.00  0.00     0.173 A 
ATOM     59  F   UNL A   1      39.966  29.769  32.810  1.00  0.00    -0.203 F 
ATOM     60  C   UNL A   1      37.811  30.710  32.683  1.00  0.00     0.198 A 
ATOM     61  C   UNL A   1      36.931  31.417  30.564  1.00  0.00     0.198 A 
ATOM     62  F   UNL A   1      38.210  31.143  28.608  1.00  0.00    -0.203 F 
ATOM     63  F   UNL A   1      37.662  30.549  34.005  1.00  0.00    -0.200 F 
ATOM     64  C   UNL A   1      36.786  31.272  31.935  1.00  0.00     0.200 A 
ATOM     65  F   UNL A   1      35.947  31.971  29.841  1.00  0.00    -0.200 F 
ATOM     66  F   UNL A   1      35.656  31.670  32.536  1.00  0.00    -0.200 F 
ENDBRANCH  42  56
BRANCH  43  67
ATOM     67  C   UNL A   1      47.377  27.652  25.767  1.00  0.00     0.064 A 
ATOM     68  C   UNL A   1      48.562  27.235  26.389  1.00  0.00     0.173 A 
ATOM     69  C   UNL A   1      47.368  27.732  24.366  1.00  0.00     0.173 A 
ATOM     70  F   UNL A   1      48.629  27.169  27.727  1.00  0.00    -0.203 F 
ATOM     71  C   UNL A   1      49.698  26.931  25.640  1.00  0.00     0.198 A 
ATOM     72  C   UNL A   1      48.495  27.400  23.618  1.00  0.00     0.198 A 
ATOM     73  F   UNL A   1      46.260  28.129  23.723  1.00  0.00    -0.203 F 
ATOM     74  F   UNL A   1      50.833  26.584  26.262  1.00  0.00    -0.200 F 
ATOM     75  C   UNL A   1      49.662  27.010  24.257  1.00  0.00     0.200 A 
ATOM     76  F   UNL A   1      48.453  27.468  22.281  1.00  0.00    -0.200 F 
ATOM     77  F   UNL A   1      50.756  26.719  23.538  1.00  0.00    -0.200 F 
ENDBRANCH  43  67
BRANCH  55  78
ATOM     78  C   UNL A   1      45.308  33.613  28.733  1.00  0.00     0.064 A 
ATOM     79  C   UNL A   1      45.067  34.622  27.791  1.00  0.00     0.173 A 
ATOM     80  C   UNL A   1      46.125  33.920  29.833  1.00  0.00     0.173 A 
ATOM     81  F   UNL A   1      44.306  34.373  26.715  1.00  0.00    -0.203 F 
ATOM     82  C   UNL A   1      45.633  35.886  27.938  1.00  0.00     0.198 A 
ATOM     83  C   UNL A   1      46.665  35.192  29.990  1.00  0.00     0.198 A 
ATOM     84  F   UNL A   1      46.379  32.990  30.765  1.00  0.00    -0.203 F 
ATOM     85  F   UNL A   1      45.418  36.826  27.006  1.00  0.00    -0.200 F 
ATOM     86  C   UNL A   1      46.424  36.173  29.040  1.00  0.00     0.200 A 
ATOM     87  F   UNL A   1      47.419  35.471  31.064  1.00  0.00    -0.200 F 
ATOM     88  F   UNL A   1      46.957  37.394  29.185  1.00  0.00    -0.200 F 
ENDBRANCH  55  78
ENDBRANCH  29  30
ENDBRANCH  22  24
ENDBRANCH  21  22
ENDBRANCH  20  21
ENDBRANCH  19  20
ENDBRANCH  18  19
ENDBRANCH   1  18
TORSDOF 17
ENDMDL
MODEL 3
REMARK VINA RESULT:     -11.0      1.657      7.662
REMARK SMILES CC(C)Cc1ccc([C@@H](C)C(=O)OCCOCCOC(=O)c2ccc(-c3c4nc(c(-c5c(F)c(F)c(F)c(F)c5F)c5ccc([nH]5)c(-c5c(F)c(F)c(F)c(F)c5F)c5nc(c(-c6c(F)c(F)c(F)c(F)c6F)c6ccc3[nH]6)C=C5)C=C4)cc2)cc1
REMARK SMILES IDX 15 1 14 2 13 3 11 4 12 5 9 6 10 7 8 8 5 9 6 10 86 11 7 12
REMARK SMILES IDX 85 13 4 14 2 15 1 16 3 17 16 18 17 19 18 20 19 21 20 22
REMARK SMILES IDX 21 23 22 24 23 25 84 26 24 27 83 28 25 29 26 30 27 31 77 32
REMARK SMILES IDX 28 33 82 34 76 35 78 36 29 37 81 38 75 39 74 40 30 42 62 43
REMARK SMILES IDX 42 44 61 45 43 46 46 47 60 48 79 49 44 50 45 51 59 53 80 54
REMARK SMILES IDX 47 55 31 56 32 57 40 58 33 59 34 60 38 61 41 62 35 63 36 64
REMARK SMILES IDX 39 65 37 66 63 67 64 68 72 69 65 70 66 71 70 72 73 73 67 74
REMARK SMILES IDX 68 75 71 76 69 77 48 78 49 79 57 80 50 81 51 82 55 83 58 84
REMARK SMILES IDX 52 85 53 86 56 87 54 88
REMARK H PARENT 78 41 46 52
REMARK Flexibility Score: inf
ROOT
ATOM      1  C   UNL A   1      38.279  22.082  25.989  1.00  0.00     0.202 C 
ENDROOT
BRANCH   1   2
ATOM      2  C   UNL A   1      38.013  23.575  25.779  1.00  0.00     0.261 C 
BRANCH   2   3
ATOM      3  O   UNL A   1      37.169  23.784  24.633  1.00  0.00    -0.463 OA
BRANCH   3   4
ATOM      4  C   UNL A   1      35.836  23.849  24.878  1.00  0.00     0.313 C 
ATOM      5  O   UNL A   1      35.343  24.281  25.917  1.00  0.00    -0.252 OA
BRANCH   4   6
ATOM      6  C   UNL A   1      34.975  23.287  23.759  1.00  0.00     0.126 C 
ATOM      7  C   UNL A   1      34.076  24.394  23.209  1.00  0.00     0.025 C 
BRANCH   6   8
ATOM      8  C   UNL A   1      34.185  22.013  24.035  1.00  0.00    -0.034 A 
ATOM      9  C   UNL A   1      32.950  19.481  24.320  1.00  0.00    -0.048 A 
ATOM     10  C   UNL A   1      32.347  20.488  23.556  1.00  0.00     0.004 A 
ATOM     11  C   UNL A   1      34.135  19.774  25.004  1.00  0.00     0.004 A 
ATOM     12  C   UNL A   1      32.959  21.737  23.413  1.00  0.00     0.005 A 
ATOM     13  C   UNL A   1      34.744  21.023  24.862  1.00  0.00     0.005 A 
BRANCH   9  14
ATOM     14  C   UNL A   1      32.392  18.077  24.324  1.00  0.00     0.038 C 
BRANCH  14  15
ATOM     15  C   UNL A   1      33.491  16.999  24.461  1.00  0.00    -0.013 C 
ATOM     16  C   UNL A   1      32.966  15.705  25.094  1.00  0.00     0.008 C 
ATOM     17  C   UNL A   1      34.100  16.684  23.093  1.00  0.00     0.008 C 
ENDBRANCH  14  15
ENDBRANCH   9  14
ENDBRANCH   6   8
ENDBRANCH   4   6
ENDBRANCH   3   4
ENDBRANCH   2   3
ENDBRANCH   1   2
BRANCH   1  18
ATOM     18  O   UNL A   1      38.055  21.250  24.851  1.00  0.00    -0.374 OA
BRANCH  18  19
ATOM     19  C   UNL A   1      38.454  19.882  24.957  1.00  0.00     0.202 C 
BRANCH  19  20
ATOM     20  C   UNL A   1      39.532  19.580  26.004  1.00  0.00     0.261 C 
BRANCH  20  21
ATOM     21  O   UNL A   1      40.773  19.176  25.398  1.00  0.00    -0.460 OA
BRANCH  21  22
ATOM     22  C   UNL A   1      41.862  19.285  26.191  1.00  0.00     0.338 C 
ATOM     23  O   UNL A   1      42.685  18.419  26.449  1.00  0.00    -0.246 OA
BRANCH  22  24
ATOM     24  C   UNL A   1      42.045  20.688  26.604  1.00  0.00     0.060 A 
ATOM     25  C   UNL A   1      42.033  21.665  25.599  1.00  0.00     0.016 A 
ATOM     26  C   UNL A   1      42.299  21.040  27.932  1.00  0.00     0.016 A 
ATOM     27  C   UNL A   1      42.327  22.992  25.910  1.00  0.00     0.010 A 
ATOM     28  C   UNL A   1      42.605  22.369  28.240  1.00  0.00     0.010 A 
ATOM     29  C   UNL A   1      42.655  23.343  27.226  1.00  0.00    -0.014 A 
BRANCH  29  30
ATOM     30  C   UNL A   1      43.193  24.696  27.511  1.00  0.00     0.031 A 
ATOM     31  C   UNL A   1      42.268  25.745  28.061  1.00  0.00     0.074 A 
ATOM     32  C   UNL A   1      44.488  24.984  27.295  1.00  0.00     0.049 A 
ATOM     33  N   UNL A   1      42.502  27.006  28.321  1.00  0.00    -0.248 NA
ATOM     34  C   UNL A   1      40.891  25.316  28.355  1.00  0.00     0.031 C 
ATOM     35  C   UNL A   1      45.491  24.044  26.799  1.00  0.00     0.029 A 
ATOM     36  N   UNL A   1      45.178  26.161  27.452  1.00  0.00    -0.354 N 
ATOM     37  C   UNL A   1      41.303  27.523  28.792  1.00  0.00     0.074 A 
ATOM     38  C   UNL A   1      40.336  26.446  28.770  1.00  0.00     0.031 C 
ATOM     39  C   UNL A   1      46.664  24.688  26.667  1.00  0.00     0.029 A 
ATOM     40  C   UNL A   1      46.486  26.090  27.040  1.00  0.00     0.049 A 
ATOM     41  H   UNL A   1      44.773  26.978  27.824  1.00  0.00     0.167 HD
ATOM     42  C   UNL A   1      41.034  28.782  29.210  1.00  0.00     0.037 A 
ATOM     43  C   UNL A   1      47.421  27.056  26.947  1.00  0.00     0.037 A 
ATOM     44  C   UNL A   1      41.999  29.848  29.252  1.00  0.00     0.049 A 
ATOM     45  C   UNL A   1      47.082  28.462  27.374  1.00  0.00     0.074 A 
ATOM     46  C   UNL A   1      41.832  31.145  29.705  1.00  0.00     0.029 A 
ATOM     47  N   UNL A   1      43.312  29.740  28.820  1.00  0.00    -0.354 N 
ATOM     48  N   UNL A   1      45.956  28.932  27.855  1.00  0.00    -0.248 NA
ATOM     49  C   UNL A   1      48.143  29.470  27.247  1.00  0.00     0.031 C 
ATOM     50  C   UNL A   1      43.030  31.837  29.499  1.00  0.00     0.029 A 
ATOM     51  C   UNL A   1      43.957  30.957  28.965  1.00  0.00     0.049 A 
ATOM     52  H   UNL A   1      43.724  28.921  28.462  1.00  0.00     0.167 HD
ATOM     53  C   UNL A   1      46.182  30.278  28.111  1.00  0.00     0.074 A 
ATOM     54  C   UNL A   1      47.556  30.550  27.744  1.00  0.00     0.031 C 
ATOM     55  C   UNL A   1      45.329  31.207  28.607  1.00  0.00     0.037 A 
BRANCH  42  56
ATOM     56  C   UNL A   1      39.630  29.093  29.636  1.00  0.00     0.064 A 
ATOM     57  C   UNL A   1      38.651  29.493  28.716  1.00  0.00     0.173 A 
ATOM     58  C   UNL A   1      39.247  28.929  30.975  1.00  0.00     0.173 A 
ATOM     59  F   UNL A   1      38.972  29.676  27.426  1.00  0.00    -0.203 F 
ATOM     60  C   UNL A   1      37.341  29.731  29.124  1.00  0.00     0.198 A 
ATOM     61  C   UNL A   1      37.931  29.144  31.376  1.00  0.00     0.198 A 
ATOM     62  F   UNL A   1      40.147  28.543  31.893  1.00  0.00    -0.203 F 
ATOM     63  F   UNL A   1      36.428  30.142  28.234  1.00  0.00    -0.200 F 
ATOM     64  C   UNL A   1      36.981  29.547  30.452  1.00  0.00     0.200 A 
ATOM     65  F   UNL A   1      37.583  28.955  32.657  1.00  0.00    -0.200 F 
ATOM     66  F   UNL A   1      35.717  29.764  30.840  1.00  0.00    -0.200 F 
ENDBRANCH  42  56
BRANCH  43  67
ATOM     67  C   UNL A   1      48.764  26.738  26.395  1.00  0.00     0.064 A 
ATOM     68  C   UNL A   1      49.052  26.918  25.035  1.00  0.00     0.173 A 
ATOM     69  C   UNL A   1      49.776  26.218  27.214  1.00  0.00     0.173 A 
ATOM     70  F   UNL A   1      48.107  27.386  24.206  1.00  0.00    -0.203 F 
ATOM     71  C   UNL A   1      50.296  26.569  24.512  1.00  0.00     0.198 A 
ATOM     72  C   UNL A   1      51.029  25.896  26.696  1.00  0.00     0.198 A 
ATOM     73  F   UNL A   1      49.550  26.024  28.522  1.00  0.00    -0.203 F 
ATOM     74  F   UNL A   1      50.529  26.702  23.199  1.00  0.00    -0.200 F 
ATOM     75  C   UNL A   1      51.284  26.063  25.343  1.00  0.00     0.200 A 
ATOM     76  F   UNL A   1      51.984  25.417  27.504  1.00  0.00    -0.200 F 
ATOM     77  F   UNL A   1      52.479  25.726  24.839  1.00  0.00    -0.200 F 
ENDBRANCH  43  67
BRANCH  55  78
ATOM     78  C   UNL A   1      45.858  32.595  28.816  1.00  0.00     0.064 A 
ATOM     79  C   UNL A   1      45.733  33.585  27.833  1.00  0.00     0.173 A 
ATOM     80  C   UNL A   1      46.447  32.953  30.040  1.00  0.00     0.173 A 
ATOM     81  F   UNL A   1      45.191  33.290  26.642  1.00  0.00    -0.203 F 
ATOM     82  C   UNL A   1      46.192  34.881  28.060  1.00  0.00     0.198 A 
ATOM     83  C   UNL A   1      46.880  34.254  30.273  1.00  0.00     0.198 A 
ATOM     84  F   UNL A   1      46.583  32.042  31.015  1.00  0.00    -0.203 F 
ATOM     85  F   UNL A   1      46.095  35.803  27.092  1.00  0.00    -0.200 F 
ATOM     86  C   UNL A   1      46.758  35.216  29.281  1.00  0.00     0.200 A 
ATOM     87  F   UNL A   1      47.414  34.580  31.458  1.00  0.00    -0.200 F 
ATOM     88  F   UNL A   1      47.188  36.466  29.501  1.00  0.00    -0.200 F 
ENDBRANCH  55  78
ENDBRANCH  29  30
ENDBRANCH  22  24
ENDBRANCH  21  22
ENDBRANCH  20  21
ENDBRANCH  19  20
ENDBRANCH  18  19
ENDBRANCH   1  18
TORSDOF 17
ENDMDL
