MODEL 1
REMARK VINA RESULT:     -11.4      0.000      0.000
REMARK SMILES CC(C)C[C@H](NC(=O)c1cc(Cl)nnc1Cl)C(=O)OCCOCCOC(=O)c1ccc(-c2c3nc(c(-c4c(F)c(F)c(F)c(F)c4F)c4ccc([nH]4)c(-c4c(F)c(F)c(F)c(F)c4F)c4nc(c(-c5c(F)c(F)c(F)c(F)c5F)c5ccc2[nH]5)C=C4)C=C3)cc1
REMARK SMILES IDX 22 1 21 2 20 3 19 4 17 5 18 6 5 7 4 8 2 9 1 10 3 11 6 12
REMARK SMILES IDX 7 13 8 15 9 16 10 17 15 18 11 19 14 20 16 21 12 22 13 23
REMARK SMILES IDX 23 24 24 25 25 26 26 27 27 28 28 29 29 30 90 31 30 32 89 33
REMARK SMILES IDX 31 34 32 35 33 36 83 37 34 38 88 39 82 40 84 41 35 42 87 43
REMARK SMILES IDX 81 44 80 45 36 47 68 48 48 49 67 50 49 51 52 52 66 53 85 54
REMARK SMILES IDX 50 55 51 56 65 58 86 59 53 60 37 61 38 62 46 63 39 64 40 65
REMARK SMILES IDX 44 66 47 67 41 68 42 69 45 70 43 71 69 72 70 73 78 74 71 75
REMARK SMILES IDX 72 76 76 77 79 78 73 79 74 80 77 81 75 82 54 83 55 84 63 85
REMARK SMILES IDX 56 86 57 87 61 88 64 89 58 90 59 91 62 92 60 93
REMARK H PARENT 6 14 84 46 52 57
REMARK Flexibility Score: inf
ROOT
ATOM      1  O   UNL A   1      33.593  29.108  24.567  1.00  0.00    -0.374 OA
ENDROOT
BRANCH   1   2
ATOM      2  C   UNL A   1      33.970  28.001  23.762  1.00  0.00     0.202 C 
BRANCH   2   3
ATOM      3  C   UNL A   1      33.389  26.633  24.127  1.00  0.00     0.261 C 
BRANCH   3   4
ATOM      4  O   UNL A   1      34.368  25.615  24.384  1.00  0.00    -0.462 OA
BRANCH   4   5
ATOM      5  C   UNL A   1      34.428  24.657  23.410  1.00  0.00     0.328 C 
ATOM      6  O   UNL A   1      34.029  24.810  22.264  1.00  0.00    -0.250 OA
BRANCH   5   7
ATOM      7  C   UNL A   1      34.924  23.309  23.959  1.00  0.00     0.192 C 
BRANCH   7   8
ATOM      8  C   UNL A   1      36.361  22.976  23.507  1.00  0.00     0.040 C 
BRANCH   8   9
ATOM      9  C   UNL A   1      37.404  22.564  24.562  1.00  0.00    -0.015 C 
ATOM     10  C   UNL A   1      37.411  23.455  25.804  1.00  0.00     0.007 C 
ATOM     11  C   UNL A   1      37.120  21.121  25.000  1.00  0.00     0.007 C 
ENDBRANCH   8   9
ENDBRANCH   7   8
BRANCH   7  12
ATOM     12  N   UNL A   1      33.983  22.224  23.588  1.00  0.00    -0.338 N 
ATOM     13  C   UNL A   1      32.708  21.958  24.008  1.00  0.00     0.255 C 
ATOM     14  H   UNL A   1      34.337  21.587  22.926  1.00  0.00     0.164 HD
ATOM     15  O   UNL A   1      32.057  21.046  23.509  1.00  0.00    -0.269 OA
BRANCH  13  16
ATOM     16  C   UNL A   1      32.149  22.661  25.160  1.00  0.00     0.082 A 
ATOM     17  C   UNL A   1      31.260  23.706  24.899  1.00  0.00     0.060 A 
ATOM     18  C   UNL A   1      32.461  22.344  26.465  1.00  0.00     0.164 A 
ATOM     19  C   UNL A   1      30.677  24.328  25.978  1.00  0.00     0.152 A 
ATOM     20  N   UNL A   1      31.864  22.974  27.497  1.00  0.00    -0.136 NA
ATOM     21  Cl  UNL A   1      33.597  21.150  26.931  1.00  0.00    -0.059 Cl
ATOM     22  Cl  UNL A   1      29.528  25.577  25.781  1.00  0.00    -0.060 Cl
ATOM     23  N   UNL A   1      30.947  23.972  27.249  1.00  0.00    -0.137 NA
ENDBRANCH  13  16
ENDBRANCH   7  12
ENDBRANCH   5   7
ENDBRANCH   4   5
ENDBRANCH   3   4
ENDBRANCH   2   3
ENDBRANCH   1   2
BRANCH   1  24
ATOM     24  C   UNL A   1      32.277  29.125  25.125  1.00  0.00     0.202 C 
BRANCH  24  25
ATOM     25  C   UNL A   1      31.889  30.356  25.948  1.00  0.00     0.261 C 
BRANCH  25  26
ATOM     26  O   UNL A   1      32.605  30.392  27.201  1.00  0.00    -0.460 OA
BRANCH  26  27
ATOM     27  C   UNL A   1      33.381  31.487  27.375  1.00  0.00     0.338 C 
ATOM     28  O   UNL A   1      33.031  32.657  27.390  1.00  0.00    -0.246 OA
BRANCH  27  29
ATOM     29  C   UNL A   1      34.752  31.087  27.721  1.00  0.00     0.060 A 
ATOM     30  C   UNL A   1      35.007  29.726  27.940  1.00  0.00     0.016 A 
ATOM     31  C   UNL A   1      35.721  32.051  28.000  1.00  0.00     0.016 A 
ATOM     32  C   UNL A   1      36.221  29.329  28.494  1.00  0.00     0.010 A 
ATOM     33  C   UNL A   1      36.931  31.653  28.574  1.00  0.00     0.010 A 
ATOM     34  C   UNL A   1      37.164  30.297  28.865  1.00  0.00    -0.014 A 
BRANCH  34  35
ATOM     35  C   UNL A   1      38.295  29.906  29.737  1.00  0.00     0.031 A 
ATOM     36  C   UNL A   1      39.307  28.927  29.210  1.00  0.00     0.074 A 
ATOM     37  C   UNL A   1      38.440  30.443  30.960  1.00  0.00     0.049 A 
ATOM     38  N   UNL A   1      40.372  28.441  29.791  1.00  0.00    -0.248 NA
ATOM     39  C   UNL A   1      39.094  28.441  27.836  1.00  0.00     0.031 C 
ATOM     40  C   UNL A   1      37.557  31.442  31.552  1.00  0.00     0.029 A 
ATOM     41  N   UNL A   1      39.393  30.218  31.921  1.00  0.00    -0.354 N 
ATOM     42  C   UNL A   1      40.964  27.606  28.852  1.00  0.00     0.074 A 
ATOM     43  C   UNL A   1      40.123  27.624  27.674  1.00  0.00     0.031 C 
ATOM     44  C   UNL A   1      38.005  31.742  32.784  1.00  0.00     0.029 A 
ATOM     45  C   UNL A   1      39.191  30.935  33.072  1.00  0.00     0.049 A 
ATOM     46  H   UNL A   1      40.150  29.600  31.796  1.00  0.00     0.167 HD
ATOM     47  C   UNL A   1      42.112  26.897  28.959  1.00  0.00     0.037 A 
ATOM     48  C   UNL A   1      39.878  30.927  34.230  1.00  0.00     0.037 A 
ATOM     49  C   UNL A   1      42.932  26.858  30.139  1.00  0.00     0.049 A 
ATOM     50  C   UNL A   1      41.086  30.037  34.367  1.00  0.00     0.074 A 
ATOM     51  C   UNL A   1      44.108  26.162  30.350  1.00  0.00     0.029 A 
ATOM     52  N   UNL A   1      42.652  27.541  31.314  1.00  0.00    -0.354 N 
ATOM     53  N   UNL A   1      41.644  29.257  33.474  1.00  0.00    -0.248 NA
ATOM     54  C   UNL A   1      41.757  30.025  35.675  1.00  0.00     0.031 C 
ATOM     55  C   UNL A   1      44.517  26.388  31.668  1.00  0.00     0.029 A 
ATOM     56  C   UNL A   1      43.619  27.261  32.264  1.00  0.00     0.049 A 
ATOM     57  H   UNL A   1      41.880  28.137  31.450  1.00  0.00     0.167 HD
ATOM     58  C   UNL A   1      42.739  28.678  34.100  1.00  0.00     0.074 A 
ATOM     59  C   UNL A   1      42.774  29.204  35.450  1.00  0.00     0.031 C 
ATOM     60  C   UNL A   1      43.637  27.793  33.602  1.00  0.00     0.037 A 
BRANCH  47  61
ATOM     61  C   UNL A   1      42.538  26.088  27.772  1.00  0.00     0.064 A 
ATOM     62  C   UNL A   1      41.986  24.824  27.514  1.00  0.00     0.173 A 
ATOM     63  C   UNL A   1      43.475  26.596  26.860  1.00  0.00     0.173 A 
ATOM     64  F   UNL A   1      41.098  24.290  28.365  1.00  0.00    -0.203 F 
ATOM     65  C   UNL A   1      42.370  24.091  26.394  1.00  0.00     0.198 A 
ATOM     66  C   UNL A   1      43.839  25.870  25.729  1.00  0.00     0.198 A 
ATOM     67  F   UNL A   1      44.030  27.800  27.062  1.00  0.00    -0.203 F 
ATOM     68  F   UNL A   1      41.855  22.871  26.185  1.00  0.00    -0.200 F 
ATOM     69  C   UNL A   1      43.290  24.618  25.499  1.00  0.00     0.200 A 
ATOM     70  F   UNL A   1      44.721  26.383  24.861  1.00  0.00    -0.200 F 
ATOM     71  F   UNL A   1      43.651  23.915  24.417  1.00  0.00    -0.200 F 
ENDBRANCH  47  61
BRANCH  48  72
ATOM     72  C   UNL A   1      39.436  31.791  35.352  1.00  0.00     0.064 A 
ATOM     73  C   UNL A   1      39.911  33.103  35.480  1.00  0.00     0.173 A 
ATOM     74  C   UNL A   1      38.521  31.329  36.310  1.00  0.00     0.173 A 
ATOM     75  F   UNL A   1      40.805  33.579  34.602  1.00  0.00    -0.203 F 
ATOM     76  C   UNL A   1      39.488  33.921  36.525  1.00  0.00     0.198 A 
ATOM     77  C   UNL A   1      38.082  32.155  37.342  1.00  0.00     0.198 A 
ATOM     78  F   UNL A   1      38.041  30.080  36.232  1.00  0.00    -0.203 F 
ATOM     79  F   UNL A   1      39.974  35.164  36.640  1.00  0.00    -0.200 F 
ATOM     80  C   UNL A   1      38.568  33.450  37.451  1.00  0.00     0.200 A 
ATOM     81  F   UNL A   1      37.185  31.699  38.227  1.00  0.00    -0.200 F 
ATOM     82  F   UNL A   1      38.152  34.241  38.448  1.00  0.00    -0.200 F 
ENDBRANCH  48  72
BRANCH  60  83
ATOM     83  C   UNL A   1      44.743  27.340  34.507  1.00  0.00     0.064 A 
ATOM     84  C   UNL A   1      44.611  26.196  35.307  1.00  0.00     0.173 A 
ATOM     85  C   UNL A   1      45.975  28.011  34.515  1.00  0.00     0.173 A 
ATOM     86  F   UNL A   1      43.447  25.529  35.342  1.00  0.00    -0.203 F 
ATOM     87  C   UNL A   1      45.671  25.745  36.089  1.00  0.00     0.198 A 
ATOM     88  C   UNL A   1      47.040  27.543  35.280  1.00  0.00     0.198 A 
ATOM     89  F   UNL A   1      46.153  29.106  33.762  1.00  0.00    -0.203 F 
ATOM     90  F   UNL A   1      45.514  24.664  36.867  1.00  0.00    -0.200 F 
ATOM     91  C   UNL A   1      46.886  26.412  36.068  1.00  0.00     0.200 A 
ATOM     92  F   UNL A   1      48.218  28.181  35.248  1.00  0.00    -0.200 F 
ATOM     93  F   UNL A   1      47.910  25.967  36.809  1.00  0.00    -0.200 F 
ENDBRANCH  60  83
ENDBRANCH  34  35
ENDBRANCH  27  29
ENDBRANCH  26  27
ENDBRANCH  25  26
ENDBRANCH  24  25
ENDBRANCH   1  24
TORSDOF 18
ENDMDL
MODEL 2
REMARK VINA RESULT:     -11.2      1.560      7.829
REMARK SMILES CC(C)C[C@H](NC(=O)c1cc(Cl)nnc1Cl)C(=O)OCCOCCOC(=O)c1ccc(-c2c3nc(c(-c4c(F)c(F)c(F)c(F)c4F)c4ccc([nH]4)c(-c4c(F)c(F)c(F)c(F)c4F)c4nc(c(-c5c(F)c(F)c(F)c(F)c5F)c5ccc2[nH]5)C=C4)C=C3)cc1
REMARK SMILES IDX 22 1 21 2 20 3 19 4 17 5 18 6 5 7 4 8 2 9 1 10 3 11 6 12
REMARK SMILES IDX 7 13 8 15 9 16 10 17 15 18 11 19 14 20 16 21 12 22 13 23
REMARK SMILES IDX 23 24 24 25 25 26 26 27 27 28 28 29 29 30 90 31 30 32 89 33
REMARK SMILES IDX 31 34 32 35 33 36 83 37 34 38 88 39 82 40 84 41 35 42 87 43
REMARK SMILES IDX 81 44 80 45 36 47 68 48 48 49 67 50 49 51 52 52 66 53 85 54
REMARK SMILES IDX 50 55 51 56 65 58 86 59 53 60 37 61 38 62 46 63 39 64 40 65
REMARK SMILES IDX 44 66 47 67 41 68 42 69 45 70 43 71 69 72 70 73 78 74 71 75
REMARK SMILES IDX 72 76 76 77 79 78 73 79 74 80 77 81 75 82 54 83 55 84 63 85
REMARK SMILES IDX 56 86 57 87 61 88 64 89 58 90 59 91 62 92 60 93
REMARK H PARENT 6 14 84 46 52 57
REMARK Flexibility Score: inf
ROOT
ATOM      1  O   UNL A   1      31.630  30.935  26.956  1.00  0.00    -0.374 OA
ENDROOT
BRANCH   1   2
ATOM      2  C   UNL A   1      32.522  30.187  26.142  1.00  0.00     0.202 C 
BRANCH   2   3
ATOM      3  C   UNL A   1      33.453  29.194  26.842  1.00  0.00     0.261 C 
BRANCH   3   4
ATOM      4  O   UNL A   1      33.234  27.819  26.494  1.00  0.00    -0.462 OA
BRANCH   4   5
ATOM      5  C   UNL A   1      32.005  27.349  26.867  1.00  0.00     0.328 C 
ATOM      6  O   UNL A   1      31.430  27.664  27.900  1.00  0.00    -0.250 OA
BRANCH   5   7
ATOM      7  C   UNL A   1      31.489  26.264  25.909  1.00  0.00     0.192 C 
BRANCH   7   8
ATOM      8  C   UNL A   1      30.248  26.717  25.112  1.00  0.00     0.040 C 
BRANCH   8   9
ATOM      9  C   UNL A   1      30.442  27.487  23.793  1.00  0.00    -0.015 C 
ATOM     10  C   UNL A   1      31.098  26.662  22.687  1.00  0.00     0.007 C 
ATOM     11  C   UNL A   1      29.072  27.966  23.294  1.00  0.00     0.007 C 
ENDBRANCH   8   9
ENDBRANCH   7   8
BRANCH   7  12
ATOM     12  N   UNL A   1      31.218  25.008  26.651  1.00  0.00    -0.338 N 
ATOM     13  C   UNL A   1      31.930  23.842  26.735  1.00  0.00     0.255 C 
ATOM     14  H   UNL A   1      30.382  25.015  27.172  1.00  0.00     0.164 HD
ATOM     15  O   UNL A   1      31.573  22.938  27.481  1.00  0.00    -0.269 OA
BRANCH  13  16
ATOM     16  C   UNL A   1      33.047  23.595  25.828  1.00  0.00     0.082 A 
ATOM     17  C   UNL A   1      34.335  23.753  26.345  1.00  0.00     0.060 A 
ATOM     18  C   UNL A   1      32.886  23.223  24.510  1.00  0.00     0.164 A 
ATOM     19  C   UNL A   1      35.393  23.456  25.518  1.00  0.00     0.152 A 
ATOM     20  N   UNL A   1      33.949  22.935  23.731  1.00  0.00    -0.136 NA
ATOM     21  Cl  UNL A   1      31.374  23.077  23.719  1.00  0.00    -0.059 Cl
ATOM     22  Cl  UNL A   1      37.011  23.553  26.059  1.00  0.00    -0.060 Cl
ATOM     23  N   UNL A   1      35.222  23.039  24.248  1.00  0.00    -0.137 NA
ENDBRANCH  13  16
ENDBRANCH   7  12
ENDBRANCH   5   7
ENDBRANCH   4   5
ENDBRANCH   3   4
ENDBRANCH   2   3
ENDBRANCH   1   2
BRANCH   1  24
ATOM     24  C   UNL A   1      31.174  32.201  26.477  1.00  0.00     0.202 C 
BRANCH  24  25
ATOM     25  C   UNL A   1      32.056  33.415  26.779  1.00  0.00     0.261 C 
BRANCH  25  26
ATOM     26  O   UNL A   1      32.624  33.331  28.104  1.00  0.00    -0.460 OA
BRANCH  26  27
ATOM     27  C   UNL A   1      33.728  34.089  28.293  1.00  0.00     0.338 C 
ATOM     28  O   UNL A   1      33.786  35.300  28.449  1.00  0.00    -0.246 OA
BRANCH  27  29
ATOM     29  C   UNL A   1      34.910  33.232  28.455  1.00  0.00     0.060 A 
ATOM     30  C   UNL A   1      34.713  31.907  28.866  1.00  0.00     0.016 A 
ATOM     31  C   UNL A   1      36.193  33.775  28.377  1.00  0.00     0.016 A 
ATOM     32  C   UNL A   1      35.803  31.134  29.257  1.00  0.00     0.010 A 
ATOM     33  C   UNL A   1      37.284  33.004  28.789  1.00  0.00     0.010 A 
ATOM     34  C   UNL A   1      37.085  31.699  29.273  1.00  0.00    -0.014 A 
BRANCH  34  35
ATOM     35  C   UNL A   1      38.176  30.996  29.986  1.00  0.00     0.031 A 
ATOM     36  C   UNL A   1      38.427  31.332  31.429  1.00  0.00     0.074 A 
ATOM     37  C   UNL A   1      38.901  30.046  29.372  1.00  0.00     0.049 A 
ATOM     38  N   UNL A   1      39.323  30.849  32.250  1.00  0.00    -0.248 NA
ATOM     39  C   UNL A   1      37.541  32.342  32.031  1.00  0.00     0.031 C 
ATOM     40  C   UNL A   1      38.708  29.596  27.997  1.00  0.00     0.029 A 
ATOM     41  N   UNL A   1      39.948  29.290  29.834  1.00  0.00    -0.354 N 
ATOM     42  C   UNL A   1      39.099  31.482  33.466  1.00  0.00     0.074 A 
ATOM     43  C   UNL A   1      38.006  32.409  33.269  1.00  0.00     0.031 C 
ATOM     44  C   UNL A   1      39.615  28.643  27.722  1.00  0.00     0.029 A 
ATOM     45  C   UNL A   1      40.466  28.437  28.894  1.00  0.00     0.049 A 
ATOM     46  H   UNL A   1      40.294  29.354  30.755  1.00  0.00     0.167 HD
ATOM     47  C   UNL A   1      39.742  31.298  34.642  1.00  0.00     0.037 A 
ATOM     48  C   UNL A   1      41.516  27.598  28.971  1.00  0.00     0.037 A 
ATOM     49  C   UNL A   1      40.846  30.396  34.830  1.00  0.00     0.049 A 
ATOM     50  C   UNL A   1      42.291  27.499  30.258  1.00  0.00     0.074 A 
ATOM     51  C   UNL A   1      41.570  30.146  35.981  1.00  0.00     0.029 A 
ATOM     52  N   UNL A   1      41.391  29.603  33.831  1.00  0.00    -0.354 N 
ATOM     53  N   UNL A   1      42.070  28.093  31.405  1.00  0.00    -0.248 NA
ATOM     54  C   UNL A   1      43.465  26.613  30.260  1.00  0.00     0.031 C 
ATOM     55  C   UNL A   1      42.583  29.234  35.668  1.00  0.00     0.029 A 
ATOM     56  C   UNL A   1      42.461  28.883  34.333  1.00  0.00     0.049 A 
ATOM     57  H   UNL A   1      41.065  29.560  32.903  1.00  0.00     0.167 HD
ATOM     58  C   UNL A   1      43.058  27.642  32.269  1.00  0.00     0.074 A 
ATOM     59  C   UNL A   1      43.879  26.715  31.517  1.00  0.00     0.031 C 
ATOM     60  C   UNL A   1      43.267  27.965  33.569  1.00  0.00     0.037 A 
BRANCH  47  61
ATOM     61  C   UNL A   1      39.276  32.104  35.817  1.00  0.00     0.064 A 
ATOM     62  C   UNL A   1      39.742  33.409  36.037  1.00  0.00     0.173 A 
ATOM     63  C   UNL A   1      38.325  31.585  36.708  1.00  0.00     0.173 A 
ATOM     64  F   UNL A   1      40.663  33.943  35.221  1.00  0.00    -0.203 F 
ATOM     65  C   UNL A   1      39.284  34.159  37.117  1.00  0.00     0.198 A 
ATOM     66  C   UNL A   1      37.853  32.347  37.774  1.00  0.00     0.198 A 
ATOM     67  F   UNL A   1      37.848  30.343  36.539  1.00  0.00    -0.203 F 
ATOM     68  F   UNL A   1      39.768  35.392  37.328  1.00  0.00    -0.200 F 
ATOM     69  C   UNL A   1      38.335  33.630  37.979  1.00  0.00     0.200 A 
ATOM     70  F   UNL A   1      36.930  31.838  38.601  1.00  0.00    -0.200 F 
ATOM     71  F   UNL A   1      37.889  34.357  39.013  1.00  0.00    -0.200 F 
ENDBRANCH  47  61
BRANCH  48  72
ATOM     72  C   UNL A   1      41.895  26.786  27.787  1.00  0.00     0.064 A 
ATOM     73  C   UNL A   1      42.865  27.241  26.884  1.00  0.00     0.173 A 
ATOM     74  C   UNL A   1      41.307  25.536  27.544  1.00  0.00     0.173 A 
ATOM     75  F   UNL A   1      43.436  28.440  27.064  1.00  0.00    -0.203 F 
ATOM     76  C   UNL A   1      43.232  26.475  25.779  1.00  0.00     0.198 A 
ATOM     77  C   UNL A   1      41.691  24.762  26.451  1.00  0.00     0.198 A 
ATOM     78  F   UNL A   1      40.372  25.060  28.378  1.00  0.00    -0.203 F 
ATOM     79  F   UNL A   1      44.144  26.942  24.917  1.00  0.00    -0.200 F 
ATOM     80  C   UNL A   1      42.651  25.234  25.568  1.00  0.00     0.200 A 
ATOM     81  F   UNL A   1      41.135  23.558  26.257  1.00  0.00    -0.200 F 
ATOM     82  F   UNL A   1      43.014  24.493  24.512  1.00  0.00    -0.200 F 
ENDBRANCH  48  72
BRANCH  60  83
ATOM     83  C   UNL A   1      44.415  27.308  34.274  1.00  0.00     0.064 A 
ATOM     84  C   UNL A   1      44.284  26.042  34.862  1.00  0.00     0.173 A 
ATOM     85  C   UNL A   1      45.680  27.915  34.292  1.00  0.00     0.173 A 
ATOM     86  F   UNL A   1      43.091  25.428  34.880  1.00  0.00    -0.203 F 
ATOM     87  C   UNL A   1      45.376  25.410  35.451  1.00  0.00     0.198 A 
ATOM     88  C   UNL A   1      46.775  27.270  34.860  1.00  0.00     0.198 A 
ATOM     89  F   UNL A   1      45.858  29.122  33.737  1.00  0.00    -0.203 F 
ATOM     90  F   UNL A   1      45.221  24.212  36.031  1.00  0.00    -0.200 F 
ATOM     91  C   UNL A   1      46.621  26.020  35.442  1.00  0.00     0.200 A 
ATOM     92  F   UNL A   1      47.981  27.855  34.839  1.00  0.00    -0.200 F 
ATOM     93  F   UNL A   1      47.675  25.404  35.995  1.00  0.00    -0.200 F 
ENDBRANCH  60  83
ENDBRANCH  34  35
ENDBRANCH  27  29
ENDBRANCH  26  27
ENDBRANCH  25  26
ENDBRANCH  24  25
ENDBRANCH   1  24
TORSDOF 18
ENDMDL
MODEL 3
REMARK VINA RESULT:     -11.2      1.327      2.980
REMARK SMILES CC(C)C[C@H](NC(=O)c1cc(Cl)nnc1Cl)C(=O)OCCOCCOC(=O)c1ccc(-c2c3nc(c(-c4c(F)c(F)c(F)c(F)c4F)c4ccc([nH]4)c(-c4c(F)c(F)c(F)c(F)c4F)c4nc(c(-c5c(F)c(F)c(F)c(F)c5F)c5ccc2[nH]5)C=C4)C=C3)cc1
REMARK SMILES IDX 22 1 21 2 20 3 19 4 17 5 18 6 5 7 4 8 2 9 1 10 3 11 6 12
REMARK SMILES IDX 7 13 8 15 9 16 10 17 15 18 11 19 14 20 16 21 12 22 13 23
REMARK SMILES IDX 23 24 24 25 25 26 26 27 27 28 28 29 29 30 90 31 30 32 89 33
REMARK SMILES IDX 31 34 32 35 33 36 83 37 34 38 88 39 82 40 84 41 35 42 87 43
REMARK SMILES IDX 81 44 80 45 36 47 68 48 48 49 67 50 49 51 52 52 66 53 85 54
REMARK SMILES IDX 50 55 51 56 65 58 86 59 53 60 37 61 38 62 46 63 39 64 40 65
REMARK SMILES IDX 44 66 47 67 41 68 42 69 45 70 43 71 69 72 70 73 78 74 71 75
REMARK SMILES IDX 72 76 76 77 79 78 73 79 74 80 77 81 75 82 54 83 55 84 63 85
REMARK SMILES IDX 56 86 57 87 61 88 64 89 58 90 59 91 62 92 60 93
REMARK H PARENT 6 14 84 46 52 57
REMARK Flexibility Score: inf
ROOT
ATOM      1  O   UNL A   1      30.674  29.667  24.230  1.00  0.00    -0.374 OA
ENDROOT
BRANCH   1   2
ATOM      2  C   UNL A   1      30.257  28.394  23.758  1.00  0.00     0.202 C 
BRANCH   2   3
ATOM      3  C   UNL A   1      31.324  27.303  23.633  1.00  0.00     0.261 C 
BRANCH   3   4
ATOM      4  O   UNL A   1      31.155  26.195  24.529  1.00  0.00    -0.462 OA
BRANCH   4   5
ATOM      5  C   UNL A   1      32.293  25.864  25.210  1.00  0.00     0.328 C 
ATOM      6  O   UNL A   1      33.035  26.673  25.751  1.00  0.00    -0.250 OA
BRANCH   5   7
ATOM      7  C   UNL A   1      32.617  24.366  25.097  1.00  0.00     0.192 C 
BRANCH   7   8
ATOM      8  C   UNL A   1      31.799  23.663  23.993  1.00  0.00     0.040 C 
BRANCH   8   9
ATOM      9  C   UNL A   1      32.510  23.209  22.705  1.00  0.00    -0.015 C 
ATOM     10  C   UNL A   1      34.034  23.294  22.778  1.00  0.00     0.007 C 
ATOM     11  C   UNL A   1      32.118  21.755  22.411  1.00  0.00     0.007 C 
ENDBRANCH   8   9
ENDBRANCH   7   8
BRANCH   7  12
ATOM     12  N   UNL A   1      32.429  23.698  26.408  1.00  0.00    -0.338 N 
ATOM     13  C   UNL A   1      33.164  22.729  27.038  1.00  0.00     0.255 C 
ATOM     14  H   UNL A   1      31.640  24.003  26.912  1.00  0.00     0.164 HD
ATOM     15  O   UNL A   1      32.885  22.365  28.174  1.00  0.00    -0.269 OA
BRANCH  13  16
ATOM     16  C   UNL A   1      34.206  22.007  26.312  1.00  0.00     0.082 A 
ATOM     17  C   UNL A   1      35.497  22.539  26.353  1.00  0.00     0.060 A 
ATOM     18  C   UNL A   1      33.970  20.850  25.600  1.00  0.00     0.164 A 
ATOM     19  C   UNL A   1      36.496  21.830  25.731  1.00  0.00     0.152 A 
ATOM     20  N   UNL A   1      34.979  20.179  25.007  1.00  0.00    -0.136 NA
ATOM     21  Cl  UNL A   1      32.429  20.134  25.390  1.00  0.00    -0.059 Cl
ATOM     22  Cl  UNL A   1      38.123  22.349  25.767  1.00  0.00    -0.060 Cl
ATOM     23  N   UNL A   1      36.264  20.670  25.086  1.00  0.00    -0.137 NA
ENDBRANCH  13  16
ENDBRANCH   7  12
ENDBRANCH   5   7
ENDBRANCH   4   5
ENDBRANCH   3   4
ENDBRANCH   2   3
ENDBRANCH   1   2
BRANCH   1  24
ATOM     24  C   UNL A   1      31.557  29.719  25.353  1.00  0.00     0.202 C 
BRANCH  24  25
ATOM     25  C   UNL A   1      31.694  31.067  26.065  1.00  0.00     0.261 C 
BRANCH  25  26
ATOM     26  O   UNL A   1      32.508  30.950  27.251  1.00  0.00    -0.460 OA
BRANCH  26  27
ATOM     27  C   UNL A   1      33.317  32.009  27.486  1.00  0.00     0.338 C 
ATOM     28  O   UNL A   1      33.004  33.188  27.557  1.00  0.00    -0.246 OA
BRANCH  27  29
ATOM     29  C   UNL A   1      34.671  31.548  27.822  1.00  0.00     0.060 A 
ATOM     30  C   UNL A   1      34.855  30.185  28.096  1.00  0.00     0.016 A 
ATOM     31  C   UNL A   1      35.698  32.467  28.038  1.00  0.00     0.016 A 
ATOM     32  C   UNL A   1      36.058  29.745  28.643  1.00  0.00     0.010 A 
ATOM     33  C   UNL A   1      36.897  32.026  28.605  1.00  0.00     0.010 A 
ATOM     34  C   UNL A   1      37.061  30.673  28.952  1.00  0.00    -0.014 A 
BRANCH  34  35
ATOM     35  C   UNL A   1      38.187  30.258  29.817  1.00  0.00     0.031 A 
ATOM     36  C   UNL A   1      39.196  29.286  29.271  1.00  0.00     0.074 A 
ATOM     37  C   UNL A   1      38.332  30.766  31.052  1.00  0.00     0.049 A 
ATOM     38  N   UNL A   1      40.257  28.782  29.843  1.00  0.00    -0.248 NA
ATOM     39  C   UNL A   1      38.984  28.831  27.886  1.00  0.00     0.031 C 
ATOM     40  C   UNL A   1      37.452  31.757  31.664  1.00  0.00     0.029 A 
ATOM     41  N   UNL A   1      39.281  30.515  32.011  1.00  0.00    -0.354 N 
ATOM     42  C   UNL A   1      40.847  27.965  28.887  1.00  0.00     0.074 A 
ATOM     43  C   UNL A   1      40.010  28.014  27.709  1.00  0.00     0.031 C 
ATOM     44  C   UNL A   1      37.899  32.026  32.904  1.00  0.00     0.029 A 
ATOM     45  C   UNL A   1      39.080  31.207  33.177  1.00  0.00     0.049 A 
ATOM     46  H   UNL A   1      40.036  29.896  31.874  1.00  0.00     0.167 HD
ATOM     47  C   UNL A   1      41.991  27.248  28.982  1.00  0.00     0.037 A 
ATOM     48  C   UNL A   1      39.764  31.170  34.336  1.00  0.00     0.037 A 
ATOM     49  C   UNL A   1      42.809  27.179  30.162  1.00  0.00     0.049 A 
ATOM     50  C   UNL A   1      40.967  30.272  34.456  1.00  0.00     0.074 A 
ATOM     51  C   UNL A   1      43.981  26.473  30.361  1.00  0.00     0.029 A 
ATOM     52  N   UNL A   1      42.529  27.837  31.351  1.00  0.00    -0.354 N 
ATOM     53  N   UNL A   1      41.524  29.509  33.547  1.00  0.00    -0.248 NA
ATOM     54  C   UNL A   1      41.634  30.227  35.765  1.00  0.00     0.031 C 
ATOM     55  C   UNL A   1      44.387  26.668  31.685  1.00  0.00     0.029 A 
ATOM     56  C   UNL A   1      43.492  27.531  32.298  1.00  0.00     0.049 A 
ATOM     57  H   UNL A   1      41.759  28.433  31.500  1.00  0.00     0.167 HD
ATOM     58  C   UNL A   1      42.614  28.911  34.163  1.00  0.00     0.074 A 
ATOM     59  C   UNL A   1      42.648  29.406  35.524  1.00  0.00     0.031 C 
ATOM     60  C   UNL A   1      43.508  28.032  33.648  1.00  0.00     0.037 A 
BRANCH  47  61
ATOM     61  C   UNL A   1      42.416  26.464  27.778  1.00  0.00     0.064 A 
ATOM     62  C   UNL A   1      43.344  26.982  26.860  1.00  0.00     0.173 A 
ATOM     63  C   UNL A   1      41.926  25.169  27.557  1.00  0.00     0.173 A 
ATOM     64  F   UNL A   1      43.830  28.222  27.020  1.00  0.00    -0.203 F 
ATOM     65  C   UNL A   1      43.752  26.236  25.758  1.00  0.00     0.198 A 
ATOM     66  C   UNL A   1      42.353  24.418  26.466  1.00  0.00     0.198 A 
ATOM     67  F   UNL A   1      41.038  24.630  28.406  1.00  0.00    -0.203 F 
ATOM     68  F   UNL A   1      44.614  26.763  24.876  1.00  0.00    -0.200 F 
ATOM     69  C   UNL A   1      43.262  24.952  25.566  1.00  0.00     0.200 A 
ATOM     70  F   UNL A   1      41.886  23.175  26.286  1.00  0.00    -0.200 F 
ATOM     71  F   UNL A   1      43.663  24.233  24.509  1.00  0.00    -0.200 F 
ENDBRANCH  47  61
BRANCH  48  72
ATOM     72  C   UNL A   1      39.323  32.011  35.476  1.00  0.00     0.064 A 
ATOM     73  C   UNL A   1      38.465  31.499  36.459  1.00  0.00     0.173 A 
ATOM     74  C   UNL A   1      39.761  33.337  35.614  1.00  0.00     0.173 A 
ATOM     75  F   UNL A   1      38.002  30.246  36.354  1.00  0.00    -0.203 F 
ATOM     76  C   UNL A   1      38.059  32.283  37.537  1.00  0.00     0.198 A 
ATOM     77  C   UNL A   1      39.372  34.112  36.705  1.00  0.00     0.198 A 
ATOM     78  F   UNL A   1      40.580  33.872  34.699  1.00  0.00    -0.203 F 
ATOM     79  F   UNL A   1      37.220  31.778  38.450  1.00  0.00    -0.200 F 
ATOM     80  C   UNL A   1      38.519  33.585  37.664  1.00  0.00     0.200 A 
ATOM     81  F   UNL A   1      39.828  35.366  36.829  1.00  0.00    -0.200 F 
ATOM     82  F   UNL A   1      38.139  34.333  38.708  1.00  0.00    -0.200 F 
ENDBRANCH  48  72
BRANCH  60  83
ATOM     83  C   UNL A   1      44.611  27.554  34.545  1.00  0.00     0.064 A 
ATOM     84  C   UNL A   1      45.813  28.265  34.669  1.00  0.00     0.173 A 
ATOM     85  C   UNL A   1      44.431  26.417  35.348  1.00  0.00     0.173 A 
ATOM     86  F   UNL A   1      46.035  29.350  33.912  1.00  0.00    -0.203 F 
ATOM     87  C   UNL A   1      46.800  27.850  35.558  1.00  0.00     0.198 A 
ATOM     88  C   UNL A   1      45.410  26.020  36.254  1.00  0.00     0.198 A 
ATOM     89  F   UNL A   1      43.296  25.708  35.271  1.00  0.00    -0.203 F 
ATOM     90  F   UNL A   1      47.953  28.529  35.641  1.00  0.00    -0.200 F 
ATOM     91  C   UNL A   1      46.594  26.734  36.356  1.00  0.00     0.200 A 
ATOM     92  F   UNL A   1      45.205  24.949  37.033  1.00  0.00    -0.200 F 
ATOM     93  F   UNL A   1      47.540  26.346  37.223  1.00  0.00    -0.200 F 
ENDBRANCH  60  83
ENDBRANCH  34  35
ENDBRANCH  27  29
ENDBRANCH  26  27
ENDBRANCH  25  26
ENDBRANCH  24  25
ENDBRANCH   1  24
TORSDOF 18
ENDMDL
