MODEL 1
REMARK VINA RESULT:     -11.1      0.000      0.000
REMARK SMILES O=C(OCCOCCOC(=O)[C@]1(CCc2cccnc2)CCC[NH2+]C1)c1ccc(-c2c3nc(c(-c4c(F)c(F)c(F)c(F)c4F)c4ccc([nH]4)c(-c4c(F)c(F)c(F)c(F)c4F)c4nc(c(-c5c(F)c(F)c(F)c(F)c5F)c5ccc2[nH]5)C=C4)C=C3)cc1
REMARK SMILES IDX 7 1 6 2 5 3 4 4 3 5 2 6 1 7 26 8 27 9 88 10 28 11 87 12
REMARK SMILES IDX 29 13 30 14 31 15 81 16 32 17 86 18 80 19 82 20 33 21 85 22
REMARK SMILES IDX 79 23 78 24 34 26 66 27 46 28 65 29 47 30 50 31 64 32 83 33
REMARK SMILES IDX 48 34 49 35 63 37 84 38 51 39 35 40 36 41 44 42 37 43 38 44
REMARK SMILES IDX 42 45 45 46 39 47 40 48 43 49 41 50 67 51 68 52 76 53 69 54
REMARK SMILES IDX 70 55 74 56 77 57 71 58 72 59 75 60 73 61 52 62 53 63 61 64
REMARK SMILES IDX 54 65 55 66 59 67 62 68 56 69 57 70 60 71 58 72 8 73 9 74
REMARK SMILES IDX 10 75 11 76 12 77 21 78 25 79 22 80 24 81 23 82 13 85 14 86
REMARK SMILES IDX 15 87 16 88 20 89 17 90 19 91 18 92
REMARK H PARENT 82 25 50 36 24 83 24 84
REMARK Flexibility Score: inf
ROOT
ATOM      1  C   UNL A   1      33.594  22.604  23.395  1.00  0.00     0.202 C 
ENDROOT
BRANCH   1   2
ATOM      2  O   UNL A   1      34.516  21.871  24.201  1.00  0.00    -0.374 OA
BRANCH   2   3
ATOM      3  C   UNL A   1      35.829  22.425  24.312  1.00  0.00     0.202 C 
BRANCH   3   4
ATOM      4  C   UNL A   1      37.009  21.461  24.515  1.00  0.00     0.261 C 
BRANCH   4   5
ATOM      5  O   UNL A   1      37.583  21.606  25.835  1.00  0.00    -0.460 OA
BRANCH   5   6
ATOM      6  C   UNL A   1      38.907  21.597  26.142  1.00  0.00     0.338 C 
ATOM      7  O   UNL A   1      39.531  20.537  26.125  1.00  0.00    -0.246 OA
BRANCH   6   8
ATOM      8  C   UNL A   1      39.599  22.838  26.593  1.00  0.00     0.060 A 
ATOM      9  C   UNL A   1      39.219  24.079  26.121  1.00  0.00     0.016 A 
ATOM     10  C   UNL A   1      40.620  22.807  27.548  1.00  0.00     0.016 A 
ATOM     11  C   UNL A   1      39.828  25.250  26.466  1.00  0.00     0.010 A 
ATOM     12  C   UNL A   1      41.235  24.004  27.965  1.00  0.00     0.010 A 
ATOM     13  C   UNL A   1      40.837  25.228  27.407  1.00  0.00    -0.014 A 
BRANCH  13  14
ATOM     14  C   UNL A   1      41.520  26.518  27.558  1.00  0.00     0.031 A 
ATOM     15  C   UNL A   1      40.930  27.494  28.525  1.00  0.00     0.074 A 
ATOM     16  C   UNL A   1      42.791  26.638  27.124  1.00  0.00     0.049 A 
ATOM     17  N   UNL A   1      41.339  28.688  28.850  1.00  0.00    -0.248 NA
ATOM     18  C   UNL A   1      39.730  27.047  29.257  1.00  0.00     0.031 C 
ATOM     19  C   UNL A   1      43.542  25.591  26.417  1.00  0.00     0.029 A 
ATOM     20  N   UNL A   1      43.705  27.638  27.296  1.00  0.00    -0.354 N 
ATOM     21  C   UNL A   1      40.411  29.158  29.764  1.00  0.00     0.074 A 
ATOM     22  C   UNL A   1      39.441  28.113  29.983  1.00  0.00     0.031 C 
ATOM     23  C   UNL A   1      44.816  25.987  26.269  1.00  0.00     0.029 A 
ATOM     24  C   UNL A   1      44.938  27.351  26.761  1.00  0.00     0.049 A 
ATOM     25  H   UNL A   1      43.502  28.482  27.759  1.00  0.00     0.167 HD
ATOM     26  C   UNL A   1      40.370  30.383  30.335  1.00  0.00     0.037 A 
ATOM     27  C   UNL A   1      46.023  28.138  26.644  1.00  0.00     0.037 A 
ATOM     28  C   UNL A   1      41.378  31.378  30.100  1.00  0.00     0.049 A 
ATOM     29  C   UNL A   1      45.901  29.543  27.165  1.00  0.00     0.074 A 
ATOM     30  C   UNL A   1      41.408  32.702  30.486  1.00  0.00     0.029 A 
ATOM     31  N   UNL A   1      42.561  31.129  29.410  1.00  0.00    -0.354 N 
ATOM     32  N   UNL A   1      44.930  30.080  27.867  1.00  0.00    -0.248 NA
ATOM     33  C   UNL A   1      46.993  30.466  26.842  1.00  0.00     0.031 C 
ATOM     34  C   UNL A   1      42.593  33.265  29.995  1.00  0.00     0.029 A 
ATOM     35  C   UNL A   1      43.323  32.280  29.345  1.00  0.00     0.049 A 
ATOM     36  H   UNL A   1      42.818  30.260  29.026  1.00  0.00     0.167 HD
ATOM     37  C   UNL A   1      45.292  31.400  28.076  1.00  0.00     0.074 A 
ATOM     38  C   UNL A   1      46.589  31.574  27.446  1.00  0.00     0.031 C 
ATOM     39  C   UNL A   1      44.616  32.388  28.715  1.00  0.00     0.037 A 
BRANCH  26  40
ATOM     40  C   UNL A   1      39.138  30.717  31.118  1.00  0.00     0.064 A 
ATOM     41  C   UNL A   1      38.048  31.396  30.556  1.00  0.00     0.173 A 
ATOM     42  C   UNL A   1      39.099  30.434  32.492  1.00  0.00     0.173 A 
ATOM     43  F   UNL A   1      38.056  31.731  29.258  1.00  0.00    -0.203 F 
ATOM     44  C   UNL A   1      36.979  31.810  31.351  1.00  0.00     0.198 A 
ATOM     45  C   UNL A   1      38.020  30.827  33.277  1.00  0.00     0.198 A 
ATOM     46  F   UNL A   1      40.127  29.805  33.082  1.00  0.00    -0.203 F 
ATOM     47  F   UNL A   1      35.980  32.524  30.810  1.00  0.00    -0.200 F 
ATOM     48  C   UNL A   1      36.966  31.525  32.709  1.00  0.00     0.200 A 
ATOM     49  F   UNL A   1      38.014  30.557  34.590  1.00  0.00    -0.200 F 
ATOM     50  F   UNL A   1      35.949  31.945  33.474  1.00  0.00    -0.200 F 
ENDBRANCH  26  40
BRANCH  27  51
ATOM     51  C   UNL A   1      47.240  27.663  25.929  1.00  0.00     0.064 A 
ATOM     52  C   UNL A   1      48.339  27.138  26.621  1.00  0.00     0.173 A 
ATOM     53  C   UNL A   1      47.341  27.748  24.529  1.00  0.00     0.173 A 
ATOM     54  F   UNL A   1      48.312  27.058  27.959  1.00  0.00    -0.203 F 
ATOM     55  C   UNL A   1      49.490  26.728  25.946  1.00  0.00     0.198 A 
ATOM     56  C   UNL A   1      48.476  27.307  23.853  1.00  0.00     0.198 A 
ATOM     57  F   UNL A   1      46.328  28.256  23.811  1.00  0.00    -0.203 F 
ATOM     58  F   UNL A   1      50.545  26.274  26.638  1.00  0.00    -0.200 F 
ATOM     59  C   UNL A   1      49.555  26.805  24.563  1.00  0.00     0.200 A 
ATOM     60  F   UNL A   1      48.527  27.376  22.516  1.00  0.00    -0.200 F 
ATOM     61  F   UNL A   1      50.659  26.410  23.915  1.00  0.00    -0.200 F 
ENDBRANCH  27  51
BRANCH  39  62
ATOM     62  C   UNL A   1      45.294  33.720  28.788  1.00  0.00     0.064 A 
ATOM     63  C   UNL A   1      46.182  34.031  29.825  1.00  0.00     0.173 A 
ATOM     64  C   UNL A   1      45.084  34.670  27.780  1.00  0.00     0.173 A 
ATOM     65  F   UNL A   1      46.395  33.155  30.819  1.00  0.00    -0.203 F 
ATOM     66  C   UNL A   1      46.823  35.264  29.863  1.00  0.00     0.198 A 
ATOM     67  C   UNL A   1      45.749  35.890  27.806  1.00  0.00     0.198 A 
ATOM     68  F   UNL A   1      44.246  34.409  26.765  1.00  0.00    -0.203 F 
ATOM     69  F   UNL A   1      47.636  35.563  30.885  1.00  0.00    -0.200 F 
ATOM     70  C   UNL A   1      46.613  36.188  28.849  1.00  0.00     0.200 A 
ATOM     71  F   UNL A   1      45.555  36.778  26.821  1.00  0.00    -0.200 F 
ATOM     72  F   UNL A   1      47.240  37.372  28.882  1.00  0.00    -0.200 F 
ENDBRANCH  39  62
ENDBRANCH  13  14
ENDBRANCH   6   8
ENDBRANCH   5   6
ENDBRANCH   4   5
ENDBRANCH   3   4
ENDBRANCH   2   3
ENDBRANCH   1   2
BRANCH   1  73
ATOM     73  C   UNL A   1      34.109  24.013  23.112  1.00  0.00     0.261 C 
BRANCH  73  74
ATOM     74  O   UNL A   1      33.030  24.960  23.171  1.00  0.00    -0.463 OA
BRANCH  74  75
ATOM     75  C   UNL A   1      33.298  26.219  22.751  1.00  0.00     0.317 C 
ATOM     76  O   UNL A   1      33.685  26.476  21.612  1.00  0.00    -0.251 OA
BRANCH  75  77
ATOM     77  C   UNL A   1      33.019  27.265  23.852  1.00  0.00     0.117 C 
ATOM     78  C   UNL A   1      31.551  27.286  24.345  1.00  0.00     0.030 C 
ATOM     79  C   UNL A   1      33.290  28.646  23.185  1.00  0.00     0.279 C 
ATOM     80  C   UNL A   1      30.543  27.718  23.280  1.00  0.00     0.063 C 
ATOM     81  N   UNL A   1      32.326  29.005  22.141  1.00  0.00    -0.345 N 
ATOM     82  C   UNL A   1      30.941  29.014  22.589  1.00  0.00     0.260 C 
ATOM     83  H   UNL A   1      32.558  29.936  21.797  1.00  0.00     0.346 HD
ATOM     84  H   UNL A   1      32.396  28.290  21.417  1.00  0.00     0.346 HD
BRANCH  77  85
ATOM     85  C   UNL A   1      33.996  27.087  25.079  1.00  0.00     0.029 C 
BRANCH  85  86
ATOM     86  C   UNL A   1      33.546  27.558  26.497  1.00  0.00     0.038 C 
BRANCH  86  87
ATOM     87  C   UNL A   1      33.843  28.959  26.979  1.00  0.00    -0.030 A 
ATOM     88  C   UNL A   1      35.063  29.270  27.595  1.00  0.00     0.007 A 
ATOM     89  C   UNL A   1      32.899  29.982  26.932  1.00  0.00     0.114 A 
ATOM     90  C   UNL A   1      35.302  30.557  28.081  1.00  0.00     0.020 A 
ATOM     91  N   UNL A   1      33.108  31.247  27.375  1.00  0.00    -0.264 NA
ATOM     92  C   UNL A   1      34.306  31.506  27.942  1.00  0.00     0.111 A 
ENDBRANCH  86  87
ENDBRANCH  85  86
ENDBRANCH  77  85
ENDBRANCH  75  77
ENDBRANCH  74  75
ENDBRANCH  73  74
ENDBRANCH   1  73
TORSDOF 17
ENDMDL
MODEL 2
REMARK VINA RESULT:     -10.9      1.320      2.570
REMARK SMILES O=C(OCCOCCOC(=O)[C@]1(CCc2cccnc2)CCC[NH2+]C1)c1ccc(-c2c3nc(c(-c4c(F)c(F)c(F)c(F)c4F)c4ccc([nH]4)c(-c4c(F)c(F)c(F)c(F)c4F)c4nc(c(-c5c(F)c(F)c(F)c(F)c5F)c5ccc2[nH]5)C=C4)C=C3)cc1
REMARK SMILES IDX 7 1 6 2 5 3 4 4 3 5 2 6 1 7 26 8 27 9 88 10 28 11 87 12
REMARK SMILES IDX 29 13 30 14 31 15 81 16 32 17 86 18 80 19 82 20 33 21 85 22
REMARK SMILES IDX 79 23 78 24 34 26 66 27 46 28 65 29 47 30 50 31 64 32 83 33
REMARK SMILES IDX 48 34 49 35 63 37 84 38 51 39 35 40 36 41 44 42 37 43 38 44
REMARK SMILES IDX 42 45 45 46 39 47 40 48 43 49 41 50 67 51 68 52 76 53 69 54
REMARK SMILES IDX 70 55 74 56 77 57 71 58 72 59 75 60 73 61 52 62 53 63 61 64
REMARK SMILES IDX 54 65 55 66 59 67 62 68 56 69 57 70 60 71 58 72 8 73 9 74
REMARK SMILES IDX 10 75 11 76 12 77 21 78 25 79 22 80 24 81 23 82 13 85 14 86
REMARK SMILES IDX 15 87 16 88 20 89 17 90 19 91 18 92
REMARK H PARENT 82 25 50 36 24 83 24 84
REMARK Flexibility Score: inf
ROOT
ATOM      1  C   UNL A   1      34.020  22.530  26.218  1.00  0.00     0.202 C 
ENDROOT
BRANCH   1   2
ATOM      2  O   UNL A   1      34.682  22.098  25.029  1.00  0.00    -0.374 OA
BRANCH   2   3
ATOM      3  C   UNL A   1      35.164  20.752  25.034  1.00  0.00     0.202 C 
BRANCH   3   4
ATOM      4  C   UNL A   1      36.683  20.525  25.001  1.00  0.00     0.261 C 
BRANCH   4   5
ATOM      5  O   UNL A   1      37.385  21.562  25.725  1.00  0.00    -0.460 OA
BRANCH   5   6
ATOM      6  C   UNL A   1      38.692  21.539  26.099  1.00  0.00     0.338 C 
ATOM      7  O   UNL A   1      39.296  20.469  26.141  1.00  0.00    -0.246 OA
BRANCH   6   8
ATOM      8  C   UNL A   1      39.382  22.779  26.554  1.00  0.00     0.060 A 
ATOM      9  C   UNL A   1      38.979  24.024  26.112  1.00  0.00     0.016 A 
ATOM     10  C   UNL A   1      40.426  22.743  27.484  1.00  0.00     0.016 A 
ATOM     11  C   UNL A   1      39.585  25.195  26.462  1.00  0.00     0.010 A 
ATOM     12  C   UNL A   1      41.039  23.939  27.906  1.00  0.00     0.010 A 
ATOM     13  C   UNL A   1      40.616  25.169  27.378  1.00  0.00    -0.014 A 
BRANCH  13  14
ATOM     14  C   UNL A   1      41.290  26.463  27.534  1.00  0.00     0.031 A 
ATOM     15  C   UNL A   1      40.675  27.443  28.480  1.00  0.00     0.074 A 
ATOM     16  C   UNL A   1      42.570  26.585  27.127  1.00  0.00     0.049 A 
ATOM     17  N   UNL A   1      41.071  28.641  28.804  1.00  0.00    -0.248 NA
ATOM     18  C   UNL A   1      39.460  26.996  29.188  1.00  0.00     0.031 C 
ATOM     19  C   UNL A   1      43.341  25.535  26.446  1.00  0.00     0.029 A 
ATOM     20  N   UNL A   1      43.476  27.590  27.312  1.00  0.00    -0.354 N 
ATOM     21  C   UNL A   1      40.121  29.115  29.694  1.00  0.00     0.074 A 
ATOM     22  C   UNL A   1      39.150  28.067  29.900  1.00  0.00     0.031 C 
ATOM     23  C   UNL A   1      44.616  25.936  26.323  1.00  0.00     0.029 A 
ATOM     24  C   UNL A   1      44.721  27.304  26.807  1.00  0.00     0.049 A 
ATOM     25  H   UNL A   1      43.258  28.437  27.763  1.00  0.00     0.167 HD
ATOM     26  C   UNL A   1      40.062  30.344  30.254  1.00  0.00     0.037 A 
ATOM     27  C   UNL A   1      45.805  28.095  26.708  1.00  0.00     0.037 A 
ATOM     28  C   UNL A   1      41.071  31.341  30.033  1.00  0.00     0.049 A 
ATOM     29  C   UNL A   1      45.666  29.504  27.215  1.00  0.00     0.074 A 
ATOM     30  C   UNL A   1      41.087  32.668  30.411  1.00  0.00     0.029 A 
ATOM     31  N   UNL A   1      42.270  31.093  29.372  1.00  0.00    -0.354 N 
ATOM     32  N   UNL A   1      44.677  30.042  27.891  1.00  0.00    -0.248 NA
ATOM     33  C   UNL A   1      46.761  30.429  26.909  1.00  0.00     0.031 C 
ATOM     34  C   UNL A   1      42.279  33.233  29.941  1.00  0.00     0.029 A 
ATOM     35  C   UNL A   1      43.028  32.246  29.315  1.00  0.00     0.049 A 
ATOM     36  H   UNL A   1      42.539  30.221  29.001  1.00  0.00     0.167 HD
ATOM     37  C   UNL A   1      45.029  31.366  28.098  1.00  0.00     0.074 A 
ATOM     38  C   UNL A   1      46.338  31.540  27.495  1.00  0.00     0.031 C 
ATOM     39  C   UNL A   1      44.334  32.355  28.713  1.00  0.00     0.037 A 
BRANCH  26  40
ATOM     40  C   UNL A   1      38.811  30.678  31.007  1.00  0.00     0.064 A 
ATOM     41  C   UNL A   1      37.655  31.157  30.375  1.00  0.00     0.173 A 
ATOM     42  C   UNL A   1      38.814  30.610  32.408  1.00  0.00     0.173 A 
ATOM     43  F   UNL A   1      37.618  31.286  29.040  1.00  0.00    -0.203 F 
ATOM     44  C   UNL A   1      36.559  31.587  31.123  1.00  0.00     0.198 A 
ATOM     45  C   UNL A   1      37.709  31.017  33.151  1.00  0.00     0.198 A 
ATOM     46  F   UNL A   1      39.903  30.179  33.062  1.00  0.00    -0.203 F 
ATOM     47  F   UNL A   1      35.491  32.111  30.503  1.00  0.00    -0.200 F 
ATOM     48  C   UNL A   1      36.587  31.517  32.508  1.00  0.00     0.200 A 
ATOM     49  F   UNL A   1      37.742  30.954  34.489  1.00  0.00    -0.200 F 
ATOM     50  F   UNL A   1      35.542  31.953  33.225  1.00  0.00    -0.200 F 
ENDBRANCH  26  40
BRANCH  27  51
ATOM     51  C   UNL A   1      47.040  27.620  26.024  1.00  0.00     0.064 A 
ATOM     52  C   UNL A   1      48.127  27.108  26.744  1.00  0.00     0.173 A 
ATOM     53  C   UNL A   1      47.170  27.692  24.626  1.00  0.00     0.173 A 
ATOM     54  F   UNL A   1      48.072  27.041  28.083  1.00  0.00    -0.203 F 
ATOM     55  C   UNL A   1      49.294  26.698  26.099  1.00  0.00     0.198 A 
ATOM     56  C   UNL A   1      48.322  27.251  23.979  1.00  0.00     0.198 A 
ATOM     57  F   UNL A   1      46.171  28.188  23.880  1.00  0.00    -0.203 F 
ATOM     58  F   UNL A   1      50.336  26.257  26.817  1.00  0.00    -0.200 F 
ATOM     59  C   UNL A   1      49.388  26.762  24.716  1.00  0.00     0.200 A 
ATOM     60  F   UNL A   1      48.401  27.307  22.642  1.00  0.00    -0.200 F 
ATOM     61  F   UNL A   1      50.509  26.367  24.096  1.00  0.00    -0.200 F 
ENDBRANCH  27  51
BRANCH  39  62
ATOM     62  C   UNL A   1      45.005  33.690  28.791  1.00  0.00     0.064 A 
ATOM     63  C   UNL A   1      45.872  34.012  29.843  1.00  0.00     0.173 A 
ATOM     64  C   UNL A   1      44.809  34.634  27.774  1.00  0.00     0.173 A 
ATOM     65  F   UNL A   1      46.071  33.142  30.845  1.00  0.00    -0.203 F 
ATOM     66  C   UNL A   1      46.507  35.248  29.885  1.00  0.00     0.198 A 
ATOM     67  C   UNL A   1      45.468  35.857  27.805  1.00  0.00     0.198 A 
ATOM     68  F   UNL A   1      43.991  34.363  26.746  1.00  0.00    -0.203 F 
ATOM     69  F   UNL A   1      47.300  35.556  30.920  1.00  0.00    -0.200 F 
ATOM     70  C   UNL A   1      46.311  36.165  28.862  1.00  0.00     0.200 A 
ATOM     71  F   UNL A   1      45.288  36.739  26.811  1.00  0.00    -0.200 F 
ATOM     72  F   UNL A   1      46.932  37.352  28.899  1.00  0.00    -0.200 F 
ENDBRANCH  39  62
ENDBRANCH  13  14
ENDBRANCH   6   8
ENDBRANCH   5   6
ENDBRANCH   4   5
ENDBRANCH   3   4
ENDBRANCH   2   3
ENDBRANCH   1   2
BRANCH   1  73
ATOM     73  C   UNL A   1      32.523  22.233  26.152  1.00  0.00     0.261 C 
BRANCH  73  74
ATOM     74  O   UNL A   1      31.850  23.239  25.376  1.00  0.00    -0.463 OA
BRANCH  74  75
ATOM     75  C   UNL A   1      31.388  24.321  26.046  1.00  0.00     0.317 C 
ATOM     76  O   UNL A   1      31.090  24.292  27.239  1.00  0.00    -0.251 OA
BRANCH  75  77
ATOM     77  C   UNL A   1      31.327  25.573  25.145  1.00  0.00     0.117 C 
ATOM     78  C   UNL A   1      32.688  25.965  24.517  1.00  0.00     0.030 C 
ATOM     79  C   UNL A   1      30.915  26.740  26.090  1.00  0.00     0.279 C 
ATOM     80  C   UNL A   1      33.742  26.399  25.536  1.00  0.00     0.063 C 
ATOM     81  N   UNL A   1      31.935  27.098  27.079  1.00  0.00    -0.345 N 
ATOM     82  C   UNL A   1      33.223  27.454  26.502  1.00  0.00     0.260 C 
ATOM     83  H   UNL A   1      31.594  27.893  27.618  1.00  0.00     0.346 HD
ATOM     84  H   UNL A   1      32.090  26.270  27.654  1.00  0.00     0.346 HD
BRANCH  77  85
ATOM     85  C   UNL A   1      30.238  25.419  24.013  1.00  0.00     0.029 C 
BRANCH  85  86
ATOM     86  C   UNL A   1      28.997  26.366  24.003  1.00  0.00     0.038 C 
BRANCH  86  87
ATOM     87  C   UNL A   1      29.042  27.694  23.286  1.00  0.00    -0.030 A 
ATOM     88  C   UNL A   1      27.887  28.472  23.127  1.00  0.00     0.007 A 
ATOM     89  C   UNL A   1      30.194  28.170  22.662  1.00  0.00     0.114 A 
ATOM     90  C   UNL A   1      27.934  29.673  22.417  1.00  0.00     0.020 A 
ATOM     91  N   UNL A   1      30.278  29.342  21.985  1.00  0.00    -0.264 NA
ATOM     92  C   UNL A   1      29.145  30.067  21.876  1.00  0.00     0.111 A 
ENDBRANCH  86  87
ENDBRANCH  85  86
ENDBRANCH  77  85
ENDBRANCH  75  77
ENDBRANCH  74  75
ENDBRANCH  73  74
ENDBRANCH   1  73
TORSDOF 17
ENDMDL
MODEL 3
REMARK VINA RESULT:     -10.9      4.540      7.558
REMARK SMILES O=C(OCCOCCOC(=O)[C@]1(CCc2cccnc2)CCC[NH2+]C1)c1ccc(-c2c3nc(c(-c4c(F)c(F)c(F)c(F)c4F)c4ccc([nH]4)c(-c4c(F)c(F)c(F)c(F)c4F)c4nc(c(-c5c(F)c(F)c(F)c(F)c5F)c5ccc2[nH]5)C=C4)C=C3)cc1
REMARK SMILES IDX 7 1 6 2 5 3 4 4 3 5 2 6 1 7 26 8 27 9 88 10 28 11 87 12
REMARK SMILES IDX 29 13 30 14 31 15 81 16 32 17 86 18 80 19 82 20 33 21 85 22
REMARK SMILES IDX 79 23 78 24 34 26 66 27 46 28 65 29 47 30 50 31 64 32 83 33
REMARK SMILES IDX 48 34 49 35 63 37 84 38 51 39 35 40 36 41 44 42 37 43 38 44
REMARK SMILES IDX 42 45 45 46 39 47 40 48 43 49 41 50 67 51 68 52 76 53 69 54
REMARK SMILES IDX 70 55 74 56 77 57 71 58 72 59 75 60 73 61 52 62 53 63 61 64
REMARK SMILES IDX 54 65 55 66 59 67 62 68 56 69 57 70 60 71 58 72 8 73 9 74
REMARK SMILES IDX 10 75 11 76 12 77 21 78 25 79 22 80 24 81 23 82 13 85 14 86
REMARK SMILES IDX 15 87 16 88 20 89 17 90 19 91 18 92
REMARK H PARENT 82 25 50 36 24 83 24 84
REMARK Flexibility Score: inf
ROOT
ATOM      1  C   UNL A   1      33.436  29.069  26.948  1.00  0.00     0.202 C 
ENDROOT
BRANCH   1   2
ATOM      2  O   UNL A   1      33.142  30.349  26.390  1.00  0.00    -0.374 OA
BRANCH   2   3
ATOM      3  C   UNL A   1      31.777  30.766  26.466  1.00  0.00     0.202 C 
BRANCH   3   4
ATOM      4  C   UNL A   1      31.481  32.203  26.925  1.00  0.00     0.261 C 
BRANCH   4   5
ATOM      5  O   UNL A   1      32.687  33.002  26.955  1.00  0.00    -0.460 OA
BRANCH   5   6
ATOM      6  C   UNL A   1      33.301  33.489  28.066  1.00  0.00     0.338 C 
ATOM      7  O   UNL A   1      32.808  34.441  28.669  1.00  0.00    -0.246 OA
BRANCH   6   8
ATOM      8  C   UNL A   1      34.616  32.950  28.514  1.00  0.00     0.060 A 
ATOM      9  C   UNL A   1      34.715  31.703  29.099  1.00  0.00     0.016 A 
ATOM     10  C   UNL A   1      35.808  33.654  28.315  1.00  0.00     0.016 A 
ATOM     11  C   UNL A   1      35.880  31.163  29.561  1.00  0.00     0.010 A 
ATOM     12  C   UNL A   1      37.035  33.102  28.733  1.00  0.00     0.010 A 
ATOM     13  C   UNL A   1      37.060  31.851  29.369  1.00  0.00    -0.014 A 
BRANCH  13  14
ATOM     14  C   UNL A   1      38.205  31.248  30.061  1.00  0.00     0.031 A 
ATOM     15  C   UNL A   1      38.282  31.433  31.542  1.00  0.00     0.074 A 
ATOM     16  C   UNL A   1      38.915  30.288  29.434  1.00  0.00     0.049 A 
ATOM     17  N   UNL A   1      39.175  30.999  32.386  1.00  0.00    -0.248 NA
ATOM     18  C   UNL A   1      37.176  32.183  32.167  1.00  0.00     0.031 C 
ATOM     19  C   UNL A   1      38.691  29.842  28.051  1.00  0.00     0.029 A 
ATOM     20  N   UNL A   1      39.888  29.449  29.895  1.00  0.00    -0.354 N 
ATOM     21  C   UNL A   1      38.779  31.482  33.622  1.00  0.00     0.074 A 
ATOM     22  C   UNL A   1      37.543  32.204  33.437  1.00  0.00     0.031 C 
ATOM     23  C   UNL A   1      39.467  28.777  27.801  1.00  0.00     0.029 A 
ATOM     24  C   UNL A   1      40.319  28.541  28.957  1.00  0.00     0.049 A 
ATOM     25  H   UNL A   1      40.247  29.490  30.810  1.00  0.00     0.167 HD
ATOM     26  C   UNL A   1      39.430  31.353  34.800  1.00  0.00     0.037 A 
ATOM     27  C   UNL A   1      41.331  27.657  29.025  1.00  0.00     0.037 A 
ATOM     28  C   UNL A   1      40.646  30.601  34.931  1.00  0.00     0.049 A 
ATOM     29  C   UNL A   1      42.126  27.634  30.301  1.00  0.00     0.074 A 
ATOM     30  C   UNL A   1      41.494  30.491  36.013  1.00  0.00     0.029 A 
ATOM     31  N   UNL A   1      41.174  29.806  33.918  1.00  0.00    -0.354 N 
ATOM     32  N   UNL A   1      41.883  28.249  31.435  1.00  0.00    -0.248 NA
ATOM     33  C   UNL A   1      43.358  26.838  30.299  1.00  0.00     0.031 C 
ATOM     34  C   UNL A   1      42.560  29.661  35.640  1.00  0.00     0.029 A 
ATOM     35  C   UNL A   1      42.348  29.214  34.343  1.00  0.00     0.049 A 
ATOM     36  H   UNL A   1      40.770  29.683  33.029  1.00  0.00     0.167 HD
ATOM     37  C   UNL A   1      42.924  27.914  32.285  1.00  0.00     0.074 A 
ATOM     38  C   UNL A   1      43.789  27.017  31.539  1.00  0.00     0.031 C 
ATOM     39  C   UNL A   1      43.160  28.317  33.559  1.00  0.00     0.037 A 
BRANCH  26  40
ATOM     40  C   UNL A   1      38.904  32.158  35.948  1.00  0.00     0.064 A 
ATOM     41  C   UNL A   1      39.258  33.499  36.154  1.00  0.00     0.173 A 
ATOM     42  C   UNL A   1      38.106  31.532  36.918  1.00  0.00     0.173 A 
ATOM     43  F   UNL A   1      40.057  34.129  35.282  1.00  0.00    -0.203 F 
ATOM     44  C   UNL A   1      38.858  34.173  37.308  1.00  0.00     0.198 A 
ATOM     45  C   UNL A   1      37.688  32.215  38.056  1.00  0.00     0.198 A 
ATOM     46  F   UNL A   1      37.757  30.244  36.778  1.00  0.00    -0.203 F 
ATOM     47  F   UNL A   1      39.268  35.432  37.523  1.00  0.00    -0.200 F 
ATOM     48  C   UNL A   1      38.075  33.531  38.256  1.00  0.00     0.200 A 
ATOM     49  F   UNL A   1      36.938  31.590  38.973  1.00  0.00    -0.200 F 
ATOM     50  F   UNL A   1      37.712  34.174  39.376  1.00  0.00    -0.200 F 
ENDBRANCH  26  40
BRANCH  27  51
ATOM     51  C   UNL A   1      41.705  26.829  27.846  1.00  0.00     0.064 A 
ATOM     52  C   UNL A   1      41.149  25.560  27.635  1.00  0.00     0.173 A 
ATOM     53  C   UNL A   1      42.651  27.281  26.910  1.00  0.00     0.173 A 
ATOM     54  F   UNL A   1      40.261  25.064  28.509  1.00  0.00    -0.203 F 
ATOM     55  C   UNL A   1      41.530  24.775  26.546  1.00  0.00     0.198 A 
ATOM     56  C   UNL A   1      43.007  26.512  25.804  1.00  0.00     0.198 A 
ATOM     57  F   UNL A   1      43.232  28.481  27.064  1.00  0.00    -0.203 F 
ATOM     58  F   UNL A   1      41.018  23.545  26.396  1.00  0.00    -0.200 F 
ATOM     59  C   UNL A   1      42.453  25.254  25.627  1.00  0.00     0.200 A 
ATOM     60  F   UNL A   1      43.891  26.986  24.916  1.00  0.00    -0.200 F 
ATOM     61  F   UNL A   1      42.818  24.501  24.581  1.00  0.00    -0.200 F 
ENDBRANCH  27  51
BRANCH  39  62
ATOM     62  C   UNL A   1      44.378  27.754  34.220  1.00  0.00     0.064 A 
ATOM     63  C   UNL A   1      45.590  28.456  34.238  1.00  0.00     0.173 A 
ATOM     64  C   UNL A   1      44.310  26.520  34.882  1.00  0.00     0.173 A 
ATOM     65  F   UNL A   1      45.700  29.632  33.601  1.00  0.00    -0.203 F 
ATOM     66  C   UNL A   1      46.705  27.929  34.880  1.00  0.00     0.198 A 
ATOM     67  C   UNL A   1      45.419  26.010  35.547  1.00  0.00     0.198 A 
ATOM     68  F   UNL A   1      43.167  25.819  34.893  1.00  0.00    -0.203 F 
ATOM     69  F   UNL A   1      47.868  28.593  34.851  1.00  0.00    -0.200 F 
ATOM     70  C   UNL A   1      46.615  26.712  35.541  1.00  0.00     0.200 A 
ATOM     71  F   UNL A   1      45.330  24.840  36.195  1.00  0.00    -0.200 F 
ATOM     72  F   UNL A   1      47.688  26.210  36.168  1.00  0.00    -0.200 F 
ENDBRANCH  39  62
ENDBRANCH  13  14
ENDBRANCH   6   8
ENDBRANCH   5   6
ENDBRANCH   4   5
ENDBRANCH   3   4
ENDBRANCH   2   3
ENDBRANCH   1   2
BRANCH   1  73
ATOM     73  C   UNL A   1      33.854  28.079  25.864  1.00  0.00     0.261 C 
BRANCH  73  74
ATOM     74  O   UNL A   1      32.768  27.188  25.557  1.00  0.00    -0.463 OA
BRANCH  74  75
ATOM     75  C   UNL A   1      32.485  26.997  24.246  1.00  0.00     0.317 C 
ATOM     76  O   UNL A   1      33.348  26.992  23.370  1.00  0.00    -0.251 OA
BRANCH  75  77
ATOM     77  C   UNL A   1      30.979  26.752  24.012  1.00  0.00     0.117 C 
ATOM     78  C   UNL A   1      30.339  25.758  25.013  1.00  0.00     0.030 C 
ATOM     79  C   UNL A   1      30.884  26.096  22.603  1.00  0.00     0.279 C 
ATOM     80  C   UNL A   1      30.880  24.332  24.906  1.00  0.00     0.063 C 
ATOM     81  N   UNL A   1      31.449  24.747  22.532  1.00  0.00    -0.345 N 
ATOM     82  C   UNL A   1      30.866  23.807  23.478  1.00  0.00     0.260 C 
ATOM     83  H   UNL A   1      31.302  24.387  21.590  1.00  0.00     0.346 HD
ATOM     84  H   UNL A   1      32.438  24.830  22.771  1.00  0.00     0.346 HD
BRANCH  77  85
ATOM     85  C   UNL A   1      30.166  28.105  24.006  1.00  0.00     0.029 C 
BRANCH  85  86
ATOM     86  C   UNL A   1      29.537  28.620  22.674  1.00  0.00     0.038 C 
BRANCH  86  87
ATOM     87  C   UNL A   1      29.091  30.056  22.532  1.00  0.00    -0.030 A 
ATOM     88  C   UNL A   1      28.658  30.562  21.299  1.00  0.00     0.007 A 
ATOM     89  C   UNL A   1      29.178  30.974  23.577  1.00  0.00     0.114 A 
ATOM     90  C   UNL A   1      28.298  31.905  21.172  1.00  0.00     0.020 A 
ATOM     91  N   UNL A   1      28.815  32.278  23.492  1.00  0.00    -0.264 NA
ATOM     92  C   UNL A   1      28.385  32.715  22.290  1.00  0.00     0.111 A 
ENDBRANCH  86  87
ENDBRANCH  85  86
ENDBRANCH  77  85
ENDBRANCH  75  77
ENDBRANCH  74  75
ENDBRANCH  73  74
ENDBRANCH   1  73
TORSDOF 17
ENDMDL
