MODEL 1
REMARK VINA RESULT:     -10.7      0.000      0.000
REMARK SMILES Cn1ccnc1SCC[C@@H]1CCC[C@]1([NH3+])C(=O)OCCOCCOC(=O)c1ccc(-c2c3nc(c(-c4c(F)c(F)c(F)c(F)c4F)c4ccc([nH]4)c(-c4c(F)c(F)c(F)c(F)c4F)c4nc(c(-c5c(F)c(F)c(F)c(F)c5F)c5ccc2[nH]5)C=C4)C=C3)cc1
REMARK SMILES IDX 20 1 19 2 18 3 16 4 17 5 14 6 10 7 11 8 12 9 13 10 9 11 8 12
REMARK SMILES IDX 7 13 6 14 1 15 2 16 3 17 4 18 5 19 15 20 21 24 22 25 23 26
REMARK SMILES IDX 24 27 25 28 26 29 27 30 28 31 89 32 29 33 88 34 30 35 31 36
REMARK SMILES IDX 32 37 82 38 33 39 87 40 81 41 83 42 34 43 86 44 80 45 79 46
REMARK SMILES IDX 35 48 67 49 47 50 66 51 48 52 51 53 65 54 84 55 49 56 50 57
REMARK SMILES IDX 64 59 85 60 52 61 36 62 37 63 45 64 38 65 39 66 43 67 46 68
REMARK SMILES IDX 40 69 41 70 44 71 42 72 68 73 69 74 77 75 70 76 71 77 75 78
REMARK SMILES IDX 78 79 72 80 73 81 76 82 74 83 53 84 54 85 62 86 55 87 56 88
REMARK SMILES IDX 60 89 63 90 57 91 58 92 61 93 59 94
REMARK H PARENT 15 21 15 22 15 23 83 47 51 58
REMARK Flexibility Score: inf
ROOT
ATOM      1  C   UNL A   1      33.226  36.816  29.878  1.00  0.00     0.202 C 
ENDROOT
BRANCH   1   2
ATOM      2  C   UNL A   1      33.113  36.806  31.405  1.00  0.00     0.261 C 
BRANCH   2   3
ATOM      3  O   UNL A   1      33.171  35.486  31.967  1.00  0.00    -0.459 OA
BRANCH   3   4
ATOM      4  C   UNL A   1      34.309  35.218  32.666  1.00  0.00     0.368 C 
ATOM      5  O   UNL A   1      35.173  36.055  32.904  1.00  0.00    -0.245 OA
BRANCH   4   6
ATOM      6  C   UNL A   1      34.468  33.703  32.978  1.00  0.00     0.195 C 
ATOM      7  C   UNL A   1      35.701  33.168  33.756  1.00  0.00     0.063 C 
ATOM      8  C   UNL A   1      36.849  33.062  32.742  1.00  0.00     0.011 C 
ATOM      9  C   UNL A   1      36.193  33.096  31.369  1.00  0.00     0.008 C 
ATOM     10  C   UNL A   1      34.694  32.970  31.628  1.00  0.00     0.081 C 
BRANCH   7  11
ATOM     11  C   UNL A   1      36.153  33.718  35.113  1.00  0.00     0.022 C 
BRANCH  11  12
ATOM     12  C   UNL A   1      37.661  33.637  35.421  1.00  0.00     0.079 C 
BRANCH  12  13
ATOM     13  S   UNL A   1      38.390  32.170  36.214  1.00  0.00    -0.088 SA
BRANCH  13  14
ATOM     14  C   UNL A   1      37.879  32.091  37.867  1.00  0.00     0.167 A 
ATOM     15  C   UNL A   1      39.191  34.007  38.930  1.00  0.00     0.152 C 
ATOM     16  N   UNL A   1      38.271  32.900  38.906  1.00  0.00    -0.329 N 
ATOM     17  C   UNL A   1      37.567  32.501  40.020  1.00  0.00     0.108 A 
ATOM     18  C   UNL A   1      36.862  31.393  39.625  1.00  0.00     0.132 A 
ATOM     19  N   UNL A   1      37.057  31.153  38.292  1.00  0.00    -0.231 NA
ENDBRANCH  13  14
ENDBRANCH  12  13
ENDBRANCH  11  12
ENDBRANCH   7  11
BRANCH   6  20
ATOM     20  N   UNL A   1      33.204  33.237  33.610  1.00  0.00    -0.343 N 
ATOM     21  H   UNL A   1      32.929  33.892  34.343  1.00  0.00     0.345 HD
ATOM     22  H   UNL A   1      33.347  32.314  34.017  1.00  0.00     0.345 HD
ATOM     23  H   UNL A   1      32.469  33.190  32.905  1.00  0.00     0.345 HD
ENDBRANCH   6  20
ENDBRANCH   4   6
ENDBRANCH   3   4
ENDBRANCH   2   3
ENDBRANCH   1   2
BRANCH   1  24
ATOM     24  O   UNL A   1      32.901  35.620  29.178  1.00  0.00    -0.374 OA
BRANCH  24  25
ATOM     25  C   UNL A   1      33.973  34.870  28.607  1.00  0.00     0.202 C 
BRANCH  25  26
ATOM     26  C   UNL A   1      33.640  33.503  28.006  1.00  0.00     0.261 C 
BRANCH  26  27
ATOM     27  O   UNL A   1      34.732  32.581  28.170  1.00  0.00    -0.460 OA
BRANCH  27  28
ATOM     28  C   UNL A   1      34.381  31.279  28.058  1.00  0.00     0.338 C 
ATOM     29  O   UNL A   1      33.312  30.828  27.690  1.00  0.00    -0.246 OA
BRANCH  28  30
ATOM     30  C   UNL A   1      35.569  30.428  28.254  1.00  0.00     0.060 A 
ATOM     31  C   UNL A   1      35.761  29.883  29.531  1.00  0.00     0.016 A 
ATOM     32  C   UNL A   1      36.518  30.245  27.247  1.00  0.00     0.016 A 
ATOM     33  C   UNL A   1      36.947  29.230  29.839  1.00  0.00     0.010 A 
ATOM     34  C   UNL A   1      37.715  29.599  27.559  1.00  0.00     0.010 A 
ATOM     35  C   UNL A   1      37.953  29.146  28.870  1.00  0.00    -0.014 A 
BRANCH  35  36
ATOM     36  C   UNL A   1      39.333  28.820  29.292  1.00  0.00     0.031 A 
ATOM     37  C   UNL A   1      40.032  29.780  30.216  1.00  0.00     0.074 A 
ATOM     38  C   UNL A   1      39.936  27.691  28.888  1.00  0.00     0.049 A 
ATOM     39  N   UNL A   1      41.263  29.766  30.656  1.00  0.00    -0.248 NA
ATOM     40  C   UNL A   1      39.231  30.916  30.703  1.00  0.00     0.031 C 
ATOM     41  C   UNL A   1      39.326  26.661  28.054  1.00  0.00     0.029 A 
ATOM     42  N   UNL A   1      41.206  27.231  29.124  1.00  0.00    -0.354 N 
ATOM     43  C   UNL A   1      41.390  30.903  31.446  1.00  0.00     0.074 A 
ATOM     44  C   UNL A   1      40.122  31.593  31.410  1.00  0.00     0.031 C 
ATOM     45  C   UNL A   1      40.228  25.690  27.834  1.00  0.00     0.029 A 
ATOM     46  C   UNL A   1      41.489  26.055  28.478  1.00  0.00     0.049 A 
ATOM     47  H   UNL A   1      41.852  27.701  29.700  1.00  0.00     0.167 HD
ATOM     48  C   UNL A   1      42.472  31.326  32.141  1.00  0.00     0.037 A 
ATOM     49  C   UNL A   1      42.647  25.372  28.399  1.00  0.00     0.037 A 
ATOM     50  C   UNL A   1      43.724  30.619  32.178  1.00  0.00     0.049 A 
ATOM     51  C   UNL A   1      43.860  25.902  29.119  1.00  0.00     0.074 A 
ATOM     52  C   UNL A   1      44.878  30.943  32.866  1.00  0.00     0.029 A 
ATOM     53  N   UNL A   1      43.984  29.445  31.484  1.00  0.00    -0.354 N 
ATOM     54  N   UNL A   1      43.976  26.970  29.873  1.00  0.00    -0.248 NA
ATOM     55  C   UNL A   1      45.105  25.134  28.977  1.00  0.00     0.031 C 
ATOM     56  C   UNL A   1      45.857  29.999  32.540  1.00  0.00     0.029 A 
ATOM     57  C   UNL A   1      45.291  29.047  31.705  1.00  0.00     0.049 A 
ATOM     58  H   UNL A   1      43.335  28.967  30.919  1.00  0.00     0.167 HD
ATOM     59  C   UNL A   1      45.287  26.977  30.331  1.00  0.00     0.074 A 
ATOM     60  C   UNL A   1      45.931  25.809  29.764  1.00  0.00     0.031 C 
ATOM     61  C   UNL A   1      45.901  27.864  31.152  1.00  0.00     0.037 A 
BRANCH  48  62
ATOM     62  C   UNL A   1      42.360  32.631  32.874  1.00  0.00     0.064 A 
ATOM     63  C   UNL A   1      41.919  32.706  34.204  1.00  0.00     0.173 A 
ATOM     64  C   UNL A   1      42.714  33.830  32.235  1.00  0.00     0.173 A 
ATOM     65  F   UNL A   1      41.552  31.593  34.858  1.00  0.00    -0.203 F 
ATOM     66  C   UNL A   1      41.805  33.933  34.854  1.00  0.00     0.198 A 
ATOM     67  C   UNL A   1      42.632  35.051  32.899  1.00  0.00     0.198 A 
ATOM     68  F   UNL A   1      43.145  33.818  30.964  1.00  0.00    -0.203 F 
ATOM     69  F   UNL A   1      41.326  33.985  36.105  1.00  0.00    -0.200 F 
ATOM     70  C   UNL A   1      42.168  35.103  34.204  1.00  0.00     0.200 A 
ATOM     71  F   UNL A   1      42.996  36.179  32.273  1.00  0.00    -0.200 F 
ATOM     72  F   UNL A   1      42.062  36.282  34.833  1.00  0.00    -0.200 F 
ENDBRANCH  48  62
BRANCH  49  73
ATOM     73  C   UNL A   1      42.713  24.114  27.610  1.00  0.00     0.064 A 
ATOM     74  C   UNL A   1      43.070  24.132  26.255  1.00  0.00     0.173 A 
ATOM     75  C   UNL A   1      42.427  22.870  28.192  1.00  0.00     0.173 A 
ATOM     76  F   UNL A   1      43.333  25.299  25.648  1.00  0.00    -0.203 F 
ATOM     77  C   UNL A   1      43.124  22.957  25.509  1.00  0.00     0.198 A 
ATOM     78  C   UNL A   1      42.510  21.692  27.452  1.00  0.00     0.198 A 
ATOM     79  F   UNL A   1      42.082  22.797  29.486  1.00  0.00    -0.203 F 
ATOM     80  F   UNL A   1      43.430  23.007  24.205  1.00  0.00    -0.200 F 
ATOM     81  C   UNL A   1      42.852  21.737  26.110  1.00  0.00     0.200 A 
ATOM     82  F   UNL A   1      42.260  20.515  28.041  1.00  0.00    -0.200 F 
ATOM     83  F   UNL A   1      42.913  20.606  25.394  1.00  0.00    -0.200 F 
ENDBRANCH  49  73
BRANCH  61  84
ATOM     84  C   UNL A   1      47.320  27.577  31.552  1.00  0.00     0.064 A 
ATOM     85  C   UNL A   1      47.633  26.796  32.672  1.00  0.00     0.173 A 
ATOM     86  C   UNL A   1      48.379  28.031  30.749  1.00  0.00     0.173 A 
ATOM     87  F   UNL A   1      46.658  26.350  33.478  1.00  0.00    -0.203 F 
ATOM     88  C   UNL A   1      48.956  26.493  32.984  1.00  0.00     0.198 A 
ATOM     89  C   UNL A   1      49.697  27.699  31.046  1.00  0.00     0.198 A 
ATOM     90  F   UNL A   1      48.132  28.775  29.660  1.00  0.00    -0.203 F 
ATOM     91  F   UNL A   1      49.235  25.778  34.083  1.00  0.00    -0.200 F 
ATOM     92  C   UNL A   1      49.985  26.935  32.166  1.00  0.00     0.200 A 
ATOM     93  F   UNL A   1      50.688  28.113  30.243  1.00  0.00    -0.200 F 
ATOM     94  F   UNL A   1      51.256  26.627  32.459  1.00  0.00    -0.200 F 
ENDBRANCH  61  84
ENDBRANCH  35  36
ENDBRANCH  28  30
ENDBRANCH  27  28
ENDBRANCH  26  27
ENDBRANCH  25  26
ENDBRANCH  24  25
ENDBRANCH   1  24
TORSDOF 19
ENDMDL
MODEL 2
REMARK VINA RESULT:     -10.7      4.575     10.589
REMARK SMILES Cn1ccnc1SCC[C@@H]1CCC[C@]1([NH3+])C(=O)OCCOCCOC(=O)c1ccc(-c2c3nc(c(-c4c(F)c(F)c(F)c(F)c4F)c4ccc([nH]4)c(-c4c(F)c(F)c(F)c(F)c4F)c4nc(c(-c5c(F)c(F)c(F)c(F)c5F)c5ccc2[nH]5)C=C4)C=C3)cc1
REMARK SMILES IDX 20 1 19 2 18 3 16 4 17 5 14 6 10 7 11 8 12 9 13 10 9 11 8 12
REMARK SMILES IDX 7 13 6 14 1 15 2 16 3 17 4 18 5 19 15 20 21 24 22 25 23 26
REMARK SMILES IDX 24 27 25 28 26 29 27 30 28 31 89 32 29 33 88 34 30 35 31 36
REMARK SMILES IDX 32 37 82 38 33 39 87 40 81 41 83 42 34 43 86 44 80 45 79 46
REMARK SMILES IDX 35 48 67 49 47 50 66 51 48 52 51 53 65 54 84 55 49 56 50 57
REMARK SMILES IDX 64 59 85 60 52 61 36 62 37 63 45 64 38 65 39 66 43 67 46 68
REMARK SMILES IDX 40 69 41 70 44 71 42 72 68 73 69 74 77 75 70 76 71 77 75 78
REMARK SMILES IDX 78 79 72 80 73 81 76 82 74 83 53 84 54 85 62 86 55 87 56 88
REMARK SMILES IDX 60 89 63 90 57 91 58 92 61 93 59 94
REMARK H PARENT 15 21 15 22 15 23 83 47 51 58
REMARK Flexibility Score: inf
ROOT
ATOM      1  C   UNL A   1      32.860  27.285  26.261  1.00  0.00     0.202 C 
ENDROOT
BRANCH   1   2
ATOM      2  C   UNL A   1      32.379  25.834  26.171  1.00  0.00     0.261 C 
BRANCH   2   3
ATOM      3  O   UNL A   1      33.454  24.882  26.176  1.00  0.00    -0.459 OA
BRANCH   3   4
ATOM      4  C   UNL A   1      33.090  23.618  26.534  1.00  0.00     0.368 C 
ATOM      5  O   UNL A   1      32.138  23.367  27.264  1.00  0.00    -0.245 OA
BRANCH   4   6
ATOM      6  C   UNL A   1      34.114  22.550  26.054  1.00  0.00     0.195 C 
ATOM      7  C   UNL A   1      34.297  22.234  24.545  1.00  0.00     0.063 C 
ATOM      8  C   UNL A   1      33.153  21.288  24.151  1.00  0.00     0.011 C 
ATOM      9  C   UNL A   1      32.611  20.728  25.459  1.00  0.00     0.008 C 
ATOM     10  C   UNL A   1      33.603  21.165  26.534  1.00  0.00     0.081 C 
BRANCH   7  11
ATOM     11  C   UNL A   1      34.580  23.301  23.482  1.00  0.00     0.022 C 
BRANCH  11  12
ATOM     12  C   UNL A   1      33.509  23.488  22.390  1.00  0.00     0.079 C 
BRANCH  12  13
ATOM     13  S   UNL A   1      32.063  24.562  22.654  1.00  0.00    -0.088 SA
BRANCH  13  14
ATOM     14  C   UNL A   1      32.539  26.220  22.501  1.00  0.00     0.167 A 
ATOM     15  C   UNL A   1      30.350  27.455  22.953  1.00  0.00     0.152 C 
ATOM     16  N   UNL A   1      31.752  27.337  22.647  1.00  0.00    -0.329 N 
ATOM     17  C   UNL A   1      32.567  28.434  22.489  1.00  0.00     0.108 A 
ATOM     18  C   UNL A   1      33.794  27.926  22.145  1.00  0.00     0.132 A 
ATOM     19  N   UNL A   1      33.767  26.558  22.162  1.00  0.00    -0.231 NA
ENDBRANCH  13  14
ENDBRANCH  12  13
ENDBRANCH  11  12
ENDBRANCH   7  11
BRANCH   6  20
ATOM     20  N   UNL A   1      35.422  22.864  26.690  1.00  0.00    -0.343 N 
ATOM     21  H   UNL A   1      35.274  23.118  27.667  1.00  0.00     0.345 HD
ATOM     22  H   UNL A   1      35.860  23.643  26.199  1.00  0.00     0.345 HD
ATOM     23  H   UNL A   1      36.029  22.045  26.640  1.00  0.00     0.345 HD
ENDBRANCH   6  20
ENDBRANCH   4   6
ENDBRANCH   3   4
ENDBRANCH   2   3
ENDBRANCH   1   2
BRANCH   1  24
ATOM     24  O   UNL A   1      31.906  28.283  26.607  1.00  0.00    -0.374 OA
BRANCH  24  25
ATOM     25  C   UNL A   1      31.758  29.395  25.725  1.00  0.00     0.202 C 
BRANCH  25  26
ATOM     26  C   UNL A   1      31.838  30.797  26.335  1.00  0.00     0.261 C 
BRANCH  26  27
ATOM     27  O   UNL A   1      32.703  30.816  27.484  1.00  0.00    -0.460 OA
BRANCH  27  28
ATOM     28  C   UNL A   1      33.486  31.917  27.571  1.00  0.00     0.338 C 
ATOM     29  O   UNL A   1      33.132  33.081  27.565  1.00  0.00    -0.246 OA
BRANCH  28  30
ATOM     30  C   UNL A   1      34.868  31.516  27.890  1.00  0.00     0.060 A 
ATOM     31  C   UNL A   1      35.101  30.152  28.118  1.00  0.00     0.016 A 
ATOM     32  C   UNL A   1      35.888  32.454  28.057  1.00  0.00     0.016 A 
ATOM     33  C   UNL A   1      36.331  29.727  28.604  1.00  0.00     0.010 A 
ATOM     34  C   UNL A   1      37.120  32.029  28.555  1.00  0.00     0.010 A 
ATOM     35  C   UNL A   1      37.320  30.676  28.885  1.00  0.00    -0.014 A 
BRANCH  35  36
ATOM     36  C   UNL A   1      38.455  30.295  29.755  1.00  0.00     0.031 A 
ATOM     37  C   UNL A   1      39.475  29.337  29.202  1.00  0.00     0.074 A 
ATOM     38  C   UNL A   1      38.589  30.807  30.989  1.00  0.00     0.049 A 
ATOM     39  N   UNL A   1      40.504  28.785  29.789  1.00  0.00    -0.248 NA
ATOM     40  C   UNL A   1      39.303  28.944  27.793  1.00  0.00     0.031 C 
ATOM     41  C   UNL A   1      37.700  31.794  31.593  1.00  0.00     0.029 A 
ATOM     42  N   UNL A   1      39.528  30.554  31.956  1.00  0.00    -0.354 N 
ATOM     43  C   UNL A   1      41.084  27.961  28.831  1.00  0.00     0.074 A 
ATOM     44  C   UNL A   1      40.282  28.067  27.634  1.00  0.00     0.031 C 
ATOM     45  C   UNL A   1      38.128  32.057  32.840  1.00  0.00     0.029 A 
ATOM     46  C   UNL A   1      39.295  31.224  33.130  1.00  0.00     0.049 A 
ATOM     47  H   UNL A   1      40.294  29.950  31.820  1.00  0.00     0.167 HD
ATOM     48  C   UNL A   1      42.188  27.187  28.946  1.00  0.00     0.037 A 
ATOM     49  C   UNL A   1      39.939  31.145  34.309  1.00  0.00     0.037 A 
ATOM     50  C   UNL A   1      42.983  27.102  30.142  1.00  0.00     0.049 A 
ATOM     51  C   UNL A   1      41.122  30.219  34.437  1.00  0.00     0.074 A 
ATOM     52  C   UNL A   1      44.134  26.370  30.363  1.00  0.00     0.029 A 
ATOM     53  N   UNL A   1      42.697  27.772  31.324  1.00  0.00    -0.354 N 
ATOM     54  N   UNL A   1      41.673  29.448  33.529  1.00  0.00    -0.248 NA
ATOM     55  C   UNL A   1      41.772  30.150  35.753  1.00  0.00     0.031 C 
ATOM     56  C   UNL A   1      44.511  26.547  31.698  1.00  0.00     0.029 A 
ATOM     57  C   UNL A   1      43.636  27.446  32.288  1.00  0.00     0.049 A 
ATOM     58  H   UNL A   1      41.941  28.387  31.457  1.00  0.00     0.167 HD
ATOM     59  C   UNL A   1      42.758  28.841  34.148  1.00  0.00     0.074 A 
ATOM     60  C   UNL A   1      42.784  29.327  35.512  1.00  0.00     0.031 C 
ATOM     61  C   UNL A   1      43.656  27.966  33.633  1.00  0.00     0.037 A 
BRANCH  48  62
ATOM     62  C   UNL A   1      42.569  26.340  27.767  1.00  0.00     0.064 A 
ATOM     63  C   UNL A   1      41.996  25.080  27.536  1.00  0.00     0.173 A 
ATOM     64  C   UNL A   1      43.518  26.805  26.844  1.00  0.00     0.173 A 
ATOM     65  F   UNL A   1      41.095  24.578  28.395  1.00  0.00    -0.203 F 
ATOM     66  C   UNL A   1      42.383  24.305  26.444  1.00  0.00     0.198 A 
ATOM     67  C   UNL A   1      43.878  26.044  25.735  1.00  0.00     0.198 A 
ATOM     68  F   UNL A   1      44.097  28.004  27.015  1.00  0.00    -0.203 F 
ATOM     69  F   UNL A   1      41.865  23.081  26.275  1.00  0.00    -0.200 F 
ATOM     70  C   UNL A   1      43.318  24.790  25.541  1.00  0.00     0.200 A 
ATOM     71  F   UNL A   1      44.771  26.520  24.858  1.00  0.00    -0.200 F 
ATOM     72  F   UNL A   1      43.686  24.046  24.490  1.00  0.00    -0.200 F 
ENDBRANCH  48  62
BRANCH  49  73
ATOM     73  C   UNL A   1      39.482  31.966  35.460  1.00  0.00     0.064 A 
ATOM     74  C   UNL A   1      38.555  31.460  36.382  1.00  0.00     0.173 A 
ATOM     75  C   UNL A   1      39.962  33.268  35.667  1.00  0.00     0.173 A 
ATOM     76  F   UNL A   1      38.052  30.228  36.216  1.00  0.00    -0.203 F 
ATOM     77  C   UNL A   1      38.116  32.229  37.458  1.00  0.00     0.198 A 
ATOM     78  C   UNL A   1      39.544  34.025  36.759  1.00  0.00     0.198 A 
ATOM     79  F   UNL A   1      40.852  33.799  34.815  1.00  0.00    -0.203 F 
ATOM     80  F   UNL A   1      37.200  31.735  38.302  1.00  0.00    -0.200 F 
ATOM     81  C   UNL A   1      38.616  33.508  37.650  1.00  0.00     0.200 A 
ATOM     82  F   UNL A   1      40.041  35.255  36.949  1.00  0.00    -0.200 F 
ATOM     83  F   UNL A   1      38.200  34.243  38.689  1.00  0.00    -0.200 F 
ENDBRANCH  49  73
BRANCH  61  84
ATOM     84  C   UNL A   1      44.788  27.528  34.516  1.00  0.00     0.064 A 
ATOM     85  C   UNL A   1      45.976  28.265  34.623  1.00  0.00     0.173 A 
ATOM     86  C   UNL A   1      44.645  26.391  35.327  1.00  0.00     0.173 A 
ATOM     87  F   UNL A   1      46.167  29.352  33.861  1.00  0.00    -0.203 F 
ATOM     88  C   UNL A   1      46.985  27.870  35.498  1.00  0.00     0.198 A 
ATOM     89  C   UNL A   1      45.641  26.018  36.223  1.00  0.00     0.198 A 
ATOM     90  F   UNL A   1      43.524  25.655  35.268  1.00  0.00    -0.203 F 
ATOM     91  F   UNL A   1      48.128  28.567  35.556  1.00  0.00    -0.200 F 
ATOM     92  C   UNL A   1      46.813  26.754  36.305  1.00  0.00     0.200 A 
ATOM     93  F   UNL A   1      45.464  24.949  37.013  1.00  0.00    -0.200 F 
ATOM     94  F   UNL A   1      47.778  26.387  37.158  1.00  0.00    -0.200 F 
ENDBRANCH  61  84
ENDBRANCH  35  36
ENDBRANCH  28  30
ENDBRANCH  27  28
ENDBRANCH  26  27
ENDBRANCH  25  26
ENDBRANCH  24  25
ENDBRANCH   1  24
TORSDOF 19
ENDMDL
MODEL 3
REMARK VINA RESULT:     -10.6      5.829      9.755
REMARK SMILES Cn1ccnc1SCC[C@@H]1CCC[C@]1([NH3+])C(=O)OCCOCCOC(=O)c1ccc(-c2c3nc(c(-c4c(F)c(F)c(F)c(F)c4F)c4ccc([nH]4)c(-c4c(F)c(F)c(F)c(F)c4F)c4nc(c(-c5c(F)c(F)c(F)c(F)c5F)c5ccc2[nH]5)C=C4)C=C3)cc1
REMARK SMILES IDX 20 1 19 2 18 3 16 4 17 5 14 6 10 7 11 8 12 9 13 10 9 11 8 12
REMARK SMILES IDX 7 13 6 14 1 15 2 16 3 17 4 18 5 19 15 20 21 24 22 25 23 26
REMARK SMILES IDX 24 27 25 28 26 29 27 30 28 31 89 32 29 33 88 34 30 35 31 36
REMARK SMILES IDX 32 37 82 38 33 39 87 40 81 41 83 42 34 43 86 44 80 45 79 46
REMARK SMILES IDX 35 48 67 49 47 50 66 51 48 52 51 53 65 54 84 55 49 56 50 57
REMARK SMILES IDX 64 59 85 60 52 61 36 62 37 63 45 64 38 65 39 66 43 67 46 68
REMARK SMILES IDX 40 69 41 70 44 71 42 72 68 73 69 74 77 75 70 76 71 77 75 78
REMARK SMILES IDX 78 79 72 80 73 81 76 82 74 83 53 84 54 85 62 86 55 87 56 88
REMARK SMILES IDX 60 89 63 90 57 91 58 92 61 93 59 94
REMARK H PARENT 15 21 15 22 15 23 83 47 51 58
REMARK Flexibility Score: inf
ROOT
ATOM      1  C   UNL A   1      36.142  22.521  23.886  1.00  0.00     0.202 C 
ENDROOT
BRANCH   1   2
ATOM      2  C   UNL A   1      35.500  23.912  23.880  1.00  0.00     0.261 C 
BRANCH   2   3
ATOM      3  O   UNL A   1      34.085  23.881  24.124  1.00  0.00    -0.459 OA
BRANCH   3   4
ATOM      4  C   UNL A   1      33.331  23.548  23.039  1.00  0.00     0.368 C 
ATOM      5  O   UNL A   1      33.604  23.886  21.893  1.00  0.00    -0.245 OA
BRANCH   4   6
ATOM      6  C   UNL A   1      32.003  22.843  23.437  1.00  0.00     0.195 C 
ATOM      7  C   UNL A   1      31.715  22.447  24.911  1.00  0.00     0.063 C 
ATOM      8  C   UNL A   1      32.469  21.133  25.169  1.00  0.00     0.011 C 
ATOM      9  C   UNL A   1      32.796  20.568  23.795  1.00  0.00     0.008 C 
ATOM     10  C   UNL A   1      32.017  21.427  22.801  1.00  0.00     0.081 C 
BRANCH   7  11
ATOM     11  C   UNL A   1      31.803  23.425  26.087  1.00  0.00     0.022 C 
BRANCH  11  12
ATOM     12  C   UNL A   1      30.496  24.131  26.496  1.00  0.00     0.079 C 
BRANCH  12  13
ATOM     13  S   UNL A   1      29.970  25.686  25.709  1.00  0.00    -0.088 SA
BRANCH  13  14
ATOM     14  C   UNL A   1      31.366  26.612  25.268  1.00  0.00     0.167 A 
ATOM     15  C   UNL A   1      31.818  27.953  27.393  1.00  0.00     0.152 C 
ATOM     16  N   UNL A   1      32.051  27.517  26.041  1.00  0.00    -0.329 N 
ATOM     17  C   UNL A   1      33.118  27.965  25.295  1.00  0.00     0.108 A 
ATOM     18  C   UNL A   1      32.964  27.387  24.061  1.00  0.00     0.132 A 
ATOM     19  N   UNL A   1      31.882  26.549  24.057  1.00  0.00    -0.231 NA
ENDBRANCH  13  14
ENDBRANCH  12  13
ENDBRANCH  11  12
ENDBRANCH   7  11
BRANCH   6  20
ATOM     20  N   UNL A   1      30.881  23.646  22.879  1.00  0.00    -0.343 N 
ATOM     21  H   UNL A   1      31.037  23.801  21.883  1.00  0.00     0.345 HD
ATOM     22  H   UNL A   1      30.835  24.544  23.359  1.00  0.00     0.345 HD
ATOM     23  H   UNL A   1      30.005  23.143  23.011  1.00  0.00     0.345 HD
ENDBRANCH   6  20
ENDBRANCH   4   6
ENDBRANCH   3   4
ENDBRANCH   2   3
ENDBRANCH   1   2
BRANCH   1  24
ATOM     24  O   UNL A   1      36.046  21.748  25.077  1.00  0.00    -0.374 OA
BRANCH  24  25
ATOM     25  C   UNL A   1      36.436  20.377  25.014  1.00  0.00     0.202 C 
BRANCH  25  26
ATOM     26  C   UNL A   1      37.930  20.061  25.122  1.00  0.00     0.261 C 
BRANCH  26  27
ATOM     27  O   UNL A   1      38.690  21.240  25.444  1.00  0.00    -0.460 OA
BRANCH  27  28
ATOM     28  C   UNL A   1      39.718  21.022  26.297  1.00  0.00     0.338 C 
ATOM     29  O   UNL A   1      40.380  20.008  26.416  1.00  0.00    -0.246 OA
BRANCH  28  30
ATOM     30  C   UNL A   1      40.088  22.287  26.957  1.00  0.00     0.060 A 
ATOM     31  C   UNL A   1      39.480  23.458  26.482  1.00  0.00     0.016 A 
ATOM     32  C   UNL A   1      41.070  22.342  27.948  1.00  0.00     0.016 A 
ATOM     33  C   UNL A   1      39.917  24.699  26.926  1.00  0.00     0.010 A 
ATOM     34  C   UNL A   1      41.516  23.589  28.386  1.00  0.00     0.010 A 
ATOM     35  C   UNL A   1      40.982  24.766  27.831  1.00  0.00    -0.014 A 
BRANCH  35  36
ATOM     36  C   UNL A   1      41.702  26.048  28.001  1.00  0.00     0.031 A 
ATOM     37  C   UNL A   1      41.006  27.154  28.745  1.00  0.00     0.074 A 
ATOM     38  C   UNL A   1      42.949  26.213  27.531  1.00  0.00     0.049 A 
ATOM     39  N   UNL A   1      41.385  28.388  28.949  1.00  0.00    -0.248 NA
ATOM     40  C   UNL A   1      39.698  26.820  29.333  1.00  0.00     0.031 C 
ATOM     41  C   UNL A   1      43.740  25.186  26.860  1.00  0.00     0.029 A 
ATOM     42  N   UNL A   1      43.762  27.317  27.543  1.00  0.00    -0.354 N 
ATOM     43  C   UNL A   1      40.351  28.983  29.663  1.00  0.00     0.074 A 
ATOM     44  C   UNL A   1      39.322  27.984  29.838  1.00  0.00     0.031 C 
ATOM     45  C   UNL A   1      44.926  25.712  26.510  1.00  0.00     0.029 A 
ATOM     46  C   UNL A   1      44.956  27.122  26.897  1.00  0.00     0.049 A 
ATOM     47  H   UNL A   1      43.512  28.166  27.973  1.00  0.00     0.167 HD
ATOM     48  C   UNL A   1      40.274  30.252  30.130  1.00  0.00     0.037 A 
ATOM     49  C   UNL A   1      45.943  27.997  26.628  1.00  0.00     0.037 A 
ATOM     50  C   UNL A   1      41.313  31.230  29.958  1.00  0.00     0.049 A 
ATOM     51  C   UNL A   1      45.802  29.425  27.092  1.00  0.00     0.074 A 
ATOM     52  C   UNL A   1      41.352  32.536  30.409  1.00  0.00     0.029 A 
ATOM     53  N   UNL A   1      42.498  31.006  29.269  1.00  0.00    -0.354 N 
ATOM     54  N   UNL A   1      44.830  29.983  27.774  1.00  0.00    -0.248 NA
ATOM     55  C   UNL A   1      46.895  30.345  26.748  1.00  0.00     0.031 C 
ATOM     56  C   UNL A   1      42.533  33.122  29.940  1.00  0.00     0.029 A 
ATOM     57  C   UNL A   1      43.262  32.160  29.258  1.00  0.00     0.049 A 
ATOM     58  H   UNL A   1      42.756  30.153  28.851  1.00  0.00     0.167 HD
ATOM     59  C   UNL A   1      45.213  31.302  27.980  1.00  0.00     0.074 A 
ATOM     60  C   UNL A   1      46.504  31.463  27.345  1.00  0.00     0.031 C 
ATOM     61  C   UNL A   1      44.559  32.288  28.642  1.00  0.00     0.037 A 
BRANCH  48  62
ATOM     62  C   UNL A   1      39.008  30.660  30.826  1.00  0.00     0.064 A 
ATOM     63  C   UNL A   1      38.865  30.588  32.220  1.00  0.00     0.173 A 
ATOM     64  C   UNL A   1      37.921  31.146  30.082  1.00  0.00     0.173 A 
ATOM     65  F   UNL A   1      39.866  30.116  32.979  1.00  0.00    -0.203 F 
ATOM     66  C   UNL A   1      37.671  30.954  32.839  1.00  0.00     0.198 A 
ATOM     67  C   UNL A   1      36.742  31.544  30.706  1.00  0.00     0.198 A 
ATOM     68  F   UNL A   1      38.003  31.239  28.745  1.00  0.00    -0.203 F 
ATOM     69  F   UNL A   1      37.538  30.822  34.165  1.00  0.00    -0.200 F 
ATOM     70  C   UNL A   1      36.614  31.439  32.082  1.00  0.00     0.200 A 
ATOM     71  F   UNL A   1      35.727  32.024  29.974  1.00  0.00    -0.200 F 
ATOM     72  F   UNL A   1      35.468  31.795  32.679  1.00  0.00    -0.200 F 
ENDBRANCH  48  62
BRANCH  49  73
ATOM     73  C   UNL A   1      47.149  27.549  25.884  1.00  0.00     0.064 A 
ATOM     74  C   UNL A   1      47.219  27.666  24.489  1.00  0.00     0.173 A 
ATOM     75  C   UNL A   1      48.256  27.001  26.549  1.00  0.00     0.173 A 
ATOM     76  F   UNL A   1      46.178  28.164  23.807  1.00  0.00    -0.203 F 
ATOM     77  C   UNL A   1      48.344  27.238  23.787  1.00  0.00     0.198 A 
ATOM     78  C   UNL A   1      49.392  26.601  25.848  1.00  0.00     0.198 A 
ATOM     79  F   UNL A   1      48.241  26.869  27.884  1.00  0.00    -0.203 F 
ATOM     80  F   UNL A   1      48.369  27.324  22.450  1.00  0.00    -0.200 F 
ATOM     81  C   UNL A   1      49.432  26.713  24.468  1.00  0.00     0.200 A 
ATOM     82  F   UNL A   1      50.447  26.108  26.511  1.00  0.00    -0.200 F 
ATOM     83  F   UNL A   1      50.517  26.310  23.792  1.00  0.00    -0.200 F 
ENDBRANCH  49  73
BRANCH  61  84
ATOM     84  C   UNL A   1      45.253  33.612  28.782  1.00  0.00     0.064 A 
ATOM     85  C   UNL A   1      46.152  33.874  29.824  1.00  0.00     0.173 A 
ATOM     86  C   UNL A   1      45.069  34.606  27.807  1.00  0.00     0.173 A 
ATOM     87  F   UNL A   1      46.353  32.963  30.788  1.00  0.00    -0.203 F 
ATOM     88  C   UNL A   1      46.829  35.089  29.894  1.00  0.00     0.198 A 
ATOM     89  C   UNL A   1      45.772  35.805  27.862  1.00  0.00     0.198 A 
ATOM     90  F   UNL A   1      44.225  34.400  26.783  1.00  0.00    -0.203 F 
ATOM     91  F   UNL A   1      47.656  35.334  30.921  1.00  0.00    -0.200 F 
ATOM     92  C   UNL A   1      46.648  36.048  28.908  1.00  0.00     0.200 A 
ATOM     93  F   UNL A   1      45.606  36.722  26.898  1.00  0.00    -0.200 F 
ATOM     94  F   UNL A   1      47.315  37.208  28.969  1.00  0.00    -0.200 F 
ENDBRANCH  61  84
ENDBRANCH  35  36
ENDBRANCH  28  30
ENDBRANCH  27  28
ENDBRANCH  26  27
ENDBRANCH  25  26
ENDBRANCH  24  25
ENDBRANCH   1  24
TORSDOF 19
ENDMDL
