MODEL 1
REMARK VINA RESULT:     -11.8      0.000      0.000
REMARK SMILES COc1ccc(C(=O)Nc2cc(C(=O)OCCOCCOC(=O)c3ccc(-c4c5nc(c(-c6c(F)c(F)c(F)c(F)c6F)c6ccc([nH]6)c(-c6c(F)c(F)c(F)c(F)c6F)c6nc(c(-c7c(F)c(F)c(F)c(F)c7F)c7ccc4[nH]7)C=C6)C=C5)cc3)c(Cl)cc2Cl)cc1Cl
REMARK SMILES IDX 17 1 16 2 15 3 13 4 14 5 12 6 10 7 11 8 90 9 89 10 91 11
REMARK SMILES IDX 87 12 88 13 9 14 7 15 8 16 6 18 3 19 4 20 93 21 5 22 92 23
REMARK SMILES IDX 94 24 2 25 1 26 18 27 19 28 20 29 21 30 22 31 23 32 24 33
REMARK SMILES IDX 25 34 86 35 26 36 85 37 27 38 28 39 29 40 79 41 30 42 84 43
REMARK SMILES IDX 78 44 80 45 31 46 83 47 77 48 76 49 32 51 64 52 44 53 63 54
REMARK SMILES IDX 45 55 48 56 62 57 81 58 46 59 47 60 61 62 82 63 49 64 33 65
REMARK SMILES IDX 34 66 42 67 35 68 36 69 40 70 43 71 37 72 38 73 41 74 39 75
REMARK SMILES IDX 65 76 66 77 74 78 67 79 68 80 72 81 75 82 69 83 70 84 73 85
REMARK SMILES IDX 71 86 50 87 51 88 59 89 52 90 53 91 57 92 60 93 54 94 55 95
REMARK SMILES IDX 58 96 56 97
REMARK H PARENT 9 17 80 50 48 61
REMARK Flexibility Score: inf
ROOT
ATOM      1  C   UNL A   1      37.651  22.254  24.841  1.00  0.00     0.202 C 
ENDROOT
BRANCH   1   2
ATOM      2  C   UNL A   1      36.453  23.087  24.374  1.00  0.00     0.261 C 
BRANCH   2   3
ATOM      3  O   UNL A   1      35.316  22.289  24.010  1.00  0.00    -0.460 OA
BRANCH   3   4
ATOM      4  C   UNL A   1      34.327  22.964  23.379  1.00  0.00     0.339 C 
ATOM      5  O   UNL A   1      34.339  23.397  22.238  1.00  0.00    -0.246 OA
BRANCH   4   6
ATOM      6  C   UNL A   1      33.097  22.982  24.190  1.00  0.00     0.080 A 
ATOM      7  C   UNL A   1      31.860  24.137  25.937  1.00  0.00     0.061 A 
ATOM      8  C   UNL A   1      32.896  24.117  25.000  1.00  0.00     0.045 A 
ATOM      9  C   UNL A   1      31.048  23.002  26.078  1.00  0.00     0.066 A 
ATOM     10  C   UNL A   1      31.200  21.908  25.224  1.00  0.00     0.044 A 
ATOM     11  Cl  UNL A   1      29.792  22.949  27.264  1.00  0.00    -0.082 Cl
ATOM     12  C   UNL A   1      32.225  21.893  24.274  1.00  0.00     0.057 A 
ATOM     13  Cl  UNL A   1      32.381  20.483  23.292  1.00  0.00    -0.083 Cl
BRANCH   7  14
ATOM     14  N   UNL A   1      31.667  25.243  26.785  1.00  0.00    -0.321 N 
ATOM     15  C   UNL A   1      31.615  26.587  26.497  1.00  0.00     0.255 C 
ATOM     16  O   UNL A   1      31.866  27.409  27.375  1.00  0.00    -0.269 OA
ATOM     17  H   UNL A   1      31.548  25.018  27.737  1.00  0.00     0.170 HD
BRANCH  15  18
ATOM     18  C   UNL A   1      31.072  27.073  25.192  1.00  0.00     0.041 A 
ATOM     19  C   UNL A   1      30.016  28.314  22.882  1.00  0.00     0.137 A 
ATOM     20  C   UNL A   1      31.356  28.493  23.244  1.00  0.00     0.049 A 
ATOM     21  C   UNL A   1      29.193  27.541  23.709  1.00  0.00     0.083 A 
ATOM     22  C   UNL A   1      31.882  27.883  24.389  1.00  0.00     0.018 A 
ATOM     23  C   UNL A   1      29.722  26.922  24.851  1.00  0.00     0.038 A 
ATOM     24  Cl  UNL A   1      27.488  27.387  23.475  1.00  0.00    -0.080 Cl
BRANCH  19  25
ATOM     25  O   UNL A   1      29.618  29.047  21.797  1.00  0.00    -0.495 OA
ATOM     26  C   UNL A   1      29.517  30.453  22.000  1.00  0.00     0.278 C 
ENDBRANCH  19  25
ENDBRANCH  15  18
ENDBRANCH   7  14
ENDBRANCH   4   6
ENDBRANCH   3   4
ENDBRANCH   2   3
ENDBRANCH   1   2
BRANCH   1  27
ATOM     27  O   UNL A   1      37.428  20.997  25.471  1.00  0.00    -0.374 OA
BRANCH  27  28
ATOM     28  C   UNL A   1      38.121  19.852  25.001  1.00  0.00     0.202 C 
BRANCH  28  29
ATOM     29  C   UNL A   1      39.373  19.344  25.736  1.00  0.00     0.261 C 
BRANCH  29  30
ATOM     30  O   UNL A   1      40.448  20.267  25.888  1.00  0.00    -0.460 OA
BRANCH  30  31
ATOM     31  C   UNL A   1      40.876  20.417  27.166  1.00  0.00     0.338 C 
ATOM     32  O   UNL A   1      41.075  19.557  28.002  1.00  0.00    -0.246 OA
BRANCH  31  33
ATOM     33  C   UNL A   1      41.125  21.846  27.384  1.00  0.00     0.060 A 
ATOM     34  C   UNL A   1      40.573  22.780  26.502  1.00  0.00     0.016 A 
ATOM     35  C   UNL A   1      41.936  22.244  28.448  1.00  0.00     0.016 A 
ATOM     36  C   UNL A   1      40.840  24.134  26.684  1.00  0.00     0.010 A 
ATOM     37  C   UNL A   1      42.204  23.598  28.627  1.00  0.00     0.010 A 
ATOM     38  C   UNL A   1      41.672  24.545  27.735  1.00  0.00    -0.014 A 
BRANCH  38  39
ATOM     39  C   UNL A   1      42.084  25.961  27.849  1.00  0.00     0.031 A 
ATOM     40  C   UNL A   1      43.414  26.374  27.290  1.00  0.00     0.074 A 
ATOM     41  C   UNL A   1      41.282  26.849  28.461  1.00  0.00     0.049 A 
ATOM     42  N   UNL A   1      44.018  27.532  27.353  1.00  0.00    -0.248 NA
ATOM     43  C   UNL A   1      44.170  25.337  26.568  1.00  0.00     0.031 C 
ATOM     44  C   UNL A   1      39.961  26.552  29.015  1.00  0.00     0.029 A 
ATOM     45  N   UNL A   1      41.468  28.180  28.730  1.00  0.00    -0.354 N 
ATOM     46  C   UNL A   1      45.222  27.364  26.681  1.00  0.00     0.074 A 
ATOM     47  C   UNL A   1      45.283  25.984  26.253  1.00  0.00     0.031 C 
ATOM     48  C   UNL A   1      39.458  27.669  29.566  1.00  0.00     0.029 A 
ATOM     49  C   UNL A   1      40.435  28.747  29.437  1.00  0.00     0.049 A 
ATOM     50  H   UNL A   1      42.265  28.683  28.443  1.00  0.00     0.167 HD
ATOM     51  C   UNL A   1      46.180  28.287  26.433  1.00  0.00     0.037 A 
ATOM     52  C   UNL A   1      40.314  29.990  29.940  1.00  0.00     0.037 A 
ATOM     53  C   UNL A   1      46.106  29.654  26.873  1.00  0.00     0.049 A 
ATOM     54  C   UNL A   1      41.432  30.976  29.715  1.00  0.00     0.074 A 
ATOM     55  C   UNL A   1      47.021  30.675  26.684  1.00  0.00     0.029 A 
ATOM     56  N   UNL A   1      45.051  30.191  27.599  1.00  0.00    -0.354 N 
ATOM     57  N   UNL A   1      42.559  30.817  29.060  1.00  0.00    -0.248 NA
ATOM     58  C   UNL A   1      41.263  32.313  30.299  1.00  0.00     0.031 C 
ATOM     59  C   UNL A   1      46.540  31.816  27.332  1.00  0.00     0.029 A 
ATOM     60  C   UNL A   1      45.300  31.524  27.877  1.00  0.00     0.049 A 
ATOM     61  H   UNL A   1      44.245  29.697  27.873  1.00  0.00     0.167 HD
ATOM     62  C   UNL A   1      43.210  32.042  29.118  1.00  0.00     0.074 A 
ATOM     63  C   UNL A   1      42.350  32.937  29.865  1.00  0.00     0.031 C 
ATOM     64  C   UNL A   1      44.411  32.398  28.601  1.00  0.00     0.037 A 
BRANCH  51  65
ATOM     65  C   UNL A   1      47.390  27.845  25.664  1.00  0.00     0.064 A 
ATOM     66  C   UNL A   1      48.558  27.418  26.315  1.00  0.00     0.173 A 
ATOM     67  C   UNL A   1      47.372  27.809  24.262  1.00  0.00     0.173 A 
ATOM     68  F   UNL A   1      48.633  27.448  27.655  1.00  0.00    -0.203 F 
ATOM     69  C   UNL A   1      49.669  26.993  25.591  1.00  0.00     0.198 A 
ATOM     70  C   UNL A   1      48.474  27.355  23.542  1.00  0.00     0.198 A 
ATOM     71  F   UNL A   1      46.281  28.204  23.589  1.00  0.00    -0.203 F 
ATOM     72  F   UNL A   1      50.788  26.632  26.234  1.00  0.00    -0.200 F 
ATOM     73  C   UNL A   1      49.623  26.953  24.206  1.00  0.00     0.200 A 
ATOM     74  F   UNL A   1      48.423  27.306  22.203  1.00  0.00    -0.200 F 
ATOM     75  F   UNL A   1      50.689  26.533  23.510  1.00  0.00    -0.200 F 
ENDBRANCH  51  65
BRANCH  52  76
ATOM     76  C   UNL A   1      39.099  30.378  30.705  1.00  0.00     0.064 A 
ATOM     77  C   UNL A   1      38.035  31.044  30.080  1.00  0.00     0.173 A 
ATOM     78  C   UNL A   1      38.989  30.123  32.080  1.00  0.00     0.173 A 
ATOM     79  F   UNL A   1      38.101  31.329  28.771  1.00  0.00    -0.203 F 
ATOM     80  C   UNL A   1      36.923  31.466  30.806  1.00  0.00     0.198 A 
ATOM     81  C   UNL A   1      37.861  30.517  32.799  1.00  0.00     0.198 A 
ATOM     82  F   UNL A   1      39.976  29.488  32.728  1.00  0.00    -0.203 F 
ATOM     83  F   UNL A   1      35.947  32.152  30.195  1.00  0.00    -0.200 F 
ATOM     84  C   UNL A   1      36.835  31.199  32.164  1.00  0.00     0.200 A 
ATOM     85  F   UNL A   1      37.776  30.244  34.108  1.00  0.00    -0.200 F 
ATOM     86  F   UNL A   1      35.767  31.608  32.862  1.00  0.00    -0.200 F 
ENDBRANCH  52  76
BRANCH  64  87
ATOM     87  C   UNL A   1      44.838  33.827  28.772  1.00  0.00     0.064 A 
ATOM     88  C   UNL A   1      45.670  34.230  29.825  1.00  0.00     0.173 A 
ATOM     89  C   UNL A   1      44.450  34.795  27.832  1.00  0.00     0.173 A 
ATOM     90  F   UNL A   1      46.057  33.345  30.757  1.00  0.00    -0.203 F 
ATOM     91  C   UNL A   1      46.076  35.556  29.948  1.00  0.00     0.198 A 
ATOM     92  C   UNL A   1      44.884  36.113  27.940  1.00  0.00     0.198 A 
ATOM     93  F   UNL A   1      43.662  34.458  26.800  1.00  0.00    -0.203 F 
ATOM     94  F   UNL A   1      46.832  35.929  30.990  1.00  0.00    -0.200 F 
ATOM     95  C   UNL A   1      45.691  36.493  29.001  1.00  0.00     0.200 A 
ATOM     96  F   UNL A   1      44.524  37.013  27.015  1.00  0.00    -0.200 F 
ATOM     97  F   UNL A   1      46.092  37.766  29.115  1.00  0.00    -0.200 F 
ENDBRANCH  64  87
ENDBRANCH  38  39
ENDBRANCH  31  33
ENDBRANCH  30  31
ENDBRANCH  29  30
ENDBRANCH  28  29
ENDBRANCH  27  28
ENDBRANCH   1  27
TORSDOF 17
ENDMDL
MODEL 2
REMARK VINA RESULT:     -11.7      4.512      6.545
REMARK SMILES COc1ccc(C(=O)Nc2cc(C(=O)OCCOCCOC(=O)c3ccc(-c4c5nc(c(-c6c(F)c(F)c(F)c(F)c6F)c6ccc([nH]6)c(-c6c(F)c(F)c(F)c(F)c6F)c6nc(c(-c7c(F)c(F)c(F)c(F)c7F)c7ccc4[nH]7)C=C6)C=C5)cc3)c(Cl)cc2Cl)cc1Cl
REMARK SMILES IDX 17 1 16 2 15 3 13 4 14 5 12 6 10 7 11 8 90 9 89 10 91 11
REMARK SMILES IDX 87 12 88 13 9 14 7 15 8 16 6 18 3 19 4 20 93 21 5 22 92 23
REMARK SMILES IDX 94 24 2 25 1 26 18 27 19 28 20 29 21 30 22 31 23 32 24 33
REMARK SMILES IDX 25 34 86 35 26 36 85 37 27 38 28 39 29 40 79 41 30 42 84 43
REMARK SMILES IDX 78 44 80 45 31 46 83 47 77 48 76 49 32 51 64 52 44 53 63 54
REMARK SMILES IDX 45 55 48 56 62 57 81 58 46 59 47 60 61 62 82 63 49 64 33 65
REMARK SMILES IDX 34 66 42 67 35 68 36 69 40 70 43 71 37 72 38 73 41 74 39 75
REMARK SMILES IDX 65 76 66 77 74 78 67 79 68 80 72 81 75 82 69 83 70 84 73 85
REMARK SMILES IDX 71 86 50 87 51 88 59 89 52 90 53 91 57 92 60 93 54 94 55 95
REMARK SMILES IDX 58 96 56 97
REMARK H PARENT 9 17 80 50 48 61
REMARK Flexibility Score: inf
ROOT
ATOM      1  C   UNL A   1      39.417  20.274  26.061  1.00  0.00     0.202 C 
ENDROOT
BRANCH   1   2
ATOM      2  C   UNL A   1      38.808  21.604  25.606  1.00  0.00     0.261 C 
BRANCH   2   3
ATOM      3  O   UNL A   1      37.443  21.773  26.021  1.00  0.00    -0.460 OA
BRANCH   3   4
ATOM      4  C   UNL A   1      36.964  23.033  25.898  1.00  0.00     0.339 C 
ATOM      5  O   UNL A   1      37.525  24.071  26.212  1.00  0.00    -0.246 OA
BRANCH   4   6
ATOM      6  C   UNL A   1      35.696  23.046  25.148  1.00  0.00     0.080 A 
ATOM      7  C   UNL A   1      33.273  22.898  25.299  1.00  0.00     0.061 A 
ATOM      8  C   UNL A   1      34.514  23.072  25.915  1.00  0.00     0.045 A 
ATOM      9  C   UNL A   1      33.226  22.667  23.917  1.00  0.00     0.066 A 
ATOM     10  C   UNL A   1      34.390  22.716  23.147  1.00  0.00     0.044 A 
ATOM     11  Cl  UNL A   1      31.722  22.383  23.113  1.00  0.00    -0.082 Cl
ATOM     12  C   UNL A   1      35.631  22.908  23.759  1.00  0.00     0.057 A 
ATOM     13  Cl  UNL A   1      37.028  22.903  22.747  1.00  0.00    -0.083 Cl
BRANCH   7  14
ATOM     14  N   UNL A   1      32.083  22.879  26.050  1.00  0.00    -0.321 N 
ATOM     15  C   UNL A   1      31.358  23.914  26.594  1.00  0.00     0.255 C 
ATOM     16  O   UNL A   1      30.615  23.701  27.550  1.00  0.00    -0.269 OA
ATOM     17  H   UNL A   1      31.710  21.982  26.210  1.00  0.00     0.170 HD
BRANCH  15  18
ATOM     18  C   UNL A   1      31.306  25.250  25.928  1.00  0.00     0.041 A 
ATOM     19  C   UNL A   1      31.037  27.893  24.961  1.00  0.00     0.137 A 
ATOM     20  C   UNL A   1      32.016  27.571  25.908  1.00  0.00     0.049 A 
ATOM     21  C   UNL A   1      30.161  26.889  24.530  1.00  0.00     0.083 A 
ATOM     22  C   UNL A   1      32.150  26.265  26.391  1.00  0.00     0.018 A 
ATOM     23  C   UNL A   1      30.301  25.578  25.007  1.00  0.00     0.038 A 
ATOM     24  Cl  UNL A   1      28.803  27.190  23.505  1.00  0.00    -0.080 Cl
BRANCH  19  25
ATOM     25  O   UNL A   1      30.960  29.224  24.654  1.00  0.00    -0.495 OA
ATOM     26  C   UNL A   1      31.685  30.102  25.511  1.00  0.00     0.278 C 
ENDBRANCH  19  25
ENDBRANCH  15  18
ENDBRANCH   7  14
ENDBRANCH   4   6
ENDBRANCH   3   4
ENDBRANCH   2   3
ENDBRANCH   1   2
BRANCH   1  27
ATOM     27  O   UNL A   1      40.639  19.828  25.485  1.00  0.00    -0.374 OA
BRANCH  27  28
ATOM     28  C   UNL A   1      41.856  20.043  26.183  1.00  0.00     0.202 C 
BRANCH  28  29
ATOM     29  C   UNL A   1      42.801  21.182  25.767  1.00  0.00     0.261 C 
BRANCH  29  30
ATOM     30  O   UNL A   1      42.194  22.392  25.323  1.00  0.00    -0.460 OA
BRANCH  30  31
ATOM     31  C   UNL A   1      43.051  23.437  25.210  1.00  0.00     0.338 C 
ATOM     32  O   UNL A   1      43.866  23.653  24.335  1.00  0.00    -0.246 OA
BRANCH  31  33
ATOM     33  C   UNL A   1      42.797  24.341  26.337  1.00  0.00     0.060 A 
ATOM     34  C   UNL A   1      41.885  23.961  27.327  1.00  0.00     0.016 A 
ATOM     35  C   UNL A   1      43.446  25.575  26.382  1.00  0.00     0.016 A 
ATOM     36  C   UNL A   1      41.613  24.834  28.377  1.00  0.00     0.010 A 
ATOM     37  C   UNL A   1      43.170  26.448  27.432  1.00  0.00     0.010 A 
ATOM     38  C   UNL A   1      42.241  26.087  28.422  1.00  0.00    -0.014 A 
BRANCH  38  39
ATOM     39  C   UNL A   1      41.849  27.080  29.446  1.00  0.00     0.031 A 
ATOM     40  C   UNL A   1      42.618  27.132  30.734  1.00  0.00     0.074 A 
ATOM     41  C   UNL A   1      40.810  27.903  29.224  1.00  0.00     0.049 A 
ATOM     42  N   UNL A   1      42.401  27.853  31.802  1.00  0.00    -0.248 NA
ATOM     43  C   UNL A   1      43.787  26.242  30.833  1.00  0.00     0.031 C 
ATOM     44  C   UNL A   1      40.016  27.948  27.996  1.00  0.00     0.029 A 
ATOM     45  N   UNL A   1      40.238  28.853  30.030  1.00  0.00    -0.354 N 
ATOM     46  C   UNL A   1      43.402  27.506  32.699  1.00  0.00     0.074 A 
ATOM     47  C   UNL A   1      44.205  26.481  32.068  1.00  0.00     0.031 C 
ATOM     48  C   UNL A   1      39.053  28.873  28.134  1.00  0.00     0.029 A 
ATOM     49  C   UNL A   1      39.139  29.457  29.470  1.00  0.00     0.049 A 
ATOM     50  H   UNL A   1      40.582  29.080  30.924  1.00  0.00     0.167 HD
ATOM     51  C   UNL A   1      43.636  28.012  33.933  1.00  0.00     0.037 A 
ATOM     52  C   UNL A   1      38.290  30.361  29.995  1.00  0.00     0.037 A 
ATOM     53  C   UNL A   1      42.823  29.026  34.548  1.00  0.00     0.049 A 
ATOM     54  C   UNL A   1      38.529  30.849  31.401  1.00  0.00     0.074 A 
ATOM     55  C   UNL A   1      42.963  29.608  35.796  1.00  0.00     0.029 A 
ATOM     56  N   UNL A   1      41.709  29.607  33.958  1.00  0.00    -0.354 N 
ATOM     57  N   UNL A   1      39.491  30.534  32.237  1.00  0.00    -0.248 NA
ATOM     58  C   UNL A   1      37.566  31.820  31.938  1.00  0.00     0.031 C 
ATOM     59  C   UNL A   1      41.910  30.509  35.976  1.00  0.00     0.029 A 
ATOM     60  C   UNL A   1      41.145  30.530  34.821  1.00  0.00     0.049 A 
ATOM     61  H   UNL A   1      41.372  29.394  33.058  1.00  0.00     0.167 HD
ATOM     62  C   UNL A   1      39.273  31.295  33.377  1.00  0.00     0.074 A 
ATOM     63  C   UNL A   1      38.092  32.095  33.123  1.00  0.00     0.031 C 
ATOM     64  C   UNL A   1      39.983  31.332  34.531  1.00  0.00     0.037 A 
BRANCH  51  65
ATOM     65  C   UNL A   1      44.807  27.468  34.698  1.00  0.00     0.064 A 
ATOM     66  C   UNL A   1      44.698  26.306  35.478  1.00  0.00     0.173 A 
ATOM     67  C   UNL A   1      46.062  28.090  34.621  1.00  0.00     0.173 A 
ATOM     68  F   UNL A   1      43.516  25.682  35.597  1.00  0.00    -0.203 F 
ATOM     69  C   UNL A   1      45.796  25.800  36.169  1.00  0.00     0.198 A 
ATOM     70  C   UNL A   1      47.165  27.565  35.290  1.00  0.00     0.198 A 
ATOM     71  F   UNL A   1      46.222  29.202  33.888  1.00  0.00    -0.203 F 
ATOM     72  F   UNL A   1      45.658  24.715  36.943  1.00  0.00    -0.200 F 
ATOM     73  C   UNL A   1      47.030  26.425  36.067  1.00  0.00     0.200 A 
ATOM     74  F   UNL A   1      48.359  28.163  35.181  1.00  0.00    -0.200 F 
ATOM     75  F   UNL A   1      48.089  25.931  36.724  1.00  0.00    -0.200 F 
ENDBRANCH  51  65
BRANCH  52  76
ATOM     76  C   UNL A   1      37.137  30.862  29.200  1.00  0.00     0.064 A 
ATOM     77  C   UNL A   1      37.118  32.174  28.705  1.00  0.00     0.173 A 
ATOM     78  C   UNL A   1      36.017  30.055  28.949  1.00  0.00     0.173 A 
ATOM     79  F   UNL A   1      38.156  32.991  28.937  1.00  0.00    -0.203 F 
ATOM     80  C   UNL A   1      36.013  32.668  28.015  1.00  0.00     0.198 A 
ATOM     81  C   UNL A   1      34.925  30.541  28.230  1.00  0.00     0.198 A 
ATOM     82  F   UNL A   1      35.982  28.793  29.398  1.00  0.00    -0.203 F 
ATOM     83  F   UNL A   1      35.998  33.943  27.604  1.00  0.00    -0.200 F 
ATOM     84  C   UNL A   1      34.919  31.850  27.775  1.00  0.00     0.200 A 
ATOM     85  F   UNL A   1      33.877  29.742  27.990  1.00  0.00    -0.200 F 
ATOM     86  F   UNL A   1      33.855  32.327  27.115  1.00  0.00    -0.200 F 
ENDBRANCH  52  76
BRANCH  64  87
ATOM     87  C   UNL A   1      39.540  32.309  35.581  1.00  0.00     0.064 A 
ATOM     88  C   UNL A   1      38.602  31.964  36.564  1.00  0.00     0.173 A 
ATOM     89  C   UNL A   1      40.106  33.593  35.632  1.00  0.00     0.173 A 
ATOM     90  F   UNL A   1      38.023  30.754  36.549  1.00  0.00    -0.203 F 
ATOM     91  C   UNL A   1      38.227  32.877  37.545  1.00  0.00     0.198 A 
ATOM     92  C   UNL A   1      39.752  34.492  36.634  1.00  0.00     0.198 A 
ATOM     93  F   UNL A   1      41.014  33.969  34.719  1.00  0.00    -0.203 F 
ATOM     94  F   UNL A   1      37.294  32.543  38.447  1.00  0.00    -0.200 F 
ATOM     95  C   UNL A   1      38.809  34.136  37.585  1.00  0.00     0.200 A 
ATOM     96  F   UNL A   1      40.327  35.701  36.679  1.00  0.00    -0.200 F 
ATOM     97  F   UNL A   1      38.454  35.009  38.537  1.00  0.00    -0.200 F 
ENDBRANCH  64  87
ENDBRANCH  38  39
ENDBRANCH  31  33
ENDBRANCH  30  31
ENDBRANCH  29  30
ENDBRANCH  28  29
ENDBRANCH  27  28
ENDBRANCH   1  27
TORSDOF 17
ENDMDL
MODEL 3
REMARK VINA RESULT:     -11.6      4.645     10.615
REMARK SMILES COc1ccc(C(=O)Nc2cc(C(=O)OCCOCCOC(=O)c3ccc(-c4c5nc(c(-c6c(F)c(F)c(F)c(F)c6F)c6ccc([nH]6)c(-c6c(F)c(F)c(F)c(F)c6F)c6nc(c(-c7c(F)c(F)c(F)c(F)c7F)c7ccc4[nH]7)C=C6)C=C5)cc3)c(Cl)cc2Cl)cc1Cl
REMARK SMILES IDX 17 1 16 2 15 3 13 4 14 5 12 6 10 7 11 8 90 9 89 10 91 11
REMARK SMILES IDX 87 12 88 13 9 14 7 15 8 16 6 18 3 19 4 20 93 21 5 22 92 23
REMARK SMILES IDX 94 24 2 25 1 26 18 27 19 28 20 29 21 30 22 31 23 32 24 33
REMARK SMILES IDX 25 34 86 35 26 36 85 37 27 38 28 39 29 40 79 41 30 42 84 43
REMARK SMILES IDX 78 44 80 45 31 46 83 47 77 48 76 49 32 51 64 52 44 53 63 54
REMARK SMILES IDX 45 55 48 56 62 57 81 58 46 59 47 60 61 62 82 63 49 64 33 65
REMARK SMILES IDX 34 66 42 67 35 68 36 69 40 70 43 71 37 72 38 73 41 74 39 75
REMARK SMILES IDX 65 76 66 77 74 78 67 79 68 80 72 81 75 82 69 83 70 84 73 85
REMARK SMILES IDX 71 86 50 87 51 88 59 89 52 90 53 91 57 92 60 93 54 94 55 95
REMARK SMILES IDX 58 96 56 97
REMARK H PARENT 9 17 80 50 48 61
REMARK Flexibility Score: inf
ROOT
ATOM      1  C   UNL A   1      34.689  30.541  27.421  1.00  0.00     0.202 C 
ENDROOT
BRANCH   1   2
ATOM      2  C   UNL A   1      34.341  29.050  27.362  1.00  0.00     0.261 C 
BRANCH   2   3
ATOM      3  O   UNL A   1      33.423  28.726  26.306  1.00  0.00    -0.460 OA
BRANCH   3   4
ATOM      4  C   UNL A   1      32.171  28.416  26.717  1.00  0.00     0.339 C 
ATOM      5  O   UNL A   1      31.546  28.929  27.632  1.00  0.00    -0.246 OA
BRANCH   4   6
ATOM      6  C   UNL A   1      31.532  27.461  25.795  1.00  0.00     0.080 A 
ATOM      7  C   UNL A   1      30.718  25.187  25.506  1.00  0.00     0.061 A 
ATOM      8  C   UNL A   1      31.157  26.217  26.341  1.00  0.00     0.045 A 
ATOM      9  C   UNL A   1      30.688  25.401  24.120  1.00  0.00     0.066 A 
ATOM     10  C   UNL A   1      30.987  26.657  23.587  1.00  0.00     0.044 A 
ATOM     11  Cl  UNL A   1      30.213  24.141  23.037  1.00  0.00    -0.082 Cl
ATOM     12  C   UNL A   1      31.409  27.694  24.423  1.00  0.00     0.057 A 
ATOM     13  Cl  UNL A   1      31.811  29.200  23.683  1.00  0.00    -0.083 Cl
BRANCH   7  14
ATOM     14  N   UNL A   1      30.379  23.924  26.024  1.00  0.00    -0.321 N 
ATOM     15  C   UNL A   1      31.042  22.721  25.938  1.00  0.00     0.255 C 
ATOM     16  O   UNL A   1      30.416  21.670  26.067  1.00  0.00    -0.269 OA
ATOM     17  H   UNL A   1      29.534  23.897  26.529  1.00  0.00     0.170 HD
BRANCH  15  18
ATOM     18  C   UNL A   1      32.534  22.667  25.885  1.00  0.00     0.041 A 
ATOM     19  C   UNL A   1      35.349  22.918  25.849  1.00  0.00     0.137 A 
ATOM     20  C   UNL A   1      34.646  22.896  27.059  1.00  0.00     0.049 A 
ATOM     21  C   UNL A   1      34.629  22.856  24.650  1.00  0.00     0.083 A 
ATOM     22  C   UNL A   1      33.252  22.775  27.080  1.00  0.00     0.018 A 
ATOM     23  C   UNL A   1      33.232  22.725  24.672  1.00  0.00     0.038 A 
ATOM     24  Cl  UNL A   1      35.355  23.052  23.094  1.00  0.00    -0.080 Cl
BRANCH  19  25
ATOM     25  O   UNL A   1      36.694  23.138  25.977  1.00  0.00    -0.495 OA
ATOM     26  C   UNL A   1      37.535  22.018  25.715  1.00  0.00     0.278 C 
ENDBRANCH  19  25
ENDBRANCH  15  18
ENDBRANCH   7  14
ENDBRANCH   4   6
ENDBRANCH   3   4
ENDBRANCH   2   3
ENDBRANCH   1   2
BRANCH   1  27
ATOM     27  O   UNL A   1      33.760  31.456  27.991  1.00  0.00    -0.374 OA
BRANCH  27  28
ATOM     28  C   UNL A   1      32.805  32.089  27.153  1.00  0.00     0.202 C 
BRANCH  28  29
ATOM     29  C   UNL A   1      32.201  33.447  27.549  1.00  0.00     0.261 C 
BRANCH  29  30
ATOM     30  O   UNL A   1      33.092  34.558  27.592  1.00  0.00    -0.460 OA
BRANCH  30  31
ATOM     31  C   UNL A   1      33.219  35.121  28.820  1.00  0.00     0.338 C 
ATOM     32  O   UNL A   1      32.524  35.975  29.334  1.00  0.00    -0.246 OA
BRANCH  31  33
ATOM     33  C   UNL A   1      34.351  34.471  29.489  1.00  0.00     0.060 A 
ATOM     34  C   UNL A   1      35.622  34.544  28.911  1.00  0.00     0.016 A 
ATOM     35  C   UNL A   1      34.132  33.765  30.672  1.00  0.00     0.016 A 
ATOM     36  C   UNL A   1      36.691  33.896  29.523  1.00  0.00     0.010 A 
ATOM     37  C   UNL A   1      35.202  33.114  31.282  1.00  0.00     0.010 A 
ATOM     38  C   UNL A   1      36.480  33.163  30.700  1.00  0.00    -0.014 A 
BRANCH  38  39
ATOM     39  C   UNL A   1      37.571  32.348  31.276  1.00  0.00     0.031 A 
ATOM     40  C   UNL A   1      38.065  32.673  32.655  1.00  0.00     0.074 A 
ATOM     41  C   UNL A   1      38.115  31.349  30.561  1.00  0.00     0.049 A 
ATOM     42  N   UNL A   1      39.063  32.157  33.323  1.00  0.00    -0.248 NA
ATOM     43  C   UNL A   1      37.340  33.733  33.377  1.00  0.00     0.031 C 
ATOM     44  C   UNL A   1      37.689  30.938  29.224  1.00  0.00     0.029 A 
ATOM     45  N   UNL A   1      39.154  30.504  30.858  1.00  0.00    -0.354 N 
ATOM     46  C   UNL A   1      39.086  32.826  34.540  1.00  0.00     0.074 A 
ATOM     47  C   UNL A   1      38.030  33.813  34.505  1.00  0.00     0.031 C 
ATOM     48  C   UNL A   1      38.467  29.923  28.811  1.00  0.00     0.029 A 
ATOM     49  C   UNL A   1      39.466  29.640  29.837  1.00  0.00     0.049 A 
ATOM     50  H   UNL A   1      39.630  30.516  31.720  1.00  0.00     0.167 HD
ATOM     51  C   UNL A   1      39.908  32.619  35.595  1.00  0.00     0.037 A 
ATOM     52  C   UNL A   1      40.465  28.741  29.743  1.00  0.00     0.037 A 
ATOM     53  C   UNL A   1      40.959  31.638  35.611  1.00  0.00     0.049 A 
ATOM     54  C   UNL A   1      41.414  28.587  30.903  1.00  0.00     0.074 A 
ATOM     55  C   UNL A   1      41.857  31.346  36.622  1.00  0.00     0.029 A 
ATOM     56  N   UNL A   1      41.256  30.787  34.554  1.00  0.00    -0.354 N 
ATOM     57  N   UNL A   1      41.417  29.207  32.061  1.00  0.00    -0.248 NA
ATOM     58  C   UNL A   1      42.499  27.609  30.747  1.00  0.00     0.031 C 
ATOM     59  C   UNL A   1      42.723  30.350  36.162  1.00  0.00     0.029 A 
ATOM     60  C   UNL A   1      42.332  29.982  34.885  1.00  0.00     0.049 A 
ATOM     61  H   UNL A   1      40.773  30.761  33.697  1.00  0.00     0.167 HD
ATOM     62  C   UNL A   1      42.474  28.666  32.782  1.00  0.00     0.074 A 
ATOM     63  C   UNL A   1      43.083  27.661  31.935  1.00  0.00     0.031 C 
ATOM     64  C   UNL A   1      42.902  28.970  34.030  1.00  0.00     0.037 A 
BRANCH  51  65
ATOM     65  C   UNL A   1      39.710  33.477  36.811  1.00  0.00     0.064 A 
ATOM     66  C   UNL A   1      38.809  33.117  37.825  1.00  0.00     0.173 A 
ATOM     67  C   UNL A   1      40.456  34.653  36.985  1.00  0.00     0.173 A 
ATOM     68  F   UNL A   1      38.061  32.010  37.700  1.00  0.00    -0.203 F 
ATOM     69  C   UNL A   1      38.647  33.911  38.956  1.00  0.00     0.198 A 
ATOM     70  C   UNL A   1      40.313  35.430  38.132  1.00  0.00     0.198 A 
ATOM     71  F   UNL A   1      41.332  35.043  36.047  1.00  0.00    -0.203 F 
ATOM     72  F   UNL A   1      37.749  33.569  39.891  1.00  0.00    -0.200 F 
ATOM     73  C   UNL A   1      39.405  35.062  39.113  1.00  0.00     0.200 A 
ATOM     74  F   UNL A   1      41.055  36.535  38.287  1.00  0.00    -0.200 F 
ATOM     75  F   UNL A   1      39.256  35.820  40.208  1.00  0.00    -0.200 F 
ENDBRANCH  51  65
BRANCH  52  76
ATOM     76  C   UNL A   1      40.626  27.921  28.512  1.00  0.00     0.064 A 
ATOM     77  C   UNL A   1      40.028  26.658  28.405  1.00  0.00     0.173 A 
ATOM     78  C   UNL A   1      41.407  28.365  27.435  1.00  0.00     0.173 A 
ATOM     79  F   UNL A   1      39.288  26.179  29.416  1.00  0.00    -0.203 F 
ATOM     80  C   UNL A   1      40.229  25.858  27.281  1.00  0.00     0.198 A 
ATOM     81  C   UNL A   1      41.581  27.579  26.297  1.00  0.00     0.198 A 
ATOM     82  F   UNL A   1      42.001  29.566  27.484  1.00  0.00    -0.203 F 
ATOM     83  F   UNL A   1      39.693  24.631  27.229  1.00  0.00    -0.200 F 
ATOM     84  C   UNL A   1      41.002  26.321  26.226  1.00  0.00     0.200 A 
ATOM     85  F   UNL A   1      42.318  28.036  25.276  1.00  0.00    -0.200 F 
ATOM     86  F   UNL A   1      41.198  25.551  25.147  1.00  0.00    -0.200 F 
ENDBRANCH  52  76
BRANCH  64  87
ATOM     87  C   UNL A   1      44.045  28.168  34.581  1.00  0.00     0.064 A 
ATOM     88  C   UNL A   1      45.373  28.603  34.472  1.00  0.00     0.173 A 
ATOM     89  C   UNL A   1      43.798  26.972  35.273  1.00  0.00     0.173 A 
ATOM     90  F   UNL A   1      45.662  29.732  33.807  1.00  0.00    -0.203 F 
ATOM     91  C   UNL A   1      46.416  27.856  35.014  1.00  0.00     0.198 A 
ATOM     92  C   UNL A   1      44.840  26.246  35.842  1.00  0.00     0.198 A 
ATOM     93  F   UNL A   1      42.544  26.518  35.413  1.00  0.00    -0.203 F 
ATOM     94  F   UNL A   1      47.683  28.266  34.858  1.00  0.00    -0.200 F 
ATOM     95  C   UNL A   1      46.148  26.684  35.707  1.00  0.00     0.200 A 
ATOM     96  F   UNL A   1      44.577  25.122  36.524  1.00  0.00    -0.200 F 
ATOM     97  F   UNL A   1      47.152  25.974  36.237  1.00  0.00    -0.200 F 
ENDBRANCH  64  87
ENDBRANCH  38  39
ENDBRANCH  31  33
ENDBRANCH  30  31
ENDBRANCH  29  30
ENDBRANCH  28  29
ENDBRANCH  27  28
ENDBRANCH   1  27
TORSDOF 17
ENDMDL
