MODEL 1
REMARK VINA RESULT:      -6.9      0.000      0.000
REMARK SMILES CC/C=C/C/C=C/C/C=C/C/C=C/CCSCCCC(=O)OCCOCCOC(=O)c1ccc(-c2c3nc(c(-c4c(F)c(F)c(F)c(F)c4F)c4ccc([nH]4)c(-c4c(F)c(F)c(F)c(F)c4F)c4nc(c(-c5c(F)c(F)c(F)c(F)c5F)c5ccc2[nH]5)C=C4)C=C3)cc1
REMARK SMILES IDX 18 1 17 2 16 3 15 4 14 5 13 6 12 7 11 8 10 9 9 10 8 11 7 12
REMARK SMILES IDX 6 13 5 14 4 15 3 16 2 17 1 18 19 19 20 20 21 21 22 22 23 23
REMARK SMILES IDX 24 24 25 25 26 26 27 27 28 28 29 29 30 30 31 31 32 32 93 33
REMARK SMILES IDX 33 34 92 35 34 36 35 37 36 38 86 39 37 40 91 41 85 42 87 43
REMARK SMILES IDX 38 44 90 45 84 46 83 47 39 49 71 50 51 51 70 52 52 53 55 54
REMARK SMILES IDX 69 55 88 56 53 57 54 58 68 60 89 61 56 62 40 63 41 64 49 65
REMARK SMILES IDX 42 66 43 67 47 68 50 69 44 70 45 71 48 72 46 73 72 74 73 75
REMARK SMILES IDX 81 76 74 77 75 78 79 79 82 80 76 81 77 82 80 83 78 84 57 85
REMARK SMILES IDX 58 86 66 87 59 88 60 89 64 90 67 91 61 92 62 93 65 94 63 95
REMARK H PARENT 87 48 55 59
REMARK Flexibility Score: inf
ROOT
ATOM      1  C   UNL A   1      39.883  24.386  26.997  1.00  0.00     0.023 C 
ENDROOT
BRANCH   1   2
ATOM      2  C   UNL A   1      39.652  25.888  27.223  1.00  0.00     0.070 C 
BRANCH   2   3
ATOM      3  S   UNL A   1      39.969  26.693  28.834  1.00  0.00    -0.162 SA
BRANCH   3   4
ATOM      4  C   UNL A   1      38.559  27.818  29.156  1.00  0.00     0.073 C 
BRANCH   4   5
ATOM      5  C   UNL A   1      38.501  29.148  28.378  1.00  0.00     0.038 C 
BRANCH   5   6
ATOM      6  C   UNL A   1      37.739  30.284  29.019  1.00  0.00    -0.030 C 
ATOM      7  C   UNL A   1      37.305  31.395  28.383  1.00  0.00    -0.027 C 
BRANCH   7   8
ATOM      8  C   UNL A   1      36.528  32.565  28.978  1.00  0.00     0.054 C 
BRANCH   8   9
ATOM      9  C   UNL A   1      37.413  33.740  29.333  1.00  0.00    -0.027 C 
ATOM     10  C   UNL A   1      38.755  33.800  29.218  1.00  0.00    -0.027 C 
BRANCH  10  11
ATOM     11  C   UNL A   1      39.594  35.019  29.526  1.00  0.00     0.054 C 
BRANCH  11  12
ATOM     12  C   UNL A   1      40.930  34.897  28.856  1.00  0.00    -0.027 C 
ATOM     13  C   UNL A   1      41.722  35.929  28.530  1.00  0.00    -0.027 C 
BRANCH  13  14
ATOM     14  C   UNL A   1      42.905  35.778  27.618  1.00  0.00     0.054 C 
BRANCH  14  15
ATOM     15  C   UNL A   1      43.547  37.120  27.406  1.00  0.00    -0.027 C 
ATOM     16  C   UNL A   1      43.611  38.080  28.340  1.00  0.00    -0.031 C 
BRANCH  16  17
ATOM     17  C   UNL A   1      44.176  39.447  28.091  1.00  0.00     0.023 C 
ATOM     18  C   UNL A   1      44.008  39.836  26.631  1.00  0.00     0.008 C 
ENDBRANCH  16  17
ENDBRANCH  14  15
ENDBRANCH  13  14
ENDBRANCH  11  12
ENDBRANCH  10  11
ENDBRANCH   8   9
ENDBRANCH   7   8
ENDBRANCH   5   6
ENDBRANCH   4   5
ENDBRANCH   3   4
ENDBRANCH   2   3
ENDBRANCH   1   2
BRANCH   1  19
ATOM     19  C   UNL A   1      38.748  23.535  26.445  1.00  0.00     0.123 C 
BRANCH  19  20
ATOM     20  C   UNL A   1      39.073  22.088  26.215  1.00  0.00     0.305 C 
ATOM     21  O   UNL A   1      38.424  21.406  25.433  1.00  0.00    -0.252 OA
BRANCH  20  22
ATOM     22  O   UNL A   1      40.075  21.642  27.004  1.00  0.00    -0.463 OA
BRANCH  22  23
ATOM     23  C   UNL A   1      40.970  20.657  26.485  1.00  0.00     0.261 C 
BRANCH  23  24
ATOM     24  C   UNL A   1      42.385  21.047  26.038  1.00  0.00     0.202 C 
BRANCH  24  25
ATOM     25  O   UNL A   1      42.648  22.092  25.125  1.00  0.00    -0.374 OA
BRANCH  25  26
ATOM     26  C   UNL A   1      43.756  22.941  25.337  1.00  0.00     0.202 C 
BRANCH  26  27
ATOM     27  C   UNL A   1      43.677  23.995  26.457  1.00  0.00     0.261 C 
BRANCH  27  28
ATOM     28  O   UNL A   1      44.121  25.327  26.126  1.00  0.00    -0.460 OA
BRANCH  28  29
ATOM     29  C   UNL A   1      43.160  26.171  25.686  1.00  0.00     0.338 C 
ATOM     30  O   UNL A   1      42.448  26.027  24.699  1.00  0.00    -0.246 OA
BRANCH  29  31
ATOM     31  C   UNL A   1      42.959  27.280  26.645  1.00  0.00     0.060 A 
ATOM     32  C   UNL A   1      42.193  28.384  26.241  1.00  0.00     0.016 A 
ATOM     33  C   UNL A   1      43.604  27.291  27.883  1.00  0.00     0.016 A 
ATOM     34  C   UNL A   1      42.110  29.521  27.048  1.00  0.00     0.010 A 
ATOM     35  C   UNL A   1      43.543  28.442  28.679  1.00  0.00     0.010 A 
ATOM     36  C   UNL A   1      42.834  29.578  28.244  1.00  0.00    -0.014 A 
BRANCH  36  37
ATOM     37  C   UNL A   1      43.044  30.889  28.912  1.00  0.00     0.031 A 
ATOM     38  C   UNL A   1      44.196  31.744  28.453  1.00  0.00     0.074 A 
ATOM     39  C   UNL A   1      42.225  31.328  29.884  1.00  0.00     0.049 A 
ATOM     40  N   UNL A   1      44.642  32.877  28.933  1.00  0.00    -0.248 NA
ATOM     41  C   UNL A   1      44.951  31.246  27.291  1.00  0.00     0.031 C 
ATOM     42  C   UNL A   1      41.039  30.628  30.370  1.00  0.00     0.029 A 
ATOM     43  N   UNL A   1      42.280  32.470  30.645  1.00  0.00    -0.354 N 
ATOM     44  C   UNL A   1      45.736  33.215  28.145  1.00  0.00     0.074 A 
ATOM     45  C   UNL A   1      45.901  32.160  27.171  1.00  0.00     0.031 C 
ATOM     46  C   UNL A   1      40.487  31.347  31.363  1.00  0.00     0.029 A 
ATOM     47  C   UNL A   1      41.303  32.535  31.609  1.00  0.00     0.049 A 
ATOM     48  H   UNL A   1      42.954  33.175  30.512  1.00  0.00     0.167 HD
ATOM     49  C   UNL A   1      46.529  34.310  28.228  1.00  0.00     0.037 A 
ATOM     50  C   UNL A   1      41.115  33.436  32.595  1.00  0.00     0.037 A 
ATOM     51  C   UNL A   1      46.358  35.359  29.197  1.00  0.00     0.049 A 
ATOM     52  C   UNL A   1      42.065  34.603  32.719  1.00  0.00     0.074 A 
ATOM     53  C   UNL A   1      47.098  36.517  29.356  1.00  0.00     0.029 A 
ATOM     54  N   UNL A   1      45.378  35.372  30.179  1.00  0.00    -0.354 N 
ATOM     55  N   UNL A   1      43.091  34.923  31.968  1.00  0.00    -0.248 NA
ATOM     56  C   UNL A   1      41.828  35.534  33.832  1.00  0.00     0.031 C 
ATOM     57  C   UNL A   1      46.606  37.199  30.474  1.00  0.00     0.029 A 
ATOM     58  C   UNL A   1      45.514  36.503  30.968  1.00  0.00     0.049 A 
ATOM     59  H   UNL A   1      44.688  34.679  30.298  1.00  0.00     0.167 HD
ATOM     60  C   UNL A   1      43.598  36.106  32.493  1.00  0.00     0.074 A 
ATOM     61  C   UNL A   1      42.759  36.454  33.620  1.00  0.00     0.031 C 
ATOM     62  C   UNL A   1      44.660  36.840  32.079  1.00  0.00     0.037 A 
BRANCH  49  63
ATOM     63  C   UNL A   1      47.682  34.409  27.269  1.00  0.00     0.064 A 
ATOM     64  C   UNL A   1      47.648  35.253  26.149  1.00  0.00     0.173 A 
ATOM     65  C   UNL A   1      48.854  33.668  27.494  1.00  0.00     0.173 A 
ATOM     66  F   UNL A   1      46.548  35.972  25.878  1.00  0.00    -0.203 F 
ATOM     67  C   UNL A   1      48.732  35.333  25.277  1.00  0.00     0.198 A 
ATOM     68  C   UNL A   1      49.947  33.775  26.639  1.00  0.00     0.198 A 
ATOM     69  F   UNL A   1      48.942  32.847  28.551  1.00  0.00    -0.203 F 
ATOM     70  F   UNL A   1      48.657  36.108  24.187  1.00  0.00    -0.200 F 
ATOM     71  C   UNL A   1      49.882  34.601  25.527  1.00  0.00     0.200 A 
ATOM     72  F   UNL A   1      51.063  33.077  26.891  1.00  0.00    -0.200 F 
ATOM     73  F   UNL A   1      50.927  34.685  24.692  1.00  0.00    -0.200 F 
ENDBRANCH  49  63
BRANCH  50  74
ATOM     74  C   UNL A   1      39.997  33.265  33.563  1.00  0.00     0.064 A 
ATOM     75  C   UNL A   1      38.827  34.034  33.464  1.00  0.00     0.173 A 
ATOM     76  C   UNL A   1      40.087  32.355  34.628  1.00  0.00     0.173 A 
ATOM     77  F   UNL A   1      38.704  34.939  32.482  1.00  0.00    -0.203 F 
ATOM     78  C   UNL A   1      37.805  33.915  34.403  1.00  0.00     0.198 A 
ATOM     79  C   UNL A   1      39.049  32.214  35.547  1.00  0.00     0.198 A 
ATOM     80  F   UNL A   1      41.186  31.600  34.775  1.00  0.00    -0.203 F 
ATOM     81  F   UNL A   1      36.724  34.702  34.316  1.00  0.00    -0.200 F 
ATOM     82  C   UNL A   1      37.913  33.001  35.440  1.00  0.00     0.200 A 
ATOM     83  F   UNL A   1      39.155  31.321  36.541  1.00  0.00    -0.200 F 
ATOM     84  F   UNL A   1      36.929  32.887  36.342  1.00  0.00    -0.200 F 
ENDBRANCH  50  74
BRANCH  62  85
ATOM     85  C   UNL A   1      44.948  38.121  32.813  1.00  0.00     0.064 A 
ATOM     86  C   UNL A   1      44.343  39.334  32.454  1.00  0.00     0.173 A 
ATOM     87  C   UNL A   1      45.811  38.121  33.922  1.00  0.00     0.173 A 
ATOM     88  F   UNL A   1      43.520  39.391  31.396  1.00  0.00    -0.203 F 
ATOM     89  C   UNL A   1      44.612  40.504  33.160  1.00  0.00     0.198 A 
ATOM     90  C   UNL A   1      46.049  39.286  34.645  1.00  0.00     0.198 A 
ATOM     91  F   UNL A   1      46.409  36.986  34.314  1.00  0.00    -0.203 F 
ATOM     92  F   UNL A   1      44.063  41.662  32.766  1.00  0.00    -0.200 F 
ATOM     93  C   UNL A   1      45.458  40.478  34.258  1.00  0.00     0.200 A 
ATOM     94  F   UNL A   1      46.851  39.253  35.718  1.00  0.00    -0.200 F 
ATOM     95  F   UNL A   1      45.708  41.603  34.941  1.00  0.00    -0.200 F 
ENDBRANCH  62  85
ENDBRANCH  36  37
ENDBRANCH  29  31
ENDBRANCH  28  29
ENDBRANCH  27  28
ENDBRANCH  26  27
ENDBRANCH  25  26
ENDBRANCH  24  25
ENDBRANCH  23  24
ENDBRANCH  22  23
ENDBRANCH  20  22
ENDBRANCH  19  20
ENDBRANCH   1  19
TORSDOF 27
ENDMDL
MODEL 2
REMARK VINA RESULT:      -6.2      5.678     11.143
REMARK SMILES CC/C=C/C/C=C/C/C=C/C/C=C/CCSCCCC(=O)OCCOCCOC(=O)c1ccc(-c2c3nc(c(-c4c(F)c(F)c(F)c(F)c4F)c4ccc([nH]4)c(-c4c(F)c(F)c(F)c(F)c4F)c4nc(c(-c5c(F)c(F)c(F)c(F)c5F)c5ccc2[nH]5)C=C4)C=C3)cc1
REMARK SMILES IDX 18 1 17 2 16 3 15 4 14 5 13 6 12 7 11 8 10 9 9 10 8 11 7 12
REMARK SMILES IDX 6 13 5 14 4 15 3 16 2 17 1 18 19 19 20 20 21 21 22 22 23 23
REMARK SMILES IDX 24 24 25 25 26 26 27 27 28 28 29 29 30 30 31 31 32 32 93 33
REMARK SMILES IDX 33 34 92 35 34 36 35 37 36 38 86 39 37 40 91 41 85 42 87 43
REMARK SMILES IDX 38 44 90 45 84 46 83 47 39 49 71 50 51 51 70 52 52 53 55 54
REMARK SMILES IDX 69 55 88 56 53 57 54 58 68 60 89 61 56 62 40 63 41 64 49 65
REMARK SMILES IDX 42 66 43 67 47 68 50 69 44 70 45 71 48 72 46 73 72 74 73 75
REMARK SMILES IDX 81 76 74 77 75 78 79 79 82 80 76 81 77 82 80 83 78 84 57 85
REMARK SMILES IDX 58 86 66 87 59 88 60 89 64 90 67 91 61 92 62 93 65 94 63 95
REMARK H PARENT 87 48 55 59
REMARK Flexibility Score: inf
ROOT
ATOM      1  C   UNL A   1      32.343  23.498  25.091  1.00  0.00     0.023 C 
ENDROOT
BRANCH   1   2
ATOM      2  C   UNL A   1      32.262  22.028  25.531  1.00  0.00     0.070 C 
BRANCH   2   3
ATOM      3  S   UNL A   1      33.693  21.142  26.247  1.00  0.00    -0.162 SA
BRANCH   3   4
ATOM      4  C   UNL A   1      34.987  21.083  24.951  1.00  0.00     0.073 C 
BRANCH   4   5
ATOM      5  C   UNL A   1      35.717  22.394  24.596  1.00  0.00     0.038 C 
BRANCH   5   6
ATOM      6  C   UNL A   1      36.632  22.974  25.649  1.00  0.00    -0.030 C 
ATOM      7  C   UNL A   1      37.661  23.819  25.415  1.00  0.00    -0.027 C 
BRANCH   7   8
ATOM      8  C   UNL A   1      38.608  24.439  26.437  1.00  0.00     0.054 C 
BRANCH   8   9
ATOM      9  C   UNL A   1      39.367  23.404  27.239  1.00  0.00    -0.027 C 
ATOM     10  C   UNL A   1      40.285  22.535  26.769  1.00  0.00    -0.027 C 
BRANCH  10  11
ATOM     11  C   UNL A   1      41.065  21.559  27.619  1.00  0.00     0.054 C 
BRANCH  11  12
ATOM     12  C   UNL A   1      41.584  20.443  26.763  1.00  0.00    -0.027 C 
ATOM     13  C   UNL A   1      42.097  19.294  27.228  1.00  0.00    -0.027 C 
BRANCH  13  14
ATOM     14  C   UNL A   1      42.854  18.339  26.352  1.00  0.00     0.054 C 
BRANCH  14  15
ATOM     15  C   UNL A   1      43.960  19.074  25.648  1.00  0.00    -0.027 C 
ATOM     16  C   UNL A   1      45.226  18.637  25.575  1.00  0.00    -0.031 C 
BRANCH  16  17
ATOM     17  C   UNL A   1      46.341  19.419  24.947  1.00  0.00     0.023 C 
ATOM     18  C   UNL A   1      45.876  20.823  24.595  1.00  0.00     0.008 C 
ENDBRANCH  16  17
ENDBRANCH  14  15
ENDBRANCH  13  14
ENDBRANCH  11  12
ENDBRANCH  10  11
ENDBRANCH   8   9
ENDBRANCH   7   8
ENDBRANCH   5   6
ENDBRANCH   4   5
ENDBRANCH   3   4
ENDBRANCH   2   3
ENDBRANCH   1   2
BRANCH   1  19
ATOM     19  C   UNL A   1      32.575  24.576  26.139  1.00  0.00     0.123 C 
BRANCH  19  20
ATOM     20  C   UNL A   1      31.843  25.866  25.920  1.00  0.00     0.305 C 
ATOM     21  O   UNL A   1      31.271  26.438  26.837  1.00  0.00    -0.252 OA
BRANCH  20  22
ATOM     22  O   UNL A   1      31.833  26.251  24.624  1.00  0.00    -0.463 OA
BRANCH  22  23
ATOM     23  C   UNL A   1      32.982  26.916  24.097  1.00  0.00     0.261 C 
BRANCH  23  24
ATOM     24  C   UNL A   1      33.163  28.427  24.286  1.00  0.00     0.202 C 
BRANCH  24  25
ATOM     25  O   UNL A   1      32.092  29.347  24.243  1.00  0.00    -0.374 OA
BRANCH  25  26
ATOM     26  C   UNL A   1      31.457  29.736  25.442  1.00  0.00     0.202 C 
BRANCH  26  27
ATOM     27  C   UNL A   1      32.176  30.733  26.371  1.00  0.00     0.261 C 
BRANCH  27  28
ATOM     28  O   UNL A   1      33.261  30.211  27.165  1.00  0.00    -0.460 OA
BRANCH  28  29
ATOM     29  C   UNL A   1      34.123  31.133  27.654  1.00  0.00     0.338 C 
ATOM     30  O   UNL A   1      33.945  32.342  27.724  1.00  0.00    -0.246 OA
BRANCH  29  31
ATOM     31  C   UNL A   1      35.309  30.476  28.247  1.00  0.00     0.060 A 
ATOM     32  C   UNL A   1      35.452  30.487  29.642  1.00  0.00     0.016 A 
ATOM     33  C   UNL A   1      36.324  29.956  27.443  1.00  0.00     0.016 A 
ATOM     34  C   UNL A   1      36.629  30.025  30.237  1.00  0.00     0.010 A 
ATOM     35  C   UNL A   1      37.516  29.519  28.037  1.00  0.00     0.010 A 
ATOM     36  C   UNL A   1      37.690  29.594  29.433  1.00  0.00    -0.014 A 
BRANCH  36  37
ATOM     37  C   UNL A   1      39.047  29.452  30.022  1.00  0.00     0.031 A 
ATOM     38  C   UNL A   1      39.363  30.231  31.273  1.00  0.00     0.074 A 
ATOM     39  C   UNL A   1      39.972  28.638  29.484  1.00  0.00     0.049 A 
ATOM     40  N   UNL A   1      40.492  30.348  31.924  1.00  0.00    -0.248 NA
ATOM     41  C   UNL A   1      38.246  30.984  31.868  1.00  0.00     0.031 C 
ATOM     42  C   UNL A   1      39.768  27.782  28.318  1.00  0.00     0.029 A 
ATOM     43  N   UNL A   1      41.276  28.410  29.849  1.00  0.00    -0.354 N 
ATOM     44  C   UNL A   1      40.226  31.199  32.990  1.00  0.00     0.074 A 
ATOM     45  C   UNL A   1      38.837  31.587  32.888  1.00  0.00     0.031 C 
ATOM     46  C   UNL A   1      40.915  27.135  28.050  1.00  0.00     0.029 A 
ATOM     47  C   UNL A   1      41.944  27.563  28.998  1.00  0.00     0.049 A 
ATOM     48  H   UNL A   1      41.694  28.816  30.643  1.00  0.00     0.167 HD
ATOM     49  C   UNL A   1      41.066  31.618  33.966  1.00  0.00     0.037 A 
ATOM     50  C   UNL A   1      43.243  27.203  28.974  1.00  0.00     0.037 A 
ATOM     51  C   UNL A   1      42.448  31.226  34.064  1.00  0.00     0.049 A 
ATOM     52  C   UNL A   1      44.180  27.751  30.024  1.00  0.00     0.074 A 
ATOM     53  C   UNL A   1      43.380  31.582  35.022  1.00  0.00     0.029 A 
ATOM     54  N   UNL A   1      43.096  30.393  33.164  1.00  0.00    -0.354 N 
ATOM     55  N   UNL A   1      43.923  28.547  31.033  1.00  0.00    -0.248 NA
ATOM     56  C   UNL A   1      45.591  27.348  29.927  1.00  0.00     0.031 C 
ATOM     57  C   UNL A   1      44.609  31.015  34.667  1.00  0.00     0.029 A 
ATOM     58  C   UNL A   1      44.425  30.249  33.527  1.00  0.00     0.049 A 
ATOM     59  H   UNL A   1      42.674  29.968  32.383  1.00  0.00     0.167 HD
ATOM     60  C   UNL A   1      45.126  28.711  31.710  1.00  0.00     0.074 A 
ATOM     61  C   UNL A   1      46.112  27.922  31.003  1.00  0.00     0.031 C 
ATOM     62  C   UNL A   1      45.391  29.447  32.818  1.00  0.00     0.037 A 
BRANCH  49  63
ATOM     63  C   UNL A   1      40.527  32.582  34.984  1.00  0.00     0.064 A 
ATOM     64  C   UNL A   1      39.789  32.153  36.099  1.00  0.00     0.173 A 
ATOM     65  C   UNL A   1      40.779  33.958  34.858  1.00  0.00     0.173 A 
ATOM     66  F   UNL A   1      39.506  30.851  36.259  1.00  0.00    -0.203 F 
ATOM     67  C   UNL A   1      39.304  33.065  37.033  1.00  0.00     0.198 A 
ATOM     68  C   UNL A   1      40.321  34.862  35.811  1.00  0.00     0.198 A 
ATOM     69  F   UNL A   1      41.481  34.423  33.814  1.00  0.00    -0.203 F 
ATOM     70  F   UNL A   1      38.560  32.636  38.061  1.00  0.00    -0.200 F 
ATOM     71  C   UNL A   1      39.577  34.417  36.893  1.00  0.00     0.200 A 
ATOM     72  F   UNL A   1      40.598  36.168  35.681  1.00  0.00    -0.200 F 
ATOM     73  F   UNL A   1      39.117  35.292  37.797  1.00  0.00    -0.200 F 
ENDBRANCH  49  63
BRANCH  50  74
ATOM     74  C   UNL A   1      43.750  26.295  27.908  1.00  0.00     0.064 A 
ATOM     75  C   UNL A   1      43.662  24.901  28.041  1.00  0.00     0.173 A 
ATOM     76  C   UNL A   1      44.363  26.799  26.752  1.00  0.00     0.173 A 
ATOM     77  F   UNL A   1      43.112  24.367  29.142  1.00  0.00    -0.203 F 
ATOM     78  C   UNL A   1      44.188  24.050  27.071  1.00  0.00     0.198 A 
ATOM     79  C   UNL A   1      44.858  25.946  25.766  1.00  0.00     0.198 A 
ATOM     80  F   UNL A   1      44.481  28.123  26.577  1.00  0.00    -0.203 F 
ATOM     81  F   UNL A   1      44.141  22.723  27.251  1.00  0.00    -0.200 F 
ATOM     82  C   UNL A   1      44.780  24.572  25.931  1.00  0.00     0.200 A 
ATOM     83  F   UNL A   1      45.420  26.457  24.662  1.00  0.00    -0.200 F 
ATOM     84  F   UNL A   1      45.283  23.753  24.999  1.00  0.00    -0.200 F 
ENDBRANCH  50  74
BRANCH  62  85
ATOM     85  C   UNL A   1      46.789  29.394  33.369  1.00  0.00     0.064 A 
ATOM     86  C   UNL A   1      47.787  30.284  32.946  1.00  0.00     0.173 A 
ATOM     87  C   UNL A   1      47.119  28.467  34.370  1.00  0.00     0.173 A 
ATOM     88  F   UNL A   1      47.527  31.183  31.983  1.00  0.00    -0.203 F 
ATOM     89  C   UNL A   1      49.070  30.228  33.483  1.00  0.00     0.198 A 
ATOM     90  C   UNL A   1      48.394  28.437  34.929  1.00  0.00     0.198 A 
ATOM     91  F   UNL A   1      46.200  27.599  34.819  1.00  0.00    -0.203 F 
ATOM     92  F   UNL A   1      50.022  31.053  33.024  1.00  0.00    -0.200 F 
ATOM     93  C   UNL A   1      49.370  29.311  34.478  1.00  0.00     0.200 A 
ATOM     94  F   UNL A   1      48.675  27.563  35.905  1.00  0.00    -0.200 F 
ATOM     95  F   UNL A   1      50.604  29.265  35.001  1.00  0.00    -0.200 F 
ENDBRANCH  62  85
ENDBRANCH  36  37
ENDBRANCH  29  31
ENDBRANCH  28  29
ENDBRANCH  27  28
ENDBRANCH  26  27
ENDBRANCH  25  26
ENDBRANCH  24  25
ENDBRANCH  23  24
ENDBRANCH  22  23
ENDBRANCH  20  22
ENDBRANCH  19  20
ENDBRANCH   1  19
TORSDOF 27
ENDMDL
MODEL 3
REMARK VINA RESULT:      -6.1      2.213      4.643
REMARK SMILES CC/C=C/C/C=C/C/C=C/C/C=C/CCSCCCC(=O)OCCOCCOC(=O)c1ccc(-c2c3nc(c(-c4c(F)c(F)c(F)c(F)c4F)c4ccc([nH]4)c(-c4c(F)c(F)c(F)c(F)c4F)c4nc(c(-c5c(F)c(F)c(F)c(F)c5F)c5ccc2[nH]5)C=C4)C=C3)cc1
REMARK SMILES IDX 18 1 17 2 16 3 15 4 14 5 13 6 12 7 11 8 10 9 9 10 8 11 7 12
REMARK SMILES IDX 6 13 5 14 4 15 3 16 2 17 1 18 19 19 20 20 21 21 22 22 23 23
REMARK SMILES IDX 24 24 25 25 26 26 27 27 28 28 29 29 30 30 31 31 32 32 93 33
REMARK SMILES IDX 33 34 92 35 34 36 35 37 36 38 86 39 37 40 91 41 85 42 87 43
REMARK SMILES IDX 38 44 90 45 84 46 83 47 39 49 71 50 51 51 70 52 52 53 55 54
REMARK SMILES IDX 69 55 88 56 53 57 54 58 68 60 89 61 56 62 40 63 41 64 49 65
REMARK SMILES IDX 42 66 43 67 47 68 50 69 44 70 45 71 48 72 46 73 72 74 73 75
REMARK SMILES IDX 81 76 74 77 75 78 79 79 82 80 76 81 77 82 80 83 78 84 57 85
REMARK SMILES IDX 58 86 66 87 59 88 60 89 64 90 67 91 61 92 62 93 65 94 63 95
REMARK H PARENT 87 48 55 59
REMARK Flexibility Score: inf
ROOT
ATOM      1  C   UNL A   1      39.831  24.447  27.389  1.00  0.00     0.023 C 
ENDROOT
BRANCH   1   2
ATOM      2  C   UNL A   1      39.702  25.970  27.551  1.00  0.00     0.070 C 
BRANCH   2   3
ATOM      3  S   UNL A   1      40.037  26.815  29.137  1.00  0.00    -0.162 SA
BRANCH   3   4
ATOM      4  C   UNL A   1      38.573  27.850  29.512  1.00  0.00     0.073 C 
BRANCH   4   5
ATOM      5  C   UNL A   1      38.122  28.877  28.454  1.00  0.00     0.038 C 
BRANCH   5   6
ATOM      6  C   UNL A   1      36.923  29.730  28.796  1.00  0.00    -0.030 C 
ATOM      7  C   UNL A   1      36.367  30.662  27.989  1.00  0.00    -0.027 C 
BRANCH   7   8
ATOM      8  C   UNL A   1      35.157  31.543  28.279  1.00  0.00     0.054 C 
BRANCH   8   9
ATOM      9  C   UNL A   1      33.929  31.133  27.496  1.00  0.00    -0.027 C 
ATOM     10  C   UNL A   1      33.507  29.874  27.261  1.00  0.00    -0.027 C 
BRANCH  10  11
ATOM     11  C   UNL A   1      32.238  29.511  26.526  1.00  0.00     0.054 C 
BRANCH  11  12
ATOM     12  C   UNL A   1      32.515  28.408  25.550  1.00  0.00    -0.027 C 
ATOM     13  C   UNL A   1      33.572  28.358  24.727  1.00  0.00    -0.027 C 
BRANCH  13  14
ATOM     14  C   UNL A   1      33.657  27.390  23.583  1.00  0.00     0.054 C 
BRANCH  14  15
ATOM     15  C   UNL A   1      32.778  26.203  23.866  1.00  0.00    -0.027 C 
ATOM     16  C   UNL A   1      31.648  25.930  23.199  1.00  0.00    -0.031 C 
BRANCH  16  17
ATOM     17  C   UNL A   1      30.731  24.794  23.545  1.00  0.00     0.023 C 
ATOM     18  C   UNL A   1      30.950  24.352  24.984  1.00  0.00     0.008 C 
ENDBRANCH  16  17
ENDBRANCH  14  15
ENDBRANCH  13  14
ENDBRANCH  11  12
ENDBRANCH  10  11
ENDBRANCH   8   9
ENDBRANCH   7   8
ENDBRANCH   5   6
ENDBRANCH   4   5
ENDBRANCH   3   4
ENDBRANCH   2   3
ENDBRANCH   1   2
BRANCH   1  19
ATOM     19  C   UNL A   1      38.846  23.708  26.495  1.00  0.00     0.123 C 
BRANCH  19  20
ATOM     20  C   UNL A   1      39.127  22.250  26.282  1.00  0.00     0.305 C 
ATOM     21  O   UNL A   1      38.468  21.583  25.496  1.00  0.00    -0.252 OA
BRANCH  20  22
ATOM     22  O   UNL A   1      40.102  21.779  27.091  1.00  0.00    -0.463 OA
BRANCH  22  23
ATOM     23  C   UNL A   1      40.954  20.740  26.604  1.00  0.00     0.261 C 
BRANCH  23  24
ATOM     24  C   UNL A   1      42.369  21.062  26.109  1.00  0.00     0.202 C 
BRANCH  24  25
ATOM     25  O   UNL A   1      42.643  22.041  25.128  1.00  0.00    -0.374 OA
BRANCH  25  26
ATOM     26  C   UNL A   1      43.773  22.876  25.272  1.00  0.00     0.202 C 
BRANCH  26  27
ATOM     27  C   UNL A   1      43.742  23.983  26.342  1.00  0.00     0.261 C 
BRANCH  27  28
ATOM     28  O   UNL A   1      44.097  25.312  25.909  1.00  0.00    -0.460 OA
BRANCH  28  29
ATOM     29  C   UNL A   1      43.061  26.105  25.547  1.00  0.00     0.338 C 
ATOM     30  O   UNL A   1      42.276  25.915  24.626  1.00  0.00    -0.246 OA
BRANCH  29  31
ATOM     31  C   UNL A   1      42.888  27.213  26.513  1.00  0.00     0.060 A 
ATOM     32  C   UNL A   1      42.115  28.319  26.131  1.00  0.00     0.016 A 
ATOM     33  C   UNL A   1      43.566  27.221  27.733  1.00  0.00     0.016 A 
ATOM     34  C   UNL A   1      42.056  29.455  26.940  1.00  0.00     0.010 A 
ATOM     35  C   UNL A   1      43.529  28.371  28.532  1.00  0.00     0.010 A 
ATOM     36  C   UNL A   1      42.811  29.510  28.117  1.00  0.00    -0.014 A 
BRANCH  36  37
ATOM     37  C   UNL A   1      43.042  30.819  28.781  1.00  0.00     0.031 A 
ATOM     38  C   UNL A   1      44.249  31.620  28.370  1.00  0.00     0.074 A 
ATOM     39  C   UNL A   1      42.195  31.303  29.706  1.00  0.00     0.049 A 
ATOM     40  N   UNL A   1      44.717  32.740  28.859  1.00  0.00    -0.248 NA
ATOM     41  C   UNL A   1      45.039  31.078  27.252  1.00  0.00     0.031 C 
ATOM     42  C   UNL A   1      40.959  30.657  30.141  1.00  0.00     0.029 A 
ATOM     43  N   UNL A   1      42.260  32.452  30.457  1.00  0.00    -0.354 N 
ATOM     44  C   UNL A   1      45.861  33.024  28.123  1.00  0.00     0.074 A 
ATOM     45  C   UNL A   1      46.031  31.951  27.170  1.00  0.00     0.031 C 
ATOM     46  C   UNL A   1      40.389  31.411  31.097  1.00  0.00     0.029 A 
ATOM     47  C   UNL A   1      41.241  32.568  31.371  1.00  0.00     0.049 A 
ATOM     48  H   UNL A   1      42.968  33.127  30.350  1.00  0.00     0.167 HD
ATOM     49  C   UNL A   1      46.694  34.087  28.233  1.00  0.00     0.037 A 
ATOM     50  C   UNL A   1      41.042  33.488  32.336  1.00  0.00     0.037 A 
ATOM     51  C   UNL A   1      46.518  35.155  29.181  1.00  0.00     0.049 A 
ATOM     52  C   UNL A   1      42.031  34.617  32.495  1.00  0.00     0.074 A 
ATOM     53  C   UNL A   1      47.297  36.283  29.364  1.00  0.00     0.029 A 
ATOM     54  N   UNL A   1      45.493  35.219  30.114  1.00  0.00    -0.354 N 
ATOM     55  N   UNL A   1      43.105  34.886  31.792  1.00  0.00    -0.248 NA
ATOM     56  C   UNL A   1      41.779  35.572  33.585  1.00  0.00     0.031 C 
ATOM     57  C   UNL A   1      46.779  36.999  30.449  1.00  0.00     0.029 A 
ATOM     58  C   UNL A   1      45.637  36.354  30.896  1.00  0.00     0.049 A 
ATOM     59  H   UNL A   1      44.771  34.557  30.206  1.00  0.00     0.167 HD
ATOM     60  C   UNL A   1      43.634  36.054  32.329  1.00  0.00     0.074 A 
ATOM     61  C   UNL A   1      42.756  36.450  33.410  1.00  0.00     0.031 C 
ATOM     62  C   UNL A   1      44.744  36.739  31.960  1.00  0.00     0.037 A 
BRANCH  49  63
ATOM     63  C   UNL A   1      47.895  34.127  27.331  1.00  0.00     0.064 A 
ATOM     64  C   UNL A   1      47.941  34.940  26.188  1.00  0.00     0.173 A 
ATOM     65  C   UNL A   1      49.032  33.361  27.635  1.00  0.00     0.173 A 
ATOM     66  F   UNL A   1      46.876  35.680  25.843  1.00  0.00    -0.203 F 
ATOM     67  C   UNL A   1      49.068  34.965  25.370  1.00  0.00     0.198 A 
ATOM     68  C   UNL A   1      50.169  33.414  26.833  1.00  0.00     0.198 A 
ATOM     69  F   UNL A   1      49.045  32.569  28.717  1.00  0.00    -0.203 F 
ATOM     70  F   UNL A   1      49.070  35.710  24.256  1.00  0.00    -0.200 F 
ATOM     71  C   UNL A   1      50.184  34.209  25.697  1.00  0.00     0.200 A 
ATOM     72  F   UNL A   1      51.251  32.693  27.160  1.00  0.00    -0.200 F 
ATOM     73  F   UNL A   1      51.271  34.241  24.915  1.00  0.00    -0.200 F 
ENDBRANCH  49  63
BRANCH  50  74
ATOM     74  C   UNL A   1      39.872  33.375  33.250  1.00  0.00     0.064 A 
ATOM     75  C   UNL A   1      38.679  34.068  32.992  1.00  0.00     0.173 A 
ATOM     76  C   UNL A   1      39.931  32.600  34.418  1.00  0.00     0.173 A 
ATOM     77  F   UNL A   1      38.581  34.846  31.904  1.00  0.00    -0.203 F 
ATOM     78  C   UNL A   1      37.604  34.007  33.876  1.00  0.00     0.198 A 
ATOM     79  C   UNL A   1      38.843  32.514  35.285  1.00  0.00     0.198 A 
ATOM     80  F   UNL A   1      41.049  31.923  34.720  1.00  0.00    -0.203 F 
ATOM     81  F   UNL A   1      36.499  34.725  33.632  1.00  0.00    -0.200 F 
ATOM     82  C   UNL A   1      37.683  33.226  35.018  1.00  0.00     0.200 A 
ATOM     83  F   UNL A   1      38.922  31.749  36.383  1.00  0.00    -0.200 F 
ATOM     84  F   UNL A   1      36.648  33.168  35.867  1.00  0.00    -0.200 F 
ENDBRANCH  50  74
BRANCH  62  85
ATOM     85  C   UNL A   1      45.049  38.017  32.693  1.00  0.00     0.064 A 
ATOM     86  C   UNL A   1      44.513  39.249  32.292  1.00  0.00     0.173 A 
ATOM     87  C   UNL A   1      45.854  37.996  33.844  1.00  0.00     0.173 A 
ATOM     88  F   UNL A   1      43.746  39.326  31.193  1.00  0.00    -0.203 F 
ATOM     89  C   UNL A   1      44.795  40.416  32.997  1.00  0.00     0.198 A 
ATOM     90  C   UNL A   1      46.105  39.159  34.566  1.00  0.00     0.198 A 
ATOM     91  F   UNL A   1      46.384  36.842  34.279  1.00  0.00    -0.203 F 
ATOM     92  F   UNL A   1      44.315  41.590  32.563  1.00  0.00    -0.200 F 
ATOM     93  C   UNL A   1      45.583  40.369  34.137  1.00  0.00     0.200 A 
ATOM     94  F   UNL A   1      46.850  39.107  35.678  1.00  0.00    -0.200 F 
ATOM     95  F   UNL A   1      45.845  41.492  34.819  1.00  0.00    -0.200 F 
ENDBRANCH  62  85
ENDBRANCH  36  37
ENDBRANCH  29  31
ENDBRANCH  28  29
ENDBRANCH  27  28
ENDBRANCH  26  27
ENDBRANCH  25  26
ENDBRANCH  24  25
ENDBRANCH  23  24
ENDBRANCH  22  23
ENDBRANCH  20  22
ENDBRANCH  19  20
ENDBRANCH   1  19
TORSDOF 27
ENDMDL
