MODEL 1
REMARK VINA RESULT:     -12.5      0.000      0.000
REMARK SMILES Cc1cc(C)n(-c2nc(C)c(C)c(Oc3cccc(C(=O)OCCOCCOC(=O)c4ccc(-c5c6nc(c(-c7c(F)c(F)c(F)c(F)c7F)c7ccc([nH]7)c(-c7c(F)c(F)c(F)c(F)c7F)c7nc(c(-c8c(F)c(F)c(F)c(F)c8F)c8ccc5[nH]8)C=C7)C=C6)cc4)c3)n2)n1
REMARK SMILES IDX 24 1 23 2 22 3 20 4 21 5 19 6 15 7 16 8 94 9 17 10 18 11
REMARK SMILES IDX 14 12 13 13 7 14 8 15 95 16 9 17 10 18 11 19 12 20 6 21 1 22
REMARK SMILES IDX 2 23 3 24 96 25 4 26 5 27 25 28 26 29 27 30 28 31 29 32
REMARK SMILES IDX 30 33 31 34 32 35 93 36 33 37 92 38 34 39 35 40 36 41 86 42
REMARK SMILES IDX 37 43 91 44 85 45 87 46 38 47 90 48 84 49 83 50 39 52 71 53
REMARK SMILES IDX 51 54 70 55 52 56 55 57 69 58 88 59 53 60 54 61 68 63 89 64
REMARK SMILES IDX 56 65 40 66 41 67 49 68 42 69 43 70 47 71 50 72 44 73 45 74
REMARK SMILES IDX 48 75 46 76 72 77 73 78 81 79 74 80 75 81 79 82 82 83 76 84
REMARK SMILES IDX 77 85 80 86 78 87 57 88 58 89 66 90 59 91 60 92 64 93 67 94
REMARK SMILES IDX 61 95 62 96 65 97 63 98
REMARK H PARENT 87 51 55 62
REMARK Flexibility Score: inf
ROOT
ATOM      1  C   UNL A   1      32.828  28.812  24.667  1.00  0.00     0.202 C 
ENDROOT
BRANCH   1   2
ATOM      2  C   UNL A   1      33.034  28.764  23.150  1.00  0.00     0.261 C 
BRANCH   2   3
ATOM      3  O   UNL A   1      32.250  27.740  22.513  1.00  0.00    -0.460 OA
BRANCH   3   4
ATOM      4  C   UNL A   1      32.924  26.582  22.291  1.00  0.00     0.338 C 
ATOM      5  O   UNL A   1      33.656  26.335  21.347  1.00  0.00    -0.246 OA
BRANCH   4   6
ATOM      6  C   UNL A   1      32.836  25.701  23.474  1.00  0.00     0.063 A 
ATOM      7  C   UNL A   1      33.833  24.446  25.269  1.00  0.00     0.130 A 
ATOM      8  C   UNL A   1      32.568  24.221  25.819  1.00  0.00     0.047 A 
ATOM      9  C   UNL A   1      33.965  25.119  24.049  1.00  0.00     0.062 A 
ATOM     10  C   UNL A   1      31.433  24.742  25.202  1.00  0.00     0.005 A 
ATOM     11  C   UNL A   1      31.570  25.506  24.046  1.00  0.00     0.016 A 
BRANCH   7  12
ATOM     12  O   UNL A   1      34.897  23.946  25.984  1.00  0.00    -0.439 OA
BRANCH  12  13
ATOM     13  C   UNL A   1      35.450  22.727  25.591  1.00  0.00     0.227 A 
ATOM     14  C   UNL A   1      35.177  20.542  24.981  1.00  0.00     0.254 A 
ATOM     15  N   UNL A   1      36.486  20.274  25.169  1.00  0.00    -0.216 NA
ATOM     16  N   UNL A   1      34.636  21.757  25.139  1.00  0.00    -0.175 NA
ATOM     17  C   UNL A   1      37.305  21.313  25.448  1.00  0.00     0.050 A 
ATOM     18  C   UNL A   1      38.769  20.984  25.379  1.00  0.00     0.067 C 
ATOM     19  C   UNL A   1      36.824  22.587  25.718  1.00  0.00     0.033 A 
ATOM     20  C   UNL A   1      37.718  23.729  26.086  1.00  0.00     0.052 C 
BRANCH  14  21
ATOM     21  N   UNL A   1      34.308  19.456  24.628  1.00  0.00    -0.203 N 
ATOM     22  C   UNL A   1      33.682  15.956  24.607  1.00  0.00     0.069 C 
ATOM     23  C   UNL A   1      33.634  17.432  24.480  1.00  0.00     0.060 A 
ATOM     24  C   UNL A   1      32.510  18.238  24.208  1.00  0.00     0.049 A 
ATOM     25  N   UNL A   1      34.745  18.163  24.624  1.00  0.00    -0.170 NA
ATOM     26  C   UNL A   1      32.968  19.535  24.271  1.00  0.00     0.045 A 
ATOM     27  C   UNL A   1      32.283  20.813  23.955  1.00  0.00     0.067 C 
ENDBRANCH  14  21
ENDBRANCH  12  13
ENDBRANCH   7  12
ENDBRANCH   4   6
ENDBRANCH   3   4
ENDBRANCH   2   3
ENDBRANCH   1   2
BRANCH   1  28
ATOM     28  O   UNL A   1      32.140  29.928  25.233  1.00  0.00    -0.374 OA
BRANCH  28  29
ATOM     29  C   UNL A   1      32.595  30.504  26.450  1.00  0.00     0.202 C 
BRANCH  29  30
ATOM     30  C   UNL A   1      34.036  30.260  26.875  1.00  0.00     0.261 C 
BRANCH  30  31
ATOM     31  O   UNL A   1      34.291  30.723  28.189  1.00  0.00    -0.460 OA
BRANCH  31  32
ATOM     32  C   UNL A   1      35.278  31.645  28.255  1.00  0.00     0.338 C 
ATOM     33  O   UNL A   1      35.379  32.679  27.624  1.00  0.00    -0.246 OA
BRANCH  32  34
ATOM     34  C   UNL A   1      36.327  31.131  29.137  1.00  0.00     0.060 A 
ATOM     35  C   UNL A   1      37.443  31.951  29.321  1.00  0.00     0.016 A 
ATOM     36  C   UNL A   1      36.336  29.764  29.451  1.00  0.00     0.016 A 
ATOM     37  C   UNL A   1      38.651  31.349  29.580  1.00  0.00     0.010 A 
ATOM     38  C   UNL A   1      37.543  29.162  29.679  1.00  0.00     0.010 A 
ATOM     39  C   UNL A   1      38.688  29.955  29.642  1.00  0.00    -0.014 A 
BRANCH  39  40
ATOM     40  C   UNL A   1      39.973  29.302  29.701  1.00  0.00     0.031 A 
ATOM     41  C   UNL A   1      40.504  29.215  31.077  1.00  0.00     0.074 A 
ATOM     42  C   UNL A   1      40.501  28.724  28.607  1.00  0.00     0.049 A 
ATOM     43  N   UNL A   1      41.566  29.774  31.552  1.00  0.00    -0.248 NA
ATOM     44  C   UNL A   1      39.650  28.575  32.094  1.00  0.00     0.031 C 
ATOM     45  C   UNL A   1      39.884  28.540  27.289  1.00  0.00     0.029 A 
ATOM     46  N   UNL A   1      41.685  28.070  28.479  1.00  0.00    -0.354 N 
ATOM     47  C   UNL A   1      41.613  29.388  32.886  1.00  0.00     0.074 A 
ATOM     48  C   UNL A   1      40.322  28.843  33.211  1.00  0.00     0.031 C 
ATOM     49  C   UNL A   1      40.598  27.635  26.582  1.00  0.00     0.029 A 
ATOM     50  C   UNL A   1      41.778  27.271  27.346  1.00  0.00     0.049 A 
ATOM     51  H   UNL A   1      42.414  28.154  29.134  1.00  0.00     0.167 HD
ATOM     52  C   UNL A   1      42.796  29.277  33.544  1.00  0.00     0.037 A 
ATOM     53  C   UNL A   1      42.720  26.314  27.142  1.00  0.00     0.037 A 
ATOM     54  C   UNL A   1      43.846  29.990  32.871  1.00  0.00     0.049 A 
ATOM     55  C   UNL A   1      43.836  26.598  28.085  1.00  0.00     0.074 A 
ATOM     56  C   UNL A   1      44.061  31.318  32.561  1.00  0.00     0.029 A 
ATOM     57  N   UNL A   1      44.685  29.271  32.057  1.00  0.00    -0.354 N 
ATOM     58  N   UNL A   1      44.613  27.643  27.996  1.00  0.00    -0.248 NA
ATOM     59  C   UNL A   1      43.782  25.971  29.398  1.00  0.00     0.031 C 
ATOM     60  C   UNL A   1      44.670  31.306  31.274  1.00  0.00     0.029 A 
ATOM     61  C   UNL A   1      44.849  29.975  30.893  1.00  0.00     0.049 A 
ATOM     62  H   UNL A   1      45.097  28.401  32.272  1.00  0.00     0.167 HD
ATOM     63  C   UNL A   1      44.810  28.051  29.309  1.00  0.00     0.074 A 
ATOM     64  C   UNL A   1      44.334  26.943  30.131  1.00  0.00     0.031 C 
ATOM     65  C   UNL A   1      45.065  29.359  29.604  1.00  0.00     0.037 A 
BRANCH  52  66
ATOM     66  C   UNL A   1      43.055  28.218  34.577  1.00  0.00     0.064 A 
ATOM     67  C   UNL A   1      43.436  28.594  35.875  1.00  0.00     0.173 A 
ATOM     68  C   UNL A   1      43.201  26.846  34.266  1.00  0.00     0.173 A 
ATOM     69  F   UNL A   1      43.384  29.880  36.254  1.00  0.00    -0.203 F 
ATOM     70  C   UNL A   1      43.953  27.668  36.784  1.00  0.00     0.198 A 
ATOM     71  C   UNL A   1      43.655  25.915  35.193  1.00  0.00     0.198 A 
ATOM     72  F   UNL A   1      43.020  26.374  33.026  1.00  0.00    -0.203 F 
ATOM     73  F   UNL A   1      44.406  28.086  37.973  1.00  0.00    -0.200 F 
ATOM     74  C   UNL A   1      44.057  26.329  36.444  1.00  0.00     0.200 A 
ATOM     75  F   UNL A   1      43.772  24.630  34.833  1.00  0.00    -0.200 F 
ATOM     76  F   UNL A   1      44.591  25.449  37.300  1.00  0.00    -0.200 F 
ENDBRANCH  52  66
BRANCH  53  77
ATOM     77  C   UNL A   1      42.555  24.985  26.500  1.00  0.00     0.064 A 
ATOM     78  C   UNL A   1      43.383  24.597  25.432  1.00  0.00     0.173 A 
ATOM     79  C   UNL A   1      41.795  23.962  27.100  1.00  0.00     0.173 A 
ATOM     80  F   UNL A   1      44.173  25.499  24.831  1.00  0.00    -0.203 F 
ATOM     81  C   UNL A   1      43.475  23.264  25.017  1.00  0.00     0.198 A 
ATOM     82  C   UNL A   1      41.880  22.633  26.679  1.00  0.00     0.198 A 
ATOM     83  F   UNL A   1      41.029  24.207  28.172  1.00  0.00    -0.203 F 
ATOM     84  F   UNL A   1      44.330  22.923  24.043  1.00  0.00    -0.200 F 
ATOM     85  C   UNL A   1      42.732  22.281  25.650  1.00  0.00     0.200 A 
ATOM     86  F   UNL A   1      41.183  21.686  27.325  1.00  0.00    -0.200 F 
ATOM     87  F   UNL A   1      42.869  20.995  25.300  1.00  0.00    -0.200 F 
ENDBRANCH  53  77
BRANCH  65  88
ATOM     88  C   UNL A   1      45.368  30.288  28.459  1.00  0.00     0.064 A 
ATOM     89  C   UNL A   1      44.383  30.939  27.695  1.00  0.00     0.173 A 
ATOM     90  C   UNL A   1      46.700  30.659  28.242  1.00  0.00     0.173 A 
ATOM     91  F   UNL A   1      43.081  30.709  27.909  1.00  0.00    -0.203 F 
ATOM     92  C   UNL A   1      44.724  31.894  26.737  1.00  0.00     0.198 A 
ATOM     93  C   UNL A   1      47.035  31.640  27.313  1.00  0.00     0.198 A 
ATOM     94  F   UNL A   1      47.677  30.110  28.980  1.00  0.00    -0.203 F 
ATOM     95  F   UNL A   1      43.766  32.499  26.019  1.00  0.00    -0.200 F 
ATOM     96  C   UNL A   1      46.049  32.251  26.556  1.00  0.00     0.200 A 
ATOM     97  F   UNL A   1      48.314  32.017  27.177  1.00  0.00    -0.200 F 
ATOM     98  F   UNL A   1      46.374  33.206  25.673  1.00  0.00    -0.200 F 
ENDBRANCH  65  88
ENDBRANCH  39  40
ENDBRANCH  32  34
ENDBRANCH  31  32
ENDBRANCH  30  31
ENDBRANCH  29  30
ENDBRANCH  28  29
ENDBRANCH   1  28
TORSDOF 17
ENDMDL
MODEL 2
REMARK VINA RESULT:     -12.3      3.374      9.018
REMARK SMILES Cc1cc(C)n(-c2nc(C)c(C)c(Oc3cccc(C(=O)OCCOCCOC(=O)c4ccc(-c5c6nc(c(-c7c(F)c(F)c(F)c(F)c7F)c7ccc([nH]7)c(-c7c(F)c(F)c(F)c(F)c7F)c7nc(c(-c8c(F)c(F)c(F)c(F)c8F)c8ccc5[nH]8)C=C7)C=C6)cc4)c3)n2)n1
REMARK SMILES IDX 24 1 23 2 22 3 20 4 21 5 19 6 15 7 16 8 94 9 17 10 18 11
REMARK SMILES IDX 14 12 13 13 7 14 8 15 95 16 9 17 10 18 11 19 12 20 6 21 1 22
REMARK SMILES IDX 2 23 3 24 96 25 4 26 5 27 25 28 26 29 27 30 28 31 29 32
REMARK SMILES IDX 30 33 31 34 32 35 93 36 33 37 92 38 34 39 35 40 36 41 86 42
REMARK SMILES IDX 37 43 91 44 85 45 87 46 38 47 90 48 84 49 83 50 39 52 71 53
REMARK SMILES IDX 51 54 70 55 52 56 55 57 69 58 88 59 53 60 54 61 68 63 89 64
REMARK SMILES IDX 56 65 40 66 41 67 49 68 42 69 43 70 47 71 50 72 44 73 45 74
REMARK SMILES IDX 48 75 46 76 72 77 73 78 81 79 74 80 75 81 79 82 82 83 76 84
REMARK SMILES IDX 77 85 80 86 78 87 57 88 58 89 66 90 59 91 60 92 64 93 67 94
REMARK SMILES IDX 61 95 62 96 65 97 63 98
REMARK H PARENT 87 51 55 62
REMARK Flexibility Score: inf
ROOT
ATOM      1  C   UNL A   1      38.890  19.964  24.882  1.00  0.00     0.202 C 
ENDROOT
BRANCH   1   2
ATOM      2  C   UNL A   1      37.365  19.860  24.966  1.00  0.00     0.261 C 
BRANCH   2   3
ATOM      3  O   UNL A   1      36.700  21.054  24.518  1.00  0.00    -0.460 OA
BRANCH   3   4
ATOM      4  C   UNL A   1      35.605  21.387  25.249  1.00  0.00     0.338 C 
ATOM      5  O   UNL A   1      35.507  21.367  26.465  1.00  0.00    -0.246 OA
BRANCH   4   6
ATOM      6  C   UNL A   1      34.577  22.004  24.383  1.00  0.00     0.063 A 
ATOM      7  C   UNL A   1      33.801  23.746  22.915  1.00  0.00     0.130 A 
ATOM      8  C   UNL A   1      32.672  22.984  22.604  1.00  0.00     0.047 A 
ATOM      9  C   UNL A   1      34.719  23.292  23.870  1.00  0.00     0.062 A 
ATOM     10  C   UNL A   1      32.495  21.726  23.176  1.00  0.00     0.005 A 
ATOM     11  C   UNL A   1      33.462  21.225  24.043  1.00  0.00     0.016 A 
BRANCH   7  12
ATOM     12  O   UNL A   1      33.919  24.945  22.252  1.00  0.00    -0.439 OA
BRANCH  12  13
ATOM     13  C   UNL A   1      33.294  26.070  22.794  1.00  0.00     0.227 A 
ATOM     14  C   UNL A   1      33.055  27.559  24.509  1.00  0.00     0.254 A 
ATOM     15  N   UNL A   1      31.884  28.014  24.017  1.00  0.00    -0.216 NA
ATOM     16  N   UNL A   1      33.803  26.626  23.907  1.00  0.00    -0.175 NA
ATOM     17  C   UNL A   1      31.495  27.560  22.804  1.00  0.00     0.050 A 
ATOM     18  C   UNL A   1      30.334  28.302  22.207  1.00  0.00     0.067 C 
ATOM     19  C   UNL A   1      32.157  26.530  22.149  1.00  0.00     0.033 A 
ATOM     20  C   UNL A   1      31.699  25.981  20.835  1.00  0.00     0.052 C 
BRANCH  14  21
ATOM     21  N   UNL A   1      33.505  28.077  25.769  1.00  0.00    -0.203 N 
ATOM     22  C   UNL A   1      35.954  29.889  27.604  1.00  0.00     0.069 C 
ATOM     23  C   UNL A   1      34.773  29.124  27.136  1.00  0.00     0.060 A 
ATOM     24  C   UNL A   1      33.552  28.927  27.811  1.00  0.00     0.049 A 
ATOM     25  N   UNL A   1      34.786  28.514  25.946  1.00  0.00    -0.170 NA
ATOM     26  C   UNL A   1      32.761  28.220  26.932  1.00  0.00     0.045 A 
ATOM     27  C   UNL A   1      31.418  27.616  27.121  1.00  0.00     0.067 C 
ENDBRANCH  14  21
ENDBRANCH  12  13
ENDBRANCH   7  12
ENDBRANCH   4   6
ENDBRANCH   3   4
ENDBRANCH   2   3
ENDBRANCH   1   2
BRANCH   1  28
ATOM     28  O   UNL A   1      39.684  19.137  25.734  1.00  0.00    -0.374 OA
BRANCH  28  29
ATOM     29  C   UNL A   1      40.822  19.678  26.393  1.00  0.00     0.202 C 
BRANCH  29  30
ATOM     30  C   UNL A   1      41.152  21.149  26.185  1.00  0.00     0.261 C 
BRANCH  30  31
ATOM     31  O   UNL A   1      40.711  21.953  27.265  1.00  0.00    -0.460 OA
BRANCH  31  32
ATOM     32  C   UNL A   1      39.872  22.945  26.894  1.00  0.00     0.338 C 
ATOM     33  O   UNL A   1      38.749  22.843  26.438  1.00  0.00    -0.246 OA
BRANCH  32  34
ATOM     34  C   UNL A   1      40.592  24.216  26.993  1.00  0.00     0.060 A 
ATOM     35  C   UNL A   1      41.534  24.319  28.019  1.00  0.00     0.016 A 
ATOM     36  C   UNL A   1      40.080  25.337  26.324  1.00  0.00     0.016 A 
ATOM     37  C   UNL A   1      41.775  25.562  28.553  1.00  0.00     0.010 A 
ATOM     38  C   UNL A   1      40.296  26.571  26.874  1.00  0.00     0.010 A 
ATOM     39  C   UNL A   1      41.061  26.646  28.036  1.00  0.00    -0.014 A 
BRANCH  39  40
ATOM     40  C   UNL A   1      41.142  27.912  28.721  1.00  0.00     0.031 A 
ATOM     41  C   UNL A   1      42.297  28.722  28.283  1.00  0.00     0.074 A 
ATOM     42  C   UNL A   1      40.155  28.314  29.542  1.00  0.00     0.049 A 
ATOM     43  N   UNL A   1      43.317  29.090  28.984  1.00  0.00    -0.248 NA
ATOM     44  C   UNL A   1      42.421  29.004  26.841  1.00  0.00     0.031 C 
ATOM     45  C   UNL A   1      38.860  27.672  29.789  1.00  0.00     0.029 A 
ATOM     46  N   UNL A   1      40.063  29.464  30.260  1.00  0.00    -0.354 N 
ATOM     47  C   UNL A   1      44.114  29.819  28.110  1.00  0.00     0.074 A 
ATOM     48  C   UNL A   1      43.632  29.554  26.781  1.00  0.00     0.031 C 
ATOM     49  C   UNL A   1      38.036  28.548  30.409  1.00  0.00     0.029 A 
ATOM     50  C   UNL A   1      38.780  29.758  30.708  1.00  0.00     0.049 A 
ATOM     51  H   UNL A   1      40.838  30.041  30.446  1.00  0.00     0.167 HD
ATOM     52  C   UNL A   1      44.925  30.811  28.560  1.00  0.00     0.037 A 
ATOM     53  C   UNL A   1      38.379  30.963  31.186  1.00  0.00     0.037 A 
ATOM     54  C   UNL A   1      45.165  30.699  29.972  1.00  0.00     0.049 A 
ATOM     55  C   UNL A   1      39.610  31.713  31.560  1.00  0.00     0.074 A 
ATOM     56  C   UNL A   1      45.765  29.748  30.773  1.00  0.00     0.029 A 
ATOM     57  N   UNL A   1      44.409  31.478  30.811  1.00  0.00    -0.354 N 
ATOM     58  N   UNL A   1      40.394  31.375  32.547  1.00  0.00    -0.248 NA
ATOM     59  C   UNL A   1      40.220  32.554  30.539  1.00  0.00     0.031 C 
ATOM     60  C   UNL A   1      44.984  29.719  31.964  1.00  0.00     0.029 A 
ATOM     61  C   UNL A   1      43.990  30.692  31.853  1.00  0.00     0.049 A 
ATOM     62  H   UNL A   1      44.203  32.434  30.687  1.00  0.00     0.167 HD
ATOM     63  C   UNL A   1      41.679  31.599  32.073  1.00  0.00     0.074 A 
ATOM     64  C   UNL A   1      41.508  32.392  30.859  1.00  0.00     0.031 C 
ATOM     65  C   UNL A   1      42.735  30.874  32.546  1.00  0.00     0.037 A 
BRANCH  52  66
ATOM     66  C   UNL A   1      45.176  32.071  27.783  1.00  0.00     0.064 A 
ATOM     67  C   UNL A   1      46.433  32.282  27.192  1.00  0.00     0.173 A 
ATOM     68  C   UNL A   1      44.318  33.194  27.821  1.00  0.00     0.173 A 
ATOM     69  F   UNL A   1      47.339  31.295  27.151  1.00  0.00    -0.203 F 
ATOM     70  C   UNL A   1      46.811  33.535  26.703  1.00  0.00     0.198 A 
ATOM     71  C   UNL A   1      44.672  34.423  27.276  1.00  0.00     0.198 A 
ATOM     72  F   UNL A   1      43.155  33.179  28.485  1.00  0.00    -0.203 F 
ATOM     73  F   UNL A   1      48.056  33.722  26.248  1.00  0.00    -0.200 F 
ATOM     74  C   UNL A   1      45.928  34.602  26.741  1.00  0.00     0.200 A 
ATOM     75  F   UNL A   1      43.812  35.448  27.348  1.00  0.00    -0.200 F 
ATOM     76  F   UNL A   1      46.305  35.813  26.311  1.00  0.00    -0.200 F 
ENDBRANCH  52  66
BRANCH  53  77
ATOM     77  C   UNL A   1      37.078  31.649  30.974  1.00  0.00     0.064 A 
ATOM     78  C   UNL A   1      36.151  31.767  32.024  1.00  0.00     0.173 A 
ATOM     79  C   UNL A   1      36.841  32.453  29.842  1.00  0.00     0.173 A 
ATOM     80  F   UNL A   1      36.324  31.069  33.156  1.00  0.00    -0.203 F 
ATOM     81  C   UNL A   1      35.077  32.662  31.961  1.00  0.00     0.198 A 
ATOM     82  C   UNL A   1      35.764  33.339  29.776  1.00  0.00     0.198 A 
ATOM     83  F   UNL A   1      37.702  32.474  28.815  1.00  0.00    -0.203 F 
ATOM     84  F   UNL A   1      34.256  32.798  33.012  1.00  0.00    -0.200 F 
ATOM     85  C   UNL A   1      34.892  33.456  30.842  1.00  0.00     0.200 A 
ATOM     86  F   UNL A   1      35.618  34.129  28.702  1.00  0.00    -0.200 F 
ATOM     87  F   UNL A   1      33.905  34.363  30.807  1.00  0.00    -0.200 F 
ENDBRANCH  53  77
BRANCH  65  88
ATOM     88  C   UNL A   1      42.504  30.011  33.756  1.00  0.00     0.064 A 
ATOM     89  C   UNL A   1      42.000  28.699  33.700  1.00  0.00     0.173 A 
ATOM     90  C   UNL A   1      42.971  30.469  34.994  1.00  0.00     0.173 A 
ATOM     91  F   UNL A   1      41.623  28.156  32.536  1.00  0.00    -0.203 F 
ATOM     92  C   UNL A   1      41.937  27.899  34.840  1.00  0.00     0.198 A 
ATOM     93  C   UNL A   1      42.943  29.655  36.123  1.00  0.00     0.198 A 
ATOM     94  F   UNL A   1      43.513  31.693  35.095  1.00  0.00    -0.203 F 
ATOM     95  F   UNL A   1      41.449  26.652  34.762  1.00  0.00    -0.200 F 
ATOM     96  C   UNL A   1      42.420  28.374  36.048  1.00  0.00     0.200 A 
ATOM     97  F   UNL A   1      43.457  30.102  37.277  1.00  0.00    -0.200 F 
ATOM     98  F   UNL A   1      42.410  27.588  37.134  1.00  0.00    -0.200 F 
ENDBRANCH  65  88
ENDBRANCH  39  40
ENDBRANCH  32  34
ENDBRANCH  31  32
ENDBRANCH  30  31
ENDBRANCH  29  30
ENDBRANCH  28  29
ENDBRANCH   1  28
TORSDOF 17
ENDMDL
MODEL 3
REMARK VINA RESULT:     -12.0      3.770      8.376
REMARK SMILES Cc1cc(C)n(-c2nc(C)c(C)c(Oc3cccc(C(=O)OCCOCCOC(=O)c4ccc(-c5c6nc(c(-c7c(F)c(F)c(F)c(F)c7F)c7ccc([nH]7)c(-c7c(F)c(F)c(F)c(F)c7F)c7nc(c(-c8c(F)c(F)c(F)c(F)c8F)c8ccc5[nH]8)C=C7)C=C6)cc4)c3)n2)n1
REMARK SMILES IDX 24 1 23 2 22 3 20 4 21 5 19 6 15 7 16 8 94 9 17 10 18 11
REMARK SMILES IDX 14 12 13 13 7 14 8 15 95 16 9 17 10 18 11 19 12 20 6 21 1 22
REMARK SMILES IDX 2 23 3 24 96 25 4 26 5 27 25 28 26 29 27 30 28 31 29 32
REMARK SMILES IDX 30 33 31 34 32 35 93 36 33 37 92 38 34 39 35 40 36 41 86 42
REMARK SMILES IDX 37 43 91 44 85 45 87 46 38 47 90 48 84 49 83 50 39 52 71 53
REMARK SMILES IDX 51 54 70 55 52 56 55 57 69 58 88 59 53 60 54 61 68 63 89 64
REMARK SMILES IDX 56 65 40 66 41 67 49 68 42 69 43 70 47 71 50 72 44 73 45 74
REMARK SMILES IDX 48 75 46 76 72 77 73 78 81 79 74 80 75 81 79 82 82 83 76 84
REMARK SMILES IDX 77 85 80 86 78 87 57 88 58 89 66 90 59 91 60 92 64 93 67 94
REMARK SMILES IDX 61 95 62 96 65 97 63 98
REMARK H PARENT 87 51 55 62
REMARK Flexibility Score: inf
ROOT
ATOM      1  C   UNL A   1      41.228  20.460  27.439  1.00  0.00     0.202 C 
ENDROOT
BRANCH   1   2
ATOM      2  C   UNL A   1      40.494  20.591  26.101  1.00  0.00     0.261 C 
BRANCH   2   3
ATOM      3  O   UNL A   1      39.263  21.325  26.210  1.00  0.00    -0.460 OA
BRANCH   3   4
ATOM      4  C   UNL A   1      38.296  20.921  25.345  1.00  0.00     0.338 C 
ATOM      5  O   UNL A   1      38.126  19.791  24.919  1.00  0.00    -0.246 OA
BRANCH   4   6
ATOM      6  C   UNL A   1      37.309  22.002  25.137  1.00  0.00     0.063 A 
ATOM      7  C   UNL A   1      35.209  22.831  24.304  1.00  0.00     0.130 A 
ATOM      8  C   UNL A   1      35.414  24.037  24.979  1.00  0.00     0.047 A 
ATOM      9  C   UNL A   1      36.195  21.838  24.315  1.00  0.00     0.062 A 
ATOM     10  C   UNL A   1      36.564  24.227  25.742  1.00  0.00     0.005 A 
ATOM     11  C   UNL A   1      37.497  23.198  25.844  1.00  0.00     0.016 A 
BRANCH   7  12
ATOM     12  O   UNL A   1      34.015  22.713  23.630  1.00  0.00    -0.439 OA
BRANCH  12  13
ATOM     13  C   UNL A   1      32.878  23.304  24.182  1.00  0.00     0.227 A 
ATOM     14  C   UNL A   1      31.609  25.165  24.565  1.00  0.00     0.254 A 
ATOM     15  N   UNL A   1      30.889  24.539  25.519  1.00  0.00    -0.216 NA
ATOM     16  N   UNL A   1      32.574  24.571  23.851  1.00  0.00    -0.175 NA
ATOM     17  C   UNL A   1      31.101  23.216  25.697  1.00  0.00     0.050 A 
ATOM     18  C   UNL A   1      30.089  22.539  26.576  1.00  0.00     0.067 C 
ATOM     19  C   UNL A   1      32.138  22.538  25.070  1.00  0.00     0.033 A 
ATOM     20  C   UNL A   1      32.417  21.087  25.307  1.00  0.00     0.052 C 
BRANCH  14  21
ATOM     21  N   UNL A   1      31.353  26.557  24.328  1.00  0.00    -0.203 N 
ATOM     22  C   UNL A   1      29.293  29.054  22.856  1.00  0.00     0.069 C 
ATOM     23  C   UNL A   1      30.320  28.278  23.592  1.00  0.00     0.060 A 
ATOM     24  C   UNL A   1      31.230  28.753  24.559  1.00  0.00     0.049 A 
ATOM     25  N   UNL A   1      30.471  26.968  23.371  1.00  0.00    -0.170 NA
ATOM     26  C   UNL A   1      31.911  27.639  24.996  1.00  0.00     0.045 A 
ATOM     27  C   UNL A   1      33.071  27.520  25.914  1.00  0.00     0.067 C 
ENDBRANCH  14  21
ENDBRANCH  12  13
ENDBRANCH   7  12
ENDBRANCH   4   6
ENDBRANCH   3   4
ENDBRANCH   2   3
ENDBRANCH   1   2
BRANCH   1  28
ATOM     28  O   UNL A   1      42.291  21.367  27.732  1.00  0.00    -0.374 OA
BRANCH  28  29
ATOM     29  C   UNL A   1      42.014  22.744  27.951  1.00  0.00     0.202 C 
BRANCH  29  30
ATOM     30  C   UNL A   1      42.391  23.743  26.867  1.00  0.00     0.261 C 
BRANCH  30  31
ATOM     31  O   UNL A   1      41.257  24.387  26.315  1.00  0.00    -0.460 OA
BRANCH  31  32
ATOM     32  C   UNL A   1      41.543  25.562  25.710  1.00  0.00     0.338 C 
ATOM     33  O   UNL A   1      42.344  25.769  24.820  1.00  0.00    -0.246 OA
BRANCH  32  34
ATOM     34  C   UNL A   1      40.818  26.625  26.408  1.00  0.00     0.060 A 
ATOM     35  C   UNL A   1      41.256  27.932  26.180  1.00  0.00     0.016 A 
ATOM     36  C   UNL A   1      39.998  26.283  27.493  1.00  0.00     0.016 A 
ATOM     37  C   UNL A   1      41.086  28.855  27.184  1.00  0.00     0.010 A 
ATOM     38  C   UNL A   1      39.854  27.193  28.505  1.00  0.00     0.010 A 
ATOM     39  C   UNL A   1      40.484  28.429  28.370  1.00  0.00    -0.014 A 
BRANCH  39  40
ATOM     40  C   UNL A   1      40.489  29.321  29.503  1.00  0.00     0.031 A 
ATOM     41  C   UNL A   1      39.315  30.217  29.526  1.00  0.00     0.074 A 
ATOM     42  C   UNL A   1      41.409  29.192  30.476  1.00  0.00     0.049 A 
ATOM     43  N   UNL A   1      39.299  31.504  29.420  1.00  0.00    -0.248 NA
ATOM     44  C   UNL A   1      37.982  29.590  29.478  1.00  0.00     0.031 C 
ATOM     45  C   UNL A   1      42.420  28.141  30.636  1.00  0.00     0.029 A 
ATOM     46  N   UNL A   1      41.563  29.933  31.604  1.00  0.00    -0.354 N 
ATOM     47  C   UNL A   1      37.958  31.857  29.492  1.00  0.00     0.074 A 
ATOM     48  C   UNL A   1      37.195  30.651  29.311  1.00  0.00     0.031 C 
ATOM     49  C   UNL A   1      42.916  28.186  31.894  1.00  0.00     0.029 A 
ATOM     50  C   UNL A   1      42.351  29.334  32.580  1.00  0.00     0.049 A 
ATOM     51  H   UNL A   1      41.149  30.818  31.721  1.00  0.00     0.167 HD
ATOM     52  C   UNL A   1      37.574  33.064  29.982  1.00  0.00     0.037 A 
ATOM     53  C   UNL A   1      42.418  29.728  33.877  1.00  0.00     0.037 A 
ATOM     54  C   UNL A   1      38.660  34.005  29.982  1.00  0.00     0.049 A 
ATOM     55  C   UNL A   1      41.893  31.120  33.935  1.00  0.00     0.074 A 
ATOM     56  C   UNL A   1      39.439  34.574  28.994  1.00  0.00     0.029 A 
ATOM     57  N   UNL A   1      39.344  34.190  31.157  1.00  0.00    -0.354 N 
ATOM     58  N   UNL A   1      42.496  32.146  33.399  1.00  0.00    -0.248 NA
ATOM     59  C   UNL A   1      40.467  31.290  34.174  1.00  0.00     0.031 C 
ATOM     60  C   UNL A   1      40.747  34.657  29.554  1.00  0.00     0.029 A 
ATOM     61  C   UNL A   1      40.684  34.194  30.869  1.00  0.00     0.049 A 
ATOM     62  H   UNL A   1      38.942  34.301  32.051  1.00  0.00     0.167 HD
ATOM     63  C   UNL A   1      41.475  32.913  32.855  1.00  0.00     0.074 A 
ATOM     64  C   UNL A   1      40.244  32.375  33.426  1.00  0.00     0.031 C 
ATOM     65  C   UNL A   1      41.703  33.715  31.774  1.00  0.00     0.037 A 
BRANCH  52  66
ATOM     66  C   UNL A   1      36.327  33.252  30.796  1.00  0.00     0.064 A 
ATOM     67  C   UNL A   1      35.269  34.017  30.279  1.00  0.00     0.173 A 
ATOM     68  C   UNL A   1      36.238  32.931  32.171  1.00  0.00     0.173 A 
ATOM     69  F   UNL A   1      35.282  34.417  28.999  1.00  0.00    -0.203 F 
ATOM     70  C   UNL A   1      34.217  34.452  31.087  1.00  0.00     0.198 A 
ATOM     71  C   UNL A   1      35.157  33.310  32.958  1.00  0.00     0.198 A 
ATOM     72  F   UNL A   1      37.243  32.339  32.829  1.00  0.00    -0.203 F 
ATOM     73  F   UNL A   1      33.285  35.271  30.581  1.00  0.00    -0.200 F 
ATOM     74  C   UNL A   1      34.159  34.094  32.424  1.00  0.00     0.200 A 
ATOM     75  F   UNL A   1      35.137  32.974  34.255  1.00  0.00    -0.200 F 
ATOM     76  F   UNL A   1      33.172  34.546  33.208  1.00  0.00    -0.200 F 
ENDBRANCH  52  66
BRANCH  53  77
ATOM     77  C   UNL A   1      42.521  28.878  35.092  1.00  0.00     0.064 A 
ATOM     78  C   UNL A   1      41.771  27.693  35.203  1.00  0.00     0.173 A 
ATOM     79  C   UNL A   1      43.561  29.046  36.026  1.00  0.00     0.173 A 
ATOM     80  F   UNL A   1      40.790  27.433  34.328  1.00  0.00    -0.203 F 
ATOM     81  C   UNL A   1      42.070  26.721  36.164  1.00  0.00     0.198 A 
ATOM     82  C   UNL A   1      43.852  28.079  36.991  1.00  0.00     0.198 A 
ATOM     83  F   UNL A   1      44.383  30.103  35.964  1.00  0.00    -0.203 F 
ATOM     84  F   UNL A   1      41.380  25.573  36.192  1.00  0.00    -0.200 F 
ATOM     85  C   UNL A   1      43.118  26.910  37.049  1.00  0.00     0.200 A 
ATOM     86  F   UNL A   1      44.893  28.259  37.818  1.00  0.00    -0.200 F 
ATOM     87  F   UNL A   1      43.450  25.951  37.925  1.00  0.00    -0.200 F 
ENDBRANCH  53  77
BRANCH  65  88
ATOM     88  C   UNL A   1      43.131  33.927  31.350  1.00  0.00     0.064 A 
ATOM     89  C   UNL A   1      43.813  33.095  30.445  1.00  0.00     0.173 A 
ATOM     90  C   UNL A   1      43.769  35.110  31.744  1.00  0.00     0.173 A 
ATOM     91  F   UNL A   1      43.233  31.996  29.948  1.00  0.00    -0.203 F 
ATOM     92  C   UNL A   1      45.089  33.419  29.984  1.00  0.00     0.198 A 
ATOM     93  C   UNL A   1      45.027  35.451  31.253  1.00  0.00     0.198 A 
ATOM     94  F   UNL A   1      43.143  35.969  32.563  1.00  0.00    -0.203 F 
ATOM     95  F   UNL A   1      45.720  32.607  29.123  1.00  0.00    -0.200 F 
ATOM     96  C   UNL A   1      45.689  34.603  30.380  1.00  0.00     0.200 A 
ATOM     97  F   UNL A   1      45.580  36.620  31.599  1.00  0.00    -0.200 F 
ATOM     98  F   UNL A   1      46.893  34.942  29.896  1.00  0.00    -0.200 F 
ENDBRANCH  65  88
ENDBRANCH  39  40
ENDBRANCH  32  34
ENDBRANCH  31  32
ENDBRANCH  30  31
ENDBRANCH  29  30
ENDBRANCH  28  29
ENDBRANCH   1  28
TORSDOF 17
ENDMDL
