MODEL 1
REMARK VINA RESULT:     -12.0      0.000      0.000
REMARK SMILES C[C@@H]1[C@H](C(=O)OCCOCCOC(=O)c2ccc(-c3c4nc(c(-c5c(F)c(F)c(F)c(F)c5F)c5ccc([nH]5)c(-c5c(F)c(F)c(F)c(F)c5F)c5nc(c(-c6c(F)c(F)c(F)c(F)c6F)c6ccc3[nH]6)C=C5)C=C4)cc2)CCN1C(=O)c1c(Cl)cccc1[N+](=O)[O-]
REMARK SMILES IDX 8 1 7 2 6 3 4 4 5 5 3 6 1 7 2 8 80 9 78 10 79 11 81 12 82 13
REMARK SMILES IDX 83 14 84 15 89 16 85 17 86 18 88 19 87 20 90 21 91 22 92 23
REMARK SMILES IDX 9 24 10 25 11 26 12 27 13 28 14 29 15 30 16 31 77 32 17 33
REMARK SMILES IDX 76 34 18 35 19 36 20 37 70 38 21 39 75 40 69 41 71 42 22 43
REMARK SMILES IDX 74 44 68 45 67 46 23 48 55 49 35 50 54 51 36 52 39 53 53 54
REMARK SMILES IDX 72 55 37 56 38 57 52 59 73 60 40 61 24 62 25 63 33 64 26 65
REMARK SMILES IDX 27 66 31 67 34 68 28 69 29 70 32 71 30 72 56 73 57 74 65 75
REMARK SMILES IDX 58 76 59 77 63 78 66 79 60 80 61 81 64 82 62 83 41 84 42 85
REMARK SMILES IDX 50 86 43 87 44 88 48 89 51 90 45 91 46 92 49 93 47 94
REMARK H PARENT 71 47 39 58
REMARK Flexibility Score: inf
ROOT
ATOM      1  C   UNL A   1      39.338  21.836  26.230  1.00  0.00     0.202 C 
ENDROOT
BRANCH   1   2
ATOM      2  C   UNL A   1      38.237  21.457  25.232  1.00  0.00     0.261 C 
BRANCH   2   3
ATOM      3  O   UNL A   1      36.934  21.614  25.830  1.00  0.00    -0.463 OA
BRANCH   3   4
ATOM      4  C   UNL A   1      35.947  20.828  25.342  1.00  0.00     0.311 C 
ATOM      5  O   UNL A   1      36.094  19.659  25.006  1.00  0.00    -0.252 OA
BRANCH   4   6
ATOM      6  C   UNL A   1      34.608  21.529  25.259  1.00  0.00     0.123 C 
ATOM      7  C   UNL A   1      35.131  22.966  23.141  1.00  0.00     0.032 C 
ATOM      8  C   UNL A   1      34.425  22.861  24.490  1.00  0.00     0.096 C 
ATOM      9  N   UNL A   1      32.955  22.913  24.300  1.00  0.00    -0.335 N 
ATOM     10  C   UNL A   1      33.517  20.639  24.685  1.00  0.00     0.039 C 
ATOM     11  C   UNL A   1      32.355  21.612  24.577  1.00  0.00     0.121 C 
BRANCH   9  12
ATOM     12  C   UNL A   1      32.093  23.963  24.024  1.00  0.00     0.262 C 
ATOM     13  O   UNL A   1      31.149  23.862  23.241  1.00  0.00    -0.269 OA
BRANCH  12  14
ATOM     14  C   UNL A   1      32.229  25.265  24.691  1.00  0.00     0.136 A 
ATOM     15  C   UNL A   1      32.985  26.267  24.057  1.00  0.00     0.060 A 
ATOM     16  C   UNL A   1      31.821  25.485  26.014  1.00  0.00     0.283 A 
ATOM     17  Cl  UNL A   1      33.610  26.086  22.453  1.00  0.00    -0.083 Cl
ATOM     18  C   UNL A   1      33.276  27.470  24.717  1.00  0.00     0.022 A 
ATOM     19  C   UNL A   1      32.073  26.712  26.658  1.00  0.00     0.086 A 
ATOM     20  C   UNL A   1      32.806  27.700  26.008  1.00  0.00     0.009 A 
BRANCH  16  21
ATOM     21  N   UNL A   1      31.140  24.458  26.797  1.00  0.00     0.063 N 
ATOM     22  O   UNL A   1      29.903  24.420  26.705  1.00  0.00    -0.258 OA
ATOM     23  O   UNL A   1      31.816  23.701  27.499  1.00  0.00    -0.258 OA
ENDBRANCH  16  21
ENDBRANCH  12  14
ENDBRANCH   9  12
ENDBRANCH   4   6
ENDBRANCH   3   4
ENDBRANCH   2   3
ENDBRANCH   1   2
BRANCH   1  24
ATOM     24  O   UNL A   1      40.456  20.950  26.291  1.00  0.00    -0.374 OA
BRANCH  24  25
ATOM     25  C   UNL A   1      41.637  21.426  26.933  1.00  0.00     0.202 C 
BRANCH  25  26
ATOM     26  C   UNL A   1      42.832  21.735  26.021  1.00  0.00     0.261 C 
BRANCH  26  27
ATOM     27  O   UNL A   1      42.506  22.701  25.005  1.00  0.00    -0.460 OA
BRANCH  27  28
ATOM     28  C   UNL A   1      43.257  23.826  25.041  1.00  0.00     0.338 C 
ATOM     29  O   UNL A   1      44.238  24.077  24.354  1.00  0.00    -0.246 OA
BRANCH  28  30
ATOM     30  C   UNL A   1      42.637  24.839  25.918  1.00  0.00     0.060 A 
ATOM     31  C   UNL A   1      43.459  25.882  26.364  1.00  0.00     0.016 A 
ATOM     32  C   UNL A   1      41.313  24.749  26.353  1.00  0.00     0.016 A 
ATOM     33  C   UNL A   1      42.983  26.799  27.299  1.00  0.00     0.010 A 
ATOM     34  C   UNL A   1      40.836  25.672  27.295  1.00  0.00     0.010 A 
ATOM     35  C   UNL A   1      41.682  26.676  27.805  1.00  0.00    -0.014 A 
BRANCH  35  36
ATOM     36  C   UNL A   1      41.274  27.505  28.967  1.00  0.00     0.031 A 
ATOM     37  C   UNL A   1      42.056  27.408  30.251  1.00  0.00     0.074 A 
ATOM     38  C   UNL A   1      40.254  28.376  28.871  1.00  0.00     0.049 A 
ATOM     39  N   UNL A   1      41.876  28.033  31.387  1.00  0.00    -0.248 NA
ATOM     40  C   UNL A   1      43.198  26.481  30.251  1.00  0.00     0.031 C 
ATOM     41  C   UNL A   1      39.444  28.598  27.676  1.00  0.00     0.029 A 
ATOM     42  N   UNL A   1      39.725  29.238  29.801  1.00  0.00    -0.354 N 
ATOM     43  C   UNL A   1      42.874  27.571  32.236  1.00  0.00     0.074 A 
ATOM     44  C   UNL A   1      43.635  26.587  31.497  1.00  0.00     0.031 C 
ATOM     45  C   UNL A   1      38.516  29.532  27.945  1.00  0.00     0.029 A 
ATOM     46  C   UNL A   1      38.643  29.948  29.341  1.00  0.00     0.049 A 
ATOM     47  H   UNL A   1      40.087  29.337  30.712  1.00  0.00     0.167 HD
ATOM     48  C   UNL A   1      43.139  27.941  33.512  1.00  0.00     0.037 A 
ATOM     49  C   UNL A   1      37.835  30.817  29.980  1.00  0.00     0.037 A 
ATOM     50  C   UNL A   1      42.382  28.923  34.247  1.00  0.00     0.049 A 
ATOM     51  C   UNL A   1      38.104  31.153  31.426  1.00  0.00     0.074 A 
ATOM     52  C   UNL A   1      42.587  29.380  35.537  1.00  0.00     0.029 A 
ATOM     53  N   UNL A   1      41.267  29.590  33.759  1.00  0.00    -0.354 N 
ATOM     54  N   UNL A   1      39.068  30.736  32.212  1.00  0.00    -0.248 NA
ATOM     55  C   UNL A   1      37.171  32.089  32.073  1.00  0.00     0.031 C 
ATOM     56  C   UNL A   1      41.560  30.276  35.853  1.00  0.00     0.029 A 
ATOM     57  C   UNL A   1      40.755  30.431  34.736  1.00  0.00     0.049 A 
ATOM     58  H   UNL A   1      40.895  29.481  32.854  1.00  0.00     0.167 HD
ATOM     59  C   UNL A   1      38.878  31.380  33.428  1.00  0.00     0.074 A 
ATOM     60  C   UNL A   1      37.716  32.229  33.273  1.00  0.00     0.031 C 
ATOM     61  C   UNL A   1      39.602  31.280  34.570  1.00  0.00     0.037 A 
BRANCH  48  62
ATOM     62  C   UNL A   1      44.282  27.263  34.211  1.00  0.00     0.064 A 
ATOM     63  C   UNL A   1      45.571  27.817  34.232  1.00  0.00     0.173 A 
ATOM     64  C   UNL A   1      44.075  26.062  34.906  1.00  0.00     0.173 A 
ATOM     65  F   UNL A   1      45.827  28.957  33.573  1.00  0.00    -0.203 F 
ATOM     66  C   UNL A   1      46.615  27.179  34.898  1.00  0.00     0.198 A 
ATOM     67  C   UNL A   1      45.112  25.444  35.599  1.00  0.00     0.198 A 
ATOM     68  F   UNL A   1      42.860  25.491  34.924  1.00  0.00    -0.203 F 
ATOM     69  F   UNL A   1      47.849  27.702  34.864  1.00  0.00    -0.200 F 
ATOM     70  C   UNL A   1      46.383  25.999  35.588  1.00  0.00     0.200 A 
ATOM     71  F   UNL A   1      44.882  24.312  36.278  1.00  0.00    -0.200 F 
ATOM     72  F   UNL A   1      47.386  25.392  36.237  1.00  0.00    -0.200 F 
ENDBRANCH  48  62
BRANCH  49  73
ATOM     73  C   UNL A   1      36.682  31.426  29.265  1.00  0.00     0.064 A 
ATOM     74  C   UNL A   1      36.669  32.790  28.940  1.00  0.00     0.173 A 
ATOM     75  C   UNL A   1      35.558  30.662  28.918  1.00  0.00     0.173 A 
ATOM     76  F   UNL A   1      37.707  33.569  29.273  1.00  0.00    -0.203 F 
ATOM     77  C   UNL A   1      35.565  33.369  28.317  1.00  0.00     0.198 A 
ATOM     78  C   UNL A   1      34.469  31.236  28.266  1.00  0.00     0.198 A 
ATOM     79  F   UNL A   1      35.519  29.354  29.210  1.00  0.00    -0.203 F 
ATOM     80  F   UNL A   1      35.554  34.687  28.068  1.00  0.00    -0.200 F 
ATOM     81  C   UNL A   1      34.469  32.592  27.975  1.00  0.00     0.200 A 
ATOM     82  F   UNL A   1      33.418  30.478  27.926  1.00  0.00    -0.200 F 
ATOM     83  F   UNL A   1      33.409  33.150  27.375  1.00  0.00    -0.200 F 
ENDBRANCH  49  73
BRANCH  61  84
ATOM     84  C   UNL A   1      39.193  32.141  35.732  1.00  0.00     0.064 A 
ATOM     85  C   UNL A   1      38.319  31.677  36.728  1.00  0.00     0.173 A 
ATOM     86  C   UNL A   1      39.714  33.437  35.873  1.00  0.00     0.173 A 
ATOM     87  F   UNL A   1      37.781  30.451  36.636  1.00  0.00    -0.203 F 
ATOM     88  C   UNL A   1      37.959  32.488  37.801  1.00  0.00     0.198 A 
ATOM     89  C   UNL A   1      39.380  34.232  36.966  1.00  0.00     0.198 A 
ATOM     90  F   UNL A   1      40.561  33.928  34.957  1.00  0.00    -0.203 F 
ATOM     91  F   UNL A   1      37.081  32.043  38.711  1.00  0.00    -0.200 F 
ATOM     92  C   UNL A   1      38.497  33.761  37.924  1.00  0.00     0.200 A 
ATOM     93  F   UNL A   1      39.915  35.454  37.092  1.00  0.00    -0.200 F 
ATOM     94  F   UNL A   1      38.156  34.536  38.963  1.00  0.00    -0.200 F 
ENDBRANCH  61  84
ENDBRANCH  35  36
ENDBRANCH  28  30
ENDBRANCH  27  28
ENDBRANCH  26  27
ENDBRANCH  25  26
ENDBRANCH  24  25
ENDBRANCH   1  24
TORSDOF 17
ENDMDL
MODEL 2
REMARK VINA RESULT:     -11.9      2.936      8.505
REMARK SMILES C[C@@H]1[C@H](C(=O)OCCOCCOC(=O)c2ccc(-c3c4nc(c(-c5c(F)c(F)c(F)c(F)c5F)c5ccc([nH]5)c(-c5c(F)c(F)c(F)c(F)c5F)c5nc(c(-c6c(F)c(F)c(F)c(F)c6F)c6ccc3[nH]6)C=C5)C=C4)cc2)CCN1C(=O)c1c(Cl)cccc1[N+](=O)[O-]
REMARK SMILES IDX 8 1 7 2 6 3 4 4 5 5 3 6 1 7 2 8 80 9 78 10 79 11 81 12 82 13
REMARK SMILES IDX 83 14 84 15 89 16 85 17 86 18 88 19 87 20 90 21 91 22 92 23
REMARK SMILES IDX 9 24 10 25 11 26 12 27 13 28 14 29 15 30 16 31 77 32 17 33
REMARK SMILES IDX 76 34 18 35 19 36 20 37 70 38 21 39 75 40 69 41 71 42 22 43
REMARK SMILES IDX 74 44 68 45 67 46 23 48 55 49 35 50 54 51 36 52 39 53 53 54
REMARK SMILES IDX 72 55 37 56 38 57 52 59 73 60 40 61 24 62 25 63 33 64 26 65
REMARK SMILES IDX 27 66 31 67 34 68 28 69 29 70 32 71 30 72 56 73 57 74 65 75
REMARK SMILES IDX 58 76 59 77 63 78 66 79 60 80 61 81 64 82 62 83 41 84 42 85
REMARK SMILES IDX 50 86 43 87 44 88 48 89 51 90 45 91 46 92 49 93 47 94
REMARK H PARENT 71 47 39 58
REMARK Flexibility Score: inf
ROOT
ATOM      1  C   UNL A   1      32.573  29.573  26.092  1.00  0.00     0.202 C 
ENDROOT
BRANCH   1   2
ATOM      2  C   UNL A   1      31.650  29.292  24.900  1.00  0.00     0.261 C 
BRANCH   2   3
ATOM      3  O   UNL A   1      31.102  27.961  24.986  1.00  0.00    -0.463 OA
BRANCH   3   4
ATOM      4  C   UNL A   1      30.799  27.355  23.816  1.00  0.00     0.311 C 
ATOM      5  O   UNL A   1      29.759  27.533  23.192  1.00  0.00    -0.252 OA
BRANCH   4   6
ATOM      6  C   UNL A   1      31.887  26.425  23.322  1.00  0.00     0.123 C 
ATOM      7  C   UNL A   1      31.167  24.329  24.707  1.00  0.00     0.032 C 
ATOM      8  C   UNL A   1      32.302  25.156  24.110  1.00  0.00     0.096 C 
ATOM      9  N   UNL A   1      33.017  24.368  23.077  1.00  0.00    -0.335 N 
ATOM     10  C   UNL A   1      31.614  25.896  21.923  1.00  0.00     0.039 C 
ATOM     11  C   UNL A   1      32.750  24.902  21.745  1.00  0.00     0.121 C 
BRANCH   9  12
ATOM     12  C   UNL A   1      33.933  23.331  23.172  1.00  0.00     0.262 C 
ATOM     13  O   UNL A   1      35.036  23.365  22.627  1.00  0.00    -0.269 OA
BRANCH  12  14
ATOM     14  C   UNL A   1      33.657  22.131  23.974  1.00  0.00     0.136 A 
ATOM     15  C   UNL A   1      32.724  21.200  23.485  1.00  0.00     0.060 A 
ATOM     16  C   UNL A   1      34.117  21.977  25.289  1.00  0.00     0.283 A 
ATOM     17  Cl  UNL A   1      32.026  21.322  21.906  1.00  0.00    -0.083 Cl
ATOM     18  C   UNL A   1      32.309  20.120  24.277  1.00  0.00     0.022 A 
ATOM     19  C   UNL A   1      33.735  20.866  26.066  1.00  0.00     0.086 A 
ATOM     20  C   UNL A   1      32.826  19.943  25.559  1.00  0.00     0.009 A 
BRANCH  16  21
ATOM     21  N   UNL A   1      34.988  22.959  25.927  1.00  0.00     0.063 N 
ATOM     22  O   UNL A   1      34.429  23.888  26.530  1.00  0.00    -0.258 OA
ATOM     23  O   UNL A   1      36.210  22.820  25.830  1.00  0.00    -0.258 OA
ENDBRANCH  16  21
ENDBRANCH  12  14
ENDBRANCH   9  12
ENDBRANCH   4   6
ENDBRANCH   3   4
ENDBRANCH   2   3
ENDBRANCH   1   2
BRANCH   1  24
ATOM     24  O   UNL A   1      32.113  30.560  27.016  1.00  0.00    -0.374 OA
BRANCH  24  25
ATOM     25  C   UNL A   1      31.433  31.693  26.481  1.00  0.00     0.202 C 
BRANCH  25  26
ATOM     26  C   UNL A   1      31.991  33.070  26.868  1.00  0.00     0.261 C 
BRANCH  26  27
ATOM     27  O   UNL A   1      32.843  33.005  28.027  1.00  0.00    -0.460 OA
BRANCH  27  28
ATOM     28  C   UNL A   1      33.929  33.810  27.968  1.00  0.00     0.338 C 
ATOM     29  O   UNL A   1      33.937  35.021  27.801  1.00  0.00    -0.246 OA
BRANCH  28  30
ATOM     30  C   UNL A   1      35.153  33.060  28.317  1.00  0.00     0.060 A 
ATOM     31  C   UNL A   1      34.991  31.721  28.693  1.00  0.00     0.016 A 
ATOM     32  C   UNL A   1      36.417  33.653  28.345  1.00  0.00     0.016 A 
ATOM     33  C   UNL A   1      36.079  30.988  29.164  1.00  0.00     0.010 A 
ATOM     34  C   UNL A   1      37.510  32.915  28.820  1.00  0.00     0.010 A 
ATOM     35  C   UNL A   1      37.339  31.593  29.272  1.00  0.00    -0.014 A 
BRANCH  35  36
ATOM     36  C   UNL A   1      38.424  30.883  29.995  1.00  0.00     0.031 A 
ATOM     37  C   UNL A   1      38.660  31.188  31.451  1.00  0.00     0.074 A 
ATOM     38  C   UNL A   1      39.159  29.937  29.383  1.00  0.00     0.049 A 
ATOM     39  N   UNL A   1      39.550  30.692  32.273  1.00  0.00    -0.248 NA
ATOM     40  C   UNL A   1      37.769  32.186  32.062  1.00  0.00     0.031 C 
ATOM     41  C   UNL A   1      39.004  29.517  27.993  1.00  0.00     0.029 A 
ATOM     42  N   UNL A   1      40.186  29.158  29.858  1.00  0.00    -0.354 N 
ATOM     43  C   UNL A   1      39.331  31.322  33.492  1.00  0.00     0.074 A 
ATOM     44  C   UNL A   1      38.248  32.261  33.295  1.00  0.00     0.031 C 
ATOM     45  C   UNL A   1      39.908  28.559  27.724  1.00  0.00     0.029 A 
ATOM     46  C   UNL A   1      40.727  28.323  28.912  1.00  0.00     0.049 A 
ATOM     47  H   UNL A   1      40.504  29.195  30.790  1.00  0.00     0.167 HD
ATOM     48  C   UNL A   1      39.967  31.127  34.672  1.00  0.00     0.037 A 
ATOM     49  C   UNL A   1      41.778  27.483  28.989  1.00  0.00     0.037 A 
ATOM     50  C   UNL A   1      41.044  30.190  34.870  1.00  0.00     0.049 A 
ATOM     51  C   UNL A   1      42.520  27.343  30.294  1.00  0.00     0.074 A 
ATOM     52  C   UNL A   1      41.737  29.907  36.034  1.00  0.00     0.029 A 
ATOM     53  N   UNL A   1      41.592  29.393  33.876  1.00  0.00    -0.354 N 
ATOM     54  N   UNL A   1      42.288  27.917  31.449  1.00  0.00    -0.248 NA
ATOM     55  C   UNL A   1      43.672  26.428  30.305  1.00  0.00     0.031 C 
ATOM     56  C   UNL A   1      42.745  28.985  35.731  1.00  0.00     0.029 A 
ATOM     57  C   UNL A   1      42.636  28.641  34.394  1.00  0.00     0.049 A 
ATOM     58  H   UNL A   1      41.285  29.365  32.941  1.00  0.00     0.167 HD
ATOM     59  C   UNL A   1      43.237  27.412  32.328  1.00  0.00     0.074 A 
ATOM     60  C   UNL A   1      44.041  26.472  31.577  1.00  0.00     0.031 C 
ATOM     61  C   UNL A   1      43.425  27.700  33.640  1.00  0.00     0.037 A 
BRANCH  48  62
ATOM     62  C   UNL A   1      39.535  31.963  35.844  1.00  0.00     0.064 A 
ATOM     63  C   UNL A   1      40.120  33.208  36.121  1.00  0.00     0.173 A 
ATOM     64  C   UNL A   1      38.491  31.531  36.675  1.00  0.00     0.173 A 
ATOM     65  F   UNL A   1      41.131  33.663  35.365  1.00  0.00    -0.203 F 
ATOM     66  C   UNL A   1      39.696  33.974  37.203  1.00  0.00     0.198 A 
ATOM     67  C   UNL A   1      38.046  32.315  37.736  1.00  0.00     0.198 A 
ATOM     68  F   UNL A   1      37.892  30.351  36.452  1.00  0.00    -0.203 F 
ATOM     69  F   UNL A   1      40.303  35.138  37.479  1.00  0.00    -0.200 F 
ATOM     70  C   UNL A   1      38.654  33.532  38.004  1.00  0.00     0.200 A 
ATOM     71  F   UNL A   1      37.029  31.892  38.500  1.00  0.00    -0.200 F 
ATOM     72  F   UNL A   1      38.240  34.275  39.040  1.00  0.00    -0.200 F 
ENDBRANCH  48  62
BRANCH  49  73
ATOM     73  C   UNL A   1      42.205  26.713  27.790  1.00  0.00     0.064 A 
ATOM     74  C   UNL A   1      41.683  25.440  27.521  1.00  0.00     0.173 A 
ATOM     75  C   UNL A   1      43.167  27.223  26.905  1.00  0.00     0.173 A 
ATOM     76  F   UNL A   1      40.780  24.897  28.350  1.00  0.00    -0.203 F 
ATOM     77  C   UNL A   1      42.123  24.698  26.426  1.00  0.00     0.198 A 
ATOM     78  C   UNL A   1      43.582  26.494  25.793  1.00  0.00     0.198 A 
ATOM     79  F   UNL A   1      43.702  28.434  27.118  1.00  0.00    -0.203 F 
ATOM     80  F   UNL A   1      41.648  23.461  26.224  1.00  0.00    -0.200 F 
ATOM     81  C   UNL A   1      43.068  25.228  25.560  1.00  0.00     0.200 A 
ATOM     82  F   UNL A   1      44.485  27.015  24.951  1.00  0.00    -0.200 F 
ATOM     83  F   UNL A   1      43.490  24.514  24.508  1.00  0.00    -0.200 F 
ENDBRANCH  49  73
BRANCH  61  84
ATOM     84  C   UNL A   1      44.512  26.958  34.366  1.00  0.00     0.064 A 
ATOM     85  C   UNL A   1      44.290  25.704  34.956  1.00  0.00     0.173 A 
ATOM     86  C   UNL A   1      45.809  27.492  34.439  1.00  0.00     0.173 A 
ATOM     87  F   UNL A   1      43.067  25.153  34.928  1.00  0.00    -0.203 F 
ATOM     88  C   UNL A   1      45.313  25.029  35.617  1.00  0.00     0.198 A 
ATOM     89  C   UNL A   1      46.839  26.799  35.069  1.00  0.00     0.198 A 
ATOM     90  F   UNL A   1      46.082  28.683  33.885  1.00  0.00    -0.203 F 
ATOM     91  F   UNL A   1      45.063  23.859  36.220  1.00  0.00    -0.200 F 
ATOM     92  C   UNL A   1      46.589  25.573  35.665  1.00  0.00     0.200 A 
ATOM     93  F   UNL A   1      48.074  27.318  35.098  1.00  0.00    -0.200 F 
ATOM     94  F   UNL A   1      47.575  24.918  36.294  1.00  0.00    -0.200 F 
ENDBRANCH  61  84
ENDBRANCH  35  36
ENDBRANCH  28  30
ENDBRANCH  27  28
ENDBRANCH  26  27
ENDBRANCH  25  26
ENDBRANCH  24  25
ENDBRANCH   1  24
TORSDOF 17
ENDMDL
MODEL 3
REMARK VINA RESULT:     -11.8      2.829      8.539
REMARK SMILES C[C@@H]1[C@H](C(=O)OCCOCCOC(=O)c2ccc(-c3c4nc(c(-c5c(F)c(F)c(F)c(F)c5F)c5ccc([nH]5)c(-c5c(F)c(F)c(F)c(F)c5F)c5nc(c(-c6c(F)c(F)c(F)c(F)c6F)c6ccc3[nH]6)C=C5)C=C4)cc2)CCN1C(=O)c1c(Cl)cccc1[N+](=O)[O-]
REMARK SMILES IDX 8 1 7 2 6 3 4 4 5 5 3 6 1 7 2 8 80 9 78 10 79 11 81 12 82 13
REMARK SMILES IDX 83 14 84 15 89 16 85 17 86 18 88 19 87 20 90 21 91 22 92 23
REMARK SMILES IDX 9 24 10 25 11 26 12 27 13 28 14 29 15 30 16 31 77 32 17 33
REMARK SMILES IDX 76 34 18 35 19 36 20 37 70 38 21 39 75 40 69 41 71 42 22 43
REMARK SMILES IDX 74 44 68 45 67 46 23 48 55 49 35 50 54 51 36 52 39 53 53 54
REMARK SMILES IDX 72 55 37 56 38 57 52 59 73 60 40 61 24 62 25 63 33 64 26 65
REMARK SMILES IDX 27 66 31 67 34 68 28 69 29 70 32 71 30 72 56 73 57 74 65 75
REMARK SMILES IDX 58 76 59 77 63 78 66 79 60 80 61 81 64 82 62 83 41 84 42 85
REMARK SMILES IDX 50 86 43 87 44 88 48 89 51 90 45 91 46 92 49 93 47 94
REMARK H PARENT 71 47 39 58
REMARK Flexibility Score: inf
ROOT
ATOM      1  C   UNL A   1      32.822  29.406  27.067  1.00  0.00     0.202 C 
ENDROOT
BRANCH   1   2
ATOM      2  C   UNL A   1      31.650  28.448  27.314  1.00  0.00     0.261 C 
BRANCH   2   3
ATOM      3  O   UNL A   1      31.226  27.837  26.079  1.00  0.00    -0.463 OA
BRANCH   3   4
ATOM      4  C   UNL A   1      31.013  26.502  26.107  1.00  0.00     0.311 C 
ATOM      5  O   UNL A   1      29.992  25.972  26.530  1.00  0.00    -0.252 OA
BRANCH   4   6
ATOM      6  C   UNL A   1      32.165  25.698  25.544  1.00  0.00     0.123 C 
ATOM      7  C   UNL A   1      30.787  24.360  23.774  1.00  0.00     0.032 C 
ATOM      8  C   UNL A   1      31.943  24.375  24.770  1.00  0.00     0.096 C 
ATOM      9  N   UNL A   1      33.231  24.210  24.055  1.00  0.00    -0.335 N 
ATOM     10  C   UNL A   1      33.042  26.511  24.604  1.00  0.00     0.039 C 
ATOM     11  C   UNL A   1      33.999  25.451  24.085  1.00  0.00     0.121 C 
BRANCH   9  12
ATOM     12  C   UNL A   1      33.843  23.101  23.489  1.00  0.00     0.262 C 
ATOM     13  O   UNL A   1      34.585  23.176  22.512  1.00  0.00    -0.269 OA
BRANCH  12  14
ATOM     14  C   UNL A   1      33.672  21.756  24.057  1.00  0.00     0.136 A 
ATOM     15  C   UNL A   1      32.700  20.910  23.494  1.00  0.00     0.060 A 
ATOM     16  C   UNL A   1      34.280  21.357  25.255  1.00  0.00     0.283 A 
ATOM     17  Cl  UNL A   1      31.826  21.323  22.058  1.00  0.00    -0.083 Cl
ATOM     18  C   UNL A   1      32.389  19.680  24.091  1.00  0.00     0.022 A 
ATOM     19  C   UNL A   1      34.001  20.101  25.829  1.00  0.00     0.086 A 
ATOM     20  C   UNL A   1      33.050  19.268  25.247  1.00  0.00     0.009 A 
BRANCH  16  21
ATOM     21  N   UNL A   1      35.207  22.220  25.980  1.00  0.00     0.063 N 
ATOM     22  O   UNL A   1      36.395  22.182  25.623  1.00  0.00    -0.258 OA
ATOM     23  O   UNL A   1      34.772  22.924  26.895  1.00  0.00    -0.258 OA
ENDBRANCH  16  21
ENDBRANCH  12  14
ENDBRANCH   9  12
ENDBRANCH   4   6
ENDBRANCH   3   4
ENDBRANCH   2   3
ENDBRANCH   1   2
BRANCH   1  24
ATOM     24  O   UNL A   1      32.566  30.485  26.168  1.00  0.00    -0.374 OA
BRANCH  24  25
ATOM     25  C   UNL A   1      31.438  31.313  26.442  1.00  0.00     0.202 C 
BRANCH  25  26
ATOM     26  C   UNL A   1      31.735  32.696  27.039  1.00  0.00     0.261 C 
BRANCH  26  27
ATOM     27  O   UNL A   1      33.116  33.070  26.884  1.00  0.00    -0.460 OA
BRANCH  27  28
ATOM     28  C   UNL A   1      33.677  33.608  27.992  1.00  0.00     0.338 C 
ATOM     29  O   UNL A   1      33.189  34.458  28.723  1.00  0.00    -0.246 OA
BRANCH  28  30
ATOM     30  C   UNL A   1      34.927  32.901  28.339  1.00  0.00     0.060 A 
ATOM     31  C   UNL A   1      34.809  31.569  28.754  1.00  0.00     0.016 A 
ATOM     32  C   UNL A   1      36.175  33.528  28.327  1.00  0.00     0.016 A 
ATOM     33  C   UNL A   1      35.924  30.879  29.224  1.00  0.00     0.010 A 
ATOM     34  C   UNL A   1      37.296  32.833  28.801  1.00  0.00     0.010 A 
ATOM     35  C   UNL A   1      37.168  31.520  29.292  1.00  0.00    -0.014 A 
BRANCH  35  36
ATOM     36  C   UNL A   1      38.286  30.859  30.014  1.00  0.00     0.031 A 
ATOM     37  C   UNL A   1      38.513  31.180  31.468  1.00  0.00     0.074 A 
ATOM     38  C   UNL A   1      39.058  29.943  29.404  1.00  0.00     0.049 A 
ATOM     39  N   UNL A   1      39.426  30.726  32.289  1.00  0.00    -0.248 NA
ATOM     40  C   UNL A   1      37.582  32.142  32.079  1.00  0.00     0.031 C 
ATOM     41  C   UNL A   1      38.916  29.512  28.015  1.00  0.00     0.029 A 
ATOM     42  N   UNL A   1      40.119  29.211  29.878  1.00  0.00    -0.354 N 
ATOM     43  C   UNL A   1      39.185  31.350  33.507  1.00  0.00     0.074 A 
ATOM     44  C   UNL A   1      38.062  32.241  33.309  1.00  0.00     0.031 C 
ATOM     45  C   UNL A   1      39.859  28.592  27.747  1.00  0.00     0.029 A 
ATOM     46  C   UNL A   1      40.692  28.396  28.932  1.00  0.00     0.049 A 
ATOM     47  H   UNL A   1      40.438  29.264  30.808  1.00  0.00     0.167 HD
ATOM     48  C   UNL A   1      39.832  31.187  34.685  1.00  0.00     0.037 A 
ATOM     49  C   UNL A   1      41.777  27.601  29.009  1.00  0.00     0.037 A 
ATOM     50  C   UNL A   1      40.949  30.298  34.883  1.00  0.00     0.049 A 
ATOM     51  C   UNL A   1      42.529  27.498  30.312  1.00  0.00     0.074 A 
ATOM     52  C   UNL A   1      41.657  30.048  36.045  1.00  0.00     0.029 A 
ATOM     53  N   UNL A   1      41.526  29.521  33.889  1.00  0.00    -0.354 N 
ATOM     54  N   UNL A   1      42.276  28.066  31.466  1.00  0.00    -0.248 NA
ATOM     55  C   UNL A   1      43.719  26.633  30.323  1.00  0.00     0.031 C 
ATOM     56  C   UNL A   1      42.702  29.169  35.742  1.00  0.00     0.029 A 
ATOM     57  C   UNL A   1      42.603  28.816  34.407  1.00  0.00     0.049 A 
ATOM     58  H   UNL A   1      41.218  29.476  32.956  1.00  0.00     0.167 HD
ATOM     59  C   UNL A   1      43.249  27.605  32.344  1.00  0.00     0.074 A 
ATOM     60  C   UNL A   1      44.090  26.697  31.594  1.00  0.00     0.031 C 
ATOM     61  C   UNL A   1      43.429  27.906  33.654  1.00  0.00     0.037 A 
BRANCH  48  62
ATOM     62  C   UNL A   1      39.369  32.008  35.855  1.00  0.00     0.064 A 
ATOM     63  C   UNL A   1      38.400  31.537  36.753  1.00  0.00     0.173 A 
ATOM     64  C   UNL A   1      39.934  33.268  36.104  1.00  0.00     0.173 A 
ATOM     65  F   UNL A   1      37.817  30.345  36.555  1.00  0.00    -0.203 F 
ATOM     66  C   UNL A   1      37.994  32.309  37.840  1.00  0.00     0.198 A 
ATOM     67  C   UNL A   1      39.551  34.022  37.209  1.00  0.00     0.198 A 
ATOM     68  F   UNL A   1      40.870  33.765  35.280  1.00  0.00    -0.203 F 
ATOM     69  F   UNL A   1      37.030  31.859  38.657  1.00  0.00    -0.200 F 
ATOM     70  C   UNL A   1      38.575  33.546  38.071  1.00  0.00     0.200 A 
ATOM     71  F   UNL A   1      40.125  35.211  37.440  1.00  0.00    -0.200 F 
ATOM     72  F   UNL A   1      38.191  34.283  39.123  1.00  0.00    -0.200 F 
ENDBRANCH  48  62
BRANCH  49  73
ATOM     73  C   UNL A   1      42.233  26.845  27.812  1.00  0.00     0.064 A 
ATOM     74  C   UNL A   1      41.762  25.552  27.548  1.00  0.00     0.173 A 
ATOM     75  C   UNL A   1      43.171  27.391  26.923  1.00  0.00     0.173 A 
ATOM     76  F   UNL A   1      40.885  24.974  28.381  1.00  0.00    -0.203 F 
ATOM     77  C   UNL A   1      42.231  24.825  26.455  1.00  0.00     0.198 A 
ATOM     78  C   UNL A   1      43.613  26.677  25.812  1.00  0.00     0.198 A 
ATOM     79  F   UNL A   1      43.656  28.624  27.131  1.00  0.00    -0.203 F 
ATOM     80  F   UNL A   1      41.806  23.568  26.257  1.00  0.00    -0.200 F 
ATOM     81  C   UNL A   1      43.151  25.389  25.584  1.00  0.00     0.200 A 
ATOM     82  F   UNL A   1      44.492  27.231  24.967  1.00  0.00    -0.200 F 
ATOM     83  F   UNL A   1      43.599  24.690  24.533  1.00  0.00    -0.200 F 
ENDBRANCH  49  73
BRANCH  61  84
ATOM     84  C   UNL A   1      44.550  27.214  34.379  1.00  0.00     0.064 A 
ATOM     85  C   UNL A   1      44.386  25.948  34.963  1.00  0.00     0.173 A 
ATOM     86  C   UNL A   1      45.819  27.809  34.456  1.00  0.00     0.173 A 
ATOM     87  F   UNL A   1      43.191  25.339  34.931  1.00  0.00    -0.203 F 
ATOM     88  C   UNL A   1      45.439  25.320  35.623  1.00  0.00     0.198 A 
ATOM     89  C   UNL A   1      46.880  27.163  35.085  1.00  0.00     0.198 A 
ATOM     90  F   UNL A   1      46.035  29.013  33.907  1.00  0.00    -0.203 F 
ATOM     91  F   UNL A   1      45.244  24.136  36.221  1.00  0.00    -0.200 F 
ATOM     92  C   UNL A   1      46.688  25.924  35.676  1.00  0.00     0.200 A 
ATOM     93  F   UNL A   1      48.089  27.740  35.119  1.00  0.00    -0.200 F 
ATOM     94  F   UNL A   1      47.703  25.315  36.304  1.00  0.00    -0.200 F 
ENDBRANCH  61  84
ENDBRANCH  35  36
ENDBRANCH  28  30
ENDBRANCH  27  28
ENDBRANCH  26  27
ENDBRANCH  25  26
ENDBRANCH  24  25
ENDBRANCH   1  24
TORSDOF 17
ENDMDL
