MODEL 1
REMARK VINA RESULT:     -10.0      0.000      0.000
REMARK SMILES COC(=O)C[C@H](NC(=O)N(C)C[C@@H]1CCC[N@H+]1C)C(=O)OCCOCCOC(=O)c1ccc(-c2c3nc(c(-c4c(F)c(F)c(F)c(F)c4F)c4ccc([nH]4)c(-c4c(F)c(F)c(F)c(F)c4F)c4nc(c(-c5c(F)c(F)c(F)c(F)c5F)c5ccc2[nH]5)C=C4)C=C3)cc1
REMARK SMILES IDX 23 1 22 2 21 3 19 4 20 5 6 6 5 7 3 8 4 9 2 10 1 11 7 12 8 13
REMARK SMILES IDX 9 15 10 16 11 17 12 18 13 19 14 20 17 21 15 22 16 23 18 24
REMARK SMILES IDX 24 26 25 27 26 28 27 29 28 30 29 31 30 32 31 33 92 34 32 35
REMARK SMILES IDX 91 36 33 37 34 38 35 39 85 40 36 41 90 42 84 43 86 44 37 45
REMARK SMILES IDX 89 46 83 47 82 48 38 50 70 51 50 52 69 53 51 54 54 55 68 56
REMARK SMILES IDX 87 57 52 58 53 59 67 61 88 62 55 63 39 64 40 65 48 66 41 67
REMARK SMILES IDX 42 68 46 69 49 70 43 71 44 72 47 73 45 74 71 75 72 76 80 77
REMARK SMILES IDX 73 78 74 79 78 80 81 81 75 82 76 83 79 84 77 85 56 86 57 87
REMARK SMILES IDX 65 88 58 89 59 90 63 91 66 92 60 93 61 94 64 95 62 96
REMARK H PARENT 7 14 17 25 86 49 54 60
REMARK Flexibility Score: inf
ROOT
ATOM      1  C   UNL A   1      35.253  22.583  26.132  1.00  0.00     0.202 C 
ENDROOT
BRANCH   1   2
ATOM      2  C   UNL A   1      34.243  23.034  27.189  1.00  0.00     0.261 C 
BRANCH   2   3
ATOM      3  O   UNL A   1      32.905  22.618  26.870  1.00  0.00    -0.462 OA
BRANCH   3   4
ATOM      4  C   UNL A   1      32.043  23.627  26.578  1.00  0.00     0.329 C 
ATOM      5  O   UNL A   1      31.416  24.268  27.415  1.00  0.00    -0.250 OA
BRANCH   4   6
ATOM      6  C   UNL A   1      31.918  23.902  25.064  1.00  0.00     0.204 C 
BRANCH   6   7
ATOM      7  C   UNL A   1      31.618  22.695  24.173  1.00  0.00     0.159 C 
BRANCH   7   8
ATOM      8  C   UNL A   1      32.682  22.433  23.134  1.00  0.00     0.308 C 
ATOM      9  O   UNL A   1      33.005  23.238  22.273  1.00  0.00    -0.252 OA
BRANCH   8  10
ATOM     10  O   UNL A   1      33.208  21.188  23.294  1.00  0.00    -0.469 OA
ATOM     11  C   UNL A   1      32.427  20.288  24.092  1.00  0.00     0.282 C 
ENDBRANCH   8  10
ENDBRANCH   7   8
ENDBRANCH   6   7
BRANCH   6  12
ATOM     12  N   UNL A   1      32.867  24.887  24.507  1.00  0.00    -0.324 N 
ATOM     13  C   UNL A   1      33.122  26.197  24.445  1.00  0.00     0.318 C 
ATOM     14  H   UNL A   1      33.561  24.406  24.001  1.00  0.00     0.166 HD
ATOM     15  O   UNL A   1      34.095  26.467  23.731  1.00  0.00    -0.249 OA
BRANCH  13  16
ATOM     16  N   UNL A   1      32.422  27.161  25.103  1.00  0.00    -0.322 N 
ATOM     17  C   UNL A   1      31.303  27.932  24.597  1.00  0.00     0.149 C 
BRANCH  16  18
ATOM     18  C   UNL A   1      32.983  27.627  26.385  1.00  0.00     0.185 C 
BRANCH  18  19
ATOM     19  C   UNL A   1      33.627  29.045  26.461  1.00  0.00     0.203 C 
ATOM     20  C   UNL A   1      35.045  28.871  27.058  1.00  0.00     0.073 C 
ATOM     21  N   UNL A   1      33.032  30.061  27.353  1.00  0.00    -0.333 N 
ATOM     22  C   UNL A   1      35.294  30.065  27.964  1.00  0.00     0.068 C 
ATOM     23  C   UNL A   1      34.118  30.980  27.718  1.00  0.00     0.262 C 
ATOM     24  C   UNL A   1      31.939  30.814  26.748  1.00  0.00     0.333 C 
ATOM     25  H   UNL A   1      32.621  29.587  28.157  1.00  0.00     0.348 HD
ENDBRANCH  18  19
ENDBRANCH  16  18
ENDBRANCH  13  16
ENDBRANCH   6  12
ENDBRANCH   4   6
ENDBRANCH   3   4
ENDBRANCH   2   3
ENDBRANCH   1   2
BRANCH   1  26
ATOM     26  O   UNL A   1      35.526  21.185  26.064  1.00  0.00    -0.374 OA
BRANCH  26  27
ATOM     27  C   UNL A   1      36.186  20.693  24.898  1.00  0.00     0.202 C 
BRANCH  27  28
ATOM     28  C   UNL A   1      37.660  20.296  25.044  1.00  0.00     0.261 C 
BRANCH  28  29
ATOM     29  O   UNL A   1      38.498  21.421  25.359  1.00  0.00    -0.460 OA
BRANCH  29  30
ATOM     30  C   UNL A   1      39.472  21.168  26.260  1.00  0.00     0.338 C 
ATOM     31  O   UNL A   1      40.020  20.095  26.479  1.00  0.00    -0.246 OA
BRANCH  30  32
ATOM     32  C   UNL A   1      39.952  22.423  26.864  1.00  0.00     0.060 A 
ATOM     33  C   UNL A   1      39.392  23.619  26.394  1.00  0.00     0.016 A 
ATOM     34  C   UNL A   1      40.993  22.443  27.794  1.00  0.00     0.016 A 
ATOM     35  C   UNL A   1      39.915  24.842  26.803  1.00  0.00     0.010 A 
ATOM     36  C   UNL A   1      41.524  23.674  28.196  1.00  0.00     0.010 A 
ATOM     37  C   UNL A   1      41.015  24.874  27.670  1.00  0.00    -0.014 A 
BRANCH  37  38
ATOM     38  C   UNL A   1      41.723  26.158  27.892  1.00  0.00     0.031 A 
ATOM     39  C   UNL A   1      41.033  27.246  28.666  1.00  0.00     0.074 A 
ATOM     40  C   UNL A   1      42.979  26.335  27.448  1.00  0.00     0.049 A 
ATOM     41  N   UNL A   1      41.450  28.452  28.961  1.00  0.00    -0.248 NA
ATOM     42  C   UNL A   1      39.690  26.932  29.179  1.00  0.00     0.031 C 
ATOM     43  C   UNL A   1      43.765  25.339  26.724  1.00  0.00     0.029 A 
ATOM     44  N   UNL A   1      43.810  27.424  27.536  1.00  0.00    -0.354 N 
ATOM     45  C   UNL A   1      40.422  29.039  29.687  1.00  0.00     0.074 A 
ATOM     46  C   UNL A   1      39.349  28.071  29.764  1.00  0.00     0.031 C 
ATOM     47  C   UNL A   1      44.965  25.867  26.424  1.00  0.00     0.029 A 
ATOM     48  C   UNL A   1      45.015  27.247  26.905  1.00  0.00     0.049 A 
ATOM     49  H   UNL A   1      43.564  28.252  28.008  1.00  0.00     0.167 HD
ATOM     50  C   UNL A   1      40.382  30.271  30.249  1.00  0.00     0.037 A 
ATOM     51  C   UNL A   1      46.032  28.110  26.717  1.00  0.00     0.037 A 
ATOM     52  C   UNL A   1      41.451  31.232  30.169  1.00  0.00     0.049 A 
ATOM     53  C   UNL A   1      45.934  29.502  27.289  1.00  0.00     0.074 A 
ATOM     54  C   UNL A   1      41.513  32.502  30.715  1.00  0.00     0.029 A 
ATOM     55  N   UNL A   1      42.644  31.029  29.492  1.00  0.00    -0.354 N 
ATOM     56  N   UNL A   1      44.970  30.042  27.993  1.00  0.00    -0.248 NA
ATOM     57  C   UNL A   1      47.070  30.401  27.042  1.00  0.00     0.031 C 
ATOM     58  C   UNL A   1      42.723  33.086  30.325  1.00  0.00     0.029 A 
ATOM     59  C   UNL A   1      43.439  32.160  29.583  1.00  0.00     0.049 A 
ATOM     60  H   UNL A   1      42.890  30.203  29.017  1.00  0.00     0.167 HD
ATOM     61  C   UNL A   1      45.392  31.330  28.298  1.00  0.00     0.074 A 
ATOM     62  C   UNL A   1      46.707  31.487  27.711  1.00  0.00     0.031 C 
ATOM     63  C   UNL A   1      44.749  32.297  28.999  1.00  0.00     0.037 A 
BRANCH  50  64
ATOM     64  C   UNL A   1      39.128  30.660  30.977  1.00  0.00     0.064 A 
ATOM     65  C   UNL A   1      38.985  30.459  32.359  1.00  0.00     0.173 A 
ATOM     66  C   UNL A   1      38.069  31.273  30.290  1.00  0.00     0.173 A 
ATOM     67  F   UNL A   1      39.964  29.867  33.059  1.00  0.00    -0.203 F 
ATOM     68  C   UNL A   1      37.818  30.833  33.020  1.00  0.00     0.198 A 
ATOM     69  C   UNL A   1      36.916  31.671  30.960  1.00  0.00     0.198 A 
ATOM     70  F   UNL A   1      38.157  31.491  28.970  1.00  0.00    -0.203 F 
ATOM     71  F   UNL A   1      37.685  30.591  34.331  1.00  0.00    -0.200 F 
ATOM     72  C   UNL A   1      36.788  31.444  32.322  1.00  0.00     0.200 A 
ATOM     73  F   UNL A   1      35.926  32.273  30.285  1.00  0.00    -0.200 F 
ATOM     74  F   UNL A   1      35.668  31.811  32.960  1.00  0.00    -0.200 F 
ENDBRANCH  50  64
BRANCH  51  75
ATOM     75  C   UNL A   1      47.226  27.690  25.941  1.00  0.00     0.064 A 
ATOM     76  C   UNL A   1      47.248  27.772  24.541  1.00  0.00     0.173 A 
ATOM     77  C   UNL A   1      48.367  27.185  26.583  1.00  0.00     0.173 A 
ATOM     78  F   UNL A   1      46.173  28.224  23.881  1.00  0.00    -0.203 F 
ATOM     79  C   UNL A   1      48.359  27.349  23.814  1.00  0.00     0.198 A 
ATOM     80  C   UNL A   1      49.487  26.790  25.856  1.00  0.00     0.198 A 
ATOM     81  F   UNL A   1      48.397  27.086  27.920  1.00  0.00    -0.203 F 
ATOM     82  F   UNL A   1      48.337  27.396  22.474  1.00  0.00    -0.200 F 
ATOM     83  C   UNL A   1      49.480  26.865  24.471  1.00  0.00     0.200 A 
ATOM     84  F   UNL A   1      50.573  26.337  26.496  1.00  0.00    -0.200 F 
ATOM     85  F   UNL A   1      50.550  26.464  23.772  1.00  0.00    -0.200 F 
ENDBRANCH  51  75
BRANCH  63  86
ATOM     86  C   UNL A   1      45.472  33.598  29.203  1.00  0.00     0.064 A 
ATOM     87  C   UNL A   1      45.325  34.670  28.313  1.00  0.00     0.173 A 
ATOM     88  C   UNL A   1      46.289  33.784  30.329  1.00  0.00     0.173 A 
ATOM     89  F   UNL A   1      44.566  34.537  27.214  1.00  0.00    -0.203 F 
ATOM     90  C   UNL A   1      45.990  35.875  28.528  1.00  0.00     0.198 A 
ATOM     91  C   UNL A   1      46.927  35.000  30.557  1.00  0.00     0.198 A 
ATOM     92  F   UNL A   1      46.458  32.793  31.216  1.00  0.00    -0.203 F 
ATOM     93  F   UNL A   1      45.873  36.871  27.639  1.00  0.00    -0.200 F 
ATOM     94  C   UNL A   1      46.784  36.041  29.653  1.00  0.00     0.200 A 
ATOM     95  F   UNL A   1      47.683  35.164  31.651  1.00  0.00    -0.200 F 
ATOM     96  F   UNL A   1      47.418  37.204  29.862  1.00  0.00    -0.200 F 
ENDBRANCH  63  86
ENDBRANCH  37  38
ENDBRANCH  30  32
ENDBRANCH  29  30
ENDBRANCH  28  29
ENDBRANCH  27  28
ENDBRANCH  26  27
ENDBRANCH   1  26
TORSDOF 21
ENDMDL
MODEL 2
REMARK VINA RESULT:     -10.0      4.201      7.601
REMARK SMILES COC(=O)C[C@H](NC(=O)N(C)C[C@@H]1CCC[N@H+]1C)C(=O)OCCOCCOC(=O)c1ccc(-c2c3nc(c(-c4c(F)c(F)c(F)c(F)c4F)c4ccc([nH]4)c(-c4c(F)c(F)c(F)c(F)c4F)c4nc(c(-c5c(F)c(F)c(F)c(F)c5F)c5ccc2[nH]5)C=C4)C=C3)cc1
REMARK SMILES IDX 23 1 22 2 21 3 19 4 20 5 6 6 5 7 3 8 4 9 2 10 1 11 7 12 8 13
REMARK SMILES IDX 9 15 10 16 11 17 12 18 13 19 14 20 17 21 15 22 16 23 18 24
REMARK SMILES IDX 24 26 25 27 26 28 27 29 28 30 29 31 30 32 31 33 92 34 32 35
REMARK SMILES IDX 91 36 33 37 34 38 35 39 85 40 36 41 90 42 84 43 86 44 37 45
REMARK SMILES IDX 89 46 83 47 82 48 38 50 70 51 50 52 69 53 51 54 54 55 68 56
REMARK SMILES IDX 87 57 52 58 53 59 67 61 88 62 55 63 39 64 40 65 48 66 41 67
REMARK SMILES IDX 42 68 46 69 49 70 43 71 44 72 47 73 45 74 71 75 72 76 80 77
REMARK SMILES IDX 73 78 74 79 78 80 81 81 75 82 76 83 79 84 77 85 56 86 57 87
REMARK SMILES IDX 65 88 58 89 59 90 63 91 66 92 60 93 61 94 64 95 62 96
REMARK H PARENT 7 14 17 25 86 49 54 60
REMARK Flexibility Score: inf
ROOT
ATOM      1  C   UNL A   1      31.850  29.096  24.931  1.00  0.00     0.202 C 
ENDROOT
BRANCH   1   2
ATOM      2  C   UNL A   1      32.437  28.939  23.526  1.00  0.00     0.261 C 
BRANCH   2   3
ATOM      3  O   UNL A   1      33.444  27.916  23.473  1.00  0.00    -0.462 OA
BRANCH   3   4
ATOM      4  C   UNL A   1      33.067  26.768  22.850  1.00  0.00     0.329 C 
ATOM      5  O   UNL A   1      32.618  26.713  21.710  1.00  0.00    -0.250 OA
BRANCH   4   6
ATOM      6  C   UNL A   1      33.255  25.511  23.726  1.00  0.00     0.204 C 
BRANCH   6   7
ATOM      7  C   UNL A   1      33.244  25.724  25.241  1.00  0.00     0.159 C 
BRANCH   7   8
ATOM      8  C   UNL A   1      31.898  25.469  25.875  1.00  0.00     0.308 C 
ATOM      9  O   UNL A   1      31.515  26.013  26.900  1.00  0.00    -0.252 OA
BRANCH   8  10
ATOM     10  O   UNL A   1      31.197  24.553  25.152  1.00  0.00    -0.469 OA
ATOM     11  C   UNL A   1      30.646  23.465  25.907  1.00  0.00     0.282 C 
ENDBRANCH   8  10
ENDBRANCH   7   8
ENDBRANCH   6   7
BRANCH   6  12
ATOM     12  N   UNL A   1      34.231  24.519  23.228  1.00  0.00    -0.324 N 
ATOM     13  C   UNL A   1      34.557  23.226  23.296  1.00  0.00     0.318 C 
ATOM     14  H   UNL A   1      34.868  24.975  22.632  1.00  0.00     0.166 HD
ATOM     15  O   UNL A   1      35.586  22.953  22.667  1.00  0.00    -0.249 OA
BRANCH  13  16
ATOM     16  N   UNL A   1      33.843  22.275  23.959  1.00  0.00    -0.322 N 
ATOM     17  C   UNL A   1      32.713  21.517  23.457  1.00  0.00     0.149 C 
BRANCH  16  18
ATOM     18  C   UNL A   1      34.100  22.144  25.405  1.00  0.00     0.185 C 
BRANCH  18  19
ATOM     19  C   UNL A   1      35.565  21.947  25.902  1.00  0.00     0.203 C 
ATOM     20  C   UNL A   1      36.153  23.354  26.160  1.00  0.00     0.073 C 
ATOM     21  N   UNL A   1      36.562  21.349  24.990  1.00  0.00    -0.333 N 
ATOM     22  C   UNL A   1      37.608  23.313  25.724  1.00  0.00     0.068 C 
ATOM     23  C   UNL A   1      37.871  21.858  25.418  1.00  0.00     0.262 C 
ATOM     24  C   UNL A   1      36.577  19.891  25.001  1.00  0.00     0.333 C 
ATOM     25  H   UNL A   1      36.324  21.610  24.034  1.00  0.00     0.348 HD
ENDBRANCH  18  19
ENDBRANCH  16  18
ENDBRANCH  13  16
ENDBRANCH   6  12
ENDBRANCH   4   6
ENDBRANCH   3   4
ENDBRANCH   2   3
ENDBRANCH   1   2
BRANCH   1  26
ATOM     26  O   UNL A   1      32.248  30.251  25.665  1.00  0.00    -0.374 OA
BRANCH  26  27
ATOM     27  C   UNL A   1      31.261  31.252  25.915  1.00  0.00     0.202 C 
BRANCH  27  28
ATOM     28  C   UNL A   1      31.674  32.437  26.795  1.00  0.00     0.261 C 
BRANCH  28  29
ATOM     29  O   UNL A   1      32.757  32.106  27.680  1.00  0.00    -0.460 OA
BRANCH  29  30
ATOM     30  C   UNL A   1      33.756  33.015  27.718  1.00  0.00     0.338 C 
ATOM     31  O   UNL A   1      33.657  34.233  27.629  1.00  0.00    -0.246 OA
BRANCH  30  32
ATOM     32  C   UNL A   1      35.030  32.364  28.071  1.00  0.00     0.060 A 
ATOM     33  C   UNL A   1      34.999  30.986  28.327  1.00  0.00     0.016 A 
ATOM     34  C   UNL A   1      36.208  33.093  28.244  1.00  0.00     0.016 A 
ATOM     35  C   UNL A   1      36.130  30.343  28.822  1.00  0.00     0.010 A 
ATOM     36  C   UNL A   1      37.341  32.447  28.751  1.00  0.00     0.010 A 
ATOM     37  C   UNL A   1      37.293  31.081  29.082  1.00  0.00    -0.014 A 
BRANCH  37  38
ATOM     38  C   UNL A   1      38.395  30.448  29.845  1.00  0.00     0.031 A 
ATOM     39  C   UNL A   1      38.607  30.841  31.280  1.00  0.00     0.074 A 
ATOM     40  C   UNL A   1      39.170  29.506  29.279  1.00  0.00     0.049 A 
ATOM     41  N   UNL A   1      39.518  30.436  32.129  1.00  0.00    -0.248 NA
ATOM     42  C   UNL A   1      37.661  31.822  31.835  1.00  0.00     0.031 C 
ATOM     43  C   UNL A   1      39.034  29.013  27.911  1.00  0.00     0.029 A 
ATOM     44  N   UNL A   1      40.232  28.803  29.789  1.00  0.00    -0.354 N 
ATOM     45  C   UNL A   1      39.258  31.115  33.313  1.00  0.00     0.074 A 
ATOM     46  C   UNL A   1      38.124  31.980  33.066  1.00  0.00     0.031 C 
ATOM     47  C   UNL A   1      39.986  28.091  27.685  1.00  0.00     0.029 A 
ATOM     48  C   UNL A   1      40.816  27.956  28.881  1.00  0.00     0.049 A 
ATOM     49  H   UNL A   1      40.544  28.896  30.718  1.00  0.00     0.167 HD
ATOM     50  C   UNL A   1      39.901  31.017  34.501  1.00  0.00     0.037 A 
ATOM     51  C   UNL A   1      41.911  27.180  28.997  1.00  0.00     0.037 A 
ATOM     52  C   UNL A   1      41.030  30.157  34.742  1.00  0.00     0.049 A 
ATOM     53  C   UNL A   1      42.654  27.143  30.308  1.00  0.00     0.074 A 
ATOM     54  C   UNL A   1      41.743  29.976  35.913  1.00  0.00     0.029 A 
ATOM     55  N   UNL A   1      41.614  29.338  33.787  1.00  0.00    -0.354 N 
ATOM     56  N   UNL A   1      42.390  27.769  31.428  1.00  0.00    -0.248 NA
ATOM     57  C   UNL A   1      43.846  26.286  30.369  1.00  0.00     0.031 C 
ATOM     58  C   UNL A   1      42.791  29.086  35.654  1.00  0.00     0.029 A 
ATOM     59  C   UNL A   1      42.696  28.669  34.336  1.00  0.00     0.049 A 
ATOM     60  H   UNL A   1      41.306  29.245  32.857  1.00  0.00     0.167 HD
ATOM     61  C   UNL A   1      43.361  27.363  32.334  1.00  0.00     0.074 A 
ATOM     62  C   UNL A   1      44.215  26.425  31.635  1.00  0.00     0.031 C 
ATOM     63  C   UNL A   1      43.533  27.733  33.627  1.00  0.00     0.037 A 
BRANCH  50  64
ATOM     64  C   UNL A   1      39.415  31.884  35.626  1.00  0.00     0.064 A 
ATOM     65  C   UNL A   1      38.448  31.435  36.538  1.00  0.00     0.173 A 
ATOM     66  C   UNL A   1      39.947  33.169  35.813  1.00  0.00     0.173 A 
ATOM     67  F   UNL A   1      37.899  30.219  36.397  1.00  0.00    -0.203 F 
ATOM     68  C   UNL A   1      38.013  32.250  37.581  1.00  0.00     0.198 A 
ATOM     69  C   UNL A   1      39.530  33.970  36.873  1.00  0.00     0.198 A 
ATOM     70  F   UNL A   1      40.876  33.645  34.971  1.00  0.00    -0.203 F 
ATOM     71  F   UNL A   1      37.057  31.817  38.414  1.00  0.00    -0.200 F 
ATOM     72  C   UNL A   1      38.559  33.513  37.751  1.00  0.00     0.200 A 
ATOM     73  F   UNL A   1      40.069  35.186  37.043  1.00  0.00    -0.200 F 
ATOM     74  F   UNL A   1      38.147  34.293  38.759  1.00  0.00    -0.200 F 
ENDBRANCH  50  64
BRANCH  51  75
ATOM     75  C   UNL A   1      42.380  26.384  27.833  1.00  0.00     0.064 A 
ATOM     76  C   UNL A   1      43.351  26.885  26.956  1.00  0.00     0.173 A 
ATOM     77  C   UNL A   1      41.857  25.109  27.570  1.00  0.00     0.173 A 
ATOM     78  F   UNL A   1      43.863  28.108  27.152  1.00  0.00    -0.203 F 
ATOM     79  C   UNL A   1      43.769  26.148  25.849  1.00  0.00     0.198 A 
ATOM     80  C   UNL A   1      42.295  24.362  26.480  1.00  0.00     0.198 A 
ATOM     81  F   UNL A   1      40.926  24.584  28.379  1.00  0.00    -0.203 F 
ATOM     82  F   UNL A   1      44.665  26.669  25.000  1.00  0.00    -0.200 F 
ATOM     83  C   UNL A   1      43.245  24.885  25.615  1.00  0.00     0.200 A 
ATOM     84  F   UNL A   1      41.799  23.136  26.266  1.00  0.00    -0.200 F 
ATOM     85  F   UNL A   1      43.651  24.175  24.554  1.00  0.00    -0.200 F 
ENDBRANCH  51  75
BRANCH  63  86
ATOM     86  C   UNL A   1      44.663  27.096  34.384  1.00  0.00     0.064 A 
ATOM     87  C   UNL A   1      44.498  25.889  35.077  1.00  0.00     0.173 A 
ATOM     88  C   UNL A   1      45.939  27.681  34.378  1.00  0.00     0.173 A 
ATOM     89  F   UNL A   1      43.294  25.297  35.125  1.00  0.00    -0.203 F 
ATOM     90  C   UNL A   1      45.562  25.304  35.760  1.00  0.00     0.198 A 
ATOM     91  C   UNL A   1      47.007  27.078  35.035  1.00  0.00     0.198 A 
ATOM     92  F   UNL A   1      46.152  28.832  33.724  1.00  0.00    -0.203 F 
ATOM     93  F   UNL A   1      45.369  24.175  36.456  1.00  0.00    -0.200 F 
ATOM     94  C   UNL A   1      46.816  25.895  35.731  1.00  0.00     0.200 A 
ATOM     95  F   UNL A   1      48.221  27.643  34.995  1.00  0.00    -0.200 F 
ATOM     96  F   UNL A   1      47.841  25.326  36.383  1.00  0.00    -0.200 F 
ENDBRANCH  63  86
ENDBRANCH  37  38
ENDBRANCH  30  32
ENDBRANCH  29  30
ENDBRANCH  28  29
ENDBRANCH  27  28
ENDBRANCH  26  27
ENDBRANCH   1  26
TORSDOF 21
ENDMDL
MODEL 3
REMARK VINA RESULT:      -9.9      2.056      3.369
REMARK SMILES COC(=O)C[C@H](NC(=O)N(C)C[C@@H]1CCC[N@H+]1C)C(=O)OCCOCCOC(=O)c1ccc(-c2c3nc(c(-c4c(F)c(F)c(F)c(F)c4F)c4ccc([nH]4)c(-c4c(F)c(F)c(F)c(F)c4F)c4nc(c(-c5c(F)c(F)c(F)c(F)c5F)c5ccc2[nH]5)C=C4)C=C3)cc1
REMARK SMILES IDX 23 1 22 2 21 3 19 4 20 5 6 6 5 7 3 8 4 9 2 10 1 11 7 12 8 13
REMARK SMILES IDX 9 15 10 16 11 17 12 18 13 19 14 20 17 21 15 22 16 23 18 24
REMARK SMILES IDX 24 26 25 27 26 28 27 29 28 30 29 31 30 32 31 33 92 34 32 35
REMARK SMILES IDX 91 36 33 37 34 38 35 39 85 40 36 41 90 42 84 43 86 44 37 45
REMARK SMILES IDX 89 46 83 47 82 48 38 50 70 51 50 52 69 53 51 54 54 55 68 56
REMARK SMILES IDX 87 57 52 58 53 59 67 61 88 62 55 63 39 64 40 65 48 66 41 67
REMARK SMILES IDX 42 68 46 69 49 70 43 71 44 72 47 73 45 74 71 75 72 76 80 77
REMARK SMILES IDX 73 78 74 79 78 80 81 81 75 82 76 83 79 84 77 85 56 86 57 87
REMARK SMILES IDX 65 88 58 89 59 90 63 91 66 92 60 93 61 94 64 95 62 96
REMARK H PARENT 7 14 17 25 86 49 54 60
REMARK Flexibility Score: inf
ROOT
ATOM      1  C   UNL A   1      36.733  22.962  24.252  1.00  0.00     0.202 C 
ENDROOT
BRANCH   1   2
ATOM      2  C   UNL A   1      35.506  22.053  24.152  1.00  0.00     0.261 C 
BRANCH   2   3
ATOM      3  O   UNL A   1      34.309  22.712  24.597  1.00  0.00    -0.462 OA
BRANCH   3   4
ATOM      4  C   UNL A   1      33.934  22.422  25.871  1.00  0.00     0.329 C 
ATOM      5  O   UNL A   1      34.532  22.797  26.873  1.00  0.00    -0.250 OA
BRANCH   4   6
ATOM      6  C   UNL A   1      32.657  21.557  25.946  1.00  0.00     0.204 C 
BRANCH   6   7
ATOM      7  C   UNL A   1      32.362  20.667  24.737  1.00  0.00     0.159 C 
BRANCH   7   8
ATOM      8  C   UNL A   1      32.783  19.231  24.928  1.00  0.00     0.308 C 
ATOM      9  O   UNL A   1      32.201  18.441  25.658  1.00  0.00    -0.252 OA
BRANCH   8  10
ATOM     10  O   UNL A   1      33.892  18.956  24.187  1.00  0.00    -0.469 OA
ATOM     11  C   UNL A   1      34.451  17.649  24.377  1.00  0.00     0.282 C 
ENDBRANCH   8  10
ENDBRANCH   7   8
ENDBRANCH   6   7
BRANCH   6  12
ATOM     12  N   UNL A   1      31.481  22.196  26.571  1.00  0.00    -0.324 N 
ATOM     13  C   UNL A   1      30.740  23.308  26.547  1.00  0.00     0.318 C 
ATOM     14  H   UNL A   1      31.111  21.583  27.246  1.00  0.00     0.166 HD
ATOM     15  O   UNL A   1      29.847  23.311  27.402  1.00  0.00    -0.249 OA
BRANCH  13  16
ATOM     16  N   UNL A   1      30.906  24.338  25.673  1.00  0.00    -0.322 N 
ATOM     17  C   UNL A   1      30.888  24.272  24.225  1.00  0.00     0.149 C 
BRANCH  16  18
ATOM     18  C   UNL A   1      31.365  25.619  26.242  1.00  0.00     0.185 C 
BRANCH  18  19
ATOM     19  C   UNL A   1      32.175  26.603  25.343  1.00  0.00     0.203 C 
ATOM     20  C   UNL A   1      33.537  26.842  26.039  1.00  0.00     0.073 C 
ATOM     21  N   UNL A   1      31.675  27.980  25.147  1.00  0.00    -0.333 N 
ATOM     22  C   UNL A   1      33.895  28.303  25.822  1.00  0.00     0.068 C 
ATOM     23  C   UNL A   1      32.850  28.810  24.857  1.00  0.00     0.262 C 
ATOM     24  C   UNL A   1      30.705  28.110  24.065  1.00  0.00     0.333 C 
ATOM     25  H   UNL A   1      31.179  28.267  25.991  1.00  0.00     0.348 HD
ENDBRANCH  18  19
ENDBRANCH  16  18
ENDBRANCH  13  16
ENDBRANCH   6  12
ENDBRANCH   4   6
ENDBRANCH   3   4
ENDBRANCH   2   3
ENDBRANCH   1   2
BRANCH   1  26
ATOM     26  O   UNL A   1      37.627  22.713  25.334  1.00  0.00    -0.374 OA
BRANCH  26  27
ATOM     27  C   UNL A   1      38.347  21.480  25.330  1.00  0.00     0.202 C 
BRANCH  27  28
ATOM     28  C   UNL A   1      39.619  21.410  26.182  1.00  0.00     0.261 C 
BRANCH  28  29
ATOM     29  O   UNL A   1      40.050  20.057  26.406  1.00  0.00    -0.460 OA
BRANCH  29  30
ATOM     30  C   UNL A   1      41.357  19.830  26.153  1.00  0.00     0.338 C 
ATOM     31  O   UNL A   1      41.844  18.870  25.567  1.00  0.00    -0.246 OA
BRANCH  30  32
ATOM     32  C   UNL A   1      42.165  21.005  26.522  1.00  0.00     0.060 A 
ATOM     33  C   UNL A   1      42.262  21.317  27.884  1.00  0.00     0.016 A 
ATOM     34  C   UNL A   1      42.733  21.841  25.559  1.00  0.00     0.016 A 
ATOM     35  C   UNL A   1      42.870  22.502  28.287  1.00  0.00     0.010 A 
ATOM     36  C   UNL A   1      43.336  23.038  25.965  1.00  0.00     0.010 A 
ATOM     37  C   UNL A   1      43.368  23.391  27.326  1.00  0.00    -0.014 A 
BRANCH  37  38
ATOM     38  C   UNL A   1      43.775  24.755  27.743  1.00  0.00     0.031 A 
ATOM     39  C   UNL A   1      42.710  25.766  28.065  1.00  0.00     0.074 A 
ATOM     40  C   UNL A   1      45.074  25.075  27.873  1.00  0.00     0.049 A 
ATOM     41  N   UNL A   1      42.833  27.018  28.427  1.00  0.00    -0.248 NA
ATOM     42  C   UNL A   1      41.317  25.302  27.969  1.00  0.00     0.031 C 
ATOM     43  C   UNL A   1      46.193  24.168  27.630  1.00  0.00     0.029 A 
ATOM     44  N   UNL A   1      45.668  26.257  28.235  1.00  0.00    -0.354 N 
ATOM     45  C   UNL A   1      41.538  27.490  28.596  1.00  0.00     0.074 A 
ATOM     46  C   UNL A   1      40.643  26.401  28.270  1.00  0.00     0.031 C 
ATOM     47  C   UNL A   1      47.343  24.832  27.841  1.00  0.00     0.029 A 
ATOM     48  C   UNL A   1      47.039  26.216  28.200  1.00  0.00     0.049 A 
ATOM     49  H   UNL A   1      45.159  27.059  28.496  1.00  0.00     0.167 HD
ATOM     50  C   UNL A   1      41.133  28.719  28.999  1.00  0.00     0.037 A 
ATOM     51  C   UNL A   1      47.943  27.192  28.410  1.00  0.00     0.037 A 
ATOM     52  C   UNL A   1      42.026  29.800  29.322  1.00  0.00     0.049 A 
ATOM     53  C   UNL A   1      47.465  28.572  28.786  1.00  0.00     0.074 A 
ATOM     54  C   UNL A   1      41.715  31.078  29.752  1.00  0.00     0.029 A 
ATOM     55  N   UNL A   1      43.409  29.730  29.242  1.00  0.00    -0.354 N 
ATOM     56  N   UNL A   1      46.242  29.005  28.966  1.00  0.00    -0.248 NA
ATOM     57  C   UNL A   1      48.498  29.597  28.992  1.00  0.00     0.031 C 
ATOM     58  C   UNL A   1      42.908  31.797  29.883  1.00  0.00     0.029 A 
ATOM     59  C   UNL A   1      43.965  30.951  29.589  1.00  0.00     0.049 A 
ATOM     60  H   UNL A   1      43.920  28.932  28.978  1.00  0.00     0.167 HD
ATOM     61  C   UNL A   1      46.356  30.339  29.333  1.00  0.00     0.074 A 
ATOM     62  C   UNL A   1      47.772  30.643  29.362  1.00  0.00     0.031 C 
ATOM     63  C   UNL A   1      45.378  31.234  29.619  1.00  0.00     0.037 A 
BRANCH  50  64
ATOM     64  C   UNL A   1      39.655  28.967  29.086  1.00  0.00     0.064 A 
ATOM     65  C   UNL A   1      38.961  28.867  30.302  1.00  0.00     0.173 A 
ATOM     66  C   UNL A   1      38.929  29.341  27.945  1.00  0.00     0.173 A 
ATOM     67  F   UNL A   1      39.606  28.502  31.420  1.00  0.00    -0.203 F 
ATOM     68  C   UNL A   1      37.591  29.108  30.367  1.00  0.00     0.198 A 
ATOM     69  C   UNL A   1      37.565  29.609  28.020  1.00  0.00     0.198 A 
ATOM     70  F   UNL A   1      39.545  29.454  26.760  1.00  0.00    -0.203 F 
ATOM     71  F   UNL A   1      36.940  28.964  31.529  1.00  0.00    -0.200 F 
ATOM     72  C   UNL A   1      36.896  29.485  29.227  1.00  0.00     0.200 A 
ATOM     73  F   UNL A   1      36.897  29.985  26.919  1.00  0.00    -0.200 F 
ATOM     74  F   UNL A   1      35.579  29.724  29.292  1.00  0.00    -0.200 F 
ENDBRANCH  50  64
BRANCH  51  75
ATOM     75  C   UNL A   1      49.392  26.905  28.256  1.00  0.00     0.064 A 
ATOM     76  C   UNL A   1      50.173  26.504  29.349  1.00  0.00     0.173 A 
ATOM     77  C   UNL A   1      50.029  27.037  27.013  1.00  0.00     0.173 A 
ATOM     78  F   UNL A   1      49.616  26.387  30.563  1.00  0.00    -0.203 F 
ATOM     79  C   UNL A   1      51.539  26.263  29.208  1.00  0.00     0.198 A 
ATOM     80  C   UNL A   1      51.387  26.769  26.867  1.00  0.00     0.198 A 
ATOM     81  F   UNL A   1      49.326  27.418  25.935  1.00  0.00    -0.203 F 
ATOM     82  F   UNL A   1      52.271  25.925  30.277  1.00  0.00    -0.200 F 
ATOM     83  C   UNL A   1      52.144  26.390  27.966  1.00  0.00     0.200 A 
ATOM     84  F   UNL A   1      51.964  26.877  25.662  1.00  0.00    -0.200 F 
ATOM     85  F   UNL A   1      53.455  26.153  27.829  1.00  0.00    -0.200 F 
ENDBRANCH  51  75
BRANCH  63  86
ATOM     86  C   UNL A   1      45.804  32.616  30.025  1.00  0.00     0.064 A 
ATOM     87  C   UNL A   1      46.081  32.939  31.360  1.00  0.00     0.173 A 
ATOM     88  C   UNL A   1      45.977  33.617  29.056  1.00  0.00     0.173 A 
ATOM     89  F   UNL A   1      45.918  32.021  32.326  1.00  0.00    -0.203 F 
ATOM     90  C   UNL A   1      46.492  34.222  31.716  1.00  0.00     0.198 A 
ATOM     91  C   UNL A   1      46.417  34.889  29.412  1.00  0.00     0.198 A 
ATOM     92  F   UNL A   1      45.732  33.359  27.764  1.00  0.00    -0.203 F 
ATOM     93  F   UNL A   1      46.706  34.522  33.005  1.00  0.00    -0.200 F 
ATOM     94  C   UNL A   1      46.666  35.193  30.741  1.00  0.00     0.200 A 
ATOM     95  F   UNL A   1      46.598  35.822  28.467  1.00  0.00    -0.200 F 
ATOM     96  F   UNL A   1      47.068  36.425  31.085  1.00  0.00    -0.200 F 
ENDBRANCH  63  86
ENDBRANCH  37  38
ENDBRANCH  30  32
ENDBRANCH  29  30
ENDBRANCH  28  29
ENDBRANCH  27  28
ENDBRANCH  26  27
ENDBRANCH   1  26
TORSDOF 21
ENDMDL
