MODEL 1
REMARK VINA RESULT:     -12.0      0.000      0.000
REMARK SMILES Cc1cc2c(c(C)c1Cl)C=C(C(=O)OCCOCCOC(=O)c1ccc(-c3c4nc(c(-c5c(F)c(F)c(F)c(F)c5F)c5ccc([nH]5)c(-c5c(F)c(F)c(F)c(F)c5F)c5nc(c(-c6c(F)c(F)c(F)c(F)c6F)c6ccc3[nH]6)C=C5)C=C4)cc1)[C@@H](C(F)(F)F)O2
REMARK SMILES IDX 18 1 17 2 16 3 15 4 14 5 12 6 13 7 11 8 1 9 2 10 3 11 8 12
REMARK SMILES IDX 4 13 6 14 9 15 5 16 91 17 7 18 10 19 86 20 87 21 88 22 89 23
REMARK SMILES IDX 90 24 19 25 20 26 21 27 22 28 23 29 24 30 85 31 25 32 84 33
REMARK SMILES IDX 26 34 27 35 28 36 78 37 29 38 83 39 77 40 79 41 30 42 82 43
REMARK SMILES IDX 76 44 75 45 31 47 63 48 43 49 62 50 44 51 47 52 61 53 80 54
REMARK SMILES IDX 45 55 46 56 60 58 81 59 48 60 32 61 33 62 41 63 34 64 35 65
REMARK SMILES IDX 39 66 42 67 36 68 37 69 40 70 38 71 64 72 65 73 73 74 66 75
REMARK SMILES IDX 67 76 71 77 74 78 68 79 69 80 72 81 70 82 49 83 50 84 58 85
REMARK SMILES IDX 51 86 52 87 56 88 59 89 53 90 54 91 57 92 55 93
REMARK H PARENT 79 46 47 57
REMARK Flexibility Score: inf
ROOT
ATOM      1  C   UNL A   1      32.473  29.655  25.040  1.00  0.00     0.202 C 
ENDROOT
BRANCH   1   2
ATOM      2  O   UNL A   1      31.497  28.966  24.256  1.00  0.00    -0.374 OA
BRANCH   2   3
ATOM      3  C   UNL A   1      30.950  27.761  24.787  1.00  0.00     0.202 C 
BRANCH   3   4
ATOM      4  C   UNL A   1      31.864  26.942  25.702  1.00  0.00     0.261 C 
BRANCH   4   5
ATOM      5  O   UNL A   1      32.158  25.656  25.132  1.00  0.00    -0.460 OA
BRANCH   5   6
ATOM      6  C   UNL A   1      33.349  25.586  24.496  1.00  0.00     0.338 C 
ATOM      7  O   UNL A   1      33.913  26.487  23.894  1.00  0.00    -0.246 OA
BRANCH   6   8
ATOM      8  C   UNL A   1      33.965  24.267  24.727  1.00  0.00     0.087 C 
ATOM      9  C   UNL A   1      38.154  19.358  24.999  1.00  0.00     0.046 C 
ATOM     10  C   UNL A   1      37.389  20.638  25.210  1.00  0.00    -0.028 A 
ATOM     11  C   UNL A   1      36.032  20.680  24.865  1.00  0.00     0.052 A 
ATOM     12  C   UNL A   1      38.005  21.804  25.706  1.00  0.00     0.047 A 
ATOM     13  C   UNL A   1      35.315  21.872  24.936  1.00  0.00     0.128 A 
ATOM     14  C   UNL A   1      37.283  23.014  25.822  1.00  0.00    -0.021 A 
ATOM     15  Cl  UNL A   1      39.685  21.734  26.143  1.00  0.00    -0.084 Cl
ATOM     16  C   UNL A   1      35.940  23.046  25.370  1.00  0.00     0.022 A 
ATOM     17  O   UNL A   1      34.005  21.789  24.554  1.00  0.00    -0.475 OA
ATOM     18  C   UNL A   1      37.914  24.268  26.383  1.00  0.00     0.047 C 
ATOM     19  C   UNL A   1      35.194  24.295  25.255  1.00  0.00     0.027 C 
ATOM     20  C   UNL A   1      33.245  23.010  24.343  1.00  0.00     0.316 C 
BRANCH  20  21
ATOM     21  C   UNL A   1      32.751  23.021  22.889  1.00  0.00     0.430 C 
ATOM     22  F   UNL A   1      32.479  21.766  22.456  1.00  0.00    -0.167 F 
ATOM     23  F   UNL A   1      31.607  23.731  22.753  1.00  0.00    -0.167 F 
ATOM     24  F   UNL A   1      33.662  23.555  22.046  1.00  0.00    -0.167 F 
ENDBRANCH  20  21
ENDBRANCH   6   8
ENDBRANCH   5   6
ENDBRANCH   4   5
ENDBRANCH   3   4
ENDBRANCH   2   3
ENDBRANCH   1   2
BRANCH   1  25
ATOM     25  C   UNL A   1      31.950  30.685  26.049  1.00  0.00     0.261 C 
BRANCH  25  26
ATOM     26  O   UNL A   1      32.696  30.658  27.280  1.00  0.00    -0.460 OA
BRANCH  26  27
ATOM     27  C   UNL A   1      33.470  31.748  27.493  1.00  0.00     0.338 C 
ATOM     28  O   UNL A   1      33.125  32.921  27.479  1.00  0.00    -0.246 OA
BRANCH  27  29
ATOM     29  C   UNL A   1      34.815  31.341  27.933  1.00  0.00     0.060 A 
ATOM     30  C   UNL A   1      35.007  29.991  28.252  1.00  0.00     0.016 A 
ATOM     31  C   UNL A   1      35.832  32.274  28.140  1.00  0.00     0.016 A 
ATOM     32  C   UNL A   1      36.200  29.577  28.837  1.00  0.00     0.010 A 
ATOM     33  C   UNL A   1      37.025  31.860  28.743  1.00  0.00     0.010 A 
ATOM     34  C   UNL A   1      37.194  30.519  29.132  1.00  0.00    -0.014 A 
BRANCH  34  35
ATOM     35  C   UNL A   1      38.318  30.130  30.016  1.00  0.00     0.031 A 
ATOM     36  C   UNL A   1      39.375  29.208  29.475  1.00  0.00     0.074 A 
ATOM     37  C   UNL A   1      38.426  30.630  31.260  1.00  0.00     0.049 A 
ATOM     38  N   UNL A   1      40.429  28.710  30.071  1.00  0.00    -0.248 NA
ATOM     39  C   UNL A   1      39.229  28.795  28.070  1.00  0.00     0.031 C 
ATOM     40  C   UNL A   1      37.500  31.581  31.869  1.00  0.00     0.029 A 
ATOM     41  N   UNL A   1      39.369  30.405  32.229  1.00  0.00    -0.354 N 
ATOM     42  C   UNL A   1      41.068  27.932  29.116  1.00  0.00     0.074 A 
ATOM     43  C   UNL A   1      40.274  27.998  27.909  1.00  0.00     0.031 C 
ATOM     44  C   UNL A   1      37.919  31.856  33.116  1.00  0.00     0.029 A 
ATOM     45  C   UNL A   1      39.123  31.076  33.401  1.00  0.00     0.049 A 
ATOM     46  H   UNL A   1      40.149  29.818  32.098  1.00  0.00     0.167 HD
ATOM     47  C   UNL A   1      42.222  27.234  29.233  1.00  0.00     0.037 A 
ATOM     48  C   UNL A   1      39.785  31.046  34.573  1.00  0.00     0.037 A 
ATOM     49  C   UNL A   1      43.010  27.166  30.435  1.00  0.00     0.049 A 
ATOM     50  C   UNL A   1      41.015  30.185  34.707  1.00  0.00     0.074 A 
ATOM     51  C   UNL A   1      44.191  26.478  30.654  1.00  0.00     0.029 A 
ATOM     52  N   UNL A   1      42.694  27.808  31.622  1.00  0.00    -0.354 N 
ATOM     53  N   UNL A   1      41.609  29.443  33.804  1.00  0.00    -0.248 NA
ATOM     54  C   UNL A   1      41.663  30.154  36.026  1.00  0.00     0.031 C 
ATOM     55  C   UNL A   1      44.566  26.669  31.988  1.00  0.00     0.029 A 
ATOM     56  C   UNL A   1      43.644  27.514  32.585  1.00  0.00     0.049 A 
ATOM     57  H   UNL A   1      41.909  28.388  31.759  1.00  0.00     0.167 HD
ATOM     58  C   UNL A   1      42.705  28.873  34.436  1.00  0.00     0.074 A 
ATOM     59  C   UNL A   1      42.706  29.368  35.798  1.00  0.00     0.031 C 
ATOM     60  C   UNL A   1      43.628  28.014  33.936  1.00  0.00     0.037 A 
BRANCH  47  61
ATOM     61  C   UNL A   1      42.697  26.471  28.033  1.00  0.00     0.064 A 
ATOM     62  C   UNL A   1      42.313  25.140  27.813  1.00  0.00     0.173 A 
ATOM     63  C   UNL A   1      43.500  27.093  27.067  1.00  0.00     0.173 A 
ATOM     64  F   UNL A   1      41.557  24.497  28.716  1.00  0.00    -0.203 F 
ATOM     65  C   UNL A   1      42.727  24.456  26.673  1.00  0.00     0.198 A 
ATOM     66  C   UNL A   1      43.893  26.413  25.916  1.00  0.00     0.198 A 
ATOM     67  F   UNL A   1      43.894  28.365  27.232  1.00  0.00    -0.203 F 
ATOM     68  F   UNL A   1      42.374  23.175  26.497  1.00  0.00    -0.200 F 
ATOM     69  C   UNL A   1      43.509  25.096  25.722  1.00  0.00     0.200 A 
ATOM     70  F   UNL A   1      44.641  27.035  24.995  1.00  0.00    -0.200 F 
ATOM     71  F   UNL A   1      43.896  24.440  24.620  1.00  0.00    -0.200 F 
ENDBRANCH  47  61
BRANCH  48  72
ATOM     72  C   UNL A   1      39.292  31.850  35.721  1.00  0.00     0.064 A 
ATOM     73  C   UNL A   1      39.750  33.156  35.937  1.00  0.00     0.173 A 
ATOM     74  C   UNL A   1      38.358  31.326  36.627  1.00  0.00     0.173 A 
ATOM     75  F   UNL A   1      40.665  33.689  35.114  1.00  0.00    -0.203 F 
ATOM     76  C   UNL A   1      39.297  33.907  37.020  1.00  0.00     0.198 A 
ATOM     77  C   UNL A   1      37.886  32.087  37.694  1.00  0.00     0.198 A 
ATOM     78  F   UNL A   1      37.893  30.078  36.467  1.00  0.00    -0.203 F 
ATOM     79  F   UNL A   1      39.778  35.141  37.225  1.00  0.00    -0.200 F 
ATOM     80  C   UNL A   1      38.360  33.375  37.893  1.00  0.00     0.200 A 
ATOM     81  F   UNL A   1      36.975  31.572  38.530  1.00  0.00    -0.200 F 
ATOM     82  F   UNL A   1      37.919  34.100  38.930  1.00  0.00    -0.200 F 
ENDBRANCH  48  72
BRANCH  60  83
ATOM     83  C   UNL A   1      44.723  27.561  34.857  1.00  0.00     0.064 A 
ATOM     84  C   UNL A   1      45.918  28.283  34.982  1.00  0.00     0.173 A 
ATOM     85  C   UNL A   1      44.550  26.429  35.667  1.00  0.00     0.173 A 
ATOM     86  F   UNL A   1      46.136  29.365  34.219  1.00  0.00    -0.203 F 
ATOM     87  C   UNL A   1      46.909  27.875  35.871  1.00  0.00     0.198 A 
ATOM     88  C   UNL A   1      45.531  26.041  36.575  1.00  0.00     0.198 A 
ATOM     89  F   UNL A   1      43.419  25.710  35.593  1.00  0.00    -0.203 F 
ATOM     90  F   UNL A   1      48.060  28.559  35.946  1.00  0.00    -0.200 F 
ATOM     91  C   UNL A   1      46.712  26.762  36.672  1.00  0.00     0.200 A 
ATOM     92  F   UNL A   1      45.332  24.973  37.359  1.00  0.00    -0.200 F 
ATOM     93  F   UNL A   1      47.662  26.379  37.536  1.00  0.00    -0.200 F 
ENDBRANCH  60  83
ENDBRANCH  34  35
ENDBRANCH  27  29
ENDBRANCH  26  27
ENDBRANCH  25  26
ENDBRANCH   1  25
TORSDOF 15
ENDMDL
MODEL 2
REMARK VINA RESULT:     -12.0      0.997      2.023
REMARK SMILES Cc1cc2c(c(C)c1Cl)C=C(C(=O)OCCOCCOC(=O)c1ccc(-c3c4nc(c(-c5c(F)c(F)c(F)c(F)c5F)c5ccc([nH]5)c(-c5c(F)c(F)c(F)c(F)c5F)c5nc(c(-c6c(F)c(F)c(F)c(F)c6F)c6ccc3[nH]6)C=C5)C=C4)cc1)[C@@H](C(F)(F)F)O2
REMARK SMILES IDX 18 1 17 2 16 3 15 4 14 5 12 6 13 7 11 8 1 9 2 10 3 11 8 12
REMARK SMILES IDX 4 13 6 14 9 15 5 16 91 17 7 18 10 19 86 20 87 21 88 22 89 23
REMARK SMILES IDX 90 24 19 25 20 26 21 27 22 28 23 29 24 30 85 31 25 32 84 33
REMARK SMILES IDX 26 34 27 35 28 36 78 37 29 38 83 39 77 40 79 41 30 42 82 43
REMARK SMILES IDX 76 44 75 45 31 47 63 48 43 49 62 50 44 51 47 52 61 53 80 54
REMARK SMILES IDX 45 55 46 56 60 58 81 59 48 60 32 61 33 62 41 63 34 64 35 65
REMARK SMILES IDX 39 66 42 67 36 68 37 69 40 70 38 71 64 72 65 73 73 74 66 75
REMARK SMILES IDX 67 76 71 77 74 78 68 79 69 80 72 81 70 82 49 83 50 84 58 85
REMARK SMILES IDX 51 86 52 87 56 88 59 89 53 90 54 91 57 92 55 93
REMARK H PARENT 79 46 47 57
REMARK Flexibility Score: inf
ROOT
ATOM      1  C   UNL A   1      31.402  29.399  25.213  1.00  0.00     0.202 C 
ENDROOT
BRANCH   1   2
ATOM      2  O   UNL A   1      31.446  29.230  23.795  1.00  0.00    -0.374 OA
BRANCH   2   3
ATOM      3  C   UNL A   1      32.626  28.660  23.230  1.00  0.00     0.202 C 
BRANCH   3   4
ATOM      4  C   UNL A   1      33.792  28.415  24.191  1.00  0.00     0.261 C 
BRANCH   4   5
ATOM      5  O   UNL A   1      33.998  27.012  24.418  1.00  0.00    -0.460 OA
BRANCH   5   6
ATOM      6  C   UNL A   1      33.663  26.591  25.658  1.00  0.00     0.338 C 
ATOM      7  O   UNL A   1      33.361  27.290  26.613  1.00  0.00    -0.246 OA
BRANCH   6   8
ATOM      8  C   UNL A   1      33.588  25.119  25.686  1.00  0.00     0.087 C 
ATOM      9  C   UNL A   1      34.595  18.851  24.498  1.00  0.00     0.046 C 
ATOM     10  C   UNL A   1      34.695  20.287  24.936  1.00  0.00    -0.028 A 
ATOM     11  C   UNL A   1      33.515  21.012  25.155  1.00  0.00     0.052 A 
ATOM     12  C   UNL A   1      35.935  20.937  25.096  1.00  0.00     0.047 A 
ATOM     13  C   UNL A   1      33.558  22.372  25.450  1.00  0.00     0.128 A 
ATOM     14  C   UNL A   1      35.999  22.307  25.434  1.00  0.00    -0.021 A 
ATOM     15  Cl  UNL A   1      37.390  20.023  24.836  1.00  0.00    -0.084 Cl
ATOM     16  C   UNL A   1      34.787  23.034  25.549  1.00  0.00     0.022 A 
ATOM     17  O   UNL A   1      32.342  22.971  25.622  1.00  0.00    -0.475 OA
ATOM     18  C   UNL A   1      37.318  23.017  25.643  1.00  0.00     0.047 C 
ATOM     19  C   UNL A   1      34.767  24.487  25.683  1.00  0.00     0.027 C 
ATOM     20  C   UNL A   1      32.262  24.421  25.675  1.00  0.00     0.316 C 
BRANCH  20  21
ATOM     21  C   UNL A   1      31.345  24.892  24.535  1.00  0.00     0.430 C 
ATOM     22  F   UNL A   1      30.318  24.029  24.347  1.00  0.00    -0.167 F 
ATOM     23  F   UNL A   1      30.791  26.097  24.803  1.00  0.00    -0.167 F 
ATOM     24  F   UNL A   1      32.006  25.001  23.362  1.00  0.00    -0.167 F 
ENDBRANCH  20  21
ENDBRANCH   6   8
ENDBRANCH   5   6
ENDBRANCH   4   5
ENDBRANCH   3   4
ENDBRANCH   2   3
ENDBRANCH   1   2
BRANCH   1  25
ATOM     25  C   UNL A   1      31.751  30.790  25.756  1.00  0.00     0.261 C 
BRANCH  25  26
ATOM     26  O   UNL A   1      32.453  30.717  27.010  1.00  0.00    -0.460 OA
BRANCH  26  27
ATOM     27  C   UNL A   1      33.175  31.821  27.316  1.00  0.00     0.338 C 
ATOM     28  O   UNL A   1      32.776  32.975  27.392  1.00  0.00    -0.246 OA
BRANCH  27  29
ATOM     29  C   UNL A   1      34.534  31.442  27.735  1.00  0.00     0.060 A 
ATOM     30  C   UNL A   1      34.774  30.087  27.995  1.00  0.00     0.016 A 
ATOM     31  C   UNL A   1      35.520  32.399  27.978  1.00  0.00     0.016 A 
ATOM     32  C   UNL A   1      35.983  29.689  28.559  1.00  0.00     0.010 A 
ATOM     33  C   UNL A   1      36.729  32.001  28.560  1.00  0.00     0.010 A 
ATOM     34  C   UNL A   1      36.945  30.651  28.891  1.00  0.00    -0.014 A 
BRANCH  34  35
ATOM     35  C   UNL A   1      38.086  30.264  29.754  1.00  0.00     0.031 A 
ATOM     36  C   UNL A   1      39.125  29.330  29.200  1.00  0.00     0.074 A 
ATOM     37  C   UNL A   1      38.223  30.775  30.991  1.00  0.00     0.049 A 
ATOM     38  N   UNL A   1      40.189  28.832  29.778  1.00  0.00    -0.248 NA
ATOM     39  C   UNL A   1      38.946  28.905  27.802  1.00  0.00     0.031 C 
ATOM     40  C   UNL A   1      37.317  31.738  31.610  1.00  0.00     0.029 A 
ATOM     41  N   UNL A   1      39.186  30.553  31.942  1.00  0.00    -0.354 N 
ATOM     42  C   UNL A   1      40.803  28.041  28.817  1.00  0.00     0.074 A 
ATOM     43  C   UNL A   1      39.983  28.099  27.627  1.00  0.00     0.031 C 
ATOM     44  C   UNL A   1      37.764  32.022  32.845  1.00  0.00     0.029 A 
ATOM     45  C   UNL A   1      38.969  31.237  33.112  1.00  0.00     0.049 A 
ATOM     46  H   UNL A   1      39.959  29.960  31.800  1.00  0.00     0.167 HD
ATOM     47  C   UNL A   1      41.955  27.336  28.916  1.00  0.00     0.037 A 
ATOM     48  C   UNL A   1      39.656  31.214  34.270  1.00  0.00     0.037 A 
ATOM     49  C   UNL A   1      42.768  27.274  30.101  1.00  0.00     0.049 A 
ATOM     50  C   UNL A   1      40.883  30.346  34.386  1.00  0.00     0.074 A 
ATOM     51  C   UNL A   1      43.949  26.581  30.302  1.00  0.00     0.029 A 
ATOM     52  N   UNL A   1      42.481  27.930  31.289  1.00  0.00    -0.354 N 
ATOM     53  N   UNL A   1      41.453  29.592  33.477  1.00  0.00    -0.248 NA
ATOM     54  C   UNL A   1      41.559  30.324  35.691  1.00  0.00     0.031 C 
ATOM     55  C   UNL A   1      44.353  26.783  31.625  1.00  0.00     0.029 A 
ATOM     56  C   UNL A   1      43.450  27.639  32.234  1.00  0.00     0.049 A 
ATOM     57  H   UNL A   1      41.703  28.516  31.437  1.00  0.00     0.167 HD
ATOM     58  C   UNL A   1      42.559  29.021  34.091  1.00  0.00     0.074 A 
ATOM     59  C   UNL A   1      42.592  29.530  35.448  1.00  0.00     0.031 C 
ATOM     60  C   UNL A   1      43.465  28.152  33.580  1.00  0.00     0.037 A 
BRANCH  47  61
ATOM     61  C   UNL A   1      42.398  26.559  27.714  1.00  0.00     0.064 A 
ATOM     62  C   UNL A   1      43.338  27.078  26.810  1.00  0.00     0.173 A 
ATOM     63  C   UNL A   1      41.919  25.260  27.491  1.00  0.00     0.173 A 
ATOM     64  F   UNL A   1      43.814  28.322  26.973  1.00  0.00    -0.203 F 
ATOM     65  C   UNL A   1      43.772  26.329  25.721  1.00  0.00     0.198 A 
ATOM     66  C   UNL A   1      42.374  24.504  26.413  1.00  0.00     0.198 A 
ATOM     67  F   UNL A   1      41.020  24.718  28.326  1.00  0.00    -0.203 F 
ATOM     68  F   UNL A   1      44.647  26.856  24.853  1.00  0.00    -0.200 F 
ATOM     69  C   UNL A   1      43.296  25.040  25.528  1.00  0.00     0.200 A 
ATOM     70  F   UNL A   1      41.920  23.256  26.233  1.00  0.00    -0.200 F 
ATOM     71  F   UNL A   1      43.725  24.315  24.485  1.00  0.00    -0.200 F 
ENDBRANCH  47  61
BRANCH  48  72
ATOM     72  C   UNL A   1      39.193  32.032  35.421  1.00  0.00     0.064 A 
ATOM     73  C   UNL A   1      39.552  33.381  35.539  1.00  0.00     0.173 A 
ATOM     74  C   UNL A   1      38.386  31.480  36.427  1.00  0.00     0.173 A 
ATOM     75  F   UNL A   1      40.346  33.945  34.616  1.00  0.00    -0.203 F 
ATOM     76  C   UNL A   1      39.127  34.145  36.623  1.00  0.00     0.198 A 
ATOM     77  C   UNL A   1      37.941  32.252  37.497  1.00  0.00     0.198 A 
ATOM     78  F   UNL A   1      38.019  30.191  36.363  1.00  0.00    -0.203 F 
ATOM     79  F   UNL A   1      39.515  35.424  36.731  1.00  0.00    -0.200 F 
ATOM     80  C   UNL A   1      38.316  33.583  37.597  1.00  0.00     0.200 A 
ATOM     81  F   UNL A   1      37.150  31.707  38.431  1.00  0.00    -0.200 F 
ATOM     82  F   UNL A   1      37.902  34.321  38.636  1.00  0.00    -0.200 F 
ENDBRANCH  48  72
BRANCH  60  83
ATOM     83  C   UNL A   1      44.577  27.701  34.482  1.00  0.00     0.064 A 
ATOM     84  C   UNL A   1      44.471  26.527  35.242  1.00  0.00     0.173 A 
ATOM     85  C   UNL A   1      45.782  28.415  34.539  1.00  0.00     0.173 A 
ATOM     86  F   UNL A   1      43.333  25.816  35.231  1.00  0.00    -0.203 F 
ATOM     87  C   UNL A   1      45.526  26.097  36.043  1.00  0.00     0.198 A 
ATOM     88  C   UNL A   1      46.845  27.966  35.318  1.00  0.00     0.198 A 
ATOM     89  F   UNL A   1      45.938  29.539  33.822  1.00  0.00    -0.203 F 
ATOM     90  F   UNL A   1      45.388  24.993  36.791  1.00  0.00    -0.200 F 
ATOM     91  C   UNL A   1      46.714  26.810  36.074  1.00  0.00     0.200 A 
ATOM     92  F   UNL A   1      47.997  28.650  35.336  1.00  0.00    -0.200 F 
ATOM     93  F   UNL A   1      47.732  26.388  36.835  1.00  0.00    -0.200 F 
ENDBRANCH  60  83
ENDBRANCH  34  35
ENDBRANCH  27  29
ENDBRANCH  26  27
ENDBRANCH  25  26
ENDBRANCH   1  25
TORSDOF 15
ENDMDL
MODEL 3
REMARK VINA RESULT:     -12.0      1.226      7.302
REMARK SMILES Cc1cc2c(c(C)c1Cl)C=C(C(=O)OCCOCCOC(=O)c1ccc(-c3c4nc(c(-c5c(F)c(F)c(F)c(F)c5F)c5ccc([nH]5)c(-c5c(F)c(F)c(F)c(F)c5F)c5nc(c(-c6c(F)c(F)c(F)c(F)c6F)c6ccc3[nH]6)C=C5)C=C4)cc1)[C@@H](C(F)(F)F)O2
REMARK SMILES IDX 18 1 17 2 16 3 15 4 14 5 12 6 13 7 11 8 1 9 2 10 3 11 8 12
REMARK SMILES IDX 4 13 6 14 9 15 5 16 91 17 7 18 10 19 86 20 87 21 88 22 89 23
REMARK SMILES IDX 90 24 19 25 20 26 21 27 22 28 23 29 24 30 85 31 25 32 84 33
REMARK SMILES IDX 26 34 27 35 28 36 78 37 29 38 83 39 77 40 79 41 30 42 82 43
REMARK SMILES IDX 76 44 75 45 31 47 63 48 43 49 62 50 44 51 47 52 61 53 80 54
REMARK SMILES IDX 45 55 46 56 60 58 81 59 48 60 32 61 33 62 41 63 34 64 35 65
REMARK SMILES IDX 39 66 42 67 36 68 37 69 40 70 38 71 64 72 65 73 73 74 66 75
REMARK SMILES IDX 67 76 71 77 74 78 68 79 69 80 72 81 70 82 49 83 50 84 58 85
REMARK SMILES IDX 51 86 52 87 56 88 59 89 53 90 54 91 57 92 55 93
REMARK H PARENT 79 46 47 57
REMARK Flexibility Score: inf
ROOT
ATOM      1  C   UNL A   1      31.457  31.735  26.511  1.00  0.00     0.202 C 
ENDROOT
BRANCH   1   2
ATOM      2  O   UNL A   1      32.496  30.762  26.395  1.00  0.00    -0.374 OA
BRANCH   2   3
ATOM      3  C   UNL A   1      32.344  29.539  27.114  1.00  0.00     0.202 C 
BRANCH   3   4
ATOM      4  C   UNL A   1      33.446  28.495  26.922  1.00  0.00     0.261 C 
BRANCH   4   5
ATOM      5  O   UNL A   1      32.899  27.213  26.574  1.00  0.00    -0.460 OA
BRANCH   5   6
ATOM      6  C   UNL A   1      33.394  26.686  25.430  1.00  0.00     0.338 C 
ATOM      7  O   UNL A   1      33.885  27.298  24.494  1.00  0.00    -0.246 OA
BRANCH   6   8
ATOM      8  C   UNL A   1      33.375  25.214  25.506  1.00  0.00     0.087 C 
ATOM      9  C   UNL A   1      34.669  18.956  24.574  1.00  0.00     0.046 C 
ATOM     10  C   UNL A   1      34.696  20.409  24.965  1.00  0.00    -0.028 A 
ATOM     11  C   UNL A   1      33.482  21.092  25.117  1.00  0.00     0.052 A 
ATOM     12  C   UNL A   1      35.903  21.113  25.146  1.00  0.00     0.047 A 
ATOM     13  C   UNL A   1      33.461  22.463  25.366  1.00  0.00     0.128 A 
ATOM     14  C   UNL A   1      35.902  22.495  25.438  1.00  0.00    -0.021 A 
ATOM     15  Cl  UNL A   1      37.401  20.250  24.968  1.00  0.00    -0.084 Cl
ATOM     16  C   UNL A   1      34.659  23.176  25.485  1.00  0.00     0.022 A 
ATOM     17  O   UNL A   1      32.217  23.018  25.473  1.00  0.00    -0.475 OA
ATOM     18  C   UNL A   1      37.184  23.263  25.668  1.00  0.00     0.047 C 
ATOM     19  C   UNL A   1      34.578  24.630  25.567  1.00  0.00     0.027 C 
ATOM     20  C   UNL A   1      32.079  24.464  25.473  1.00  0.00     0.316 C 
BRANCH  20  21
ATOM     21  C   UNL A   1      31.187  24.860  24.287  1.00  0.00     0.430 C 
ATOM     22  F   UNL A   1      30.370  25.890  24.612  1.00  0.00    -0.167 F 
ATOM     23  F   UNL A   1      31.918  25.270  23.224  1.00  0.00    -0.167 F 
ATOM     24  F   UNL A   1      30.407  23.837  23.872  1.00  0.00    -0.167 F 
ENDBRANCH  20  21
ENDBRANCH   6   8
ENDBRANCH   5   6
ENDBRANCH   4   5
ENDBRANCH   3   4
ENDBRANCH   2   3
ENDBRANCH   1   2
BRANCH   1  25
ATOM     25  C   UNL A   1      31.880  33.160  26.889  1.00  0.00     0.261 C 
BRANCH  25  26
ATOM     26  O   UNL A   1      32.620  33.192  28.123  1.00  0.00    -0.460 OA
BRANCH  26  27
ATOM     27  C   UNL A   1      33.724  33.975  28.098  1.00  0.00     0.338 C 
ATOM     28  O   UNL A   1      33.769  35.195  28.022  1.00  0.00    -0.246 OA
BRANCH  27  29
ATOM     29  C   UNL A   1      34.928  33.168  28.354  1.00  0.00     0.060 A 
ATOM     30  C   UNL A   1      34.741  31.845  28.772  1.00  0.00     0.016 A 
ATOM     31  C   UNL A   1      36.207  33.724  28.297  1.00  0.00     0.016 A 
ATOM     32  C   UNL A   1      35.829  31.088  29.195  1.00  0.00     0.010 A 
ATOM     33  C   UNL A   1      37.299  32.967  28.738  1.00  0.00     0.010 A 
ATOM     34  C   UNL A   1      37.106  31.663  29.229  1.00  0.00    -0.014 A 
BRANCH  34  35
ATOM     35  C   UNL A   1      38.193  30.965  29.954  1.00  0.00     0.031 A 
ATOM     36  C   UNL A   1      38.419  31.291  31.404  1.00  0.00     0.074 A 
ATOM     37  C   UNL A   1      38.933  30.019  29.348  1.00  0.00     0.049 A 
ATOM     38  N   UNL A   1      39.325  30.832  32.229  1.00  0.00    -0.248 NA
ATOM     39  C   UNL A   1      37.492  32.263  32.009  1.00  0.00     0.031 C 
ATOM     40  C   UNL A   1      38.765  29.572  27.969  1.00  0.00     0.029 A 
ATOM     41  N   UNL A   1      39.974  29.264  29.826  1.00  0.00    -0.354 N 
ATOM     42  C   UNL A   1      39.076  31.454  33.445  1.00  0.00     0.074 A 
ATOM     43  C   UNL A   1      37.954  32.344  33.248  1.00  0.00     0.031 C 
ATOM     44  C   UNL A   1      39.677  28.620  27.707  1.00  0.00     0.029 A 
ATOM     45  C   UNL A   1      40.511  28.416  28.891  1.00  0.00     0.049 A 
ATOM     46  H   UNL A   1      40.304  29.324  30.752  1.00  0.00     0.167 HD
ATOM     47  C   UNL A   1      39.721  31.287  34.623  1.00  0.00     0.037 A 
ATOM     48  C   UNL A   1      41.568  27.586  28.978  1.00  0.00     0.037 A 
ATOM     49  C   UNL A   1      40.840  30.405  34.818  1.00  0.00     0.049 A 
ATOM     50  C   UNL A   1      42.329  27.490  30.276  1.00  0.00     0.074 A 
ATOM     51  C   UNL A   1      41.566  30.174  35.974  1.00  0.00     0.029 A 
ATOM     52  N   UNL A   1      41.397  29.609  33.829  1.00  0.00    -0.354 N 
ATOM     53  N   UNL A   1      42.096  28.089  31.419  1.00  0.00    -0.248 NA
ATOM     54  C   UNL A   1      43.504  26.607  30.292  1.00  0.00     0.031 C 
ATOM     55  C   UNL A   1      42.589  29.270  35.672  1.00  0.00     0.029 A 
ATOM     56  C   UNL A   1      42.472  28.903  34.341  1.00  0.00     0.049 A 
ATOM     57  H   UNL A   1      41.075  29.554  32.899  1.00  0.00     0.167 HD
ATOM     58  C   UNL A   1      43.079  27.644  32.292  1.00  0.00     0.074 A 
ATOM     59  C   UNL A   1      43.903  26.710  31.552  1.00  0.00     0.031 C 
ATOM     60  C   UNL A   1      43.283  27.980  33.590  1.00  0.00     0.037 A 
BRANCH  47  61
ATOM     61  C   UNL A   1      39.243  32.092  35.795  1.00  0.00     0.064 A 
ATOM     62  C   UNL A   1      38.334  31.563  36.725  1.00  0.00     0.173 A 
ATOM     63  C   UNL A   1      39.738  33.384  36.020  1.00  0.00     0.173 A 
ATOM     64  F   UNL A   1      37.820  30.337  36.544  1.00  0.00    -0.203 F 
ATOM     65  C   UNL A   1      37.931  32.306  37.831  1.00  0.00     0.198 A 
ATOM     66  C   UNL A   1      39.351  34.115  37.141  1.00  0.00     0.198 A 
ATOM     67  F   UNL A   1      40.610  33.933  35.160  1.00  0.00    -0.203 F 
ATOM     68  F   UNL A   1      37.039  31.794  38.690  1.00  0.00    -0.200 F 
ATOM     69  C   UNL A   1      38.446  33.577  38.042  1.00  0.00     0.200 A 
ATOM     70  F   UNL A   1      39.856  35.338  37.348  1.00  0.00    -0.200 F 
ATOM     71  F   UNL A   1      38.065  34.285  39.114  1.00  0.00    -0.200 F 
ENDBRANCH  47  61
BRANCH  48  72
ATOM     72  C   UNL A   1      41.978  26.784  27.796  1.00  0.00     0.064 A 
ATOM     73  C   UNL A   1      42.939  27.264  26.896  1.00  0.00     0.173 A 
ATOM     74  C   UNL A   1      41.415  25.525  27.541  1.00  0.00     0.173 A 
ATOM     75  F   UNL A   1      43.485  28.475  27.083  1.00  0.00    -0.203 F 
ATOM     76  C   UNL A   1      43.316  26.518  25.782  1.00  0.00     0.198 A 
ATOM     77  C   UNL A   1      41.811  24.769  26.441  1.00  0.00     0.198 A 
ATOM     78  F   UNL A   1      40.486  25.025  28.370  1.00  0.00    -0.203 F 
ATOM     79  F   UNL A   1      44.211  27.015  24.916  1.00  0.00    -0.200 F 
ATOM     80  C   UNL A   1      42.757  25.268  25.559  1.00  0.00     0.200 A 
ATOM     81  F   UNL A   1      41.275  23.559  26.234  1.00  0.00    -0.200 F 
ATOM     82  F   UNL A   1      43.126  24.547  24.491  1.00  0.00    -0.200 F 
ENDBRANCH  48  72
BRANCH  60  83
ATOM     83  C   UNL A   1      44.434  27.329  34.300  1.00  0.00     0.064 A 
ATOM     84  C   UNL A   1      45.690  27.947  34.377  1.00  0.00     0.173 A 
ATOM     85  C   UNL A   1      44.261  26.105  34.963  1.00  0.00     0.173 A 
ATOM     86  F   UNL A   1      45.908  29.113  33.749  1.00  0.00    -0.203 F 
ATOM     87  C   UNL A   1      46.738  27.353  35.075  1.00  0.00     0.198 A 
ATOM     88  C   UNL A   1      45.303  25.528  35.684  1.00  0.00     0.198 A 
ATOM     89  F   UNL A   1      43.075  25.478  34.929  1.00  0.00    -0.203 F 
ATOM     90  F   UNL A   1      47.941  27.944  35.102  1.00  0.00    -0.200 F 
ATOM     91  C   UNL A   1      46.542  26.150  35.735  1.00  0.00     0.200 A 
ATOM     92  F   UNL A   1      45.107  24.372  36.333  1.00  0.00    -0.200 F 
ATOM     93  F   UNL A   1      47.548  25.585  36.416  1.00  0.00    -0.200 F 
ENDBRANCH  60  83
ENDBRANCH  34  35
ENDBRANCH  27  29
ENDBRANCH  26  27
ENDBRANCH  25  26
ENDBRANCH   1  25
TORSDOF 15
ENDMDL
