MODEL 1
REMARK VINA RESULT:     -11.1      0.000      0.000
REMARK SMILES CC(=O)Oc1ccc(Br)cc1C(=O)NCC(=O)OCCOCCOC(=O)c1ccc(-c2c3nc(c(-c4c(F)c(F)c(F)c(F)c4F)c4ccc([nH]4)c(-c4c(F)c(F)c(F)c(F)c4F)c4nc(c(-c5c(F)c(F)c(F)c(F)c5F)c5ccc2[nH]5)C=C4)C=C3)cc1
REMARK SMILES IDX 20 1 19 2 18 3 16 4 17 5 15 6 14 7 12 8 13 9 11 11 5 12 6 13
REMARK SMILES IDX 7 14 10 15 8 16 9 17 4 18 2 19 1 20 3 21 21 22 22 23 23 24
REMARK SMILES IDX 24 25 25 26 26 27 27 28 28 29 89 30 29 31 88 32 30 33 31 34
REMARK SMILES IDX 32 35 82 36 33 37 87 38 81 39 83 40 34 41 86 42 80 43 79 44
REMARK SMILES IDX 35 46 67 47 47 48 66 49 48 50 51 51 65 52 84 53 49 54 50 55
REMARK SMILES IDX 64 57 85 58 52 59 36 60 37 61 45 62 38 63 39 64 43 65 46 66
REMARK SMILES IDX 40 67 41 68 44 69 42 70 68 71 69 72 77 73 70 74 71 75 75 76
REMARK SMILES IDX 78 77 72 78 73 79 76 80 74 81 53 82 54 83 62 84 55 85 56 86
REMARK SMILES IDX 60 87 63 88 57 89 58 90 61 91 59 92
REMARK H PARENT 14 10 83 45 51 56
REMARK Flexibility Score: inf
ROOT
ATOM      1  C   UNL A   1      32.367  26.949  26.440  1.00  0.00     0.202 C 
ENDROOT
BRANCH   1   2
ATOM      2  C   UNL A   1      32.324  25.605  25.709  1.00  0.00     0.261 C 
BRANCH   2   3
ATOM      3  O   UNL A   1      32.937  24.572  26.501  1.00  0.00    -0.462 OA
BRANCH   3   4
ATOM      4  C   UNL A   1      32.116  23.644  27.069  1.00  0.00     0.325 C 
ATOM      5  O   UNL A   1      30.903  23.758  27.183  1.00  0.00    -0.250 OA
BRANCH   4   6
ATOM      6  C   UNL A   1      32.887  22.411  27.550  1.00  0.00     0.239 C 
BRANCH   6   7
ATOM      7  N   UNL A   1      34.197  22.269  26.941  1.00  0.00    -0.341 N 
ATOM      8  C   UNL A   1      34.673  21.622  25.840  1.00  0.00     0.255 C 
ATOM      9  O   UNL A   1      35.893  21.712  25.668  1.00  0.00    -0.269 OA
ATOM     10  H   UNL A   1      34.901  22.748  27.434  1.00  0.00     0.164 HD
BRANCH   8  11
ATOM     11  C   UNL A   1      33.873  20.887  24.818  1.00  0.00     0.083 A 
ATOM     12  C   UNL A   1      32.953  21.387  23.887  1.00  0.00     0.143 A 
ATOM     13  C   UNL A   1      32.255  20.516  23.027  1.00  0.00     0.049 A 
ATOM     14  C   UNL A   1      32.414  19.136  23.125  1.00  0.00     0.019 A 
ATOM     15  C   UNL A   1      34.022  19.481  24.889  1.00  0.00     0.033 A 
ATOM     16  C   UNL A   1      33.298  18.623  24.062  1.00  0.00     0.019 A 
ATOM     17  Br  UNL A   1      33.514  16.753  24.220  1.00  0.00    -0.051 Br
BRANCH  12  18
ATOM     18  O   UNL A   1      32.743  22.760  23.686  1.00  0.00    -0.426 OA
BRANCH  18  19
ATOM     19  C   UNL A   1      33.515  23.388  22.709  1.00  0.00     0.308 C 
ATOM     20  C   UNL A   1      34.638  24.146  23.357  1.00  0.00     0.139 C 
ATOM     21  O   UNL A   1      33.328  23.339  21.502  1.00  0.00    -0.252 OA
ENDBRANCH  18  19
ENDBRANCH  12  18
ENDBRANCH   8  11
ENDBRANCH   6   7
ENDBRANCH   4   6
ENDBRANCH   3   4
ENDBRANCH   2   3
ENDBRANCH   1   2
BRANCH   1  22
ATOM     22  O   UNL A   1      31.436  27.930  25.980  1.00  0.00    -0.374 OA
BRANCH  22  23
ATOM     23  C   UNL A   1      31.954  29.016  25.215  1.00  0.00     0.202 C 
BRANCH  23  24
ATOM     24  C   UNL A   1      31.794  30.415  25.819  1.00  0.00     0.261 C 
BRANCH  24  25
ATOM     25  O   UNL A   1      32.377  30.515  27.128  1.00  0.00    -0.460 OA
BRANCH  25  26
ATOM     26  C   UNL A   1      33.108  31.639  27.323  1.00  0.00     0.338 C 
ATOM     27  O   UNL A   1      32.713  32.792  27.274  1.00  0.00    -0.246 OA
BRANCH  26  28
ATOM     28  C   UNL A   1      34.477  31.303  27.758  1.00  0.00     0.060 A 
ATOM     29  C   UNL A   1      34.751  29.953  28.006  1.00  0.00     0.016 A 
ATOM     30  C   UNL A   1      35.439  32.283  28.017  1.00  0.00     0.016 A 
ATOM     31  C   UNL A   1      35.960  29.581  28.587  1.00  0.00     0.010 A 
ATOM     32  C   UNL A   1      36.652  31.908  28.609  1.00  0.00     0.010 A 
ATOM     33  C   UNL A   1      36.895  30.562  28.937  1.00  0.00    -0.014 A 
BRANCH  33  34
ATOM     34  C   UNL A   1      38.040  30.189  29.802  1.00  0.00     0.031 A 
ATOM     35  C   UNL A   1      39.080  29.247  29.260  1.00  0.00     0.074 A 
ATOM     36  C   UNL A   1      38.182  30.723  31.027  1.00  0.00     0.049 A 
ATOM     37  N   UNL A   1      40.163  28.784  29.831  1.00  0.00    -0.248 NA
ATOM     38  C   UNL A   1      38.871  28.762  27.886  1.00  0.00     0.031 C 
ATOM     39  C   UNL A   1      37.264  31.679  31.640  1.00  0.00     0.029 A 
ATOM     40  N   UNL A   1      39.156  30.532  31.973  1.00  0.00    -0.354 N 
ATOM     41  C   UNL A   1      40.761  27.955  28.891  1.00  0.00     0.074 A 
ATOM     42  C   UNL A   1      39.908  27.955  27.721  1.00  0.00     0.031 C 
ATOM     43  C   UNL A   1      37.714  31.986  32.869  1.00  0.00     0.029 A 
ATOM     44  C   UNL A   1      38.935  31.227  33.135  1.00  0.00     0.049 A 
ATOM     45  H   UNL A   1      39.939  29.951  31.832  1.00  0.00     0.167 HD
ATOM     46  C   UNL A   1      41.922  27.265  28.991  1.00  0.00     0.037 A 
ATOM     47  C   UNL A   1      39.633  31.233  34.287  1.00  0.00     0.037 A 
ATOM     48  C   UNL A   1      42.768  27.267  30.154  1.00  0.00     0.049 A 
ATOM     49  C   UNL A   1      40.884  30.402  34.398  1.00  0.00     0.074 A 
ATOM     50  C   UNL A   1      43.972  26.614  30.348  1.00  0.00     0.029 A 
ATOM     51  N   UNL A   1      42.491  27.954  31.327  1.00  0.00    -0.354 N 
ATOM     52  N   UNL A   1      41.457  29.641  33.496  1.00  0.00    -0.248 NA
ATOM     53  C   UNL A   1      41.588  30.432  35.689  1.00  0.00     0.031 C 
ATOM     54  C   UNL A   1      44.401  26.869  31.655  1.00  0.00     0.029 A 
ATOM     55  C   UNL A   1      43.489  27.719  32.258  1.00  0.00     0.049 A 
ATOM     56  H   UNL A   1      41.702  28.523  31.475  1.00  0.00     0.167 HD
ATOM     57  C   UNL A   1      42.596  29.123  34.099  1.00  0.00     0.074 A 
ATOM     58  C   UNL A   1      42.642  29.667  35.440  1.00  0.00     0.031 C 
ATOM     59  C   UNL A   1      43.520  28.274  33.588  1.00  0.00     0.037 A 
BRANCH  46  60
ATOM     60  C   UNL A   1      42.332  26.429  27.814  1.00  0.00     0.064 A 
ATOM     61  C   UNL A   1      43.149  26.941  26.796  1.00  0.00     0.173 A 
ATOM     62  C   UNL A   1      41.925  25.090  27.720  1.00  0.00     0.173 A 
ATOM     63  F   UNL A   1      43.553  28.220  26.833  1.00  0.00    -0.203 F 
ATOM     64  C   UNL A   1      43.528  26.148  25.716  1.00  0.00     0.198 A 
ATOM     65  C   UNL A   1      42.326  24.293  26.651  1.00  0.00     0.198 A 
ATOM     66  F   UNL A   1      41.144  24.552  28.669  1.00  0.00    -0.203 F 
ATOM     67  F   UNL A   1      44.276  26.669  24.733  1.00  0.00    -0.200 F 
ATOM     68  C   UNL A   1      43.121  24.824  25.648  1.00  0.00     0.200 A 
ATOM     69  F   UNL A   1      41.939  23.011  26.592  1.00  0.00    -0.200 F 
ATOM     70  F   UNL A   1      43.490  24.060  24.610  1.00  0.00    -0.200 F 
ENDBRANCH  46  60
BRANCH  47  71
ATOM     71  C   UNL A   1      39.157  32.047  35.435  1.00  0.00     0.064 A 
ATOM     72  C   UNL A   1      39.497  33.401  35.555  1.00  0.00     0.173 A 
ATOM     73  C   UNL A   1      38.364  31.480  36.445  1.00  0.00     0.173 A 
ATOM     74  F   UNL A   1      40.276  33.980  34.629  1.00  0.00    -0.203 F 
ATOM     75  C   UNL A   1      39.072  34.155  36.647  1.00  0.00     0.198 A 
ATOM     76  C   UNL A   1      37.919  32.241  37.523  1.00  0.00     0.198 A 
ATOM     77  F   UNL A   1      38.018  30.187  36.380  1.00  0.00    -0.203 F 
ATOM     78  F   UNL A   1      39.447  35.437  36.760  1.00  0.00    -0.200 F 
ATOM     79  C   UNL A   1      38.279  33.577  37.627  1.00  0.00     0.200 A 
ATOM     80  F   UNL A   1      37.147  31.681  38.464  1.00  0.00    -0.200 F 
ATOM     81  F   UNL A   1      37.870  34.303  38.676  1.00  0.00    -0.200 F 
ENDBRANCH  47  71
BRANCH  59  82
ATOM     82  C   UNL A   1      44.676  27.903  34.469  1.00  0.00     0.064 A 
ATOM     83  C   UNL A   1      45.847  28.674  34.507  1.00  0.00     0.173 A 
ATOM     84  C   UNL A   1      44.595  26.789  35.319  1.00  0.00     0.173 A 
ATOM     85  F   UNL A   1      45.979  29.740  33.703  1.00  0.00    -0.203 F 
ATOM     86  C   UNL A   1      46.903  28.330  35.346  1.00  0.00     0.198 A 
ATOM     87  C   UNL A   1      45.641  26.464  36.176  1.00  0.00     0.198 A 
ATOM     88  F   UNL A   1      43.493  26.024  35.326  1.00  0.00    -0.203 F 
ATOM     89  F   UNL A   1      48.030  29.055  35.334  1.00  0.00    -0.200 F 
ATOM     90  C   UNL A   1      46.797  27.230  36.184  1.00  0.00     0.200 A 
ATOM     91  F   UNL A   1      45.531  25.409  36.995  1.00  0.00    -0.200 F 
ATOM     92  F   UNL A   1      47.811  26.904  36.997  1.00  0.00    -0.200 F 
ENDBRANCH  59  82
ENDBRANCH  33  34
ENDBRANCH  26  28
ENDBRANCH  25  26
ENDBRANCH  24  25
ENDBRANCH  23  24
ENDBRANCH  22  23
ENDBRANCH   1  22
TORSDOF 18
ENDMDL
MODEL 2
REMARK VINA RESULT:     -11.1      3.169      8.121
REMARK SMILES CC(=O)Oc1ccc(Br)cc1C(=O)NCC(=O)OCCOCCOC(=O)c1ccc(-c2c3nc(c(-c4c(F)c(F)c(F)c(F)c4F)c4ccc([nH]4)c(-c4c(F)c(F)c(F)c(F)c4F)c4nc(c(-c5c(F)c(F)c(F)c(F)c5F)c5ccc2[nH]5)C=C4)C=C3)cc1
REMARK SMILES IDX 20 1 19 2 18 3 16 4 17 5 15 6 14 7 12 8 13 9 11 11 5 12 6 13
REMARK SMILES IDX 7 14 10 15 8 16 9 17 4 18 2 19 1 20 3 21 21 22 22 23 23 24
REMARK SMILES IDX 24 25 25 26 26 27 27 28 28 29 89 30 29 31 88 32 30 33 31 34
REMARK SMILES IDX 32 35 82 36 33 37 87 38 81 39 83 40 34 41 86 42 80 43 79 44
REMARK SMILES IDX 35 46 67 47 47 48 66 49 48 50 51 51 65 52 84 53 49 54 50 55
REMARK SMILES IDX 64 57 85 58 52 59 36 60 37 61 45 62 38 63 39 64 43 65 46 66
REMARK SMILES IDX 40 67 41 68 44 69 42 70 68 71 69 72 77 73 70 74 71 75 75 76
REMARK SMILES IDX 78 77 72 78 73 79 76 80 74 81 53 82 54 83 62 84 55 85 56 86
REMARK SMILES IDX 60 87 63 88 57 89 58 90 61 91 59 92
REMARK H PARENT 14 10 83 45 51 56
REMARK Flexibility Score: inf
ROOT
ATOM      1  C   UNL A   1      41.591  20.334  26.190  1.00  0.00     0.202 C 
ENDROOT
BRANCH   1   2
ATOM      2  C   UNL A   1      40.108  20.691  26.066  1.00  0.00     0.261 C 
BRANCH   2   3
ATOM      3  O   UNL A   1      39.848  21.996  26.614  1.00  0.00    -0.462 OA
BRANCH   3   4
ATOM      4  C   UNL A   1      38.733  22.649  26.181  1.00  0.00     0.325 C 
ATOM      5  O   UNL A   1      38.484  23.828  26.393  1.00  0.00    -0.250 OA
BRANCH   4   6
ATOM      6  C   UNL A   1      37.808  21.733  25.373  1.00  0.00     0.239 C 
BRANCH   6   7
ATOM      7  N   UNL A   1      37.293  22.347  24.162  1.00  0.00    -0.341 N 
ATOM      8  C   UNL A   1      36.089  22.868  23.792  1.00  0.00     0.255 C 
ATOM      9  O   UNL A   1      36.032  23.277  22.628  1.00  0.00    -0.269 OA
ATOM     10  H   UNL A   1      37.965  22.399  23.445  1.00  0.00     0.164 HD
BRANCH   8  11
ATOM     11  C   UNL A   1      34.887  23.041  24.657  1.00  0.00     0.083 A 
ATOM     12  C   UNL A   1      33.995  22.073  25.138  1.00  0.00     0.143 A 
ATOM     13  C   UNL A   1      32.879  22.446  25.913  1.00  0.00     0.049 A 
ATOM     14  C   UNL A   1      32.599  23.787  26.164  1.00  0.00     0.019 A 
ATOM     15  C   UNL A   1      34.584  24.395  24.937  1.00  0.00     0.033 A 
ATOM     16  C   UNL A   1      33.454  24.758  25.670  1.00  0.00     0.019 A 
ATOM     17  Br  UNL A   1      33.082  26.584  25.988  1.00  0.00    -0.051 Br
BRANCH  12  18
ATOM     18  O   UNL A   1      34.203  20.695  24.968  1.00  0.00    -0.426 OA
BRANCH  18  19
ATOM     19  C   UNL A   1      33.116  19.935  24.537  1.00  0.00     0.308 C 
ATOM     20  C   UNL A   1      32.839  18.836  25.523  1.00  0.00     0.139 C 
ATOM     21  O   UNL A   1      32.469  20.118  23.515  1.00  0.00    -0.252 OA
ENDBRANCH  18  19
ENDBRANCH  12  18
ENDBRANCH   8  11
ENDBRANCH   6   7
ENDBRANCH   4   6
ENDBRANCH   3   4
ENDBRANCH   2   3
ENDBRANCH   1   2
BRANCH   1  22
ATOM     22  O   UNL A   1      42.336  21.113  27.128  1.00  0.00    -0.374 OA
BRANCH  22  23
ATOM     23  C   UNL A   1      43.446  21.855  26.629  1.00  0.00     0.202 C 
BRANCH  23  24
ATOM     24  C   UNL A   1      43.578  21.947  25.105  1.00  0.00     0.261 C 
BRANCH  24  25
ATOM     25  O   UNL A   1      43.100  23.199  24.590  1.00  0.00    -0.460 OA
BRANCH  25  26
ATOM     26  C   UNL A   1      43.853  24.267  24.948  1.00  0.00     0.338 C 
ATOM     27  O   UNL A   1      44.979  24.537  24.562  1.00  0.00    -0.246 OA
BRANCH  26  28
ATOM     28  C   UNL A   1      43.078  25.194  25.794  1.00  0.00     0.060 A 
ATOM     29  C   UNL A   1      43.638  26.456  26.030  1.00  0.00     0.016 A 
ATOM     30  C   UNL A   1      41.892  24.813  26.426  1.00  0.00     0.016 A 
ATOM     31  C   UNL A   1      43.055  27.315  26.957  1.00  0.00     0.010 A 
ATOM     32  C   UNL A   1      41.312  25.676  27.364  1.00  0.00     0.010 A 
ATOM     33  C   UNL A   1      41.918  26.908  27.665  1.00  0.00    -0.014 A 
BRANCH  33  34
ATOM     34  C   UNL A   1      41.478  27.702  28.837  1.00  0.00     0.031 A 
ATOM     35  C   UNL A   1      42.267  27.607  30.114  1.00  0.00     0.074 A 
ATOM     36  C   UNL A   1      40.429  28.537  28.750  1.00  0.00     0.049 A 
ATOM     37  N   UNL A   1      42.073  28.208  31.260  1.00  0.00    -0.248 NA
ATOM     38  C   UNL A   1      43.437  26.713  30.095  1.00  0.00     0.031 C 
ATOM     39  C   UNL A   1      39.617  28.747  27.555  1.00  0.00     0.029 A 
ATOM     40  N   UNL A   1      39.869  29.363  29.691  1.00  0.00    -0.354 N 
ATOM     41  C   UNL A   1      43.091  27.765  32.096  1.00  0.00     0.074 A 
ATOM     42  C   UNL A   1      43.885  26.824  31.336  1.00  0.00     0.031 C 
ATOM     43  C   UNL A   1      38.652  29.640  27.837  1.00  0.00     0.029 A 
ATOM     44  C   UNL A   1      38.766  30.041  29.238  1.00  0.00     0.049 A 
ATOM     45  H   UNL A   1      40.225  29.461  30.604  1.00  0.00     0.167 HD
ATOM     46  C   UNL A   1      43.344  28.120  33.378  1.00  0.00     0.037 A 
ATOM     47  C   UNL A   1      37.934  30.876  29.890  1.00  0.00     0.037 A 
ATOM     48  C   UNL A   1      42.553  29.056  34.131  1.00  0.00     0.049 A 
ATOM     49  C   UNL A   1      38.197  31.201  31.337  1.00  0.00     0.074 A 
ATOM     50  C   UNL A   1      42.738  29.494  35.430  1.00  0.00     0.029 A 
ATOM     51  N   UNL A   1      41.419  29.694  33.650  1.00  0.00    -0.354 N 
ATOM     52  N   UNL A   1      39.175  30.798  32.113  1.00  0.00    -0.248 NA
ATOM     53  C   UNL A   1      37.240  32.100  31.999  1.00  0.00     0.031 C 
ATOM     54  C   UNL A   1      41.688  30.362  35.751  1.00  0.00     0.029 A 
ATOM     55  C   UNL A   1      40.878  30.502  34.636  1.00  0.00     0.049 A 
ATOM     56  H   UNL A   1      41.054  29.587  32.742  1.00  0.00     0.167 HD
ATOM     57  C   UNL A   1      38.966  31.410  33.342  1.00  0.00     0.074 A 
ATOM     58  C   UNL A   1      37.776  32.223  33.206  1.00  0.00     0.031 C 
ATOM     59  C   UNL A   1      39.694  31.308  34.480  1.00  0.00     0.037 A 
BRANCH  46  60
ATOM     60  C   UNL A   1      44.516  27.471  34.055  1.00  0.00     0.064 A 
ATOM     61  C   UNL A   1      44.376  26.290  34.797  1.00  0.00     0.173 A 
ATOM     62  C   UNL A   1      45.800  28.023  33.934  1.00  0.00     0.173 A 
ATOM     63  F   UNL A   1      43.166  25.731  34.955  1.00  0.00    -0.203 F 
ATOM     64  C   UNL A   1      45.475  25.696  35.412  1.00  0.00     0.198 A 
ATOM     65  C   UNL A   1      46.901  27.414  34.528  1.00  0.00     0.198 A 
ATOM     66  F   UNL A   1      45.987  29.152  33.232  1.00  0.00    -0.203 F 
ATOM     67  F   UNL A   1      45.312  24.590  36.151  1.00  0.00    -0.200 F 
ATOM     68  C   UNL A   1      46.737  26.255  35.271  1.00  0.00     0.200 A 
ATOM     69  F   UNL A   1      48.121  27.950  34.384  1.00  0.00    -0.200 F 
ATOM     70  F   UNL A   1      47.795  25.680  35.859  1.00  0.00    -0.200 F 
ENDBRANCH  46  60
BRANCH  47  71
ATOM     71  C   UNL A   1      36.764  31.456  29.182  1.00  0.00     0.064 A 
ATOM     72  C   UNL A   1      36.734  32.809  28.819  1.00  0.00     0.173 A 
ATOM     73  C   UNL A   1      35.646  30.670  28.866  1.00  0.00     0.173 A 
ATOM     74  F   UNL A   1      37.767  33.608  29.125  1.00  0.00    -0.203 F 
ATOM     75  C   UNL A   1      35.623  33.359  28.180  1.00  0.00     0.198 A 
ATOM     76  C   UNL A   1      34.547  31.213  28.204  1.00  0.00     0.198 A 
ATOM     77  F   UNL A   1      35.623  29.371  29.198  1.00  0.00    -0.203 F 
ATOM     78  F   UNL A   1      35.602  34.665  27.883  1.00  0.00    -0.200 F 
ATOM     79  C   UNL A   1      34.534  32.559  27.868  1.00  0.00     0.200 A 
ATOM     80  F   UNL A   1      33.500  30.436  27.897  1.00  0.00    -0.200 F 
ATOM     81  F   UNL A   1      33.468  33.087  27.251  1.00  0.00    -0.200 F 
ENDBRANCH  47  71
BRANCH  59  82
ATOM     82  C   UNL A   1      39.244  32.118  35.661  1.00  0.00     0.064 A 
ATOM     83  C   UNL A   1      38.423  31.569  36.657  1.00  0.00     0.173 A 
ATOM     84  C   UNL A   1      39.674  33.444  35.820  1.00  0.00     0.173 A 
ATOM     85  F   UNL A   1      37.974  30.310  36.543  1.00  0.00    -0.203 F 
ATOM     86  C   UNL A   1      38.031  32.325  37.758  1.00  0.00     0.198 A 
ATOM     87  C   UNL A   1      39.303  34.188  36.936  1.00  0.00     0.198 A 
ATOM     88  F   UNL A   1      40.467  34.012  34.899  1.00  0.00    -0.203 F 
ATOM     89  F   UNL A   1      37.211  31.795  38.676  1.00  0.00    -0.200 F 
ATOM     90  C   UNL A   1      38.477  33.631  37.899  1.00  0.00     0.200 A 
ATOM     91  F   UNL A   1      39.745  35.445  37.077  1.00  0.00    -0.200 F 
ATOM     92  F   UNL A   1      38.105  34.356  38.964  1.00  0.00    -0.200 F 
ENDBRANCH  59  82
ENDBRANCH  33  34
ENDBRANCH  26  28
ENDBRANCH  25  26
ENDBRANCH  24  25
ENDBRANCH  23  24
ENDBRANCH  22  23
ENDBRANCH   1  22
TORSDOF 18
ENDMDL
MODEL 3
REMARK VINA RESULT:     -11.0      4.869      9.187
REMARK SMILES CC(=O)Oc1ccc(Br)cc1C(=O)NCC(=O)OCCOCCOC(=O)c1ccc(-c2c3nc(c(-c4c(F)c(F)c(F)c(F)c4F)c4ccc([nH]4)c(-c4c(F)c(F)c(F)c(F)c4F)c4nc(c(-c5c(F)c(F)c(F)c(F)c5F)c5ccc2[nH]5)C=C4)C=C3)cc1
REMARK SMILES IDX 20 1 19 2 18 3 16 4 17 5 15 6 14 7 12 8 13 9 11 11 5 12 6 13
REMARK SMILES IDX 7 14 10 15 8 16 9 17 4 18 2 19 1 20 3 21 21 22 22 23 23 24
REMARK SMILES IDX 24 25 25 26 26 27 27 28 28 29 89 30 29 31 88 32 30 33 31 34
REMARK SMILES IDX 32 35 82 36 33 37 87 38 81 39 83 40 34 41 86 42 80 43 79 44
REMARK SMILES IDX 35 46 67 47 47 48 66 49 48 50 51 51 65 52 84 53 49 54 50 55
REMARK SMILES IDX 64 57 85 58 52 59 36 60 37 61 45 62 38 63 39 64 43 65 46 66
REMARK SMILES IDX 40 67 41 68 44 69 42 70 68 71 69 72 77 73 70 74 71 75 75 76
REMARK SMILES IDX 78 77 72 78 73 79 76 80 74 81 53 82 54 83 62 84 55 85 56 86
REMARK SMILES IDX 60 87 63 88 57 89 58 90 61 91 59 92
REMARK H PARENT 14 10 83 45 51 56
REMARK Flexibility Score: inf
ROOT
ATOM      1  C   UNL A   1      34.002  33.257  28.388  1.00  0.00     0.202 C 
ENDROOT
BRANCH   1   2
ATOM      2  C   UNL A   1      34.700  32.064  27.733  1.00  0.00     0.261 C 
BRANCH   2   3
ATOM      3  O   UNL A   1      33.980  30.845  27.993  1.00  0.00    -0.462 OA
BRANCH   3   4
ATOM      4  C   UNL A   1      33.997  29.886  27.024  1.00  0.00     0.325 C 
ATOM      5  O   UNL A   1      34.790  28.954  26.974  1.00  0.00    -0.250 OA
BRANCH   4   6
ATOM      6  C   UNL A   1      32.889  30.096  25.987  1.00  0.00     0.239 C 
BRANCH   6   7
ATOM      7  N   UNL A   1      33.268  29.706  24.641  1.00  0.00    -0.341 N 
ATOM      8  C   UNL A   1      32.689  28.950  23.667  1.00  0.00     0.255 C 
ATOM      9  O   UNL A   1      33.360  28.818  22.638  1.00  0.00    -0.269 OA
ATOM     10  H   UNL A   1      34.142  30.070  24.370  1.00  0.00     0.164 HD
BRANCH   8  11
ATOM     11  C   UNL A   1      31.331  28.334  23.701  1.00  0.00     0.083 A 
ATOM     12  C   UNL A   1      30.963  27.018  24.014  1.00  0.00     0.143 A 
ATOM     13  C   UNL A   1      29.615  26.614  23.944  1.00  0.00     0.049 A 
ATOM     14  C   UNL A   1      28.627  27.490  23.501  1.00  0.00     0.019 A 
ATOM     15  C   UNL A   1      30.305  29.207  23.265  1.00  0.00     0.033 A 
ATOM     16  C   UNL A   1      28.979  28.786  23.160  1.00  0.00     0.019 A 
ATOM     17  Br  UNL A   1      27.655  29.984  22.542  1.00  0.00    -0.051 Br
BRANCH  12  18
ATOM     18  O   UNL A   1      31.874  26.068  24.500  1.00  0.00    -0.426 OA
BRANCH  18  19
ATOM     19  C   UNL A   1      32.149  24.972  23.682  1.00  0.00     0.308 C 
ATOM     20  C   UNL A   1      33.136  25.363  22.621  1.00  0.00     0.139 C 
ATOM     21  O   UNL A   1      31.672  23.851  23.796  1.00  0.00    -0.252 OA
ENDBRANCH  18  19
ENDBRANCH  12  18
ENDBRANCH   8  11
ENDBRANCH   6   7
ENDBRANCH   4   6
ENDBRANCH   3   4
ENDBRANCH   2   3
ENDBRANCH   1   2
BRANCH   1  22
ATOM     22  O   UNL A   1      34.768  33.955  29.371  1.00  0.00    -0.374 OA
BRANCH  22  23
ATOM     23  C   UNL A   1      34.070  34.467  30.504  1.00  0.00     0.202 C 
BRANCH  23  24
ATOM     24  C   UNL A   1      34.532  33.964  31.876  1.00  0.00     0.261 C 
BRANCH  24  25
ATOM     25  O   UNL A   1      34.765  32.547  31.888  1.00  0.00    -0.460 OA
BRANCH  25  26
ATOM     26  C   UNL A   1      35.802  32.165  32.672  1.00  0.00     0.338 C 
ATOM     27  O   UNL A   1      35.928  32.355  33.871  1.00  0.00    -0.246 OA
BRANCH  26  28
ATOM     28  C   UNL A   1      36.752  31.329  31.913  1.00  0.00     0.060 A 
ATOM     29  C   UNL A   1      37.824  30.780  32.627  1.00  0.00     0.016 A 
ATOM     30  C   UNL A   1      36.664  31.169  30.529  1.00  0.00     0.016 A 
ATOM     31  C   UNL A   1      38.853  30.131  31.952  1.00  0.00     0.010 A 
ATOM     32  C   UNL A   1      37.704  30.523  29.849  1.00  0.00     0.010 A 
ATOM     33  C   UNL A   1      38.823  30.044  30.555  1.00  0.00    -0.014 A 
BRANCH  33  34
ATOM     34  C   UNL A   1      40.044  29.610  29.834  1.00  0.00     0.031 A 
ATOM     35  C   UNL A   1      41.173  30.590  29.667  1.00  0.00     0.074 A 
ATOM     36  C   UNL A   1      40.169  28.350  29.387  1.00  0.00     0.049 A 
ATOM     37  N   UNL A   1      42.331  30.434  29.079  1.00  0.00    -0.248 NA
ATOM     38  C   UNL A   1      40.968  31.929  30.245  1.00  0.00     0.031 C 
ATOM     39  C   UNL A   1      39.162  27.302  29.529  1.00  0.00     0.029 A 
ATOM     40  N   UNL A   1      41.201  27.741  28.718  1.00  0.00    -0.354 N 
ATOM     41  C   UNL A   1      42.990  31.649  29.213  1.00  0.00     0.074 A 
ATOM     42  C   UNL A   1      42.094  32.544  29.914  1.00  0.00     0.031 C 
ATOM     43  C   UNL A   1      39.623  26.176  28.955  1.00  0.00     0.029 A 
ATOM     44  C   UNL A   1      40.943  26.436  28.384  1.00  0.00     0.049 A 
ATOM     45  H   UNL A   1      42.046  28.197  28.500  1.00  0.00     0.167 HD
ATOM     46  C   UNL A   1      44.234  31.985  28.798  1.00  0.00     0.037 A 
ATOM     47  C   UNL A   1      41.685  25.559  27.680  1.00  0.00     0.037 A 
ATOM     48  C   UNL A   1      45.124  31.094  28.101  1.00  0.00     0.049 A 
ATOM     49  C   UNL A   1      43.038  25.979  27.167  1.00  0.00     0.074 A 
ATOM     50  C   UNL A   1      46.410  31.335  27.653  1.00  0.00     0.029 A 
ATOM     51  N   UNL A   1      44.812  29.790  27.746  1.00  0.00    -0.354 N 
ATOM     52  N   UNL A   1      43.664  27.122  27.320  1.00  0.00    -0.248 NA
ATOM     53  C   UNL A   1      43.788  24.986  26.386  1.00  0.00     0.031 C 
ATOM     54  C   UNL A   1      46.860  30.190  26.985  1.00  0.00     0.029 A 
ATOM     55  C   UNL A   1      45.873  29.222  27.060  1.00  0.00     0.049 A 
ATOM     56  H   UNL A   1      43.963  29.337  27.951  1.00  0.00     0.167 HD
ATOM     57  C   UNL A   1      44.887  26.977  26.677  1.00  0.00     0.074 A 
ATOM     58  C   UNL A   1      44.921  25.632  26.144  1.00  0.00     0.031 C 
ATOM     59  C   UNL A   1      45.890  27.878  26.541  1.00  0.00     0.037 A 
BRANCH  46  60
ATOM     60  C   UNL A   1      44.697  33.387  29.066  1.00  0.00     0.064 A 
ATOM     61  C   UNL A   1      45.403  33.719  30.231  1.00  0.00     0.173 A 
ATOM     62  C   UNL A   1      44.457  34.404  28.130  1.00  0.00     0.173 A 
ATOM     63  F   UNL A   1      45.645  32.785  31.164  1.00  0.00    -0.203 F 
ATOM     64  C   UNL A   1      45.833  35.024  30.460  1.00  0.00     0.198 A 
ATOM     65  C   UNL A   1      44.910  35.702  28.351  1.00  0.00     0.198 A 
ATOM     66  F   UNL A   1      43.788  34.137  26.998  1.00  0.00    -0.203 F 
ATOM     67  F   UNL A   1      46.470  35.328  31.599  1.00  0.00    -0.200 F 
ATOM     68  C   UNL A   1      45.592  36.011  29.517  1.00  0.00     0.200 A 
ATOM     69  F   UNL A   1      44.685  36.653  27.434  1.00  0.00    -0.200 F 
ATOM     70  F   UNL A   1      46.011  37.265  29.736  1.00  0.00    -0.200 F 
ENDBRANCH  46  60
BRANCH  47  71
ATOM     71  C   UNL A   1      41.158  24.198  27.406  1.00  0.00     0.064 A 
ATOM     72  C   UNL A   1      40.086  23.998  26.528  1.00  0.00     0.173 A 
ATOM     73  C   UNL A   1      41.709  23.069  28.032  1.00  0.00     0.173 A 
ATOM     74  F   UNL A   1      39.507  25.049  25.927  1.00  0.00    -0.203 F 
ATOM     75  C   UNL A   1      39.574  22.723  26.293  1.00  0.00     0.198 A 
ATOM     76  C   UNL A   1      41.215  21.792  27.778  1.00  0.00     0.198 A 
ATOM     77  F   UNL A   1      42.732  23.207  28.887  1.00  0.00    -0.203 F 
ATOM     78  F   UNL A   1      38.520  22.564  25.482  1.00  0.00    -0.200 F 
ATOM     79  C   UNL A   1      40.143  21.620  26.914  1.00  0.00     0.200 A 
ATOM     80  F   UNL A   1      41.771  20.729  28.374  1.00  0.00    -0.200 F 
ATOM     81  F   UNL A   1      39.652  20.394  26.688  1.00  0.00    -0.200 F 
ENDBRANCH  47  71
BRANCH  59  82
ATOM     82  C   UNL A   1      47.123  27.430  25.812  1.00  0.00     0.064 A 
ATOM     83  C   UNL A   1      47.280  27.641  24.435  1.00  0.00     0.173 A 
ATOM     84  C   UNL A   1      48.179  26.822  26.509  1.00  0.00     0.173 A 
ATOM     85  F   UNL A   1      46.293  28.205  23.723  1.00  0.00    -0.203 F 
ATOM     86  C   UNL A   1      48.439  27.239  23.777  1.00  0.00     0.198 A 
ATOM     87  C   UNL A   1      49.348  26.446  25.854  1.00  0.00     0.198 A 
ATOM     88  F   UNL A   1      48.081  26.605  27.829  1.00  0.00    -0.203 F 
ATOM     89  F   UNL A   1      48.551  27.411  22.453  1.00  0.00    -0.200 F 
ATOM     90  C   UNL A   1      49.474  26.649  24.488  1.00  0.00     0.200 A 
ATOM     91  F   UNL A   1      50.352  25.888  26.544  1.00  0.00    -0.200 F 
ATOM     92  F   UNL A   1      50.593  26.269  23.855  1.00  0.00    -0.200 F 
ENDBRANCH  59  82
ENDBRANCH  33  34
ENDBRANCH  26  28
ENDBRANCH  25  26
ENDBRANCH  24  25
ENDBRANCH  23  24
ENDBRANCH  22  23
ENDBRANCH   1  22
TORSDOF 18
ENDMDL
