MODEL 1
REMARK VINA RESULT:      -8.9      0.000      0.000
REMARK SMILES O=C(OCCOCCOC(=O)[C@@H]1CCc2[nH]ncc2C1)c1ccc(-c2c3nc(c(-c4c(F)c(F)c(F)c(F)c4F)c4ccc([nH]4)c(-c4c(F)c(F)c(F)c(F)c4F)c4nc(c(-c5c(F)c(F)c(F)c(F)c5F)c5ccc2[nH]5)C=C4)C=C3)cc1
REMARK SMILES IDX 5 1 4 2 3 3 2 4 1 5 21 6 22 7 83 8 23 9 82 10 24 11 25 12
REMARK SMILES IDX 26 13 76 14 27 15 81 16 75 17 77 18 28 19 80 20 74 21 73 22
REMARK SMILES IDX 29 24 61 25 41 26 60 27 42 28 45 29 59 30 78 31 43 32 44 33
REMARK SMILES IDX 58 35 79 36 46 37 30 38 31 39 39 40 32 41 33 42 37 43 40 44
REMARK SMILES IDX 34 45 35 46 38 47 36 48 62 49 63 50 71 51 64 52 65 53 69 54
REMARK SMILES IDX 72 55 66 56 67 57 70 58 68 59 47 60 48 61 56 62 49 63 50 64
REMARK SMILES IDX 54 65 57 66 51 67 52 68 55 69 53 70 6 71 7 72 8 73 9 74
REMARK SMILES IDX 10 75 11 76 12 77 13 78 20 79 14 80 19 81 15 82 18 83 16 84
REMARK SMILES IDX 17 85
REMARK H PARENT 77 23 45 34 16 86
REMARK Flexibility Score: inf
ROOT
ATOM      1  C   UNL A   1      45.678  19.472  24.323  1.00  0.00     0.202 C 
ENDROOT
BRANCH   1   2
ATOM      2  C   UNL A   1      44.484  18.805  25.030  1.00  0.00     0.261 C 
BRANCH   2   3
ATOM      3  O   UNL A   1      43.271  19.563  24.891  1.00  0.00    -0.460 OA
BRANCH   3   4
ATOM      4  C   UNL A   1      42.396  19.919  25.862  1.00  0.00     0.338 C 
ATOM      5  O   UNL A   1      41.542  19.109  26.217  1.00  0.00    -0.246 OA
BRANCH   4   6
ATOM      6  C   UNL A   1      42.402  21.263  26.517  1.00  0.00     0.060 A 
ATOM      7  C   UNL A   1      42.480  22.474  25.834  1.00  0.00     0.016 A 
ATOM      8  C   UNL A   1      42.264  21.310  27.915  1.00  0.00     0.016 A 
ATOM      9  C   UNL A   1      42.522  23.683  26.487  1.00  0.00     0.010 A 
ATOM     10  C   UNL A   1      42.263  22.535  28.593  1.00  0.00     0.010 A 
ATOM     11  C   UNL A   1      42.428  23.719  27.869  1.00  0.00    -0.014 A 
BRANCH  11  12
ATOM     12  C   UNL A   1      42.710  25.024  28.478  1.00  0.00     0.031 A 
ATOM     13  C   UNL A   1      44.146  25.405  28.647  1.00  0.00     0.074 A 
ATOM     14  C   UNL A   1      41.707  25.910  28.601  1.00  0.00     0.049 A 
ATOM     15  N   UNL A   1      44.661  26.524  29.075  1.00  0.00    -0.248 NA
ATOM     16  C   UNL A   1      45.145  24.398  28.244  1.00  0.00     0.031 C 
ATOM     17  C   UNL A   1      40.305  25.647  28.258  1.00  0.00     0.029 A 
ATOM     18  N   UNL A   1      41.719  27.224  28.973  1.00  0.00    -0.354 N 
ATOM     19  C   UNL A   1      46.036  26.340  29.031  1.00  0.00     0.074 A 
ATOM     20  C   UNL A   1      46.282  25.010  28.527  1.00  0.00     0.031 C 
ATOM     21  C   UNL A   1      39.599  26.779  28.404  1.00  0.00     0.029 A 
ATOM     22  C   UNL A   1      40.482  27.817  28.922  1.00  0.00     0.049 A 
ATOM     23  H   UNL A   1      42.534  27.699  29.251  1.00  0.00     0.167 HD
ATOM     24  C   UNL A   1      46.998  27.215  29.399  1.00  0.00     0.037 A 
ATOM     25  C   UNL A   1      40.116  29.056  29.289  1.00  0.00     0.037 A 
ATOM     26  C   UNL A   1      46.703  28.533  29.889  1.00  0.00     0.049 A 
ATOM     27  C   UNL A   1      41.195  29.969  29.806  1.00  0.00     0.074 A 
ATOM     28  C   UNL A   1      47.567  29.493  30.374  1.00  0.00     0.029 A 
ATOM     29  N   UNL A   1      45.422  29.071  29.950  1.00  0.00    -0.354 N 
ATOM     30  N   UNL A   1      42.492  29.766  29.865  1.00  0.00    -0.248 NA
ATOM     31  C   UNL A   1      40.766  31.272  30.322  1.00  0.00     0.031 C 
ATOM     32  C   UNL A   1      46.803  30.592  30.782  1.00  0.00     0.029 A 
ATOM     33  C   UNL A   1      45.469  30.345  30.488  1.00  0.00     0.049 A 
ATOM     34  H   UNL A   1      44.602  28.614  29.654  1.00  0.00     0.167 HD
ATOM     35  C   UNL A   1      43.038  30.922  30.399  1.00  0.00     0.074 A 
ATOM     36  C   UNL A   1      41.929  31.829  30.629  1.00  0.00     0.031 C 
ATOM     37  C   UNL A   1      44.333  31.214  30.680  1.00  0.00     0.037 A 
BRANCH  24  38
ATOM     38  C   UNL A   1      48.413  26.717  29.384  1.00  0.00     0.064 A 
ATOM     39  C   UNL A   1      48.947  25.932  30.417  1.00  0.00     0.173 A 
ATOM     40  C   UNL A   1      49.268  27.091  28.336  1.00  0.00     0.173 A 
ATOM     41  F   UNL A   1      48.183  25.578  31.461  1.00  0.00    -0.203 F 
ATOM     42  C   UNL A   1      50.293  25.568  30.416  1.00  0.00     0.198 A 
ATOM     43  C   UNL A   1      50.604  26.700  28.324  1.00  0.00     0.198 A 
ATOM     44  F   UNL A   1      48.814  27.854  27.332  1.00  0.00    -0.203 F 
ATOM     45  F   UNL A   1      50.799  24.878  31.448  1.00  0.00    -0.200 F 
ATOM     46  C   UNL A   1      51.119  25.949  29.370  1.00  0.00     0.200 A 
ATOM     47  F   UNL A   1      51.399  27.071  27.310  1.00  0.00    -0.200 F 
ATOM     48  F   UNL A   1      52.415  25.609  29.377  1.00  0.00    -0.200 F 
ENDBRANCH  24  38
BRANCH  25  49
ATOM     49  C   UNL A   1      38.689  29.474  29.240  1.00  0.00     0.064 A 
ATOM     50  C   UNL A   1      38.047  29.751  28.025  1.00  0.00     0.173 A 
ATOM     51  C   UNL A   1      37.938  29.629  30.416  1.00  0.00     0.173 A 
ATOM     52  F   UNL A   1      38.721  29.637  26.871  1.00  0.00    -0.203 F 
ATOM     53  C   UNL A   1      36.722  30.187  27.990  1.00  0.00     0.198 A 
ATOM     54  C   UNL A   1      36.604  30.033  30.380  1.00  0.00     0.198 A 
ATOM     55  F   UNL A   1      38.497  29.383  31.611  1.00  0.00    -0.203 F 
ATOM     56  F   UNL A   1      36.152  30.497  26.818  1.00  0.00    -0.200 F 
ATOM     57  C   UNL A   1      36.001  30.322  29.167  1.00  0.00     0.200 A 
ATOM     58  F   UNL A   1      35.909  30.147  31.519  1.00  0.00    -0.200 F 
ATOM     59  F   UNL A   1      34.729  30.743  29.133  1.00  0.00    -0.200 F 
ENDBRANCH  25  49
BRANCH  37  60
ATOM     60  C   UNL A   1      44.611  32.587  31.213  1.00  0.00     0.064 A 
ATOM     61  C   UNL A   1      44.673  32.848  32.588  1.00  0.00     0.173 A 
ATOM     62  C   UNL A   1      44.855  33.646  30.325  1.00  0.00     0.173 A 
ATOM     63  F   UNL A   1      44.433  31.869  33.474  1.00  0.00    -0.203 F 
ATOM     64  C   UNL A   1      44.938  34.130  33.057  1.00  0.00     0.198 A 
ATOM     65  C   UNL A   1      45.157  34.917  30.798  1.00  0.00     0.198 A 
ATOM     66  F   UNL A   1      44.816  33.441  29.000  1.00  0.00    -0.203 F 
ATOM     67  F   UNL A   1      44.936  34.373  34.375  1.00  0.00    -0.200 F 
ATOM     68  C   UNL A   1      45.188  35.161  32.162  1.00  0.00     0.200 A 
ATOM     69  F   UNL A   1      45.416  35.907  29.932  1.00  0.00    -0.200 F 
ATOM     70  F   UNL A   1      45.452  36.394  32.617  1.00  0.00    -0.200 F 
ENDBRANCH  37  60
ENDBRANCH  11  12
ENDBRANCH   4   6
ENDBRANCH   3   4
ENDBRANCH   2   3
ENDBRANCH   1   2
BRANCH   1  71
ATOM     71  O   UNL A   1      46.226  20.665  24.896  1.00  0.00    -0.374 OA
BRANCH  71  72
ATOM     72  C   UNL A   1      45.747  21.916  24.384  1.00  0.00     0.202 C 
BRANCH  72  73
ATOM     73  C   UNL A   1      46.323  23.091  25.171  1.00  0.00     0.261 C 
BRANCH  73  74
ATOM     74  O   UNL A   1      45.752  24.284  24.621  1.00  0.00    -0.463 OA
BRANCH  74  75
ATOM     75  C   UNL A   1      46.556  25.372  24.697  1.00  0.00     0.309 C 
ATOM     76  O   UNL A   1      47.661  25.470  24.175  1.00  0.00    -0.252 OA
BRANCH  75  77
ATOM     77  C   UNL A   1      45.880  26.514  25.415  1.00  0.00     0.104 C 
ATOM     78  C   UNL A   1      44.398  26.610  25.000  1.00  0.00     0.022 C 
ATOM     79  C   UNL A   1      46.576  27.893  25.248  1.00  0.00     0.054 C 
ATOM     80  C   UNL A   1      43.616  27.566  25.924  1.00  0.00     0.057 C 
ATOM     81  C   UNL A   1      45.790  28.911  25.985  1.00  0.00    -0.006 A 
ATOM     82  C   UNL A   1      44.450  28.751  26.249  1.00  0.00     0.038 A 
ATOM     83  C   UNL A   1      46.129  30.136  26.581  1.00  0.00     0.138 A 
ATOM     84  N   UNL A   1      44.056  29.867  26.923  1.00  0.00    -0.282 N 
ATOM     85  N   UNL A   1      45.071  30.721  27.155  1.00  0.00    -0.184 NA
ATOM     86  H   UNL A   1      43.128  30.031  27.210  1.00  0.00     0.190 HD
ENDBRANCH  75  77
ENDBRANCH  74  75
ENDBRANCH  73  74
ENDBRANCH  72  73
ENDBRANCH  71  72
ENDBRANCH   1  71
TORSDOF 14
ENDMDL
MODEL 2
REMARK VINA RESULT:      -8.9      0.801      7.783
REMARK SMILES O=C(OCCOCCOC(=O)[C@@H]1CCc2[nH]ncc2C1)c1ccc(-c2c3nc(c(-c4c(F)c(F)c(F)c(F)c4F)c4ccc([nH]4)c(-c4c(F)c(F)c(F)c(F)c4F)c4nc(c(-c5c(F)c(F)c(F)c(F)c5F)c5ccc2[nH]5)C=C4)C=C3)cc1
REMARK SMILES IDX 5 1 4 2 3 3 2 4 1 5 21 6 22 7 83 8 23 9 82 10 24 11 25 12
REMARK SMILES IDX 26 13 76 14 27 15 81 16 75 17 77 18 28 19 80 20 74 21 73 22
REMARK SMILES IDX 29 24 61 25 41 26 60 27 42 28 45 29 59 30 78 31 43 32 44 33
REMARK SMILES IDX 58 35 79 36 46 37 30 38 31 39 39 40 32 41 33 42 37 43 40 44
REMARK SMILES IDX 34 45 35 46 38 47 36 48 62 49 63 50 71 51 64 52 65 53 69 54
REMARK SMILES IDX 72 55 66 56 67 57 70 58 68 59 47 60 48 61 56 62 49 63 50 64
REMARK SMILES IDX 54 65 57 66 51 67 52 68 55 69 53 70 6 71 7 72 8 73 9 74
REMARK SMILES IDX 10 75 11 76 12 77 13 78 20 79 14 80 19 81 15 82 18 83 16 84
REMARK SMILES IDX 17 85
REMARK H PARENT 77 23 45 34 16 86
REMARK Flexibility Score: inf
ROOT
ATOM      1  C   UNL A   1      45.781  19.690  24.835  1.00  0.00     0.202 C 
ENDROOT
BRANCH   1   2
ATOM      2  C   UNL A   1      44.617  18.844  25.381  1.00  0.00     0.261 C 
BRANCH   2   3
ATOM      3  O   UNL A   1      43.334  19.345  24.970  1.00  0.00    -0.460 OA
BRANCH   3   4
ATOM      4  C   UNL A   1      42.370  19.900  25.743  1.00  0.00     0.338 C 
ATOM      5  O   UNL A   1      41.342  19.261  25.960  1.00  0.00    -0.246 OA
BRANCH   4   6
ATOM      6  C   UNL A   1      42.483  21.268  26.338  1.00  0.00     0.060 A 
ATOM      7  C   UNL A   1      42.612  22.441  25.599  1.00  0.00     0.016 A 
ATOM      8  C   UNL A   1      42.398  21.382  27.736  1.00  0.00     0.016 A 
ATOM      9  C   UNL A   1      42.752  23.672  26.196  1.00  0.00     0.010 A 
ATOM     10  C   UNL A   1      42.497  22.632  28.358  1.00  0.00     0.010 A 
ATOM     11  C   UNL A   1      42.709  23.771  27.577  1.00  0.00    -0.014 A 
BRANCH  11  12
ATOM     12  C   UNL A   1      43.093  25.081  28.118  1.00  0.00     0.031 A 
ATOM     13  C   UNL A   1      41.992  26.051  28.411  1.00  0.00     0.074 A 
ATOM     14  C   UNL A   1      44.346  25.250  28.574  1.00  0.00     0.049 A 
ATOM     15  N   UNL A   1      42.053  27.230  28.965  1.00  0.00    -0.248 NA
ATOM     16  C   UNL A   1      40.626  25.618  28.061  1.00  0.00     0.031 C 
ATOM     17  C   UNL A   1      45.414  24.248  28.491  1.00  0.00     0.029 A 
ATOM     18  N   UNL A   1      44.913  26.286  29.259  1.00  0.00    -0.354 N 
ATOM     19  C   UNL A   1      40.745  27.693  28.993  1.00  0.00     0.074 A 
ATOM     20  C   UNL A   1      39.907  26.671  28.411  1.00  0.00     0.031 C 
ATOM     21  C   UNL A   1      46.498  24.709  29.134  1.00  0.00     0.029 A 
ATOM     22  C   UNL A   1      46.223  26.061  29.603  1.00  0.00     0.049 A 
ATOM     23  H   UNL A   1      44.430  27.113  29.485  1.00  0.00     0.167 HD
ATOM     24  C   UNL A   1      40.300  28.882  29.457  1.00  0.00     0.037 A 
ATOM     25  C   UNL A   1      47.099  26.884  30.203  1.00  0.00     0.037 A 
ATOM     26  C   UNL A   1      41.174  29.866  30.034  1.00  0.00     0.049 A 
ATOM     27  C   UNL A   1      46.602  28.248  30.602  1.00  0.00     0.074 A 
ATOM     28  C   UNL A   1      40.878  31.142  30.469  1.00  0.00     0.029 A 
ATOM     29  N   UNL A   1      42.532  29.665  30.258  1.00  0.00    -0.354 N 
ATOM     30  N   UNL A   1      45.383  28.735  30.538  1.00  0.00    -0.248 NA
ATOM     31  C   UNL A   1      47.596  29.182  31.138  1.00  0.00     0.031 C 
ATOM     32  C   UNL A   1      42.070  31.734  30.903  1.00  0.00     0.029 A 
ATOM     33  C   UNL A   1      43.096  30.804  30.803  1.00  0.00     0.049 A 
ATOM     34  H   UNL A   1      43.021  28.834  30.057  1.00  0.00     0.167 HD
ATOM     35  C   UNL A   1      45.457  30.021  31.049  1.00  0.00     0.074 A 
ATOM     36  C   UNL A   1      46.841  30.229  31.435  1.00  0.00     0.031 C 
ATOM     37  C   UNL A   1      44.479  30.952  31.186  1.00  0.00     0.037 A 
BRANCH  24  38
ATOM     38  C   UNL A   1      38.850  29.197  29.243  1.00  0.00     0.064 A 
ATOM     39  C   UNL A   1      38.326  29.527  27.984  1.00  0.00     0.173 A 
ATOM     40  C   UNL A   1      37.978  29.226  30.343  1.00  0.00     0.173 A 
ATOM     41  F   UNL A   1      39.124  29.551  26.906  1.00  0.00    -0.203 F 
ATOM     42  C   UNL A   1      36.993  29.907  27.841  1.00  0.00     0.198 A 
ATOM     43  C   UNL A   1      36.640  29.577  30.191  1.00  0.00     0.198 A 
ATOM     44  F   UNL A   1      38.429  28.934  31.572  1.00  0.00    -0.203 F 
ATOM     45  F   UNL A   1      36.532  30.288  26.641  1.00  0.00    -0.200 F 
ATOM     46  C   UNL A   1      36.150  29.929  28.942  1.00  0.00     0.200 A 
ATOM     47  F   UNL A   1      35.828  29.597  31.258  1.00  0.00    -0.200 F 
ATOM     48  F   UNL A   1      34.873  30.307  28.804  1.00  0.00    -0.200 F 
ENDBRANCH  24  38
BRANCH  25  49
ATOM     49  C   UNL A   1      48.515  26.473  30.402  1.00  0.00     0.064 A 
ATOM     50  C   UNL A   1      48.920  25.765  31.542  1.00  0.00     0.173 A 
ATOM     51  C   UNL A   1      49.505  26.804  29.462  1.00  0.00     0.173 A 
ATOM     52  F   UNL A   1      48.021  25.439  32.482  1.00  0.00    -0.203 F 
ATOM     53  C   UNL A   1      50.258  25.424  31.743  1.00  0.00     0.198 A 
ATOM     54  C   UNL A   1      50.835  26.434  29.647  1.00  0.00     0.198 A 
ATOM     55  F   UNL A   1      49.180  27.485  28.352  1.00  0.00    -0.203 F 
ATOM     56  F   UNL A   1      50.624  24.794  32.868  1.00  0.00    -0.200 F 
ATOM     57  C   UNL A   1      51.213  25.754  30.793  1.00  0.00     0.200 A 
ATOM     58  F   UNL A   1      51.750  26.743  28.718  1.00  0.00    -0.200 F 
ATOM     59  F   UNL A   1      52.498  25.428  30.988  1.00  0.00    -0.200 F 
ENDBRANCH  25  49
BRANCH  37  60
ATOM     60  C   UNL A   1      44.871  32.248  31.827  1.00  0.00     0.064 A 
ATOM     61  C   UNL A   1      44.816  32.433  33.215  1.00  0.00     0.173 A 
ATOM     62  C   UNL A   1      45.346  33.305  31.036  1.00  0.00     0.173 A 
ATOM     63  F   UNL A   1      44.355  31.455  34.010  1.00  0.00    -0.203 F 
ATOM     64  C   UNL A   1      45.191  33.644  33.786  1.00  0.00     0.198 A 
ATOM     65  C   UNL A   1      45.756  34.501  31.615  1.00  0.00     0.198 A 
ATOM     66  F   UNL A   1      45.426  33.170  29.704  1.00  0.00    -0.203 F 
ATOM     67  F   UNL A   1      45.075  33.822  35.110  1.00  0.00    -0.200 F 
ATOM     68  C   UNL A   1      45.668  34.673  32.987  1.00  0.00     0.200 A 
ATOM     69  F   UNL A   1      46.233  35.486  30.842  1.00  0.00    -0.200 F 
ATOM     70  F   UNL A   1      46.038  35.836  33.541  1.00  0.00    -0.200 F 
ENDBRANCH  37  60
ENDBRANCH  11  12
ENDBRANCH   4   6
ENDBRANCH   3   4
ENDBRANCH   2   3
ENDBRANCH   1   2
BRANCH   1  71
ATOM     71  O   UNL A   1      45.994  20.993  25.393  1.00  0.00    -0.374 OA
BRANCH  71  72
ATOM     72  C   UNL A   1      46.057  22.094  24.476  1.00  0.00     0.202 C 
BRANCH  72  73
ATOM     73  C   UNL A   1      46.402  23.394  25.199  1.00  0.00     0.261 C 
BRANCH  73  74
ATOM     74  O   UNL A   1      46.740  24.356  24.194  1.00  0.00    -0.463 OA
BRANCH  74  75
ATOM     75  C   UNL A   1      47.357  25.465  24.669  1.00  0.00     0.309 C 
ATOM     76  O   UNL A   1      48.571  25.630  24.718  1.00  0.00    -0.252 OA
BRANCH  75  77
ATOM     77  C   UNL A   1      46.364  26.541  25.035  1.00  0.00     0.104 C 
ATOM     78  C   UNL A   1      46.742  27.188  26.382  1.00  0.00     0.022 C 
ATOM     79  C   UNL A   1      44.881  26.081  25.056  1.00  0.00     0.054 C 
ATOM     80  C   UNL A   1      45.929  28.475  26.636  1.00  0.00     0.057 C 
ATOM     81  C   UNL A   1      44.034  27.231  25.450  1.00  0.00    -0.006 A 
ATOM     82  C   UNL A   1      44.526  28.282  26.188  1.00  0.00     0.038 A 
ATOM     83  C   UNL A   1      42.696  27.567  25.196  1.00  0.00     0.138 A 
ATOM     84  N   UNL A   1      43.485  29.141  26.373  1.00  0.00    -0.282 N 
ATOM     85  N   UNL A   1      42.359  28.734  25.757  1.00  0.00    -0.184 NA
ATOM     86  H   UNL A   1      43.550  29.970  26.900  1.00  0.00     0.190 HD
ENDBRANCH  75  77
ENDBRANCH  74  75
ENDBRANCH  73  74
ENDBRANCH  72  73
ENDBRANCH  71  72
ENDBRANCH   1  71
TORSDOF 14
ENDMDL
MODEL 3
REMARK VINA RESULT:      -8.9      6.355     11.411
REMARK SMILES O=C(OCCOCCOC(=O)[C@@H]1CCc2[nH]ncc2C1)c1ccc(-c2c3nc(c(-c4c(F)c(F)c(F)c(F)c4F)c4ccc([nH]4)c(-c4c(F)c(F)c(F)c(F)c4F)c4nc(c(-c5c(F)c(F)c(F)c(F)c5F)c5ccc2[nH]5)C=C4)C=C3)cc1
REMARK SMILES IDX 5 1 4 2 3 3 2 4 1 5 21 6 22 7 83 8 23 9 82 10 24 11 25 12
REMARK SMILES IDX 26 13 76 14 27 15 81 16 75 17 77 18 28 19 80 20 74 21 73 22
REMARK SMILES IDX 29 24 61 25 41 26 60 27 42 28 45 29 59 30 78 31 43 32 44 33
REMARK SMILES IDX 58 35 79 36 46 37 30 38 31 39 39 40 32 41 33 42 37 43 40 44
REMARK SMILES IDX 34 45 35 46 38 47 36 48 62 49 63 50 71 51 64 52 65 53 69 54
REMARK SMILES IDX 72 55 66 56 67 57 70 58 68 59 47 60 48 61 56 62 49 63 50 64
REMARK SMILES IDX 54 65 57 66 51 67 52 68 55 69 53 70 6 71 7 72 8 73 9 74
REMARK SMILES IDX 10 75 11 76 12 77 13 78 20 79 14 80 19 81 15 82 18 83 16 84
REMARK SMILES IDX 17 85
REMARK H PARENT 77 23 45 34 16 86
REMARK Flexibility Score: inf
ROOT
ATOM      1  C   UNL A   1      32.165  28.310  27.451  1.00  0.00     0.202 C 
ENDROOT
BRANCH   1   2
ATOM      2  C   UNL A   1      31.754  29.670  26.858  1.00  0.00     0.261 C 
BRANCH   2   3
ATOM      3  O   UNL A   1      32.888  30.473  26.490  1.00  0.00    -0.460 OA
BRANCH   3   4
ATOM      4  C   UNL A   1      33.612  31.303  27.279  1.00  0.00     0.338 C 
ATOM      5  O   UNL A   1      33.147  32.404  27.567  1.00  0.00    -0.246 OA
BRANCH   4   6
ATOM      6  C   UNL A   1      34.966  30.954  27.809  1.00  0.00     0.060 A 
ATOM      7  C   UNL A   1      35.405  29.656  28.063  1.00  0.00     0.016 A 
ATOM      8  C   UNL A   1      35.879  32.002  28.012  1.00  0.00     0.016 A 
ATOM      9  C   UNL A   1      36.648  29.392  28.587  1.00  0.00     0.010 A 
ATOM     10  C   UNL A   1      37.164  31.747  28.506  1.00  0.00     0.010 A 
ATOM     11  C   UNL A   1      37.527  30.436  28.824  1.00  0.00    -0.014 A 
BRANCH  11  12
ATOM     12  C   UNL A   1      38.727  30.076  29.590  1.00  0.00     0.031 A 
ATOM     13  C   UNL A   1      38.793  30.530  31.013  1.00  0.00     0.074 A 
ATOM     14  C   UNL A   1      39.562  29.151  29.086  1.00  0.00     0.049 A 
ATOM     15  N   UNL A   1      39.694  30.277  31.922  1.00  0.00    -0.248 NA
ATOM     16  C   UNL A   1      37.670  31.357  31.491  1.00  0.00     0.031 C 
ATOM     17  C   UNL A   1      39.426  28.525  27.767  1.00  0.00     0.029 A 
ATOM     18  N   UNL A   1      40.640  28.526  29.644  1.00  0.00    -0.354 N 
ATOM     19  C   UNL A   1      39.267  30.944  33.061  1.00  0.00     0.074 A 
ATOM     20  C   UNL A   1      38.025  31.606  32.741  1.00  0.00     0.031 C 
ATOM     21  C   UNL A   1      40.366  27.577  27.633  1.00  0.00     0.029 A 
ATOM     22  C   UNL A   1      41.212  27.587  28.820  1.00  0.00     0.049 A 
ATOM     23  H   UNL A   1      40.974  28.727  30.547  1.00  0.00     0.167 HD
ATOM     24  C   UNL A   1      39.882  31.001  34.264  1.00  0.00     0.037 A 
ATOM     25  C   UNL A   1      42.318  26.849  29.011  1.00  0.00     0.037 A 
ATOM     26  C   UNL A   1      41.116  30.318  34.538  1.00  0.00     0.049 A 
ATOM     27  C   UNL A   1      43.046  27.023  30.317  1.00  0.00     0.074 A 
ATOM     28  C   UNL A   1      41.892  30.350  35.678  1.00  0.00     0.029 A 
ATOM     29  N   UNL A   1      41.750  29.467  33.638  1.00  0.00    -0.354 N 
ATOM     30  N   UNL A   1      42.703  27.734  31.367  1.00  0.00    -0.248 NA
ATOM     31  C   UNL A   1      44.319  26.310  30.462  1.00  0.00     0.031 C 
ATOM     32  C   UNL A   1      43.027  29.563  35.447  1.00  0.00     0.029 A 
ATOM     33  C   UNL A   1      42.924  28.986  34.190  1.00  0.00     0.049 A 
ATOM     34  H   UNL A   1      41.414  29.240  32.741  1.00  0.00     0.167 HD
ATOM     35  C   UNL A   1      43.701  27.536  32.307  1.00  0.00     0.074 A 
ATOM     36  C   UNL A   1      44.653  26.620  31.706  1.00  0.00     0.031 C 
ATOM     37  C   UNL A   1      43.829  28.061  33.552  1.00  0.00     0.037 A 
BRANCH  24  38
ATOM     38  C   UNL A   1      39.280  31.909  35.294  1.00  0.00     0.064 A 
ATOM     39  C   UNL A   1      39.592  33.275  35.370  1.00  0.00     0.173 A 
ATOM     40  C   UNL A   1      38.416  31.380  36.266  1.00  0.00     0.173 A 
ATOM     41  F   UNL A   1      40.442  33.824  34.490  1.00  0.00    -0.203 F 
ATOM     42  C   UNL A   1      39.088  34.068  36.400  1.00  0.00     0.198 A 
ATOM     43  C   UNL A   1      37.892  32.181  37.275  1.00  0.00     0.198 A 
ATOM     44  F   UNL A   1      38.098  30.077  36.250  1.00  0.00    -0.203 F 
ATOM     45  F   UNL A   1      39.456  35.353  36.495  1.00  0.00    -0.200 F 
ATOM     46  C   UNL A   1      38.237  33.523  37.349  1.00  0.00     0.200 A 
ATOM     47  F   UNL A   1      37.069  31.651  38.190  1.00  0.00    -0.200 F 
ATOM     48  F   UNL A   1      37.764  34.283  38.345  1.00  0.00    -0.200 F 
ENDBRANCH  24  38
BRANCH  25  49
ATOM     49  C   UNL A   1      42.824  25.947  27.941  1.00  0.00     0.064 A 
ATOM     50  C   UNL A   1      43.727  26.398  26.968  1.00  0.00     0.173 A 
ATOM     51  C   UNL A   1      42.394  24.613  27.854  1.00  0.00     0.173 A 
ATOM     52  F   UNL A   1      44.157  27.668  26.991  1.00  0.00    -0.203 F 
ATOM     53  C   UNL A   1      44.160  25.558  25.941  1.00  0.00     0.198 A 
ATOM     54  C   UNL A   1      42.853  23.765  26.848  1.00  0.00     0.198 A 
ATOM     55  F   UNL A   1      41.527  24.124  28.754  1.00  0.00    -0.203 F 
ATOM     56  F   UNL A   1      44.981  26.032  24.993  1.00  0.00    -0.200 F 
ATOM     57  C   UNL A   1      43.728  24.242  25.886  1.00  0.00     0.200 A 
ATOM     58  F   UNL A   1      42.442  22.491  26.809  1.00  0.00    -0.200 F 
ATOM     59  F   UNL A   1      44.142  23.438  24.898  1.00  0.00    -0.200 F 
ENDBRANCH  25  49
BRANCH  37  60
ATOM     60  C   UNL A   1      45.012  27.607  34.353  1.00  0.00     0.064 A 
ATOM     61  C   UNL A   1      44.982  26.432  35.115  1.00  0.00     0.173 A 
ATOM     62  C   UNL A   1      46.204  28.347  34.320  1.00  0.00     0.173 A 
ATOM     63  F   UNL A   1      43.860  25.701  35.187  1.00  0.00    -0.203 F 
ATOM     64  C   UNL A   1      46.096  26.030  35.846  1.00  0.00     0.198 A 
ATOM     65  C   UNL A   1      47.326  27.921  35.022  1.00  0.00     0.198 A 
ATOM     66  F   UNL A   1      46.282  29.473  33.596  1.00  0.00    -0.203 F 
ATOM     67  F   UNL A   1      46.029  24.935  36.616  1.00  0.00    -0.200 F 
ATOM     68  C   UNL A   1      47.268  26.770  35.792  1.00  0.00     0.200 A 
ATOM     69  F   UNL A   1      48.463  28.627  34.953  1.00  0.00    -0.200 F 
ATOM     70  F   UNL A   1      48.343  26.376  36.489  1.00  0.00    -0.200 F 
ENDBRANCH  37  60
ENDBRANCH  11  12
ENDBRANCH   4   6
ENDBRANCH   3   4
ENDBRANCH   2   3
ENDBRANCH   1   2
BRANCH   1  71
ATOM     71  O   UNL A   1      31.423  27.148  27.060  1.00  0.00    -0.374 OA
BRANCH  71  72
ATOM     72  C   UNL A   1      32.170  26.042  26.536  1.00  0.00     0.202 C 
BRANCH  72  73
ATOM     73  C   UNL A   1      33.283  26.520  25.605  1.00  0.00     0.261 C 
BRANCH  73  74
ATOM     74  O   UNL A   1      32.766  26.464  24.271  1.00  0.00    -0.463 OA
BRANCH  74  75
ATOM     75  C   UNL A   1      32.479  27.676  23.735  1.00  0.00     0.309 C 
ATOM     76  O   UNL A   1      33.301  28.442  23.244  1.00  0.00    -0.252 OA
BRANCH  75  77
ATOM     77  C   UNL A   1      30.992  27.933  23.706  1.00  0.00     0.104 C 
ATOM     78  C   UNL A   1      30.224  26.625  23.430  1.00  0.00     0.022 C 
ATOM     79  C   UNL A   1      30.540  29.042  22.717  1.00  0.00     0.054 C 
ATOM     80  C   UNL A   1      28.712  26.796  23.686  1.00  0.00     0.057 C 
ATOM     81  C   UNL A   1      29.065  29.163  22.784  1.00  0.00    -0.006 A 
ATOM     82  C   UNL A   1      28.263  28.125  23.196  1.00  0.00     0.038 A 
ATOM     83  C   UNL A   1      28.178  30.221  22.529  1.00  0.00     0.138 A 
ATOM     84  N   UNL A   1      26.982  28.578  23.125  1.00  0.00    -0.282 N 
ATOM     85  N   UNL A   1      26.906  29.866  22.738  1.00  0.00    -0.184 NA
ATOM     86  H   UNL A   1      26.195  28.024  23.335  1.00  0.00     0.190 HD
ENDBRANCH  75  77
ENDBRANCH  74  75
ENDBRANCH  73  74
ENDBRANCH  72  73
ENDBRANCH  71  72
ENDBRANCH   1  71
TORSDOF 14
ENDMDL
