MODEL 1
REMARK VINA RESULT:     -11.2      0.000      0.000
REMARK SMILES Cn1ccnc1N1[C@@H]2CC[C@H]1C[C@H](CC(=O)OCCOCCOC(=O)c1ccc(-c3c4nc(c(-c5c(F)c(F)c(F)c(F)c5F)c5ccc([nH]5)c(-c5c(F)c(F)c(F)c(F)c5F)c5nc(c(-c6c(F)c(F)c(F)c(F)c6F)c6ccc3[nH]6)C=C5)C=C4)cc1)C2
REMARK SMILES IDX 20 1 19 2 18 3 17 4 15 5 16 6 14 7 13 8 7 9 8 10 11 11 9 12
REMARK SMILES IDX 89 13 10 14 12 15 6 16 1 17 2 18 3 19 4 20 5 21 21 22 22 23
REMARK SMILES IDX 23 24 24 25 25 26 26 27 27 28 88 29 28 30 87 31 29 32 30 33
REMARK SMILES IDX 31 34 81 35 32 36 86 37 80 38 82 39 33 40 85 41 79 42 78 43
REMARK SMILES IDX 34 45 66 46 46 47 65 48 47 49 50 50 64 51 83 52 48 53 49 54
REMARK SMILES IDX 63 56 84 57 51 58 35 59 36 60 44 61 37 62 38 63 42 64 45 65
REMARK SMILES IDX 39 66 40 67 43 68 41 69 67 70 68 71 76 72 69 73 70 74 74 75
REMARK SMILES IDX 77 76 71 77 72 78 75 79 73 80 52 81 53 82 61 83 54 84 55 85
REMARK SMILES IDX 59 86 62 87 56 88 57 89 60 90 58 91
REMARK H PARENT 82 44 50 55
REMARK Flexibility Score: inf
ROOT
ATOM      1  O   UNL A   1      31.874  30.674  26.090  1.00  0.00    -0.374 OA
ENDROOT
BRANCH   1   2
ATOM      2  C   UNL A   1      31.419  29.632  25.227  1.00  0.00     0.202 C 
BRANCH   2   3
ATOM      3  C   UNL A   1      31.895  28.224  25.591  1.00  0.00     0.261 C 
BRANCH   3   4
ATOM      4  O   UNL A   1      30.892  27.240  25.269  1.00  0.00    -0.463 OA
BRANCH   4   5
ATOM      5  C   UNL A   1      30.910  26.098  26.002  1.00  0.00     0.306 C 
ATOM      6  O   UNL A   1      29.917  25.502  26.395  1.00  0.00    -0.252 OA
BRANCH   5   7
ATOM      7  C   UNL A   1      32.317  25.660  26.355  1.00  0.00     0.126 C 
BRANCH   7   8
ATOM      8  C   UNL A   1      33.017  24.667  25.404  1.00  0.00     0.004 C 
ATOM      9  N   UNL A   1      35.444  23.023  25.360  1.00  0.00    -0.336 N 
ATOM     10  C   UNL A   1      34.140  22.342  25.425  1.00  0.00     0.086 C 
ATOM     11  C   UNL A   1      35.272  24.034  24.313  1.00  0.00     0.086 C 
ATOM     12  C   UNL A   1      33.791  22.135  23.942  1.00  0.00     0.027 C 
ATOM     13  C   UNL A   1      33.158  23.301  26.120  1.00  0.00     0.029 C 
ATOM     14  C   UNL A   1      34.556  23.244  23.206  1.00  0.00     0.027 C 
ATOM     15  C   UNL A   1      34.394  25.162  24.902  1.00  0.00     0.029 C 
BRANCH   9  16
ATOM     16  C   UNL A   1      36.555  22.237  25.396  1.00  0.00     0.205 A 
ATOM     17  C   UNL A   1      38.136  23.930  26.428  1.00  0.00     0.153 C 
ATOM     18  N   UNL A   1      37.792  22.666  25.827  1.00  0.00    -0.320 N 
ATOM     19  C   UNL A   1      38.683  21.640  25.645  1.00  0.00     0.109 A 
ATOM     20  C   UNL A   1      37.928  20.595  25.175  1.00  0.00     0.133 A 
ATOM     21  N   UNL A   1      36.621  20.970  25.041  1.00  0.00    -0.221 NA
ENDBRANCH   9  16
ENDBRANCH   7   8
ENDBRANCH   5   7
ENDBRANCH   4   5
ENDBRANCH   3   4
ENDBRANCH   2   3
ENDBRANCH   1   2
BRANCH   1  22
ATOM     22  C   UNL A   1      31.090  31.865  26.131  1.00  0.00     0.202 C 
BRANCH  22  23
ATOM     23  C   UNL A   1      31.763  33.064  26.806  1.00  0.00     0.261 C 
BRANCH  23  24
ATOM     24  O   UNL A   1      32.781  32.646  27.737  1.00  0.00    -0.460 OA
BRANCH  24  25
ATOM     25  C   UNL A   1      33.794  33.527  27.903  1.00  0.00     0.338 C 
ATOM     26  O   UNL A   1      33.723  34.750  27.913  1.00  0.00    -0.246 OA
BRANCH  25  27
ATOM     27  C   UNL A   1      35.040  32.817  28.249  1.00  0.00     0.060 A 
ATOM     28  C   UNL A   1      34.927  31.468  28.610  1.00  0.00     0.016 A 
ATOM     29  C   UNL A   1      36.277  33.464  28.305  1.00  0.00     0.016 A 
ATOM     30  C   UNL A   1      36.039  30.775  29.083  1.00  0.00     0.010 A 
ATOM     31  C   UNL A   1      37.392  32.766  28.786  1.00  0.00     0.010 A 
ATOM     32  C   UNL A   1      37.271  31.430  29.213  1.00  0.00    -0.014 A 
BRANCH  32  33
ATOM     33  C   UNL A   1      38.378  30.755  29.936  1.00  0.00     0.031 A 
ATOM     34  C   UNL A   1      38.619  31.088  31.384  1.00  0.00     0.074 A 
ATOM     35  C   UNL A   1      39.132  29.819  29.329  1.00  0.00     0.049 A 
ATOM     36  N   UNL A   1      39.532  30.630  32.203  1.00  0.00    -0.248 NA
ATOM     37  C   UNL A   1      37.708  32.072  31.991  1.00  0.00     0.031 C 
ATOM     38  C   UNL A   1      38.974  29.376  27.947  1.00  0.00     0.029 A 
ATOM     39  N   UNL A   1      40.182  29.074  29.804  1.00  0.00    -0.354 N 
ATOM     40  C   UNL A   1      39.308  31.269  33.415  1.00  0.00     0.074 A 
ATOM     41  C   UNL A   1      38.193  32.169  33.221  1.00  0.00     0.031 C 
ATOM     42  C   UNL A   1      39.904  28.442  27.680  1.00  0.00     0.029 A 
ATOM     43  C   UNL A   1      40.738  28.243  28.864  1.00  0.00     0.049 A 
ATOM     44  H   UNL A   1      40.508  29.132  30.733  1.00  0.00     0.167 HD
ATOM     45  C   UNL A   1      39.969  31.113  34.587  1.00  0.00     0.037 A 
ATOM     46  C   UNL A   1      41.809  27.428  28.945  1.00  0.00     0.037 A 
ATOM     47  C   UNL A   1      41.068  30.207  34.790  1.00  0.00     0.049 A 
ATOM     48  C   UNL A   1      42.560  27.317  30.248  1.00  0.00     0.074 A 
ATOM     49  C   UNL A   1      41.778  29.959  35.952  1.00  0.00     0.029 A 
ATOM     50  N   UNL A   1      41.616  29.400  33.806  1.00  0.00    -0.354 N 
ATOM     51  N   UNL A   1      42.321  27.903  31.395  1.00  0.00    -0.248 NA
ATOM     52  C   UNL A   1      43.729  26.424  30.266  1.00  0.00     0.031 C 
ATOM     53  C   UNL A   1      42.790  29.038  35.659  1.00  0.00     0.029 A 
ATOM     54  C   UNL A   1      42.676  28.674  34.327  1.00  0.00     0.049 A 
ATOM     55  H   UNL A   1      41.302  29.350  32.875  1.00  0.00     0.167 HD
ATOM     56  C   UNL A   1      43.287  27.429  32.276  1.00  0.00     0.074 A 
ATOM     57  C   UNL A   1      44.108  26.496  31.534  1.00  0.00     0.031 C 
ATOM     58  C   UNL A   1      43.475  27.738  33.582  1.00  0.00     0.037 A 
BRANCH  45  59
ATOM     59  C   UNL A   1      39.534  31.954  35.751  1.00  0.00     0.064 A 
ATOM     60  C   UNL A   1      38.517  31.537  36.622  1.00  0.00     0.173 A 
ATOM     61  C   UNL A   1      40.190  33.161  36.033  1.00  0.00     0.173 A 
ATOM     62  F   UNL A   1      37.853  30.396  36.386  1.00  0.00    -0.203 F 
ATOM     63  C   UNL A   1      38.164  32.306  37.728  1.00  0.00     0.198 A 
ATOM     64  C   UNL A   1      39.851  33.915  37.155  1.00  0.00     0.198 A 
ATOM     65  F   UNL A   1      41.172  33.602  35.233  1.00  0.00    -0.203 F 
ATOM     66  F   UNL A   1      37.169  31.904  38.531  1.00  0.00    -0.200 F 
ATOM     67  C   UNL A   1      38.836  33.488  37.998  1.00  0.00     0.200 A 
ATOM     68  F   UNL A   1      40.510  35.051  37.420  1.00  0.00    -0.200 F 
ATOM     69  F   UNL A   1      38.505  34.220  39.071  1.00  0.00    -0.200 F 
ENDBRANCH  45  59
BRANCH  46  70
ATOM     70  C   UNL A   1      42.258  26.664  27.751  1.00  0.00     0.064 A 
ATOM     71  C   UNL A   1      41.785  25.369  27.496  1.00  0.00     0.173 A 
ATOM     72  C   UNL A   1      43.205  27.199  26.865  1.00  0.00     0.173 A 
ATOM     73  F   UNL A   1      40.899  24.804  28.330  1.00  0.00    -0.203 F 
ATOM     74  C   UNL A   1      42.260  24.629  26.415  1.00  0.00     0.198 A 
ATOM     75  C   UNL A   1      43.658  26.469  25.769  1.00  0.00     0.198 A 
ATOM     76  F   UNL A   1      43.692  28.432  27.066  1.00  0.00    -0.203 F 
ATOM     77  F   UNL A   1      41.834  23.374  26.226  1.00  0.00    -0.200 F 
ATOM     78  C   UNL A   1      43.194  25.181  25.550  1.00  0.00     0.200 A 
ATOM     79  F   UNL A   1      44.551  27.011  24.930  1.00  0.00    -0.200 F 
ATOM     80  F   UNL A   1      43.654  24.468  24.513  1.00  0.00    -0.200 F 
ENDBRANCH  46  70
BRANCH  58  81
ATOM     81  C   UNL A   1      44.586  27.036  34.308  1.00  0.00     0.064 A 
ATOM     82  C   UNL A   1      44.406  25.769  34.882  1.00  0.00     0.173 A 
ATOM     83  C   UNL A   1      45.860  27.619  34.388  1.00  0.00     0.173 A 
ATOM     84  F   UNL A   1      43.204  25.176  34.846  1.00  0.00    -0.203 F 
ATOM     85  C   UNL A   1      45.455  25.123  35.532  1.00  0.00     0.198 A 
ATOM     86  C   UNL A   1      46.914  26.957  35.013  1.00  0.00     0.198 A 
ATOM     87  F   UNL A   1      46.087  28.825  33.847  1.00  0.00    -0.203 F 
ATOM     88  F   UNL A   1      45.249  23.933  36.114  1.00  0.00    -0.200 F 
ATOM     89  C   UNL A   1      46.709  25.714  35.590  1.00  0.00     0.200 A 
ATOM     90  F   UNL A   1      48.128  27.524  35.055  1.00  0.00    -0.200 F 
ATOM     91  F   UNL A   1      47.719  25.086  36.209  1.00  0.00    -0.200 F 
ENDBRANCH  58  81
ENDBRANCH  32  33
ENDBRANCH  25  27
ENDBRANCH  24  25
ENDBRANCH  23  24
ENDBRANCH  22  23
ENDBRANCH   1  22
TORSDOF 16
ENDMDL
MODEL 2
REMARK VINA RESULT:     -11.1      4.679      8.017
REMARK SMILES Cn1ccnc1N1[C@@H]2CC[C@H]1C[C@H](CC(=O)OCCOCCOC(=O)c1ccc(-c3c4nc(c(-c5c(F)c(F)c(F)c(F)c5F)c5ccc([nH]5)c(-c5c(F)c(F)c(F)c(F)c5F)c5nc(c(-c6c(F)c(F)c(F)c(F)c6F)c6ccc3[nH]6)C=C5)C=C4)cc1)C2
REMARK SMILES IDX 20 1 19 2 18 3 17 4 15 5 16 6 14 7 13 8 7 9 8 10 11 11 9 12
REMARK SMILES IDX 89 13 10 14 12 15 6 16 1 17 2 18 3 19 4 20 5 21 21 22 22 23
REMARK SMILES IDX 23 24 24 25 25 26 26 27 27 28 88 29 28 30 87 31 29 32 30 33
REMARK SMILES IDX 31 34 81 35 32 36 86 37 80 38 82 39 33 40 85 41 79 42 78 43
REMARK SMILES IDX 34 45 66 46 46 47 65 48 47 49 50 50 64 51 83 52 48 53 49 54
REMARK SMILES IDX 63 56 84 57 51 58 35 59 36 60 44 61 37 62 38 63 42 64 45 65
REMARK SMILES IDX 39 66 40 67 43 68 41 69 67 70 68 71 76 72 69 73 70 74 74 75
REMARK SMILES IDX 77 76 71 77 72 78 75 79 73 80 52 81 53 82 61 83 54 84 55 85
REMARK SMILES IDX 59 86 62 87 56 88 57 89 60 90 58 91
REMARK H PARENT 82 44 50 55
REMARK Flexibility Score: inf
ROOT
ATOM      1  O   UNL A   1      34.455  20.417  24.614  1.00  0.00    -0.374 OA
ENDROOT
BRANCH   1   2
ATOM      2  C   UNL A   1      33.440  21.307  24.152  1.00  0.00     0.202 C 
BRANCH   2   3
ATOM      3  C   UNL A   1      32.291  21.557  25.131  1.00  0.00     0.261 C 
BRANCH   3   4
ATOM      4  O   UNL A   1      32.565  22.697  25.970  1.00  0.00    -0.463 OA
BRANCH   4   5
ATOM      5  C   UNL A   1      31.517  23.517  26.234  1.00  0.00     0.306 C 
ATOM      6  O   UNL A   1      31.117  23.804  27.355  1.00  0.00    -0.252 OA
BRANCH   5   7
ATOM      7  C   UNL A   1      30.828  24.001  24.975  1.00  0.00     0.126 C 
BRANCH   7   8
ATOM      8  C   UNL A   1      31.301  25.338  24.368  1.00  0.00     0.004 C 
ATOM      9  N   UNL A   1      30.127  27.686  23.065  1.00  0.00    -0.336 N 
ATOM     10  C   UNL A   1      30.728  27.855  24.399  1.00  0.00     0.086 C 
ATOM     11  C   UNL A   1      31.115  26.902  22.319  1.00  0.00     0.086 C 
ATOM     12  C   UNL A   1      32.186  28.215  24.070  1.00  0.00     0.027 C 
ATOM     13  C   UNL A   1      30.617  26.503  25.124  1.00  0.00     0.029 C 
ATOM     14  C   UNL A   1      32.435  27.599  22.686  1.00  0.00     0.027 C 
ATOM     15  C   UNL A   1      31.042  25.451  22.847  1.00  0.00     0.029 C 
BRANCH   9  16
ATOM     16  C   UNL A   1      29.540  28.782  22.509  1.00  0.00     0.205 A 
ATOM     17  C   UNL A   1      27.207  28.425  23.436  1.00  0.00     0.153 C 
ATOM     18  N   UNL A   1      28.201  29.086  22.628  1.00  0.00    -0.320 N 
ATOM     19  C   UNL A   1      27.952  30.203  21.874  1.00  0.00     0.109 A 
ATOM     20  C   UNL A   1      29.176  30.579  21.382  1.00  0.00     0.133 A 
ATOM     21  N   UNL A   1      30.144  29.706  21.791  1.00  0.00    -0.221 NA
ENDBRANCH   9  16
ENDBRANCH   7   8
ENDBRANCH   5   7
ENDBRANCH   4   5
ENDBRANCH   3   4
ENDBRANCH   2   3
ENDBRANCH   1   2
BRANCH   1  22
ATOM     22  C   UNL A   1      35.495  20.983  25.409  1.00  0.00     0.202 C 
BRANCH  22  23
ATOM     23  C   UNL A   1      36.914  20.544  25.034  1.00  0.00     0.261 C 
BRANCH  23  24
ATOM     24  O   UNL A   1      37.860  21.620  25.191  1.00  0.00    -0.460 OA
BRANCH  24  25
ATOM     25  C   UNL A   1      38.938  21.321  25.952  1.00  0.00     0.338 C 
ATOM     26  O   UNL A   1      39.512  20.242  26.037  1.00  0.00    -0.246 OA
BRANCH  25  27
ATOM     27  C   UNL A   1      39.476  22.541  26.582  1.00  0.00     0.060 A 
ATOM     28  C   UNL A   1      38.961  23.767  26.143  1.00  0.00     0.016 A 
ATOM     29  C   UNL A   1      40.514  22.503  27.516  1.00  0.00     0.016 A 
ATOM     30  C   UNL A   1      39.520  24.962  26.591  1.00  0.00     0.010 A 
ATOM     31  C   UNL A   1      41.078  23.706  27.961  1.00  0.00     0.010 A 
ATOM     32  C   UNL A   1      40.609  24.940  27.471  1.00  0.00    -0.014 A 
BRANCH  32  33
ATOM     33  C   UNL A   1      41.341  26.201  27.751  1.00  0.00     0.031 A 
ATOM     34  C   UNL A   1      40.638  27.309  28.489  1.00  0.00     0.074 A 
ATOM     35  C   UNL A   1      42.632  26.344  27.398  1.00  0.00     0.049 A 
ATOM     36  N   UNL A   1      41.081  28.494  28.829  1.00  0.00    -0.248 NA
ATOM     37  C   UNL A   1      39.249  27.046  28.899  1.00  0.00     0.031 C 
ATOM     38  C   UNL A   1      43.437  25.333  26.717  1.00  0.00     0.029 A 
ATOM     39  N   UNL A   1      43.491  27.403  27.565  1.00  0.00    -0.354 N 
ATOM     40  C   UNL A   1      40.028  29.116  29.487  1.00  0.00     0.074 A 
ATOM     41  C   UNL A   1      38.915  28.193  29.475  1.00  0.00     0.031 C 
ATOM     42  C   UNL A   1      44.672  25.825  26.514  1.00  0.00     0.029 A 
ATOM     43  C   UNL A   1      44.735  27.193  27.025  1.00  0.00     0.049 A 
ATOM     44  H   UNL A   1      43.237  28.234  28.028  1.00  0.00     0.167 HD
ATOM     45  C   UNL A   1      39.995  30.344  30.057  1.00  0.00     0.037 A 
ATOM     46  C   UNL A   1      45.797  28.018  26.938  1.00  0.00     0.037 A 
ATOM     47  C   UNL A   1      41.105  31.260  30.086  1.00  0.00     0.049 A 
ATOM     48  C   UNL A   1      45.713  29.401  27.532  1.00  0.00     0.074 A 
ATOM     49  C   UNL A   1      41.174  32.514  30.668  1.00  0.00     0.029 A 
ATOM     50  N   UNL A   1      42.341  31.019  29.507  1.00  0.00    -0.354 N 
ATOM     51  N   UNL A   1      44.724  29.968  28.178  1.00  0.00    -0.248 NA
ATOM     52  C   UNL A   1      46.900  30.259  27.388  1.00  0.00     0.031 C 
ATOM     53  C   UNL A   1      42.435  33.054  30.399  1.00  0.00     0.029 A 
ATOM     54  C   UNL A   1      43.170  32.114  29.693  1.00  0.00     0.049 A 
ATOM     55  H   UNL A   1      42.593  30.195  29.033  1.00  0.00     0.167 HD
ATOM     56  C   UNL A   1      45.176  31.231  28.542  1.00  0.00     0.074 A 
ATOM     57  C   UNL A   1      46.536  31.343  28.058  1.00  0.00     0.031 C 
ATOM     58  C   UNL A   1      44.526  32.208  29.219  1.00  0.00     0.037 A 
BRANCH  45  59
ATOM     59  C   UNL A   1      38.709  30.787  30.689  1.00  0.00     0.064 A 
ATOM     60  C   UNL A   1      38.505  30.713  32.074  1.00  0.00     0.173 A 
ATOM     61  C   UNL A   1      37.694  31.352  29.902  1.00  0.00     0.173 A 
ATOM     62  F   UNL A   1      39.441  30.170  32.866  1.00  0.00    -0.203 F 
ATOM     63  C   UNL A   1      37.324  31.179  32.648  1.00  0.00     0.198 A 
ATOM     64  C   UNL A   1      36.526  31.840  30.483  1.00  0.00     0.198 A 
ATOM     65  F   UNL A   1      37.843  31.449  28.572  1.00  0.00    -0.203 F 
ATOM     66  F   UNL A   1      37.138  31.072  33.971  1.00  0.00    -0.200 F 
ATOM     67  C   UNL A   1      36.341  31.750  31.854  1.00  0.00     0.200 A 
ATOM     68  F   UNL A   1      35.582  32.402  29.715  1.00  0.00    -0.200 F 
ATOM     69  F   UNL A   1      35.212  32.210  32.410  1.00  0.00    -0.200 F 
ENDBRANCH  45  59
BRANCH  46  70
ATOM     70  C   UNL A   1      47.033  27.574  26.240  1.00  0.00     0.064 A 
ATOM     71  C   UNL A   1      47.163  27.689  24.848  1.00  0.00     0.173 A 
ATOM     72  C   UNL A   1      48.091  26.985  26.947  1.00  0.00     0.173 A 
ATOM     73  F   UNL A   1      46.166  28.221  24.124  1.00  0.00    -0.203 F 
ATOM     74  C   UNL A   1      48.293  27.209  24.189  1.00  0.00     0.198 A 
ATOM     75  C   UNL A   1      49.231  26.531  26.290  1.00  0.00     0.198 A 
ATOM     76  F   UNL A   1      48.015  26.849  28.279  1.00  0.00    -0.203 F 
ATOM     77  F   UNL A   1      48.367  27.280  22.853  1.00  0.00    -0.200 F 
ATOM     78  C   UNL A   1      49.328  26.634  24.911  1.00  0.00     0.200 A 
ATOM     79  F   UNL A   1      50.234  25.987  26.993  1.00  0.00    -0.200 F 
ATOM     80  F   UNL A   1      50.412  26.167  24.276  1.00  0.00    -0.200 F 
ENDBRANCH  46  70
BRANCH  58  81
ATOM     81  C   UNL A   1      45.282  33.471  29.512  1.00  0.00     0.064 A 
ATOM     82  C   UNL A   1      45.255  34.566  28.635  1.00  0.00     0.173 A 
ATOM     83  C   UNL A   1      46.006  33.604  30.707  1.00  0.00     0.173 A 
ATOM     84  F   UNL A   1      44.591  34.484  27.473  1.00  0.00    -0.203 F 
ATOM     85  C   UNL A   1      45.945  35.739  28.934  1.00  0.00     0.198 A 
ATOM     86  C   UNL A   1      46.670  34.787  31.016  1.00  0.00     0.198 A 
ATOM     87  F   UNL A   1      46.056  32.589  31.582  1.00  0.00    -0.203 F 
ATOM     88  F   UNL A   1      45.943  36.756  28.061  1.00  0.00    -0.200 F 
ATOM     89  C   UNL A   1      46.645  35.851  30.126  1.00  0.00     0.200 A 
ATOM     90  F   UNL A   1      47.334  34.899  32.174  1.00  0.00    -0.200 F 
ATOM     91  F   UNL A   1      47.301  36.983  30.416  1.00  0.00    -0.200 F 
ENDBRANCH  58  81
ENDBRANCH  32  33
ENDBRANCH  25  27
ENDBRANCH  24  25
ENDBRANCH  23  24
ENDBRANCH  22  23
ENDBRANCH   1  22
TORSDOF 16
ENDMDL
MODEL 3
REMARK VINA RESULT:     -11.1      4.745     10.255
REMARK SMILES Cn1ccnc1N1[C@@H]2CC[C@H]1C[C@H](CC(=O)OCCOCCOC(=O)c1ccc(-c3c4nc(c(-c5c(F)c(F)c(F)c(F)c5F)c5ccc([nH]5)c(-c5c(F)c(F)c(F)c(F)c5F)c5nc(c(-c6c(F)c(F)c(F)c(F)c6F)c6ccc3[nH]6)C=C5)C=C4)cc1)C2
REMARK SMILES IDX 20 1 19 2 18 3 17 4 15 5 16 6 14 7 13 8 7 9 8 10 11 11 9 12
REMARK SMILES IDX 89 13 10 14 12 15 6 16 1 17 2 18 3 19 4 20 5 21 21 22 22 23
REMARK SMILES IDX 23 24 24 25 25 26 26 27 27 28 88 29 28 30 87 31 29 32 30 33
REMARK SMILES IDX 31 34 81 35 32 36 86 37 80 38 82 39 33 40 85 41 79 42 78 43
REMARK SMILES IDX 34 45 66 46 46 47 65 48 47 49 50 50 64 51 83 52 48 53 49 54
REMARK SMILES IDX 63 56 84 57 51 58 35 59 36 60 44 61 37 62 38 63 42 64 45 65
REMARK SMILES IDX 39 66 40 67 43 68 41 69 67 70 68 71 76 72 69 73 70 74 74 75
REMARK SMILES IDX 77 76 71 77 72 78 75 79 73 80 52 81 53 82 61 83 54 84 55 85
REMARK SMILES IDX 59 86 62 87 56 88 57 89 60 90 58 91
REMARK H PARENT 82 44 50 55
REMARK Flexibility Score: inf
ROOT
ATOM      1  O   UNL A   1      34.971  20.792  24.662  1.00  0.00    -0.374 OA
ENDROOT
BRANCH   1   2
ATOM      2  C   UNL A   1      33.967  21.720  24.253  1.00  0.00     0.202 C 
BRANCH   2   3
ATOM      3  C   UNL A   1      32.708  21.751  25.122  1.00  0.00     0.261 C 
BRANCH   3   4
ATOM      4  O   UNL A   1      32.743  22.857  26.046  1.00  0.00    -0.463 OA
BRANCH   4   5
ATOM      5  C   UNL A   1      31.579  23.533  26.221  1.00  0.00     0.306 C 
ATOM      6  O   UNL A   1      31.034  23.722  27.300  1.00  0.00    -0.252 OA
BRANCH   5   7
ATOM      7  C   UNL A   1      30.969  23.983  24.910  1.00  0.00     0.126 C 
BRANCH   7   8
ATOM      8  C   UNL A   1      31.399  25.356  24.353  1.00  0.00     0.004 C 
ATOM      9  N   UNL A   1      30.162  27.678  23.062  1.00  0.00    -0.336 N 
ATOM     10  C   UNL A   1      30.705  27.841  24.421  1.00  0.00     0.086 C 
ATOM     11  C   UNL A   1      31.213  26.961  22.336  1.00  0.00     0.086 C 
ATOM     12  C   UNL A   1      32.155  28.278  24.157  1.00  0.00     0.027 C 
ATOM     13  C   UNL A   1      30.632  26.467  25.110  1.00  0.00     0.029 C 
ATOM     14  C   UNL A   1      32.484  27.710  22.769  1.00  0.00     0.027 C 
ATOM     15  C   UNL A   1      31.192  25.495  22.826  1.00  0.00     0.029 C 
BRANCH   9  16
ATOM     16  C   UNL A   1      29.544  28.759  22.509  1.00  0.00     0.205 A 
ATOM     17  C   UNL A   1      27.227  28.343  23.451  1.00  0.00     0.153 C 
ATOM     18  N   UNL A   1      28.198  29.029  22.638  1.00  0.00    -0.320 N 
ATOM     19  C   UNL A   1      27.916  30.140  21.885  1.00  0.00     0.109 A 
ATOM     20  C   UNL A   1      29.127  30.546  21.385  1.00  0.00     0.133 A 
ATOM     21  N   UNL A   1      30.120  29.698  21.788  1.00  0.00    -0.221 NA
ENDBRANCH   9  16
ENDBRANCH   7   8
ENDBRANCH   5   7
ENDBRANCH   4   5
ENDBRANCH   3   4
ENDBRANCH   2   3
ENDBRANCH   1   2
BRANCH   1  22
ATOM     22  C   UNL A   1      36.054  21.311  25.432  1.00  0.00     0.202 C 
BRANCH  22  23
ATOM     23  C   UNL A   1      37.418  20.674  25.150  1.00  0.00     0.261 C 
BRANCH  23  24
ATOM     24  O   UNL A   1      38.478  21.648  25.195  1.00  0.00    -0.460 OA
BRANCH  24  25
ATOM     25  C   UNL A   1      39.419  21.420  26.140  1.00  0.00     0.338 C 
ATOM     26  O   UNL A   1      39.985  20.361  26.385  1.00  0.00    -0.246 OA
BRANCH  25  27
ATOM     27  C   UNL A   1      39.830  22.687  26.772  1.00  0.00     0.060 A 
ATOM     28  C   UNL A   1      39.302  23.869  26.238  1.00  0.00     0.016 A 
ATOM     29  C   UNL A   1      40.771  22.735  27.805  1.00  0.00     0.016 A 
ATOM     30  C   UNL A   1      39.754  25.106  26.693  1.00  0.00     0.010 A 
ATOM     31  C   UNL A   1      41.227  23.980  28.256  1.00  0.00     0.010 A 
ATOM     32  C   UNL A   1      40.749  25.171  27.676  1.00  0.00    -0.014 A 
BRANCH  32  33
ATOM     33  C   UNL A   1      41.386  26.478  27.978  1.00  0.00     0.031 A 
ATOM     34  C   UNL A   1      42.785  26.741  27.489  1.00  0.00     0.074 A 
ATOM     35  C   UNL A   1      40.713  27.440  28.635  1.00  0.00     0.049 A 
ATOM     36  N   UNL A   1      43.536  27.803  27.646  1.00  0.00    -0.248 NA
ATOM     37  C   UNL A   1      43.426  25.662  26.719  1.00  0.00     0.031 C 
ATOM     38  C   UNL A   1      39.341  27.327  29.124  1.00  0.00     0.029 A 
ATOM     39  N   UNL A   1      41.099  28.705  29.005  1.00  0.00    -0.354 N 
ATOM     40  C   UNL A   1      44.733  27.519  27.001  1.00  0.00     0.074 A 
ATOM     41  C   UNL A   1      44.623  26.176  26.474  1.00  0.00     0.031 C 
ATOM     42  C   UNL A   1      39.003  28.473  29.740  1.00  0.00     0.029 A 
ATOM     43  C   UNL A   1      40.142  29.388  29.713  1.00  0.00     0.049 A 
ATOM     44  H   UNL A   1      41.980  29.086  28.783  1.00  0.00     0.167 HD
ATOM     45  C   UNL A   1      45.822  28.310  26.855  1.00  0.00     0.037 A 
ATOM     46  C   UNL A   1      40.188  30.606  30.289  1.00  0.00     0.037 A 
ATOM     47  C   UNL A   1      45.929  29.652  27.363  1.00  0.00     0.049 A 
ATOM     48  C   UNL A   1      41.436  31.442  30.158  1.00  0.00     0.074 A 
ATOM     49  C   UNL A   1      46.983  30.540  27.235  1.00  0.00     0.029 A 
ATOM     50  N   UNL A   1      44.947  30.299  28.096  1.00  0.00    -0.354 N 
ATOM     51  N   UNL A   1      42.550  31.176  29.521  1.00  0.00    -0.248 NA
ATOM     52  C   UNL A   1      41.429  32.754  30.824  1.00  0.00     0.031 C 
ATOM     53  C   UNL A   1      46.659  31.708  27.934  1.00  0.00     0.029 A 
ATOM     54  C   UNL A   1      45.382  31.566  28.453  1.00  0.00     0.049 A 
ATOM     55  H   UNL A   1      44.071  29.916  28.330  1.00  0.00     0.167 HD
ATOM     56  C   UNL A   1      43.360  32.294  29.682  1.00  0.00     0.074 A 
ATOM     57  C   UNL A   1      42.605  33.248  30.467  1.00  0.00     0.031 C 
ATOM     58  C   UNL A   1      44.616  32.511  29.221  1.00  0.00     0.037 A 
BRANCH  45  59
ATOM     59  C   UNL A   1      47.004  27.743  26.125  1.00  0.00     0.064 A 
ATOM     60  C   UNL A   1      47.074  27.743  24.725  1.00  0.00     0.173 A 
ATOM     61  C   UNL A   1      48.106  27.254  26.841  1.00  0.00     0.173 A 
ATOM     62  F   UNL A   1      46.040  28.189  23.997  1.00  0.00    -0.203 F 
ATOM     63  C   UNL A   1      48.203  27.261  24.067  1.00  0.00     0.198 A 
ATOM     64  C   UNL A   1      49.243  26.797  26.180  1.00  0.00     0.198 A 
ATOM     65  F   UNL A   1      48.089  27.237  28.183  1.00  0.00    -0.203 F 
ATOM     66  F   UNL A   1      48.238  27.242  22.727  1.00  0.00    -0.200 F 
ATOM     67  C   UNL A   1      49.289  26.798  24.794  1.00  0.00     0.200 A 
ATOM     68  F   UNL A   1      50.296  26.360  26.885  1.00  0.00    -0.200 F 
ATOM     69  F   UNL A   1      50.380  26.348  24.159  1.00  0.00    -0.200 F 
ENDBRANCH  45  59
BRANCH  46  70
ATOM     70  C   UNL A   1      39.025  31.108  31.068  1.00  0.00     0.064 A 
ATOM     71  C   UNL A   1      38.895  30.835  32.438  1.00  0.00     0.173 A 
ATOM     72  C   UNL A   1      37.999  31.833  30.447  1.00  0.00     0.173 A 
ATOM     73  F   UNL A   1      39.839  30.121  33.071  1.00  0.00    -0.203 F 
ATOM     74  C   UNL A   1      37.771  31.248  33.150  1.00  0.00     0.198 A 
ATOM     75  C   UNL A   1      36.889  32.269  31.167  1.00  0.00     0.198 A 
ATOM     76  F   UNL A   1      38.073  32.118  29.139  1.00  0.00    -0.203 F 
ATOM     77  F   UNL A   1      37.645  30.925  34.444  1.00  0.00    -0.200 F 
ATOM     78  C   UNL A   1      36.770  31.968  32.514  1.00  0.00     0.200 A 
ATOM     79  F   UNL A   1      35.930  32.975  30.551  1.00  0.00    -0.200 F 
ATOM     80  F   UNL A   1      35.686  32.360  33.198  1.00  0.00    -0.200 F 
ENDBRANCH  46  70
BRANCH  58  81
ATOM     81  C   UNL A   1      45.243  33.842  29.516  1.00  0.00     0.064 A 
ATOM     82  C   UNL A   1      45.066  34.945  28.667  1.00  0.00     0.173 A 
ATOM     83  C   UNL A   1      45.992  34.029  30.688  1.00  0.00     0.173 A 
ATOM     84  F   UNL A   1      44.371  34.814  27.528  1.00  0.00    -0.203 F 
ATOM     85  C   UNL A   1      45.637  36.179  28.969  1.00  0.00     0.198 A 
ATOM     86  C   UNL A   1      46.537  35.271  31.001  1.00  0.00     0.198 A 
ATOM     87  F   UNL A   1      46.184  33.008  31.537  1.00  0.00    -0.203 F 
ATOM     88  F   UNL A   1      45.493  37.207  28.121  1.00  0.00    -0.200 F 
ATOM     89  C   UNL A   1      46.365  36.343  30.138  1.00  0.00     0.200 A 
ATOM     90  F   UNL A   1      47.228  35.431  32.138  1.00  0.00    -0.200 F 
ATOM     91  F   UNL A   1      46.906  37.534  30.431  1.00  0.00    -0.200 F 
ENDBRANCH  58  81
ENDBRANCH  32  33
ENDBRANCH  25  27
ENDBRANCH  24  25
ENDBRANCH  23  24
ENDBRANCH  22  23
ENDBRANCH   1  22
TORSDOF 16
ENDMDL
