MODEL 1
REMARK VINA RESULT:     -13.1      0.000      0.000
REMARK SMILES Cc1ccccc1/[NH+]=C1\S[C@@H](CC(=O)Nc2ccc(C(=O)OCCOCCOC(=O)c3ccc(-c4c5nc(c(-c6c(F)c(F)c(F)c(F)c6F)c6ccc([nH]6)c(-c6c(F)c(F)c(F)c(F)c6F)c6nc(c(-c7c(F)c(F)c(F)c(F)c7F)c7ccc4[nH]7)C=C6)C=C5)cc3)cc2)C(=O)N1C
REMARK SMILES IDX 24 1 23 2 22 3 20 4 21 5 19 6 16 7 17 8 95 9 18 10 94 11
REMARK SMILES IDX 15 12 13 13 14 14 12 16 11 17 8 18 9 19 10 21 98 22 96 23
REMARK SMILES IDX 99 24 97 25 7 26 1 27 2 28 3 29 4 30 6 31 5 32 25 33 26 34
REMARK SMILES IDX 27 35 28 36 29 37 30 38 31 39 32 40 93 41 33 42 92 43 34 44
REMARK SMILES IDX 35 45 36 46 86 47 37 48 91 49 85 50 87 51 38 52 90 53 84 54
REMARK SMILES IDX 83 55 39 57 71 58 51 59 70 60 52 61 55 62 69 63 88 64 53 65
REMARK SMILES IDX 54 66 68 68 89 69 56 70 40 71 41 72 49 73 42 74 43 75 47 76
REMARK SMILES IDX 50 77 44 78 45 79 48 80 46 81 72 82 73 83 81 84 74 85 75 86
REMARK SMILES IDX 79 87 82 88 76 89 77 90 80 91 78 92 57 93 58 94 66 95 59 96
REMARK SMILES IDX 60 97 64 98 67 99 61 100 62 101 65 102 63 103
REMARK H PARENT 15 15 8 20 87 56 55 67
REMARK Flexibility Score: inf
ROOT
ATOM      1  C   UNL A   1      33.635  32.460  28.408  1.00  0.00     0.202 C 
ENDROOT
BRANCH   1   2
ATOM      2  C   UNL A   1      33.872  31.338  27.447  1.00  0.00     0.261 C 
BRANCH   2   3
ATOM      3  O   UNL A   1      32.635  30.700  27.045  1.00  0.00    -0.460 OA
BRANCH   3   4
ATOM      4  C   UNL A   1      32.445  29.353  26.948  1.00  0.00     0.338 C 
ATOM      5  O   UNL A   1      32.233  28.538  27.828  1.00  0.00    -0.246 OA
BRANCH   4   6
ATOM      6  C   UNL A   1      32.574  29.025  25.515  1.00  0.00     0.060 A 
ATOM      7  C   UNL A   1      32.869  28.133  22.908  1.00  0.00     0.041 A 
ATOM      8  C   UNL A   1      33.919  28.042  23.806  1.00  0.00     0.027 A 
ATOM      9  C   UNL A   1      31.742  28.878  23.234  1.00  0.00     0.027 A 
ATOM     10  C   UNL A   1      33.763  28.426  25.110  1.00  0.00     0.018 A 
ATOM     11  C   UNL A   1      31.589  29.327  24.560  1.00  0.00     0.018 A 
BRANCH   7  12
ATOM     12  N   UNL A   1      32.976  27.365  21.742  1.00  0.00    -0.326 N 
ATOM     13  C   UNL A   1      32.788  25.986  21.729  1.00  0.00     0.226 C 
ATOM     14  O   UNL A   1      33.293  25.276  20.864  1.00  0.00    -0.275 OA
ATOM     15  H   UNL A   1      33.194  27.820  20.896  1.00  0.00     0.169 HD
BRANCH  13  16
ATOM     16  C   UNL A   1      31.724  25.446  22.689  1.00  0.00     0.128 C 
BRANCH  16  17
ATOM     17  C   UNL A   1      32.125  24.504  23.809  1.00  0.00     0.183 C 
ATOM     18  N   UNL A   1      32.314  21.289  25.511  1.00  0.00    -0.234 N 
ATOM     19  C   UNL A   1      31.772  22.288  24.916  1.00  0.00     0.319 C 
ATOM     20  H   UNL A   1      32.117  21.231  26.474  1.00  0.00     0.313 HD
ATOM     21  S   UNL A   1      31.757  22.781  23.262  1.00  0.00    -0.022 SA
ATOM     22  N   UNL A   1      31.139  23.271  25.617  1.00  0.00    -0.193 N 
ATOM     23  C   UNL A   1      31.451  24.545  25.180  1.00  0.00     0.324 C 
ATOM     24  C   UNL A   1      30.365  23.015  26.816  1.00  0.00     0.301 C 
ATOM     25  O   UNL A   1      31.340  25.555  25.863  1.00  0.00    -0.245 OA
BRANCH  18  26
ATOM     26  C   UNL A   1      33.142  20.262  25.025  1.00  0.00     0.128 A 
ATOM     27  C   UNL A   1      35.512  21.286  25.331  1.00  0.00     0.049 C 
ATOM     28  C   UNL A   1      34.553  20.183  24.992  1.00  0.00    -0.004 A 
ATOM     29  C   UNL A   1      35.175  18.967  24.624  1.00  0.00     0.008 A 
ATOM     30  C   UNL A   1      34.439  17.817  24.366  1.00  0.00     0.001 A 
ATOM     31  C   UNL A   1      32.429  19.078  24.743  1.00  0.00     0.052 A 
ATOM     32  C   UNL A   1      33.058  17.871  24.431  1.00  0.00     0.004 A 
ENDBRANCH  18  26
ENDBRANCH  16  17
ENDBRANCH  13  16
ENDBRANCH   7  12
ENDBRANCH   4   6
ENDBRANCH   3   4
ENDBRANCH   2   3
ENDBRANCH   1   2
BRANCH   1  33
ATOM     33  O   UNL A   1      34.275  33.572  27.816  1.00  0.00    -0.374 OA
BRANCH  33  34
ATOM     34  C   UNL A   1      33.925  34.831  28.342  1.00  0.00     0.202 C 
BRANCH  34  35
ATOM     35  C   UNL A   1      33.323  34.699  29.742  1.00  0.00     0.261 C 
BRANCH  35  36
ATOM     36  O   UNL A   1      34.185  35.365  30.691  1.00  0.00    -0.460 OA
BRANCH  36  37
ATOM     37  C   UNL A   1      34.485  34.654  31.815  1.00  0.00     0.338 C 
ATOM     38  O   UNL A   1      34.305  35.039  32.959  1.00  0.00    -0.246 OA
BRANCH  37  39
ATOM     39  C   UNL A   1      35.327  33.471  31.465  1.00  0.00     0.060 A 
ATOM     40  C   UNL A   1      35.217  32.287  32.221  1.00  0.00     0.016 A 
ATOM     41  C   UNL A   1      36.423  33.650  30.625  1.00  0.00     0.016 A 
ATOM     42  C   UNL A   1      36.284  31.372  32.266  1.00  0.00     0.010 A 
ATOM     43  C   UNL A   1      37.499  32.792  30.740  1.00  0.00     0.010 A 
ATOM     44  C   UNL A   1      37.466  31.678  31.598  1.00  0.00    -0.014 A 
BRANCH  44  45
ATOM     45  C   UNL A   1      38.760  31.005  31.782  1.00  0.00     0.031 A 
ATOM     46  C   UNL A   1      39.058  29.801  30.976  1.00  0.00     0.074 A 
ATOM     47  C   UNL A   1      39.785  31.611  32.432  1.00  0.00     0.049 A 
ATOM     48  N   UNL A   1      40.106  29.070  31.141  1.00  0.00    -0.248 NA
ATOM     49  C   UNL A   1      38.166  29.270  29.949  1.00  0.00     0.031 C 
ATOM     50  C   UNL A   1      41.227  31.427  32.226  1.00  0.00     0.029 A 
ATOM     51  N   UNL A   1      39.750  32.595  33.426  1.00  0.00    -0.354 N 
ATOM     52  C   UNL A   1      40.224  28.265  30.036  1.00  0.00     0.074 A 
ATOM     53  C   UNL A   1      38.912  28.281  29.448  1.00  0.00     0.031 C 
ATOM     54  C   UNL A   1      41.907  32.019  33.224  1.00  0.00     0.029 A 
ATOM     55  C   UNL A   1      40.923  32.488  34.183  1.00  0.00     0.049 A 
ATOM     56  H   UNL A   1      39.027  33.247  33.569  1.00  0.00     0.167 HD
ATOM     57  C   UNL A   1      41.473  27.839  29.685  1.00  0.00     0.037 A 
ATOM     58  C   UNL A   1      40.890  32.261  35.520  1.00  0.00     0.037 A 
ATOM     59  C   UNL A   1      42.456  28.184  30.739  1.00  0.00     0.049 A 
ATOM     60  C   UNL A   1      41.628  30.989  35.762  1.00  0.00     0.074 A 
ATOM     61  C   UNL A   1      43.548  29.036  30.788  1.00  0.00     0.029 A 
ATOM     62  N   UNL A   1      42.203  27.816  32.069  1.00  0.00    -0.354 N 
ATOM     63  N   UNL A   1      41.614  30.007  34.900  1.00  0.00    -0.248 NA
ATOM     64  C   UNL A   1      42.584  30.807  36.846  1.00  0.00     0.031 C 
ATOM     65  C   UNL A   1      43.913  29.210  32.156  1.00  0.00     0.029 A 
ATOM     66  C   UNL A   1      43.064  28.448  32.947  1.00  0.00     0.049 A 
ATOM     67  H   UNL A   1      41.499  27.185  32.343  1.00  0.00     0.167 HD
ATOM     68  C   UNL A   1      42.635  29.163  35.207  1.00  0.00     0.074 A 
ATOM     69  C   UNL A   1      43.176  29.662  36.463  1.00  0.00     0.031 C 
ATOM     70  C   UNL A   1      43.050  28.164  34.381  1.00  0.00     0.037 A 
BRANCH  57  71
ATOM     71  C   UNL A   1      41.872  27.307  28.304  1.00  0.00     0.064 A 
ATOM     72  C   UNL A   1      42.436  26.016  28.173  1.00  0.00     0.173 A 
ATOM     73  C   UNL A   1      41.806  28.017  27.082  1.00  0.00     0.173 A 
ATOM     74  F   UNL A   1      42.566  25.201  29.228  1.00  0.00    -0.203 F 
ATOM     75  C   UNL A   1      42.903  25.505  26.952  1.00  0.00     0.198 A 
ATOM     76  C   UNL A   1      42.238  27.493  25.857  1.00  0.00     0.198 A 
ATOM     77  F   UNL A   1      41.355  29.266  26.993  1.00  0.00    -0.203 F 
ATOM     78  F   UNL A   1      43.467  24.290  26.911  1.00  0.00    -0.200 F 
ATOM     79  C   UNL A   1      42.797  26.241  25.791  1.00  0.00     0.200 A 
ATOM     80  F   UNL A   1      42.121  28.234  24.744  1.00  0.00    -0.200 F 
ATOM     81  F   UNL A   1      43.235  25.754  24.623  1.00  0.00    -0.200 F 
ENDBRANCH  57  71
BRANCH  58  82
ATOM     82  C   UNL A   1      39.659  32.790  36.165  1.00  0.00     0.064 A 
ATOM     83  C   UNL A   1      38.716  31.835  36.600  1.00  0.00     0.173 A 
ATOM     84  C   UNL A   1      39.619  34.048  36.783  1.00  0.00     0.173 A 
ATOM     85  F   UNL A   1      38.754  30.591  36.104  1.00  0.00    -0.203 F 
ATOM     86  C   UNL A   1      37.859  32.079  37.672  1.00  0.00     0.198 A 
ATOM     87  C   UNL A   1      38.768  34.283  37.872  1.00  0.00     0.198 A 
ATOM     88  F   UNL A   1      40.500  34.998  36.442  1.00  0.00    -0.203 F 
ATOM     89  F   UNL A   1      37.094  31.086  38.154  1.00  0.00    -0.200 F 
ATOM     90  C   UNL A   1      37.918  33.289  38.336  1.00  0.00     0.200 A 
ATOM     91  F   UNL A   1      38.850  35.441  38.546  1.00  0.00    -0.200 F 
ATOM     92  F   UNL A   1      37.219  33.467  39.466  1.00  0.00    -0.200 F 
ENDBRANCH  58  82
BRANCH  70  93
ATOM     93  C   UNL A   1      43.550  26.852  34.916  1.00  0.00     0.064 A 
ATOM     94  C   UNL A   1      44.884  26.638  35.315  1.00  0.00     0.173 A 
ATOM     95  C   UNL A   1      42.645  25.817  35.241  1.00  0.00     0.173 A 
ATOM     96  F   UNL A   1      45.825  27.582  35.183  1.00  0.00    -0.203 F 
ATOM     97  C   UNL A   1      45.293  25.457  35.927  1.00  0.00     0.198 A 
ATOM     98  C   UNL A   1      43.046  24.666  35.913  1.00  0.00     0.198 A 
ATOM     99  F   UNL A   1      41.336  25.910  34.965  1.00  0.00    -0.203 F 
ATOM    100  F   UNL A   1      46.585  25.293  36.247  1.00  0.00    -0.200 F 
ATOM    101  C   UNL A   1      44.373  24.478  36.239  1.00  0.00     0.200 A 
ATOM    102  F   UNL A   1      42.131  23.754  36.267  1.00  0.00    -0.200 F 
ATOM    103  F   UNL A   1      44.761  23.367  36.877  1.00  0.00    -0.200 F 
ENDBRANCH  70  93
ENDBRANCH  44  45
ENDBRANCH  37  39
ENDBRANCH  36  37
ENDBRANCH  35  36
ENDBRANCH  34  35
ENDBRANCH  33  34
ENDBRANCH   1  33
TORSDOF 18
ENDMDL
MODEL 2
REMARK VINA RESULT:     -12.7      1.263      1.898
REMARK SMILES Cc1ccccc1/[NH+]=C1\S[C@@H](CC(=O)Nc2ccc(C(=O)OCCOCCOC(=O)c3ccc(-c4c5nc(c(-c6c(F)c(F)c(F)c(F)c6F)c6ccc([nH]6)c(-c6c(F)c(F)c(F)c(F)c6F)c6nc(c(-c7c(F)c(F)c(F)c(F)c7F)c7ccc4[nH]7)C=C6)C=C5)cc3)cc2)C(=O)N1C
REMARK SMILES IDX 24 1 23 2 22 3 20 4 21 5 19 6 16 7 17 8 95 9 18 10 94 11
REMARK SMILES IDX 15 12 13 13 14 14 12 16 11 17 8 18 9 19 10 21 98 22 96 23
REMARK SMILES IDX 99 24 97 25 7 26 1 27 2 28 3 29 4 30 6 31 5 32 25 33 26 34
REMARK SMILES IDX 27 35 28 36 29 37 30 38 31 39 32 40 93 41 33 42 92 43 34 44
REMARK SMILES IDX 35 45 36 46 86 47 37 48 91 49 85 50 87 51 38 52 90 53 84 54
REMARK SMILES IDX 83 55 39 57 71 58 51 59 70 60 52 61 55 62 69 63 88 64 53 65
REMARK SMILES IDX 54 66 68 68 89 69 56 70 40 71 41 72 49 73 42 74 43 75 47 76
REMARK SMILES IDX 50 77 44 78 45 79 48 80 46 81 72 82 73 83 81 84 74 85 75 86
REMARK SMILES IDX 79 87 82 88 76 89 77 90 80 91 78 92 57 93 58 94 66 95 59 96
REMARK SMILES IDX 60 97 64 98 67 99 61 100 62 101 65 102 63 103
REMARK H PARENT 15 15 8 20 87 56 55 67
REMARK Flexibility Score: inf
ROOT
ATOM      1  C   UNL A   1      34.380  31.947  28.570  1.00  0.00     0.202 C 
ENDROOT
BRANCH   1   2
ATOM      2  C   UNL A   1      34.321  30.800  27.611  1.00  0.00     0.261 C 
BRANCH   2   3
ATOM      3  O   UNL A   1      32.967  30.531  27.172  1.00  0.00    -0.460 OA
BRANCH   3   4
ATOM      4  C   UNL A   1      32.441  29.289  26.974  1.00  0.00     0.338 C 
ATOM      5  O   UNL A   1      32.023  28.488  27.791  1.00  0.00    -0.246 OA
BRANCH   4   6
ATOM      6  C   UNL A   1      32.493  29.051  25.518  1.00  0.00     0.060 A 
ATOM      7  C   UNL A   1      32.670  28.330  22.849  1.00  0.00     0.041 A 
ATOM      8  C   UNL A   1      33.786  28.282  23.666  1.00  0.00     0.027 A 
ATOM      9  C   UNL A   1      31.512  28.956  23.295  1.00  0.00     0.027 A 
ATOM     10  C   UNL A   1      33.695  28.580  24.999  1.00  0.00     0.018 A 
ATOM     11  C   UNL A   1      31.419  29.318  24.653  1.00  0.00     0.018 A 
BRANCH   7  12
ATOM     12  N   UNL A   1      32.755  27.639  21.634  1.00  0.00    -0.326 N 
ATOM     13  C   UNL A   1      32.732  26.250  21.556  1.00  0.00     0.226 C 
ATOM     14  O   UNL A   1      33.232  25.650  20.608  1.00  0.00    -0.275 OA
ATOM     15  H   UNL A   1      32.835  28.157  20.801  1.00  0.00     0.169 HD
BRANCH  13  16
ATOM     16  C   UNL A   1      31.837  25.536  22.573  1.00  0.00     0.128 C 
BRANCH  16  17
ATOM     17  C   UNL A   1      32.459  24.824  23.759  1.00  0.00     0.183 C 
ATOM     18  N   UNL A   1      33.993  22.006  25.484  1.00  0.00    -0.234 N 
ATOM     19  C   UNL A   1      33.126  22.639  24.782  1.00  0.00     0.319 C 
ATOM     20  H   UNL A   1      33.683  21.754  26.384  1.00  0.00     0.313 HD
ATOM     21  S   UNL A   1      33.157  23.224  23.159  1.00  0.00    -0.022 SA
ATOM     22  N   UNL A   1      31.956  23.077  25.327  1.00  0.00    -0.193 N 
ATOM     23  C   UNL A   1      31.627  24.368  24.956  1.00  0.00     0.324 C 
ATOM     24  C   UNL A   1      31.228  22.335  26.337  1.00  0.00     0.301 C 
ATOM     25  O   UNL A   1      30.879  25.099  25.593  1.00  0.00    -0.245 OA
BRANCH  18  26
ATOM     26  C   UNL A   1      35.309  21.608  25.190  1.00  0.00     0.128 A 
ATOM     27  C   UNL A   1      36.645  23.797  25.618  1.00  0.00     0.049 C 
ATOM     28  C   UNL A   1      36.516  22.335  25.304  1.00  0.00    -0.004 A 
ATOM     29  C   UNL A   1      37.751  21.669  25.126  1.00  0.00     0.008 A 
ATOM     30  C   UNL A   1      37.819  20.298  24.918  1.00  0.00     0.001 A 
ATOM     31  C   UNL A   1      35.418  20.220  24.964  1.00  0.00     0.052 A 
ATOM     32  C   UNL A   1      36.646  19.566  24.842  1.00  0.00     0.004 A 
ENDBRANCH  18  26
ENDBRANCH  16  17
ENDBRANCH  13  16
ENDBRANCH   7  12
ENDBRANCH   4   6
ENDBRANCH   3   4
ENDBRANCH   2   3
ENDBRANCH   1   2
BRANCH   1  33
ATOM     33  O   UNL A   1      35.029  32.975  27.850  1.00  0.00    -0.374 OA
BRANCH  33  34
ATOM     34  C   UNL A   1      34.498  34.270  28.019  1.00  0.00     0.202 C 
BRANCH  34  35
ATOM     35  C   UNL A   1      33.524  34.319  29.197  1.00  0.00     0.261 C 
BRANCH  35  36
ATOM     36  O   UNL A   1      34.117  35.087  30.268  1.00  0.00    -0.460 OA
BRANCH  36  37
ATOM     37  C   UNL A   1      33.983  34.558  31.517  1.00  0.00     0.338 C 
ATOM     38  O   UNL A   1      32.952  34.550  32.169  1.00  0.00    -0.246 OA
BRANCH  37  39
ATOM     39  C   UNL A   1      35.328  34.257  32.094  1.00  0.00     0.060 A 
ATOM     40  C   UNL A   1      36.484  34.782  31.482  1.00  0.00     0.016 A 
ATOM     41  C   UNL A   1      35.447  33.218  33.012  1.00  0.00     0.016 A 
ATOM     42  C   UNL A   1      37.728  34.152  31.660  1.00  0.00     0.010 A 
ATOM     43  C   UNL A   1      36.655  32.554  33.114  1.00  0.00     0.010 A 
ATOM     44  C   UNL A   1      37.791  32.975  32.402  1.00  0.00    -0.014 A 
BRANCH  44  45
ATOM     45  C   UNL A   1      38.922  32.036  32.435  1.00  0.00     0.031 A 
ATOM     46  C   UNL A   1      38.853  30.808  31.615  1.00  0.00     0.074 A 
ATOM     47  C   UNL A   1      40.125  32.398  32.947  1.00  0.00     0.049 A 
ATOM     48  N   UNL A   1      39.731  29.866  31.660  1.00  0.00    -0.248 NA
ATOM     49  C   UNL A   1      37.749  30.495  30.712  1.00  0.00     0.031 C 
ATOM     50  C   UNL A   1      41.457  31.912  32.570  1.00  0.00     0.029 A 
ATOM     51  N   UNL A   1      40.424  33.353  33.926  1.00  0.00    -0.354 N 
ATOM     52  C   UNL A   1      39.537  29.070  30.560  1.00  0.00     0.074 A 
ATOM     53  C   UNL A   1      38.197  29.376  30.136  1.00  0.00     0.031 C 
ATOM     54  C   UNL A   1      42.365  32.329  33.469  1.00  0.00     0.029 A 
ATOM     55  C   UNL A   1      41.630  32.986  34.535  1.00  0.00     0.049 A 
ATOM     56  H   UNL A   1      39.881  34.144  34.147  1.00  0.00     0.167 HD
ATOM     57  C   UNL A   1      40.613  28.390  30.065  1.00  0.00     0.037 A 
ATOM     58  C   UNL A   1      41.712  32.753  35.869  1.00  0.00     0.037 A 
ATOM     59  C   UNL A   1      41.768  28.500  30.987  1.00  0.00     0.049 A 
ATOM     60  C   UNL A   1      42.183  31.348  36.036  1.00  0.00     0.074 A 
ATOM     61  C   UNL A   1      43.016  29.096  30.891  1.00  0.00     0.029 A 
ATOM     62  N   UNL A   1      41.605  28.177  32.342  1.00  0.00    -0.354 N 
ATOM     63  N   UNL A   1      41.852  30.404  35.195  1.00  0.00    -0.248 NA
ATOM     64  C   UNL A   1      43.201  30.950  36.998  1.00  0.00     0.031 C 
ATOM     65  C   UNL A   1      43.573  29.169  32.202  1.00  0.00     0.029 A 
ATOM     66  C   UNL A   1      42.683  28.596  33.100  1.00  0.00     0.049 A 
ATOM     67  H   UNL A   1      40.821  27.709  32.708  1.00  0.00     0.167 HD
ATOM     68  C   UNL A   1      42.697  29.357  35.385  1.00  0.00     0.074 A 
ATOM     69  C   UNL A   1      43.481  29.710  36.560  1.00  0.00     0.031 C 
ATOM     70  C   UNL A   1      42.783  28.303  34.529  1.00  0.00     0.037 A 
BRANCH  57  71
ATOM     71  C   UNL A   1      40.716  27.802  28.653  1.00  0.00     0.064 A 
ATOM     72  C   UNL A   1      40.122  26.554  28.353  1.00  0.00     0.173 A 
ATOM     73  C   UNL A   1      41.436  28.356  27.566  1.00  0.00     0.173 A 
ATOM     74  F   UNL A   1      39.395  25.892  29.263  1.00  0.00    -0.203 F 
ATOM     75  C   UNL A   1      40.255  25.921  27.108  1.00  0.00     0.198 A 
ATOM     76  C   UNL A   1      41.537  27.742  26.312  1.00  0.00     0.198 A 
ATOM     77  F   UNL A   1      42.110  29.500  27.651  1.00  0.00    -0.203 F 
ATOM     78  F   UNL A   1      39.701  24.717  26.911  1.00  0.00    -0.200 F 
ATOM     79  C   UNL A   1      40.957  26.519  26.083  1.00  0.00     0.200 A 
ATOM     80  F   UNL A   1      42.227  28.349  25.333  1.00  0.00    -0.200 F 
ATOM     81  F   UNL A   1      41.080  25.921  24.891  1.00  0.00    -0.200 F 
ENDBRANCH  57  71
BRANCH  58  82
ATOM     82  C   UNL A   1      40.712  33.526  36.653  1.00  0.00     0.064 A 
ATOM     83  C   UNL A   1      39.555  32.828  37.058  1.00  0.00     0.173 A 
ATOM     84  C   UNL A   1      41.059  34.664  37.394  1.00  0.00     0.173 A 
ATOM     85  F   UNL A   1      39.214  31.690  36.439  1.00  0.00    -0.203 F 
ATOM     86  C   UNL A   1      38.849  33.176  38.209  1.00  0.00     0.198 A 
ATOM     87  C   UNL A   1      40.358  34.999  38.561  1.00  0.00     0.198 A 
ATOM     88  F   UNL A   1      42.159  35.363  37.086  1.00  0.00    -0.203 F 
ATOM     89  F   UNL A   1      37.854  32.387  38.645  1.00  0.00    -0.200 F 
ATOM     90  C   UNL A   1      39.280  34.235  38.985  1.00  0.00     0.200 A 
ATOM     91  F   UNL A   1      40.795  36.001  39.339  1.00  0.00    -0.200 F 
ATOM     92  F   UNL A   1      38.709  34.468  40.175  1.00  0.00    -0.200 F 
ENDBRANCH  58  82
BRANCH  70  93
ATOM     93  C   UNL A   1      43.050  26.906  35.016  1.00  0.00     0.064 A 
ATOM     94  C   UNL A   1      42.050  25.919  35.116  1.00  0.00     0.173 A 
ATOM     95  C   UNL A   1      44.374  26.452  35.203  1.00  0.00     0.173 A 
ATOM     96  F   UNL A   1      40.765  26.179  34.842  1.00  0.00    -0.203 F 
ATOM     97  C   UNL A   1      42.344  24.599  35.444  1.00  0.00     0.198 A 
ATOM     98  C   UNL A   1      44.669  25.117  35.466  1.00  0.00     0.198 A 
ATOM     99  F   UNL A   1      45.428  27.274  35.087  1.00  0.00    -0.203 F 
ATOM    100  F   UNL A   1      41.346  23.712  35.567  1.00  0.00    -0.200 F 
ATOM    101  C   UNL A   1      43.653  24.195  35.605  1.00  0.00     0.200 A 
ATOM    102  F   UNL A   1      45.948  24.727  35.554  1.00  0.00    -0.200 F 
ATOM    103  F   UNL A   1      43.935  22.913  35.867  1.00  0.00    -0.200 F 
ENDBRANCH  70  93
ENDBRANCH  44  45
ENDBRANCH  37  39
ENDBRANCH  36  37
ENDBRANCH  35  36
ENDBRANCH  34  35
ENDBRANCH  33  34
ENDBRANCH   1  33
TORSDOF 18
ENDMDL
MODEL 3
REMARK VINA RESULT:     -12.6      5.179     11.233
REMARK SMILES Cc1ccccc1/[NH+]=C1\S[C@@H](CC(=O)Nc2ccc(C(=O)OCCOCCOC(=O)c3ccc(-c4c5nc(c(-c6c(F)c(F)c(F)c(F)c6F)c6ccc([nH]6)c(-c6c(F)c(F)c(F)c(F)c6F)c6nc(c(-c7c(F)c(F)c(F)c(F)c7F)c7ccc4[nH]7)C=C6)C=C5)cc3)cc2)C(=O)N1C
REMARK SMILES IDX 24 1 23 2 22 3 20 4 21 5 19 6 16 7 17 8 95 9 18 10 94 11
REMARK SMILES IDX 15 12 13 13 14 14 12 16 11 17 8 18 9 19 10 21 98 22 96 23
REMARK SMILES IDX 99 24 97 25 7 26 1 27 2 28 3 29 4 30 6 31 5 32 25 33 26 34
REMARK SMILES IDX 27 35 28 36 29 37 30 38 31 39 32 40 93 41 33 42 92 43 34 44
REMARK SMILES IDX 35 45 36 46 86 47 37 48 91 49 85 50 87 51 38 52 90 53 84 54
REMARK SMILES IDX 83 55 39 57 71 58 51 59 70 60 52 61 55 62 69 63 88 64 53 65
REMARK SMILES IDX 54 66 68 68 89 69 56 70 40 71 41 72 49 73 42 74 43 75 47 76
REMARK SMILES IDX 50 77 44 78 45 79 48 80 46 81 72 82 73 83 81 84 74 85 75 86
REMARK SMILES IDX 79 87 82 88 76 89 77 90 80 91 78 92 57 93 58 94 66 95 59 96
REMARK SMILES IDX 60 97 64 98 67 99 61 100 62 101 65 102 63 103
REMARK H PARENT 15 15 8 20 87 56 55 67
REMARK Flexibility Score: inf
ROOT
ATOM      1  C   UNL A   1      39.345  22.084  26.372  1.00  0.00     0.202 C 
ENDROOT
BRANCH   1   2
ATOM      2  C   UNL A   1      38.892  20.990  25.456  1.00  0.00     0.261 C 
BRANCH   2   3
ATOM      3  O   UNL A   1      37.631  21.306  24.818  1.00  0.00    -0.460 OA
BRANCH   3   4
ATOM      4  C   UNL A   1      36.992  22.508  24.900  1.00  0.00     0.338 C 
ATOM      5  O   UNL A   1      37.345  23.600  24.490  1.00  0.00    -0.246 OA
BRANCH   4   6
ATOM      6  C   UNL A   1      35.740  22.255  25.639  1.00  0.00     0.060 A 
ATOM      7  C   UNL A   1      33.294  22.040  26.924  1.00  0.00     0.041 A 
ATOM      8  C   UNL A   1      34.158  23.078  27.226  1.00  0.00     0.027 A 
ATOM      9  C   UNL A   1      33.737  20.973  26.149  1.00  0.00     0.027 A 
ATOM     10  C   UNL A   1      35.342  23.224  26.555  1.00  0.00     0.018 A 
ATOM     11  C   UNL A   1      34.977  21.085  25.492  1.00  0.00     0.018 A 
BRANCH   7  12
ATOM     12  N   UNL A   1      31.968  22.187  27.347  1.00  0.00    -0.326 N 
ATOM     13  C   UNL A   1      31.066  23.038  26.715  1.00  0.00     0.226 C 
ATOM     14  O   UNL A   1      30.094  23.500  27.306  1.00  0.00    -0.275 OA
ATOM     15  H   UNL A   1      31.660  21.668  28.125  1.00  0.00     0.169 HD
BRANCH  13  16
ATOM     16  C   UNL A   1      31.211  23.157  25.195  1.00  0.00     0.128 C 
BRANCH  16  17
ATOM     17  C   UNL A   1      31.672  24.466  24.580  1.00  0.00     0.183 C 
ATOM     18  N   UNL A   1      31.278  27.517  22.630  1.00  0.00    -0.234 N 
ATOM     19  C   UNL A   1      31.233  26.263  22.894  1.00  0.00     0.319 C 
ATOM     20  H   UNL A   1      31.965  27.771  21.973  1.00  0.00     0.313 HD
ATOM     21  S   UNL A   1      30.189  25.329  23.901  1.00  0.00    -0.022 SA
ATOM     22  N   UNL A   1      32.191  25.408  22.434  1.00  0.00    -0.193 N 
ATOM     23  C   UNL A   1      32.626  24.507  23.388  1.00  0.00     0.324 C 
ATOM     24  C   UNL A   1      32.819  25.549  21.135  1.00  0.00     0.301 C 
ATOM     25  O   UNL A   1      33.707  23.932  23.351  1.00  0.00    -0.245 OA
BRANCH  18  26
ATOM     26  C   UNL A   1      30.513  28.592  23.117  1.00  0.00     0.128 A 
ATOM     27  C   UNL A   1      32.021  29.508  25.027  1.00  0.00     0.049 C 
ATOM     28  C   UNL A   1      30.827  29.540  24.117  1.00  0.00    -0.004 A 
ATOM     29  C   UNL A   1      29.977  30.653  24.316  1.00  0.00     0.008 A 
ATOM     30  C   UNL A   1      28.876  30.886  23.502  1.00  0.00     0.001 A 
ATOM     31  C   UNL A   1      29.379  28.856  22.320  1.00  0.00     0.052 A 
ATOM     32  C   UNL A   1      28.578  29.986  22.494  1.00  0.00     0.004 A 
ENDBRANCH  18  26
ENDBRANCH  16  17
ENDBRANCH  13  16
ENDBRANCH   7  12
ENDBRANCH   4   6
ENDBRANCH   3   4
ENDBRANCH   2   3
ENDBRANCH   1   2
BRANCH   1  33
ATOM     33  O   UNL A   1      40.067  21.417  27.386  1.00  0.00    -0.374 OA
BRANCH  33  34
ATOM     34  C   UNL A   1      41.451  21.680  27.426  1.00  0.00     0.202 C 
BRANCH  34  35
ATOM     35  C   UNL A   1      42.251  20.526  26.820  1.00  0.00     0.261 C 
BRANCH  35  36
ATOM     36  O   UNL A   1      42.515  20.813  25.430  1.00  0.00    -0.460 OA
BRANCH  36  37
ATOM     37  C   UNL A   1      43.827  20.786  25.061  1.00  0.00     0.338 C 
ATOM     38  O   UNL A   1      44.466  19.777  24.813  1.00  0.00    -0.246 OA
BRANCH  37  39
ATOM     39  C   UNL A   1      44.452  22.125  25.284  1.00  0.00     0.060 A 
ATOM     40  C   UNL A   1      45.310  22.321  26.384  1.00  0.00     0.016 A 
ATOM     41  C   UNL A   1      43.935  23.228  24.610  1.00  0.00     0.016 A 
ATOM     42  C   UNL A   1      45.506  23.609  26.911  1.00  0.00     0.010 A 
ATOM     43  C   UNL A   1      44.064  24.479  25.183  1.00  0.00     0.010 A 
ATOM     44  C   UNL A   1      44.800  24.678  26.364  1.00  0.00    -0.014 A 
BRANCH  44  45
ATOM     45  C   UNL A   1      44.648  26.010  26.968  1.00  0.00     0.031 A 
ATOM     46  C   UNL A   1      43.306  26.629  26.999  1.00  0.00     0.074 A 
ATOM     47  C   UNL A   1      45.620  26.546  27.747  1.00  0.00     0.049 A 
ATOM     48  N   UNL A   1      43.082  27.835  27.396  1.00  0.00    -0.248 NA
ATOM     49  C   UNL A   1      42.095  25.967  26.523  1.00  0.00     0.031 C 
ATOM     50  C   UNL A   1      45.473  27.489  28.863  1.00  0.00     0.029 A 
ATOM     51  N   UNL A   1      47.000  26.316  27.733  1.00  0.00    -0.354 N 
ATOM     52  C   UNL A   1      41.732  27.954  27.605  1.00  0.00     0.074 A 
ATOM     53  C   UNL A   1      41.162  26.862  26.863  1.00  0.00     0.031 C 
ATOM     54  C   UNL A   1      46.680  27.966  29.217  1.00  0.00     0.029 A 
ATOM     55  C   UNL A   1      47.635  27.452  28.251  1.00  0.00     0.049 A 
ATOM     56  H   UNL A   1      47.447  25.499  27.414  1.00  0.00     0.167 HD
ATOM     57  C   UNL A   1      41.306  28.869  28.525  1.00  0.00     0.037 A 
ATOM     58  C   UNL A   1      48.546  28.150  27.529  1.00  0.00     0.037 A 
ATOM     59  C   UNL A   1      42.433  29.720  28.973  1.00  0.00     0.049 A 
ATOM     60  C   UNL A   1      48.026  29.541  27.403  1.00  0.00     0.074 A 
ATOM     61  C   UNL A   1      43.087  29.884  30.184  1.00  0.00     0.029 A 
ATOM     62  N   UNL A   1      43.233  30.368  28.020  1.00  0.00    -0.354 N 
ATOM     63  N   UNL A   1      46.746  29.796  27.322  1.00  0.00    -0.248 NA
ATOM     64  C   UNL A   1      48.853  30.728  27.574  1.00  0.00     0.031 C 
ATOM     65  C   UNL A   1      44.303  30.588  29.939  1.00  0.00     0.029 A 
ATOM     66  C   UNL A   1      44.385  30.882  28.585  1.00  0.00     0.049 A 
ATOM     67  H   UNL A   1      43.002  30.446  27.066  1.00  0.00     0.167 HD
ATOM     68  C   UNL A   1      46.564  31.118  27.583  1.00  0.00     0.074 A 
ATOM     69  C   UNL A   1      47.905  31.676  27.672  1.00  0.00     0.031 C 
ATOM     70  C   UNL A   1      45.341  31.670  27.808  1.00  0.00     0.037 A 
BRANCH  57  71
ATOM     71  C   UNL A   1      39.928  28.873  29.198  1.00  0.00     0.064 A 
ATOM     72  C   UNL A   1      38.790  29.326  28.491  1.00  0.00     0.173 A 
ATOM     73  C   UNL A   1      39.652  28.525  30.542  1.00  0.00     0.173 A 
ATOM     74  F   UNL A   1      38.866  29.689  27.204  1.00  0.00    -0.203 F 
ATOM     75  C   UNL A   1      37.519  29.438  29.077  1.00  0.00     0.198 A 
ATOM     76  C   UNL A   1      38.377  28.602  31.116  1.00  0.00     0.198 A 
ATOM     77  F   UNL A   1      40.592  28.122  31.394  1.00  0.00    -0.203 F 
ATOM     78  F   UNL A   1      36.495  29.918  28.357  1.00  0.00    -0.200 F 
ATOM     79  C   UNL A   1      37.311  29.069  30.388  1.00  0.00     0.200 A 
ATOM     80  F   UNL A   1      38.205  28.233  32.395  1.00  0.00    -0.200 F 
ATOM     81  F   UNL A   1      36.098  29.167  30.948  1.00  0.00    -0.200 F 
ENDBRANCH  57  71
BRANCH  58  82
ATOM     82  C   UNL A   1      49.269  27.306  26.540  1.00  0.00     0.064 A 
ATOM     83  C   UNL A   1      48.827  27.388  25.202  1.00  0.00     0.173 A 
ATOM     84  C   UNL A   1      50.583  26.867  26.749  1.00  0.00     0.173 A 
ATOM     85  F   UNL A   1      47.608  27.874  24.933  1.00  0.00    -0.203 F 
ATOM     86  C   UNL A   1      49.685  27.159  24.127  1.00  0.00     0.198 A 
ATOM     87  C   UNL A   1      51.447  26.655  25.665  1.00  0.00     0.198 A 
ATOM     88  F   UNL A   1      51.082  26.790  27.989  1.00  0.00    -0.203 F 
ATOM     89  F   UNL A   1      49.267  27.406  22.875  1.00  0.00    -0.200 F 
ATOM     90  C   UNL A   1      51.008  26.836  24.362  1.00  0.00     0.200 A 
ATOM     91  F   UNL A   1      52.742  26.382  25.887  1.00  0.00    -0.200 F 
ATOM     92  F   UNL A   1      51.874  26.779  23.339  1.00  0.00    -0.200 F 
ENDBRANCH  58  82
BRANCH  70  93
ATOM     93  C   UNL A   1      45.005  33.062  27.351  1.00  0.00     0.064 A 
ATOM     94  C   UNL A   1      44.176  33.334  26.245  1.00  0.00     0.173 A 
ATOM     95  C   UNL A   1      45.344  34.180  28.145  1.00  0.00     0.173 A 
ATOM     96  F   UNL A   1      43.675  32.357  25.476  1.00  0.00    -0.203 F 
ATOM     97  C   UNL A   1      43.775  34.626  25.920  1.00  0.00     0.198 A 
ATOM     98  C   UNL A   1      44.886  35.462  27.854  1.00  0.00     0.198 A 
ATOM     99  F   UNL A   1      46.086  34.060  29.256  1.00  0.00    -0.203 F 
ATOM    100  F   UNL A   1      43.020  34.828  24.831  1.00  0.00    -0.200 F 
ATOM    101  C   UNL A   1      44.117  35.688  26.732  1.00  0.00     0.200 A 
ATOM    102  F   UNL A   1      45.171  36.471  28.687  1.00  0.00    -0.200 F 
ATOM    103  F   UNL A   1      43.684  36.921  26.446  1.00  0.00    -0.200 F 
ENDBRANCH  70  93
ENDBRANCH  44  45
ENDBRANCH  37  39
ENDBRANCH  36  37
ENDBRANCH  35  36
ENDBRANCH  34  35
ENDBRANCH  33  34
ENDBRANCH   1  33
TORSDOF 18
ENDMDL
