MODEL 1
REMARK VINA RESULT:     -13.6      0.000      0.000
REMARK SMILES O=C(OCCOCCOC(=O)[C@H]1CCCCN1c1cc(-c2ccccc2)nc(-c2cccc(Cl)c2)n1)c1ccc(-c2c3nc(c(-c4c(F)c(F)c(F)c(F)c4F)c4ccc([nH]4)c(-c4c(F)c(F)c(F)c(F)c4F)c4nc(c(-c5c(F)c(F)c(F)c(F)c5F)c5ccc2[nH]5)C=C4)C=C3)cc1
REMARK SMILES IDX 6 1 5 2 4 3 3 4 2 5 1 6 37 7 38 8 99 9 39 10 98 11 40 12
REMARK SMILES IDX 41 13 42 14 92 15 43 16 97 17 91 18 93 19 44 20 96 21 90 22
REMARK SMILES IDX 89 23 45 25 77 26 57 27 76 28 58 29 61 30 75 31 94 32 59 33
REMARK SMILES IDX 60 34 74 36 95 37 62 38 46 39 47 40 55 41 48 42 49 43 53 44
REMARK SMILES IDX 56 45 50 46 51 47 54 48 52 49 78 50 79 51 87 52 80 53 81 54
REMARK SMILES IDX 85 55 88 56 82 57 83 58 86 59 84 60 63 61 64 62 72 63 65 64
REMARK SMILES IDX 66 65 70 66 73 67 67 68 68 69 71 70 69 71 7 72 8 73 9 74
REMARK SMILES IDX 10 75 11 76 12 77 13 78 17 79 14 80 16 81 15 82 18 83 19 84
REMARK SMILES IDX 36 85 20 86 28 87 27 88 21 89 22 90 26 91 23 92 25 93 24 94
REMARK SMILES IDX 29 95 30 96 35 97 31 98 33 99 32 100 34 101
REMARK H PARENT 93 24 61 35
REMARK Flexibility Score: inf
ROOT
ATOM      1  O   UNL A   1      34.731  21.921  25.191  1.00  0.00    -0.374 OA
ENDROOT
BRANCH   1   2
ATOM      2  C   UNL A   1      35.615  20.815  25.333  1.00  0.00     0.202 C 
BRANCH   2   3
ATOM      3  C   UNL A   1      37.066  20.976  24.858  1.00  0.00     0.261 C 
BRANCH   3   4
ATOM      4  O   UNL A   1      37.798  21.913  25.692  1.00  0.00    -0.460 OA
BRANCH   4   5
ATOM      5  C   UNL A   1      39.060  21.745  26.186  1.00  0.00     0.338 C 
ATOM      6  O   UNL A   1      39.626  20.666  26.144  1.00  0.00    -0.246 OA
BRANCH   5   7
ATOM      7  C   UNL A   1      39.744  22.919  26.771  1.00  0.00     0.060 A 
ATOM      8  C   UNL A   1      39.355  24.181  26.374  1.00  0.00     0.016 A 
ATOM      9  C   UNL A   1      40.771  22.809  27.701  1.00  0.00     0.016 A 
ATOM     10  C   UNL A   1      40.134  25.278  26.564  1.00  0.00     0.010 A 
ATOM     11  C   UNL A   1      41.427  23.974  28.122  1.00  0.00     0.010 A 
ATOM     12  C   UNL A   1      41.127  25.208  27.516  1.00  0.00    -0.014 A 
BRANCH  12  13
ATOM     13  C   UNL A   1      41.830  26.471  27.760  1.00  0.00     0.031 A 
ATOM     14  C   UNL A   1      41.204  27.446  28.693  1.00  0.00     0.074 A 
ATOM     15  C   UNL A   1      43.093  26.609  27.305  1.00  0.00     0.049 A 
ATOM     16  N   UNL A   1      41.564  28.665  28.966  1.00  0.00    -0.248 NA
ATOM     17  C   UNL A   1      40.005  26.988  29.417  1.00  0.00     0.031 C 
ATOM     18  C   UNL A   1      43.841  25.593  26.546  1.00  0.00     0.029 A 
ATOM     19  N   UNL A   1      43.997  27.620  27.462  1.00  0.00    -0.354 N 
ATOM     20  C   UNL A   1      40.593  29.150  29.828  1.00  0.00     0.074 A 
ATOM     21  C   UNL A   1      39.640  28.088  30.054  1.00  0.00     0.031 C 
ATOM     22  C   UNL A   1      45.099  26.011  26.359  1.00  0.00     0.029 A 
ATOM     23  C   UNL A   1      45.197  27.377  26.838  1.00  0.00     0.049 A 
ATOM     24  H   UNL A   1      43.808  28.441  27.972  1.00  0.00     0.167 HD
ATOM     25  C   UNL A   1      40.515  30.395  30.344  1.00  0.00     0.037 A 
ATOM     26  C   UNL A   1      46.226  28.209  26.606  1.00  0.00     0.037 A 
ATOM     27  C   UNL A   1      41.518  31.393  30.091  1.00  0.00     0.049 A 
ATOM     28  C   UNL A   1      46.071  29.616  27.106  1.00  0.00     0.074 A 
ATOM     29  C   UNL A   1      41.548  32.716  30.480  1.00  0.00     0.029 A 
ATOM     30  N   UNL A   1      42.689  31.154  29.375  1.00  0.00    -0.354 N 
ATOM     31  N   UNL A   1      45.090  30.134  27.809  1.00  0.00    -0.248 NA
ATOM     32  C   UNL A   1      47.136  30.560  26.762  1.00  0.00     0.031 C 
ATOM     33  C   UNL A   1      42.709  33.291  29.952  1.00  0.00     0.029 A 
ATOM     34  C   UNL A   1      43.438  32.312  29.289  1.00  0.00     0.049 A 
ATOM     35  H   UNL A   1      42.945  30.286  28.985  1.00  0.00     0.167 HD
ATOM     36  C   UNL A   1      45.417  31.465  28.000  1.00  0.00     0.074 A 
ATOM     37  C   UNL A   1      46.705  31.663  27.357  1.00  0.00     0.031 C 
ATOM     38  C   UNL A   1      44.721  32.440  28.637  1.00  0.00     0.037 A 
BRANCH  25  39
ATOM     39  C   UNL A   1      39.265  30.740  31.097  1.00  0.00     0.064 A 
ATOM     40  C   UNL A   1      38.227  31.496  30.533  1.00  0.00     0.173 A 
ATOM     41  C   UNL A   1      39.147  30.375  32.447  1.00  0.00     0.173 A 
ATOM     42  F   UNL A   1      38.306  31.908  29.258  1.00  0.00    -0.203 F 
ATOM     43  C   UNL A   1      37.139  31.906  31.302  1.00  0.00     0.198 A 
ATOM     44  C   UNL A   1      38.044  30.759  33.204  1.00  0.00     0.198 A 
ATOM     45  F   UNL A   1      40.120  29.668  33.044  1.00  0.00    -0.203 F 
ATOM     46  F   UNL A   1      36.200  32.698  30.763  1.00  0.00    -0.200 F 
ATOM     47  C   UNL A   1      37.047  31.535  32.635  1.00  0.00     0.200 A 
ATOM     48  F   UNL A   1      37.960  30.400  34.493  1.00  0.00    -0.200 F 
ATOM     49  F   UNL A   1      36.010  31.945  33.378  1.00  0.00    -0.200 F 
ENDBRANCH  25  39
BRANCH  26  50
ATOM     50  C   UNL A   1      47.386  27.766  25.787  1.00  0.00     0.064 A 
ATOM     51  C   UNL A   1      47.341  27.775  24.388  1.00  0.00     0.173 A 
ATOM     52  C   UNL A   1      48.582  27.336  26.391  1.00  0.00     0.173 A 
ATOM     53  F   UNL A   1      46.223  28.161  23.757  1.00  0.00    -0.203 F 
ATOM     54  C   UNL A   1      48.436  27.363  23.627  1.00  0.00     0.198 A 
ATOM     55  C   UNL A   1      49.686  26.959  25.632  1.00  0.00     0.198 A 
ATOM     56  F   UNL A   1      48.688  27.305  27.729  1.00  0.00    -0.203 F 
ATOM     57  F   UNL A   1      48.350  27.341  22.290  1.00  0.00    -0.200 F 
ATOM     58  C   UNL A   1      49.610  26.963  24.249  1.00  0.00     0.200 A 
ATOM     59  F   UNL A   1      50.824  26.598  26.240  1.00  0.00    -0.200 F 
ATOM     60  F   UNL A   1      50.664  26.577  23.516  1.00  0.00    -0.200 F 
ENDBRANCH  26  50
BRANCH  38  61
ATOM     61  C   UNL A   1      45.372  33.786  28.695  1.00  0.00     0.064 A 
ATOM     62  C   UNL A   1      46.279  34.120  29.710  1.00  0.00     0.173 A 
ATOM     63  C   UNL A   1      45.118  34.729  27.688  1.00  0.00     0.173 A 
ATOM     64  F   UNL A   1      46.533  33.254  30.702  1.00  0.00    -0.203 F 
ATOM     65  C   UNL A   1      46.896  35.365  29.725  1.00  0.00     0.198 A 
ATOM     66  C   UNL A   1      45.765  35.958  27.688  1.00  0.00     0.198 A 
ATOM     67  F   UNL A   1      44.260  34.446  26.697  1.00  0.00    -0.203 F 
ATOM     68  F   UNL A   1      47.724  35.687  30.728  1.00  0.00    -0.200 F 
ATOM     69  C   UNL A   1      46.647  36.278  28.710  1.00  0.00     0.200 A 
ATOM     70  F   UNL A   1      45.538  36.831  26.698  1.00  0.00    -0.200 F 
ATOM     71  F   UNL A   1      47.257  37.471  28.717  1.00  0.00    -0.200 F 
ENDBRANCH  38  61
ENDBRANCH  12  13
ENDBRANCH   5   7
ENDBRANCH   4   5
ENDBRANCH   3   4
ENDBRANCH   2   3
ENDBRANCH   1   2
BRANCH   1  72
ATOM     72  C   UNL A   1      33.950  21.959  23.988  1.00  0.00     0.202 C 
BRANCH  72  73
ATOM     73  C   UNL A   1      34.422  23.127  23.135  1.00  0.00     0.261 C 
BRANCH  73  74
ATOM     74  O   UNL A   1      33.325  23.555  22.322  1.00  0.00    -0.462 OA
BRANCH  74  75
ATOM     75  C   UNL A   1      33.036  24.894  22.305  1.00  0.00     0.328 C 
ATOM     76  O   UNL A   1      33.676  25.740  21.694  1.00  0.00    -0.250 OA
BRANCH  75  77
ATOM     77  C   UNL A   1      31.774  25.193  23.144  1.00  0.00     0.193 C 
ATOM     78  C   UNL A   1      30.784  24.040  23.389  1.00  0.00     0.037 C 
ATOM     79  N   UNL A   1      32.131  25.830  24.414  1.00  0.00    -0.343 N 
ATOM     80  C   UNL A   1      30.835  23.324  24.756  1.00  0.00     0.005 C 
ATOM     81  C   UNL A   1      32.462  25.054  25.583  1.00  0.00     0.119 C 
ATOM     82  C   UNL A   1      31.248  24.207  25.928  1.00  0.00     0.022 C 
BRANCH  79  83
ATOM     83  C   UNL A   1      31.986  27.185  24.429  1.00  0.00     0.134 A 
ATOM     84  C   UNL A   1      30.959  27.811  23.776  1.00  0.00     0.076 A 
ATOM     85  N   UNL A   1      32.797  27.836  25.260  1.00  0.00    -0.211 NA
ATOM     86  C   UNL A   1      30.771  29.146  24.073  1.00  0.00     0.076 A 
ATOM     87  C   UNL A   1      32.552  29.126  25.492  1.00  0.00     0.162 A 
ATOM     88  N   UNL A   1      31.554  29.826  24.942  1.00  0.00    -0.228 NA
BRANCH  86  89
ATOM     89  C   UNL A   1      29.695  29.902  23.433  1.00  0.00     0.000 A 
ATOM     90  C   UNL A   1      29.326  31.155  23.943  1.00  0.00     0.010 A 
ATOM     91  C   UNL A   1      29.049  29.430  22.278  1.00  0.00     0.010 A 
ATOM     92  C   UNL A   1      28.352  31.926  23.308  1.00  0.00     0.001 A 
ATOM     93  C   UNL A   1      28.066  30.197  21.647  1.00  0.00     0.001 A 
ATOM     94  C   UNL A   1      27.723  31.446  22.161  1.00  0.00     0.000 A 
ENDBRANCH  86  89
BRANCH  87  95
ATOM     95  C   UNL A   1      33.437  29.730  26.484  1.00  0.00     0.021 A 
ATOM     96  C   UNL A   1      33.086  30.963  27.074  1.00  0.00     0.012 A 
ATOM     97  C   UNL A   1      34.689  29.180  26.787  1.00  0.00     0.032 A 
ATOM     98  C   UNL A   1      33.947  31.620  27.950  1.00  0.00     0.002 A 
ATOM     99  C   UNL A   1      35.555  29.849  27.651  1.00  0.00     0.041 A 
ATOM    100  C   UNL A   1      35.188  31.060  28.239  1.00  0.00     0.020 A 
ATOM    101  Cl  UNL A   1      37.111  29.187  27.977  1.00  0.00    -0.084 Cl
ENDBRANCH  87  95
ENDBRANCH  79  83
ENDBRANCH  75  77
ENDBRANCH  74  75
ENDBRANCH  73  74
ENDBRANCH  72  73
ENDBRANCH   1  72
TORSDOF 17
ENDMDL
MODEL 2
REMARK VINA RESULT:     -12.8      0.779      7.168
REMARK SMILES O=C(OCCOCCOC(=O)[C@H]1CCCCN1c1cc(-c2ccccc2)nc(-c2cccc(Cl)c2)n1)c1ccc(-c2c3nc(c(-c4c(F)c(F)c(F)c(F)c4F)c4ccc([nH]4)c(-c4c(F)c(F)c(F)c(F)c4F)c4nc(c(-c5c(F)c(F)c(F)c(F)c5F)c5ccc2[nH]5)C=C4)C=C3)cc1
REMARK SMILES IDX 6 1 5 2 4 3 3 4 2 5 1 6 37 7 38 8 99 9 39 10 98 11 40 12
REMARK SMILES IDX 41 13 42 14 92 15 43 16 97 17 91 18 93 19 44 20 96 21 90 22
REMARK SMILES IDX 89 23 45 25 77 26 57 27 76 28 58 29 61 30 75 31 94 32 59 33
REMARK SMILES IDX 60 34 74 36 95 37 62 38 46 39 47 40 55 41 48 42 49 43 53 44
REMARK SMILES IDX 56 45 50 46 51 47 54 48 52 49 78 50 79 51 87 52 80 53 81 54
REMARK SMILES IDX 85 55 88 56 82 57 83 58 86 59 84 60 63 61 64 62 72 63 65 64
REMARK SMILES IDX 66 65 70 66 73 67 67 68 68 69 71 70 69 71 7 72 8 73 9 74
REMARK SMILES IDX 10 75 11 76 12 77 13 78 17 79 14 80 16 81 15 82 18 83 19 84
REMARK SMILES IDX 36 85 20 86 28 87 27 88 21 89 22 90 26 91 23 92 25 93 24 94
REMARK SMILES IDX 29 95 30 96 35 97 31 98 33 99 32 100 34 101
REMARK H PARENT 93 24 61 35
REMARK Flexibility Score: inf
ROOT
ATOM      1  O   UNL A   1      35.090  21.296  24.732  1.00  0.00    -0.374 OA
ENDROOT
BRANCH   1   2
ATOM      2  C   UNL A   1      36.374  21.759  24.331  1.00  0.00     0.202 C 
BRANCH   2   3
ATOM      3  C   UNL A   1      37.603  20.923  24.716  1.00  0.00     0.261 C 
BRANCH   3   4
ATOM      4  O   UNL A   1      38.165  21.354  25.983  1.00  0.00    -0.460 OA
BRANCH   4   5
ATOM      5  C   UNL A   1      39.485  21.334  26.335  1.00  0.00     0.338 C 
ATOM      6  O   UNL A   1      40.171  20.336  26.191  1.00  0.00    -0.246 OA
BRANCH   5   7
ATOM      7  C   UNL A   1      40.079  22.569  26.891  1.00  0.00     0.060 A 
ATOM      8  C   UNL A   1      39.586  23.788  26.478  1.00  0.00     0.016 A 
ATOM      9  C   UNL A   1      41.123  22.558  27.808  1.00  0.00     0.016 A 
ATOM     10  C   UNL A   1      40.276  24.948  26.639  1.00  0.00     0.010 A 
ATOM     11  C   UNL A   1      41.689  23.780  28.201  1.00  0.00     0.010 A 
ATOM     12  C   UNL A   1      41.283  24.974  27.578  1.00  0.00    -0.014 A 
BRANCH  12  13
ATOM     13  C   UNL A   1      41.886  26.293  27.792  1.00  0.00     0.031 A 
ATOM     14  C   UNL A   1      43.150  26.604  27.073  1.00  0.00     0.074 A 
ATOM     15  C   UNL A   1      41.176  27.231  28.452  1.00  0.00     0.049 A 
ATOM     16  N   UNL A   1      43.929  27.638  27.196  1.00  0.00    -0.248 NA
ATOM     17  C   UNL A   1      43.604  25.615  26.080  1.00  0.00     0.031 C 
ATOM     18  C   UNL A   1      39.828  27.042  29.014  1.00  0.00     0.029 A 
ATOM     19  N   UNL A   1      41.448  28.544  28.712  1.00  0.00    -0.354 N 
ATOM     20  C   UNL A   1      45.006  27.388  26.360  1.00  0.00     0.074 A 
ATOM     21  C   UNL A   1      44.772  26.117  25.715  1.00  0.00     0.031 C 
ATOM     22  C   UNL A   1      39.376  28.207  29.495  1.00  0.00     0.029 A 
ATOM     23  C   UNL A   1      40.455  29.175  29.421  1.00  0.00     0.049 A 
ATOM     24  H   UNL A   1      42.275  28.994  28.420  1.00  0.00     0.167 HD
ATOM     25  C   UNL A   1      46.100  28.161  26.193  1.00  0.00     0.037 A 
ATOM     26  C   UNL A   1      40.461  30.376  30.021  1.00  0.00     0.037 A 
ATOM     27  C   UNL A   1      46.250  29.429  26.853  1.00  0.00     0.049 A 
ATOM     28  C   UNL A   1      41.726  31.175  29.901  1.00  0.00     0.074 A 
ATOM     29  C   UNL A   1      47.324  30.294  26.845  1.00  0.00     0.029 A 
ATOM     30  N   UNL A   1      45.265  30.013  27.648  1.00  0.00    -0.354 N 
ATOM     31  N   UNL A   1      42.815  30.891  29.224  1.00  0.00    -0.248 NA
ATOM     32  C   UNL A   1      41.785  32.435  30.644  1.00  0.00     0.031 C 
ATOM     33  C   UNL A   1      47.010  31.374  27.678  1.00  0.00     0.029 A 
ATOM     34  C   UNL A   1      45.715  31.217  28.154  1.00  0.00     0.049 A 
ATOM     35  H   UNL A   1      44.378  29.623  27.823  1.00  0.00     0.167 HD
ATOM     36  C   UNL A   1      43.692  31.937  29.450  1.00  0.00     0.074 A 
ATOM     37  C   UNL A   1      42.990  32.876  30.310  1.00  0.00     0.031 C 
ATOM     38  C   UNL A   1      44.960  32.110  29.003  1.00  0.00     0.037 A 
BRANCH  25  39
ATOM     39  C   UNL A   1      47.220  27.584  25.381  1.00  0.00     0.064 A 
ATOM     40  C   UNL A   1      48.265  26.843  25.953  1.00  0.00     0.173 A 
ATOM     41  C   UNL A   1      47.291  27.857  24.006  1.00  0.00     0.173 A 
ATOM     42  F   UNL A   1      48.270  26.589  27.271  1.00  0.00    -0.203 F 
ATOM     43  C   UNL A   1      49.356  26.432  25.188  1.00  0.00     0.198 A 
ATOM     44  C   UNL A   1      48.366  27.418  23.238  1.00  0.00     0.198 A 
ATOM     45  F   UNL A   1      46.329  28.578  23.409  1.00  0.00    -0.203 F 
ATOM     46  F   UNL A   1      50.382  25.798  25.773  1.00  0.00    -0.200 F 
ATOM     47  C   UNL A   1      49.404  26.718  23.832  1.00  0.00     0.200 A 
ATOM     48  F   UNL A   1      48.409  27.697  21.928  1.00  0.00    -0.200 F 
ATOM     49  F   UNL A   1      50.461  26.338  23.101  1.00  0.00    -0.200 F 
ENDBRANCH  25  39
BRANCH  26  50
ATOM     50  C   UNL A   1      39.309  30.810  30.856  1.00  0.00     0.064 A 
ATOM     51  C   UNL A   1      39.146  30.360  32.171  1.00  0.00     0.173 A 
ATOM     52  C   UNL A   1      38.345  31.706  30.358  1.00  0.00     0.173 A 
ATOM     53  F   UNL A   1      40.025  29.493  32.695  1.00  0.00    -0.203 F 
ATOM     54  C   UNL A   1      38.065  30.775  32.949  1.00  0.00     0.198 A 
ATOM     55  C   UNL A   1      37.287  32.150  31.147  1.00  0.00     0.198 A 
ATOM     56  F   UNL A   1      38.445  32.176  29.105  1.00  0.00    -0.203 F 
ATOM     57  F   UNL A   1      37.911  30.295  34.191  1.00  0.00    -0.200 F 
ATOM     58  C   UNL A   1      37.141  31.676  32.440  1.00  0.00     0.200 A 
ATOM     59  F   UNL A   1      36.412  33.038  30.655  1.00  0.00    -0.200 F 
ATOM     60  F   UNL A   1      36.109  32.082  33.192  1.00  0.00    -0.200 F 
ENDBRANCH  26  50
BRANCH  38  61
ATOM     61  C   UNL A   1      45.636  33.382  29.408  1.00  0.00     0.064 A 
ATOM     62  C   UNL A   1      46.440  33.454  30.554  1.00  0.00     0.173 A 
ATOM     63  C   UNL A   1      45.516  34.525  28.604  1.00  0.00     0.173 A 
ATOM     64  F   UNL A   1      46.564  32.388  31.361  1.00  0.00    -0.203 F 
ATOM     65  C   UNL A   1      47.085  34.637  30.893  1.00  0.00     0.198 A 
ATOM     66  C   UNL A   1      46.192  35.694  28.927  1.00  0.00     0.198 A 
ATOM     67  F   UNL A   1      44.761  34.497  27.496  1.00  0.00    -0.203 F 
ATOM     68  F   UNL A   1      47.810  34.703  32.018  1.00  0.00    -0.200 F 
ATOM     69  C   UNL A   1      46.969  35.752  30.075  1.00  0.00     0.200 A 
ATOM     70  F   UNL A   1      46.094  36.764  28.127  1.00  0.00    -0.200 F 
ATOM     71  F   UNL A   1      47.606  36.886  30.395  1.00  0.00    -0.200 F 
ENDBRANCH  38  61
ENDBRANCH  12  13
ENDBRANCH   5   7
ENDBRANCH   4   5
ENDBRANCH   3   4
ENDBRANCH   2   3
ENDBRANCH   1   2
BRANCH   1  72
ATOM     72  C   UNL A   1      33.973  22.111  24.350  1.00  0.00     0.202 C 
BRANCH  72  73
ATOM     73  C   UNL A   1      34.359  22.927  23.125  1.00  0.00     0.261 C 
BRANCH  73  74
ATOM     74  O   UNL A   1      34.005  24.291  23.369  1.00  0.00    -0.462 OA
BRANCH  74  75
ATOM     75  C   UNL A   1      33.094  24.869  22.526  1.00  0.00     0.328 C 
ATOM     76  O   UNL A   1      33.271  25.057  21.329  1.00  0.00    -0.250 OA
BRANCH  75  77
ATOM     77  C   UNL A   1      31.798  25.231  23.284  1.00  0.00     0.193 C 
ATOM     78  C   UNL A   1      30.757  24.118  23.500  1.00  0.00     0.037 C 
ATOM     79  N   UNL A   1      32.105  25.889  24.556  1.00  0.00    -0.343 N 
ATOM     80  C   UNL A   1      30.706  23.437  24.884  1.00  0.00     0.005 C 
ATOM     81  C   UNL A   1      32.343  25.134  25.760  1.00  0.00     0.119 C 
ATOM     82  C   UNL A   1      31.084  24.336  26.057  1.00  0.00     0.022 C 
BRANCH  79  83
ATOM     83  C   UNL A   1      32.006  27.248  24.530  1.00  0.00     0.134 A 
ATOM     84  C   UNL A   1      30.985  27.888  23.881  1.00  0.00     0.076 A 
ATOM     85  N   UNL A   1      32.860  27.897  25.319  1.00  0.00    -0.211 NA
ATOM     86  C   UNL A   1      30.849  29.237  24.139  1.00  0.00     0.076 A 
ATOM     87  C   UNL A   1      32.664  29.201  25.514  1.00  0.00     0.162 A 
ATOM     88  N   UNL A   1      31.676  29.918  24.965  1.00  0.00    -0.228 NA
BRANCH  86  89
ATOM     89  C   UNL A   1      29.783  30.009  23.500  1.00  0.00     0.000 A 
ATOM     90  C   UNL A   1      29.118  29.484  22.383  1.00  0.00     0.010 A 
ATOM     91  C   UNL A   1      29.365  31.250  24.010  1.00  0.00     0.010 A 
ATOM     92  C   UNL A   1      28.052  30.170  21.800  1.00  0.00     0.001 A 
ATOM     93  C   UNL A   1      28.303  31.941  23.421  1.00  0.00     0.001 A 
ATOM     94  C   UNL A   1      27.646  31.397  22.320  1.00  0.00     0.000 A 
ENDBRANCH  86  89
BRANCH  87  95
ATOM     95  C   UNL A   1      33.594  29.807  26.464  1.00  0.00     0.021 A 
ATOM     96  C   UNL A   1      34.674  29.049  26.963  1.00  0.00     0.012 A 
ATOM     97  C   UNL A   1      33.381  31.088  26.988  1.00  0.00     0.032 A 
ATOM     98  C   UNL A   1      35.526  29.556  27.943  1.00  0.00     0.002 A 
ATOM     99  C   UNL A   1      34.224  31.586  27.980  1.00  0.00     0.041 A 
ATOM    100  C   UNL A   1      35.298  30.830  28.454  1.00  0.00     0.020 A 
ATOM    101  Cl  UNL A   1      33.922  33.142  28.653  1.00  0.00    -0.084 Cl
ENDBRANCH  87  95
ENDBRANCH  79  83
ENDBRANCH  75  77
ENDBRANCH  74  75
ENDBRANCH  73  74
ENDBRANCH  72  73
ENDBRANCH   1  72
TORSDOF 17
ENDMDL
MODEL 3
REMARK VINA RESULT:     -12.7      1.175      3.129
REMARK SMILES O=C(OCCOCCOC(=O)[C@H]1CCCCN1c1cc(-c2ccccc2)nc(-c2cccc(Cl)c2)n1)c1ccc(-c2c3nc(c(-c4c(F)c(F)c(F)c(F)c4F)c4ccc([nH]4)c(-c4c(F)c(F)c(F)c(F)c4F)c4nc(c(-c5c(F)c(F)c(F)c(F)c5F)c5ccc2[nH]5)C=C4)C=C3)cc1
REMARK SMILES IDX 6 1 5 2 4 3 3 4 2 5 1 6 37 7 38 8 99 9 39 10 98 11 40 12
REMARK SMILES IDX 41 13 42 14 92 15 43 16 97 17 91 18 93 19 44 20 96 21 90 22
REMARK SMILES IDX 89 23 45 25 77 26 57 27 76 28 58 29 61 30 75 31 94 32 59 33
REMARK SMILES IDX 60 34 74 36 95 37 62 38 46 39 47 40 55 41 48 42 49 43 53 44
REMARK SMILES IDX 56 45 50 46 51 47 54 48 52 49 78 50 79 51 87 52 80 53 81 54
REMARK SMILES IDX 85 55 88 56 82 57 83 58 86 59 84 60 63 61 64 62 72 63 65 64
REMARK SMILES IDX 66 65 70 66 73 67 67 68 68 69 71 70 69 71 7 72 8 73 9 74
REMARK SMILES IDX 10 75 11 76 12 77 13 78 17 79 14 80 16 81 15 82 18 83 19 84
REMARK SMILES IDX 36 85 20 86 28 87 27 88 21 89 22 90 26 91 23 92 25 93 24 94
REMARK SMILES IDX 29 95 30 96 35 97 31 98 33 99 32 100 34 101
REMARK H PARENT 93 24 61 35
REMARK Flexibility Score: inf
ROOT
ATOM      1  O   UNL A   1      35.128  22.017  24.788  1.00  0.00    -0.374 OA
ENDROOT
BRANCH   1   2
ATOM      2  C   UNL A   1      35.925  20.958  25.306  1.00  0.00     0.202 C 
BRANCH   2   3
ATOM      3  C   UNL A   1      37.408  20.903  24.910  1.00  0.00     0.261 C 
BRANCH   3   4
ATOM      4  O   UNL A   1      38.178  21.934  25.583  1.00  0.00    -0.460 OA
BRANCH   4   5
ATOM      5  C   UNL A   1      39.285  21.744  26.359  1.00  0.00     0.338 C 
ATOM      6  O   UNL A   1      39.727  20.630  26.583  1.00  0.00    -0.246 OA
BRANCH   5   7
ATOM      7  C   UNL A   1      39.956  22.935  26.924  1.00  0.00     0.060 A 
ATOM      8  C   UNL A   1      39.570  24.185  26.487  1.00  0.00     0.016 A 
ATOM      9  C   UNL A   1      40.968  22.854  27.873  1.00  0.00     0.016 A 
ATOM     10  C   UNL A   1      40.342  25.289  26.661  1.00  0.00     0.010 A 
ATOM     11  C   UNL A   1      41.614  24.032  28.273  1.00  0.00     0.010 A 
ATOM     12  C   UNL A   1      41.320  25.248  27.630  1.00  0.00    -0.014 A 
BRANCH  12  13
ATOM     13  C   UNL A   1      42.015  26.519  27.852  1.00  0.00     0.031 A 
ATOM     14  C   UNL A   1      41.397  27.495  28.788  1.00  0.00     0.074 A 
ATOM     15  C   UNL A   1      43.268  26.665  27.372  1.00  0.00     0.049 A 
ATOM     16  N   UNL A   1      41.750  28.719  29.046  1.00  0.00    -0.248 NA
ATOM     17  C   UNL A   1      40.216  27.031  29.538  1.00  0.00     0.031 C 
ATOM     18  C   UNL A   1      44.012  25.651  26.607  1.00  0.00     0.029 A 
ATOM     19  N   UNL A   1      44.165  27.686  27.505  1.00  0.00    -0.354 N 
ATOM     20  C   UNL A   1      40.791  29.202  29.922  1.00  0.00     0.074 A 
ATOM     21  C   UNL A   1      39.852  28.133  30.173  1.00  0.00     0.031 C 
ATOM     22  C   UNL A   1      45.262  26.080  26.394  1.00  0.00     0.029 A 
ATOM     23  C   UNL A   1      45.355  27.451  26.861  1.00  0.00     0.049 A 
ATOM     24  H   UNL A   1      43.977  28.510  28.012  1.00  0.00     0.167 HD
ATOM     25  C   UNL A   1      40.710  30.450  30.430  1.00  0.00     0.037 A 
ATOM     26  C   UNL A   1      46.372  28.290  26.604  1.00  0.00     0.037 A 
ATOM     27  C   UNL A   1      41.699  31.456  30.151  1.00  0.00     0.049 A 
ATOM     28  C   UNL A   1      46.213  29.699  27.096  1.00  0.00     0.074 A 
ATOM     29  C   UNL A   1      41.723  32.781  30.529  1.00  0.00     0.029 A 
ATOM     30  N   UNL A   1      42.859  31.223  29.415  1.00  0.00    -0.354 N 
ATOM     31  N   UNL A   1      45.240  30.213  27.813  1.00  0.00    -0.248 NA
ATOM     32  C   UNL A   1      47.262  30.650  26.725  1.00  0.00     0.031 C 
ATOM     33  C   UNL A   1      42.869  33.364  29.975  1.00  0.00     0.029 A 
ATOM     34  C   UNL A   1      43.595  32.387  29.307  1.00  0.00     0.049 A 
ATOM     35  H   UNL A   1      43.115  30.354  29.027  1.00  0.00     0.167 HD
ATOM     36  C   UNL A   1      45.557  31.548  27.988  1.00  0.00     0.074 A 
ATOM     37  C   UNL A   1      46.832  31.754  27.320  1.00  0.00     0.031 C 
ATOM     38  C   UNL A   1      44.864  32.522  28.630  1.00  0.00     0.037 A 
BRANCH  25  39
ATOM     39  C   UNL A   1      39.471  30.789  31.203  1.00  0.00     0.064 A 
ATOM     40  C   UNL A   1      38.431  31.560  30.664  1.00  0.00     0.173 A 
ATOM     41  C   UNL A   1      39.366  30.401  32.549  1.00  0.00     0.173 A 
ATOM     42  F   UNL A   1      38.498  31.993  29.396  1.00  0.00    -0.203 F 
ATOM     43  C   UNL A   1      37.354  31.964  31.453  1.00  0.00     0.198 A 
ATOM     44  C   UNL A   1      38.274  30.779  33.325  1.00  0.00     0.198 A 
ATOM     45  F   UNL A   1      40.342  29.679  33.122  1.00  0.00    -0.203 F 
ATOM     46  F   UNL A   1      36.414  32.770  30.939  1.00  0.00    -0.200 F 
ATOM     47  C   UNL A   1      37.276  31.570  32.780  1.00  0.00     0.200 A 
ATOM     48  F   UNL A   1      38.204  30.398  34.608  1.00  0.00    -0.200 F 
ATOM     49  F   UNL A   1      36.249  31.973  33.542  1.00  0.00    -0.200 F 
ENDBRANCH  25  39
BRANCH  26  50
ATOM     50  C   UNL A   1      47.521  27.851  25.767  1.00  0.00     0.064 A 
ATOM     51  C   UNL A   1      47.439  27.818  24.370  1.00  0.00     0.173 A 
ATOM     52  C   UNL A   1      48.743  27.470  26.350  1.00  0.00     0.173 A 
ATOM     53  F   UNL A   1      46.295  28.156  23.759  1.00  0.00    -0.203 F 
ATOM     54  C   UNL A   1      48.523  27.410  23.592  1.00  0.00     0.198 A 
ATOM     55  C   UNL A   1      49.836  27.099  25.572  1.00  0.00     0.198 A 
ATOM     56  F   UNL A   1      48.886  27.482  27.685  1.00  0.00    -0.203 F 
ATOM     57  F   UNL A   1      48.402  27.346  22.259  1.00  0.00    -0.200 F 
ATOM     58  C   UNL A   1      49.723  27.059  24.192  1.00  0.00     0.200 A 
ATOM     59  F   UNL A   1      50.999  26.784  26.160  1.00  0.00    -0.200 F 
ATOM     60  F   UNL A   1      50.767  26.677  23.443  1.00  0.00    -0.200 F 
ENDBRANCH  26  50
BRANCH  38  61
ATOM     61  C   UNL A   1      45.503  33.874  28.666  1.00  0.00     0.064 A 
ATOM     62  C   UNL A   1      45.201  34.855  27.712  1.00  0.00     0.173 A 
ATOM     63  C   UNL A   1      46.387  34.202  29.704  1.00  0.00     0.173 A 
ATOM     64  F   UNL A   1      44.376  34.574  26.692  1.00  0.00    -0.203 F 
ATOM     65  C   UNL A   1      45.782  36.115  27.784  1.00  0.00     0.198 A 
ATOM     66  C   UNL A   1      46.936  35.475  29.793  1.00  0.00     0.198 A 
ATOM     67  F   UNL A   1      46.699  33.294  30.641  1.00  0.00    -0.203 F 
ATOM     68  F   UNL A   1      45.520  37.026  26.836  1.00  0.00    -0.200 F 
ATOM     69  C   UNL A   1      46.639  36.428  28.830  1.00  0.00     0.200 A 
ATOM     70  F   UNL A   1      47.750  35.780  30.813  1.00  0.00    -0.200 F 
ATOM     71  F   UNL A   1      47.184  37.649  28.907  1.00  0.00    -0.200 F 
ENDBRANCH  38  61
ENDBRANCH  12  13
ENDBRANCH   5   7
ENDBRANCH   4   5
ENDBRANCH   3   4
ENDBRANCH   2   3
ENDBRANCH   1   2
BRANCH   1  72
ATOM     72  C   UNL A   1      35.535  22.557  23.523  1.00  0.00     0.202 C 
BRANCH  72  73
ATOM     73  C   UNL A   1      35.126  24.021  23.461  1.00  0.00     0.261 C 
BRANCH  73  74
ATOM     74  O   UNL A   1      33.945  24.120  22.660  1.00  0.00    -0.462 OA
BRANCH  74  75
ATOM     75  C   UNL A   1      33.376  25.358  22.523  1.00  0.00     0.328 C 
ATOM     76  O   UNL A   1      33.857  26.281  21.877  1.00  0.00    -0.250 OA
BRANCH  75  77
ATOM     77  C   UNL A   1      32.029  25.429  23.274  1.00  0.00     0.193 C 
ATOM     78  C   UNL A   1      31.040  24.263  23.088  1.00  0.00     0.037 C 
ATOM     79  N   UNL A   1      32.241  25.688  24.700  1.00  0.00    -0.343 N 
ATOM     80  C   UNL A   1      30.962  23.200  24.204  1.00  0.00     0.005 C 
ATOM     81  C   UNL A   1      32.463  24.618  25.640  1.00  0.00     0.119 C 
ATOM     82  C   UNL A   1      31.236  23.721  25.610  1.00  0.00     0.022 C 
BRANCH  79  83
ATOM     83  C   UNL A   1      32.069  26.989  25.071  1.00  0.00     0.134 A 
ATOM     84  C   UNL A   1      32.970  27.639  25.871  1.00  0.00     0.076 A 
ATOM     85  N   UNL A   1      31.072  27.628  24.464  1.00  0.00    -0.211 NA
ATOM     86  C   UNL A   1      32.824  29.009  25.966  1.00  0.00     0.076 A 
ATOM     87  C   UNL A   1      30.996  28.951  24.608  1.00  0.00     0.162 A 
ATOM     88  N   UNL A   1      31.845  29.692  25.330  1.00  0.00    -0.228 NA
BRANCH  86  89
ATOM     89  C   UNL A   1      33.741  29.795  26.790  1.00  0.00     0.000 A 
ATOM     90  C   UNL A   1      34.984  29.257  27.155  1.00  0.00     0.010 A 
ATOM     91  C   UNL A   1      33.434  31.107  27.187  1.00  0.00     0.010 A 
ATOM     92  C   UNL A   1      35.904  30.014  27.881  1.00  0.00     0.001 A 
ATOM     93  C   UNL A   1      34.351  31.863  27.923  1.00  0.00     0.001 A 
ATOM     94  C   UNL A   1      35.586  31.316  28.264  1.00  0.00     0.000 A 
ENDBRANCH  86  89
BRANCH  87  95
ATOM     95  C   UNL A   1      29.926  29.574  23.833  1.00  0.00     0.021 A 
ATOM     96  C   UNL A   1      29.133  28.782  22.976  1.00  0.00     0.012 A 
ATOM     97  C   UNL A   1      29.735  30.961  23.825  1.00  0.00     0.032 A 
ATOM     98  C   UNL A   1      28.168  29.352  22.148  1.00  0.00     0.002 A 
ATOM     99  C   UNL A   1      28.780  31.529  22.982  1.00  0.00     0.041 A 
ATOM    100  C   UNL A   1      27.992  30.732  22.151  1.00  0.00     0.020 A 
ATOM    101  Cl  UNL A   1      28.589  33.240  22.944  1.00  0.00    -0.084 Cl
ENDBRANCH  87  95
ENDBRANCH  79  83
ENDBRANCH  75  77
ENDBRANCH  74  75
ENDBRANCH  73  74
ENDBRANCH  72  73
ENDBRANCH   1  72
TORSDOF 17
ENDMDL
