MODEL 1
REMARK VINA RESULT:     -12.8      0.000      0.000
REMARK SMILES O=C(OCCOCCOC(=O)[C@@H]1CC(=O)N(c2ccc(Cl)cc2C(=O)c2ccccc2)C1)c1ccc(-c2c3nc(c(-c4c(F)c(F)c(F)c(F)c4F)c4ccc([nH]4)c(-c4c(F)c(F)c(F)c(F)c4F)c4nc(c(-c5c(F)c(F)c(F)c(F)c5F)c5ccc2[nH]5)C=C4)C=C3)cc1
REMARK SMILES IDX 7 1 6 2 5 3 4 4 3 5 2 6 1 7 33 8 34 9 95 10 35 11 94 12
REMARK SMILES IDX 36 13 37 14 38 15 88 16 39 17 93 18 87 19 89 20 40 21 92 22
REMARK SMILES IDX 86 23 85 24 41 26 73 27 53 28 72 29 54 30 57 31 71 32 90 33
REMARK SMILES IDX 55 34 56 35 70 37 91 38 58 39 42 40 43 41 51 42 44 43 45 44
REMARK SMILES IDX 49 45 52 46 46 47 47 48 50 49 48 50 74 51 75 52 83 53 76 54
REMARK SMILES IDX 77 55 81 56 84 57 78 58 79 59 82 60 80 61 59 62 60 63 68 64
REMARK SMILES IDX 61 65 62 66 66 67 69 68 63 69 64 70 67 71 65 72 8 73 9 74
REMARK SMILES IDX 10 75 11 76 12 77 13 78 32 79 14 80 16 81 15 82 17 83 18 84
REMARK SMILES IDX 23 85 19 86 22 87 20 88 21 89 24 90 25 91 26 92 27 93 31 94
REMARK SMILES IDX 28 95 30 96 29 97
REMARK H PARENT 89 25 57 36
REMARK Flexibility Score: inf
ROOT
ATOM      1  C   UNL A   1      36.251  33.553  28.905  1.00  0.00     0.202 C 
ENDROOT
BRANCH   1   2
ATOM      2  O   UNL A   1      35.047  34.167  29.387  1.00  0.00    -0.374 OA
BRANCH   2   3
ATOM      3  C   UNL A   1      34.331  34.900  28.399  1.00  0.00     0.202 C 
BRANCH   3   4
ATOM      4  C   UNL A   1      32.993  35.508  28.850  1.00  0.00     0.261 C 
BRANCH   4   5
ATOM      5  O   UNL A   1      32.644  35.208  30.233  1.00  0.00    -0.460 OA
BRANCH   5   6
ATOM      6  C   UNL A   1      32.914  36.010  31.305  1.00  0.00     0.338 C 
ATOM      7  O   UNL A   1      32.612  37.193  31.353  1.00  0.00    -0.246 OA
BRANCH   6   8
ATOM      8  C   UNL A   1      33.630  35.368  32.417  1.00  0.00     0.060 A 
ATOM      9  C   UNL A   1      34.864  35.896  32.735  1.00  0.00     0.016 A 
ATOM     10  C   UNL A   1      33.260  34.115  32.890  1.00  0.00     0.016 A 
ATOM     11  C   UNL A   1      35.866  35.022  33.086  1.00  0.00     0.010 A 
ATOM     12  C   UNL A   1      34.219  33.346  33.556  1.00  0.00     0.010 A 
ATOM     13  C   UNL A   1      35.570  33.747  33.563  1.00  0.00    -0.014 A 
BRANCH  13  14
ATOM     14  C   UNL A   1      36.669  32.833  33.982  1.00  0.00     0.031 A 
ATOM     15  C   UNL A   1      37.198  32.933  35.386  1.00  0.00     0.074 A 
ATOM     16  C   UNL A   1      37.177  31.898  33.150  1.00  0.00     0.049 A 
ATOM     17  N   UNL A   1      38.390  32.657  35.841  1.00  0.00    -0.248 NA
ATOM     18  C   UNL A   1      36.278  33.468  36.404  1.00  0.00     0.031 C 
ATOM     19  C   UNL A   1      36.683  31.565  31.810  1.00  0.00     0.029 A 
ATOM     20  N   UNL A   1      38.230  31.032  33.317  1.00  0.00    -0.354 N 
ATOM     21  C   UNL A   1      38.411  33.133  37.147  1.00  0.00     0.074 A 
ATOM     22  C   UNL A   1      37.093  33.655  37.434  1.00  0.00     0.031 C 
ATOM     23  C   UNL A   1      37.349  30.511  31.328  1.00  0.00     0.029 A 
ATOM     24  C   UNL A   1      38.469  30.253  32.210  1.00  0.00     0.049 A 
ATOM     25  H   UNL A   1      38.759  30.976  34.146  1.00  0.00     0.167 HD
ATOM     26  C   UNL A   1      39.475  33.166  37.987  1.00  0.00     0.037 A 
ATOM     27  C   UNL A   1      39.539  29.513  31.872  1.00  0.00     0.037 A 
ATOM     28  C   UNL A   1      40.727  32.528  37.663  1.00  0.00     0.049 A 
ATOM     29  C   UNL A   1      40.715  29.559  32.799  1.00  0.00     0.074 A 
ATOM     30  C   UNL A   1      41.908  32.495  38.379  1.00  0.00     0.029 A 
ATOM     31  N   UNL A   1      40.931  31.763  36.517  1.00  0.00    -0.354 N 
ATOM     32  N   UNL A   1      40.839  30.190  33.942  1.00  0.00    -0.248 NA
ATOM     33  C   UNL A   1      41.913  28.837  32.369  1.00  0.00     0.031 C 
ATOM     34  C   UNL A   1      42.833  31.733  37.652  1.00  0.00     0.029 A 
ATOM     35  C   UNL A   1      42.214  31.246  36.510  1.00  0.00     0.049 A 
ATOM     36  H   UNL A   1      40.260  31.614  35.813  1.00  0.00     0.167 HD
ATOM     37  C   UNL A   1      42.126  29.932  34.382  1.00  0.00     0.074 A 
ATOM     38  C   UNL A   1      42.734  29.070  33.383  1.00  0.00     0.031 C 
ATOM     39  C   UNL A   1      42.755  30.370  35.500  1.00  0.00     0.037 A 
BRANCH  26  40
ATOM     40  C   UNL A   1      39.354  33.993  39.237  1.00  0.00     0.064 A 
ATOM     41  C   UNL A   1      39.623  35.369  39.275  1.00  0.00     0.173 A 
ATOM     42  C   UNL A   1      39.008  33.369  40.449  1.00  0.00     0.173 A 
ATOM     43  F   UNL A   1      39.975  36.020  38.157  1.00  0.00    -0.203 F 
ATOM     44  C   UNL A   1      39.600  36.075  40.480  1.00  0.00     0.198 A 
ATOM     45  C   UNL A   1      38.953  34.083  41.644  1.00  0.00     0.198 A 
ATOM     46  F   UNL A   1      38.736  32.055  40.480  1.00  0.00    -0.203 F 
ATOM     47  F   UNL A   1      39.939  37.371  40.501  1.00  0.00    -0.200 F 
ATOM     48  C   UNL A   1      39.265  35.433  41.662  1.00  0.00     0.200 A 
ATOM     49  F   UNL A   1      38.619  33.459  42.783  1.00  0.00    -0.200 F 
ATOM     50  F   UNL A   1      39.260  36.109  42.819  1.00  0.00    -0.200 F 
ENDBRANCH  26  40
BRANCH  27  51
ATOM     51  C   UNL A   1      39.572  28.785  30.573  1.00  0.00     0.064 A 
ATOM     52  C   UNL A   1      40.103  29.392  29.428  1.00  0.00     0.173 A 
ATOM     53  C   UNL A   1      39.126  27.457  30.452  1.00  0.00     0.173 A 
ATOM     54  F   UNL A   1      40.523  30.665  29.481  1.00  0.00    -0.203 F 
ATOM     55  C   UNL A   1      40.188  28.705  28.219  1.00  0.00     0.198 A 
ATOM     56  C   UNL A   1      39.250  26.756  29.253  1.00  0.00     0.198 A 
ATOM     57  F   UNL A   1      38.608  26.819  31.513  1.00  0.00    -0.203 F 
ATOM     58  F   UNL A   1      40.670  29.323  27.132  1.00  0.00    -0.200 F 
ATOM     59  C   UNL A   1      39.775  27.383  28.135  1.00  0.00     0.200 A 
ATOM     60  F   UNL A   1      38.874  25.472  29.188  1.00  0.00    -0.200 F 
ATOM     61  F   UNL A   1      39.880  26.716  26.978  1.00  0.00    -0.200 F 
ENDBRANCH  27  51
BRANCH  39  62
ATOM     62  C   UNL A   1      44.135  29.840  35.725  1.00  0.00     0.064 A 
ATOM     63  C   UNL A   1      44.365  28.645  36.419  1.00  0.00     0.173 A 
ATOM     64  C   UNL A   1      45.240  30.544  35.224  1.00  0.00     0.173 A 
ATOM     65  F   UNL A   1      43.336  27.955  36.938  1.00  0.00    -0.203 F 
ATOM     66  C   UNL A   1      45.660  28.186  36.630  1.00  0.00     0.198 A 
ATOM     67  C   UNL A   1      46.531  30.066  35.410  1.00  0.00     0.198 A 
ATOM     68  F   UNL A   1      45.062  31.693  34.554  1.00  0.00    -0.203 F 
ATOM     69  F   UNL A   1      45.866  27.073  37.346  1.00  0.00    -0.200 F 
ATOM     70  C   UNL A   1      46.740  28.893  36.119  1.00  0.00     0.200 A 
ATOM     71  F   UNL A   1      47.572  30.744  34.908  1.00  0.00    -0.200 F 
ATOM     72  F   UNL A   1      47.987  28.448  36.322  1.00  0.00    -0.200 F 
ENDBRANCH  39  62
ENDBRANCH  13  14
ENDBRANCH   6   8
ENDBRANCH   5   6
ENDBRANCH   4   5
ENDBRANCH   3   4
ENDBRANCH   2   3
ENDBRANCH   1   2
BRANCH   1  73
ATOM     73  C   UNL A   1      35.926  32.458  27.898  1.00  0.00     0.261 C 
BRANCH  73  74
ATOM     74  O   UNL A   1      35.446  31.281  28.587  1.00  0.00    -0.463 OA
BRANCH  74  75
ATOM     75  C   UNL A   1      35.166  30.049  27.855  1.00  0.00     0.311 C 
ATOM     76  O   UNL A   1      36.185  29.328  28.058  1.00  0.00    -0.252 OA
BRANCH  75  77
ATOM     77  C   UNL A   1      33.333  29.691  26.719  1.00  0.00     0.128 C 
ATOM     78  C   UNL A   1      31.769  28.964  27.134  1.00  0.00     0.117 C 
ATOM     79  C   UNL A   1      33.086  29.025  25.159  1.00  0.00     0.141 C 
ATOM     80  C   UNL A   1      31.737  27.616  26.448  1.00  0.00     0.227 C 
ATOM     81  N   UNL A   1      32.590  27.688  25.356  1.00  0.00    -0.311 N 
ATOM     82  O   UNL A   1      31.140  26.639  26.869  1.00  0.00    -0.274 OA
BRANCH  81  83
ATOM     83  C   UNL A   1      33.268  26.541  24.896  1.00  0.00     0.055 A 
ATOM     84  C   UNL A   1      34.192  25.946  25.766  1.00  0.00     0.028 A 
ATOM     85  C   UNL A   1      33.062  25.980  23.622  1.00  0.00     0.048 A 
ATOM     86  C   UNL A   1      34.857  24.773  25.404  1.00  0.00     0.023 A 
ATOM     87  C   UNL A   1      33.745  24.803  23.264  1.00  0.00     0.035 A 
ATOM     88  C   UNL A   1      34.626  24.202  24.157  1.00  0.00     0.041 A 
ATOM     89  Cl  UNL A   1      35.434  22.749  23.716  1.00  0.00    -0.084 Cl
BRANCH  85  90
ATOM     90  C   UNL A   1      32.179  26.563  22.580  1.00  0.00     0.195 C 
ATOM     91  O   UNL A   1      32.532  26.553  21.407  1.00  0.00    -0.289 OA
BRANCH  90  92
ATOM     92  C   UNL A   1      30.836  27.081  22.895  1.00  0.00     0.023 A 
ATOM     93  C   UNL A   1      30.407  28.735  22.306  1.00  0.00     0.012 A 
ATOM     94  C   UNL A   1      29.578  26.039  23.634  1.00  0.00     0.012 A 
ATOM     95  C   UNL A   1      28.730  29.372  22.486  1.00  0.00     0.001 A 
ATOM     96  C   UNL A   1      27.902  26.727  23.910  1.00  0.00     0.001 A 
ATOM     97  C   UNL A   1      27.495  28.380  23.349  1.00  0.00     0.000 A 
ENDBRANCH  90  92
ENDBRANCH  85  90
ENDBRANCH  81  83
ENDBRANCH  75  77
ENDBRANCH  74  75
ENDBRANCH  73  74
ENDBRANCH   1  73
TORSDOF 17
ENDMDL
MODEL 2
REMARK VINA RESULT:     -12.7      1.612      3.239
REMARK SMILES O=C(OCCOCCOC(=O)[C@@H]1CC(=O)N(c2ccc(Cl)cc2C(=O)c2ccccc2)C1)c1ccc(-c2c3nc(c(-c4c(F)c(F)c(F)c(F)c4F)c4ccc([nH]4)c(-c4c(F)c(F)c(F)c(F)c4F)c4nc(c(-c5c(F)c(F)c(F)c(F)c5F)c5ccc2[nH]5)C=C4)C=C3)cc1
REMARK SMILES IDX 7 1 6 2 5 3 4 4 3 5 2 6 1 7 33 8 34 9 95 10 35 11 94 12
REMARK SMILES IDX 36 13 37 14 38 15 88 16 39 17 93 18 87 19 89 20 40 21 92 22
REMARK SMILES IDX 86 23 85 24 41 26 73 27 53 28 72 29 54 30 57 31 71 32 90 33
REMARK SMILES IDX 55 34 56 35 70 37 91 38 58 39 42 40 43 41 51 42 44 43 45 44
REMARK SMILES IDX 49 45 52 46 46 47 47 48 50 49 48 50 74 51 75 52 83 53 76 54
REMARK SMILES IDX 77 55 81 56 84 57 78 58 79 59 82 60 80 61 59 62 60 63 68 64
REMARK SMILES IDX 61 65 62 66 66 67 69 68 63 69 64 70 67 71 65 72 8 73 9 74
REMARK SMILES IDX 10 75 11 76 12 77 13 78 32 79 14 80 16 81 15 82 17 83 18 84
REMARK SMILES IDX 23 85 19 86 22 87 20 88 21 89 24 90 25 91 26 92 27 93 31 94
REMARK SMILES IDX 28 95 30 96 29 97
REMARK H PARENT 89 25 57 36
REMARK Flexibility Score: inf
ROOT
ATOM      1  C   UNL A   1      34.412  31.639  28.727  1.00  0.00     0.202 C 
ENDROOT
BRANCH   1   2
ATOM      2  O   UNL A   1      34.323  32.972  29.248  1.00  0.00    -0.374 OA
BRANCH   2   3
ATOM      3  C   UNL A   1      33.943  33.950  28.286  1.00  0.00     0.202 C 
BRANCH   3   4
ATOM      4  C   UNL A   1      33.397  35.273  28.848  1.00  0.00     0.261 C 
BRANCH   4   5
ATOM      5  O   UNL A   1      32.661  35.124  30.097  1.00  0.00    -0.460 OA
BRANCH   5   6
ATOM      6  C   UNL A   1      32.817  35.911  31.202  1.00  0.00     0.338 C 
ATOM      7  O   UNL A   1      32.387  37.052  31.280  1.00  0.00    -0.246 OA
BRANCH   6   8
ATOM      8  C   UNL A   1      33.571  35.310  32.312  1.00  0.00     0.060 A 
ATOM      9  C   UNL A   1      34.811  35.853  32.571  1.00  0.00     0.016 A 
ATOM     10  C   UNL A   1      33.220  34.073  32.840  1.00  0.00     0.016 A 
ATOM     11  C   UNL A   1      35.828  34.994  32.921  1.00  0.00     0.010 A 
ATOM     12  C   UNL A   1      34.203  33.331  33.501  1.00  0.00     0.010 A 
ATOM     13  C   UNL A   1      35.553  33.736  33.450  1.00  0.00    -0.014 A 
BRANCH  13  14
ATOM     14  C   UNL A   1      36.668  32.840  33.865  1.00  0.00     0.031 A 
ATOM     15  C   UNL A   1      37.210  32.958  35.263  1.00  0.00     0.074 A 
ATOM     16  C   UNL A   1      37.180  31.905  33.036  1.00  0.00     0.049 A 
ATOM     17  N   UNL A   1      38.410  32.702  35.708  1.00  0.00    -0.248 NA
ATOM     18  C   UNL A   1      36.293  33.490  36.286  1.00  0.00     0.031 C 
ATOM     19  C   UNL A   1      36.676  31.554  31.704  1.00  0.00     0.029 A 
ATOM     20  N   UNL A   1      38.246  31.054  33.199  1.00  0.00    -0.354 N 
ATOM     21  C   UNL A   1      38.438  33.189  37.010  1.00  0.00     0.074 A 
ATOM     22  C   UNL A   1      37.116  33.695  37.306  1.00  0.00     0.031 C 
ATOM     23  C   UNL A   1      37.352  30.505  31.223  1.00  0.00     0.029 A 
ATOM     24  C   UNL A   1      38.484  30.270  32.095  1.00  0.00     0.049 A 
ATOM     25  H   UNL A   1      38.784  31.012  34.022  1.00  0.00     0.167 HD
ATOM     26  C   UNL A   1      39.510  33.243  37.838  1.00  0.00     0.037 A 
ATOM     27  C   UNL A   1      39.560  29.541  31.752  1.00  0.00     0.037 A 
ATOM     28  C   UNL A   1      40.767  32.619  37.506  1.00  0.00     0.049 A 
ATOM     29  C   UNL A   1      40.745  29.610  32.667  1.00  0.00     0.074 A 
ATOM     30  C   UNL A   1      41.956  32.608  38.211  1.00  0.00     0.029 A 
ATOM     31  N   UNL A   1      40.970  31.848  36.364  1.00  0.00    -0.354 N 
ATOM     32  N   UNL A   1      40.872  30.253  33.804  1.00  0.00    -0.248 NA
ATOM     33  C   UNL A   1      41.949  28.901  32.230  1.00  0.00     0.031 C 
ATOM     34  C   UNL A   1      42.883  31.852  37.480  1.00  0.00     0.029 A 
ATOM     35  C   UNL A   1      42.259  31.348  36.348  1.00  0.00     0.049 A 
ATOM     36  H   UNL A   1      40.293  31.684  35.668  1.00  0.00     0.167 HD
ATOM     37  C   UNL A   1      42.167  30.015  34.232  1.00  0.00     0.074 A 
ATOM     38  C   UNL A   1      42.776  29.154  33.234  1.00  0.00     0.031 C 
ATOM     39  C   UNL A   1      42.802  30.471  35.340  1.00  0.00     0.037 A 
BRANCH  26  40
ATOM     40  C   UNL A   1      39.391  34.079  39.083  1.00  0.00     0.064 A 
ATOM     41  C   UNL A   1      39.576  35.469  39.094  1.00  0.00     0.173 A 
ATOM     42  C   UNL A   1      39.135  33.452  40.315  1.00  0.00     0.173 A 
ATOM     43  F   UNL A   1      39.841  36.124  37.954  1.00  0.00    -0.203 F 
ATOM     44  C   UNL A   1      39.560  36.189  40.290  1.00  0.00     0.198 A 
ATOM     45  C   UNL A   1      39.086  34.178  41.504  1.00  0.00     0.198 A 
ATOM     46  F   UNL A   1      38.946  32.125  40.373  1.00  0.00    -0.203 F 
ATOM     47  F   UNL A   1      39.819  37.504  40.282  1.00  0.00    -0.200 F 
ATOM     48  C   UNL A   1      39.315  35.544  41.493  1.00  0.00     0.200 A 
ATOM     49  F   UNL A   1      38.839  33.550  42.662  1.00  0.00    -0.200 F 
ATOM     50  F   UNL A   1      39.317  36.235  42.641  1.00  0.00    -0.200 F 
ENDBRANCH  26  40
BRANCH  27  51
ATOM     51  C   UNL A   1      39.590  28.803  30.459  1.00  0.00     0.064 A 
ATOM     52  C   UNL A   1      40.099  29.409  29.304  1.00  0.00     0.173 A 
ATOM     53  C   UNL A   1      39.163  27.467  30.353  1.00  0.00     0.173 A 
ATOM     54  F   UNL A   1      40.500  30.687  29.342  1.00  0.00    -0.203 F 
ATOM     55  C   UNL A   1      40.181  28.712  28.099  1.00  0.00     0.198 A 
ATOM     56  C   UNL A   1      39.283  26.759  29.159  1.00  0.00     0.198 A 
ATOM     57  F   UNL A   1      38.666  26.831  31.426  1.00  0.00    -0.203 F 
ATOM     58  F   UNL A   1      40.641  29.329  27.002  1.00  0.00    -0.200 F 
ATOM     59  C   UNL A   1      39.787  27.384  28.030  1.00  0.00     0.200 A 
ATOM     60  F   UNL A   1      38.926  25.468  29.109  1.00  0.00    -0.200 F 
ATOM     61  F   UNL A   1      39.888  26.709  26.877  1.00  0.00    -0.200 F 
ENDBRANCH  27  51
BRANCH  39  62
ATOM     62  C   UNL A   1      44.191  29.961  35.555  1.00  0.00     0.064 A 
ATOM     63  C   UNL A   1      45.313  30.638  35.059  1.00  0.00     0.173 A 
ATOM     64  C   UNL A   1      44.391  28.778  36.281  1.00  0.00     0.173 A 
ATOM     65  F   UNL A   1      45.163  31.759  34.337  1.00  0.00    -0.203 F 
ATOM     66  C   UNL A   1      46.591  30.129  35.258  1.00  0.00     0.198 A 
ATOM     67  C   UNL A   1      45.673  28.290  36.503  1.00  0.00     0.198 A 
ATOM     68  F   UNL A   1      43.343  28.100  36.772  1.00  0.00    -0.203 F 
ATOM     69  F   UNL A   1      47.650  30.755  34.727  1.00  0.00    -0.200 F 
ATOM     70  C   UNL A   1      46.770  28.960  35.985  1.00  0.00     0.200 A 
ATOM     71  F   UNL A   1      45.844  27.167  37.214  1.00  0.00    -0.200 F 
ATOM     72  F   UNL A   1      48.003  28.473  36.176  1.00  0.00    -0.200 F 
ENDBRANCH  39  62
ENDBRANCH  13  14
ENDBRANCH   6   8
ENDBRANCH   5   6
ENDBRANCH   4   5
ENDBRANCH   3   4
ENDBRANCH   2   3
ENDBRANCH   1   2
BRANCH   1  73
ATOM     73  C   UNL A   1      33.524  31.484  27.500  1.00  0.00     0.261 C 
BRANCH  73  74
ATOM     74  O   UNL A   1      33.854  30.262  26.803  1.00  0.00    -0.463 OA
BRANCH  74  75
ATOM     75  C   UNL A   1      33.005  29.763  25.725  1.00  0.00     0.311 C 
ATOM     76  O   UNL A   1      31.935  30.427  25.839  1.00  0.00    -0.252 OA
BRANCH  75  77
ATOM     77  C   UNL A   1      33.612  28.212  24.308  1.00  0.00     0.128 C 
ATOM     78  C   UNL A   1      33.037  27.749  22.695  1.00  0.00     0.117 C 
ATOM     79  C   UNL A   1      33.936  26.545  24.534  1.00  0.00     0.141 C 
ATOM     80  C   UNL A   1      32.293  26.443  22.874  1.00  0.00     0.227 C 
ATOM     81  N   UNL A   1      32.802  25.829  24.009  1.00  0.00    -0.311 N 
ATOM     82  O   UNL A   1      31.353  26.082  22.185  1.00  0.00    -0.274 OA
BRANCH  81  83
ATOM     83  C   UNL A   1      31.990  24.990  24.800  1.00  0.00     0.055 A 
ATOM     84  C   UNL A   1      31.186  25.601  25.772  1.00  0.00     0.028 A 
ATOM     85  C   UNL A   1      31.955  23.591  24.657  1.00  0.00     0.048 A 
ATOM     86  C   UNL A   1      30.311  24.841  26.551  1.00  0.00     0.023 A 
ATOM     87  C   UNL A   1      31.077  22.834  25.454  1.00  0.00     0.035 A 
ATOM     88  C   UNL A   1      30.254  23.462  26.384  1.00  0.00     0.041 A 
ATOM     89  Cl  UNL A   1      29.165  22.528  27.333  1.00  0.00    -0.084 Cl
BRANCH  85  90
ATOM     90  C   UNL A   1      32.819  22.819  23.728  1.00  0.00     0.195 C 
ATOM     91  O   UNL A   1      32.470  22.655  22.565  1.00  0.00    -0.289 OA
BRANCH  90  92
ATOM     92  C   UNL A   1      34.143  22.313  24.132  1.00  0.00     0.023 A 
ATOM     93  C   UNL A   1      34.263  20.589  24.661  1.00  0.00     0.012 A 
ATOM     94  C   UNL A   1      35.631  23.284  23.895  1.00  0.00     0.012 A 
ATOM     95  C   UNL A   1      35.868  19.837  24.995  1.00  0.00     0.001 A 
ATOM     96  C   UNL A   1      37.252  22.550  24.335  1.00  0.00     0.001 A 
ATOM     97  C   UNL A   1      37.358  20.848  24.888  1.00  0.00     0.000 A 
ENDBRANCH  90  92
ENDBRANCH  85  90
ENDBRANCH  81  83
ENDBRANCH  75  77
ENDBRANCH  74  75
ENDBRANCH  73  74
ENDBRANCH   1  73
TORSDOF 17
ENDMDL
MODEL 3
REMARK VINA RESULT:     -12.7      5.751      8.627
REMARK SMILES O=C(OCCOCCOC(=O)[C@@H]1CC(=O)N(c2ccc(Cl)cc2C(=O)c2ccccc2)C1)c1ccc(-c2c3nc(c(-c4c(F)c(F)c(F)c(F)c4F)c4ccc([nH]4)c(-c4c(F)c(F)c(F)c(F)c4F)c4nc(c(-c5c(F)c(F)c(F)c(F)c5F)c5ccc2[nH]5)C=C4)C=C3)cc1
REMARK SMILES IDX 7 1 6 2 5 3 4 4 3 5 2 6 1 7 33 8 34 9 95 10 35 11 94 12
REMARK SMILES IDX 36 13 37 14 38 15 88 16 39 17 93 18 87 19 89 20 40 21 92 22
REMARK SMILES IDX 86 23 85 24 41 26 73 27 53 28 72 29 54 30 57 31 71 32 90 33
REMARK SMILES IDX 55 34 56 35 70 37 91 38 58 39 42 40 43 41 51 42 44 43 45 44
REMARK SMILES IDX 49 45 52 46 46 47 47 48 50 49 48 50 74 51 75 52 83 53 76 54
REMARK SMILES IDX 77 55 81 56 84 57 78 58 79 59 82 60 80 61 59 62 60 63 68 64
REMARK SMILES IDX 61 65 62 66 66 67 69 68 63 69 64 70 67 71 65 72 8 73 9 74
REMARK SMILES IDX 10 75 11 76 12 77 13 78 32 79 14 80 16 81 15 82 17 83 18 84
REMARK SMILES IDX 23 85 19 86 22 87 20 88 21 89 24 90 25 91 26 92 27 93 31 94
REMARK SMILES IDX 28 95 30 96 29 97
REMARK H PARENT 89 25 57 36
REMARK Flexibility Score: inf
ROOT
ATOM      1  C   UNL A   1      32.622  29.490  25.459  1.00  0.00     0.202 C 
ENDROOT
BRANCH   1   2
ATOM      2  O   UNL A   1      31.791  30.634  25.702  1.00  0.00    -0.374 OA
BRANCH   2   3
ATOM      3  C   UNL A   1      32.122  31.353  26.885  1.00  0.00     0.202 C 
BRANCH   3   4
ATOM      4  C   UNL A   1      33.374  30.874  27.638  1.00  0.00     0.261 C 
BRANCH   4   5
ATOM      5  O   UNL A   1      34.045  31.923  28.395  1.00  0.00    -0.460 OA
BRANCH   5   6
ATOM      6  C   UNL A   1      35.078  31.727  29.267  1.00  0.00     0.338 C 
ATOM      7  O   UNL A   1      35.299  32.458  30.221  1.00  0.00    -0.246 OA
BRANCH   6   8
ATOM      8  C   UNL A   1      35.948  30.579  28.977  1.00  0.00     0.060 A 
ATOM      9  C   UNL A   1      36.374  29.846  30.064  1.00  0.00     0.016 A 
ATOM     10  C   UNL A   1      36.575  30.438  27.744  1.00  0.00     0.016 A 
ATOM     11  C   UNL A   1      37.666  29.373  30.053  1.00  0.00     0.010 A 
ATOM     12  C   UNL A   1      37.737  29.662  27.676  1.00  0.00     0.010 A 
ATOM     13  C   UNL A   1      38.360  29.211  28.857  1.00  0.00    -0.014 A 
BRANCH  13  14
ATOM     14  C   UNL A   1      39.741  28.654  28.864  1.00  0.00     0.031 A 
ATOM     15  C   UNL A   1      40.887  29.562  29.213  1.00  0.00     0.074 A 
ATOM     16  C   UNL A   1      39.987  27.352  28.599  1.00  0.00     0.049 A 
ATOM     17  N   UNL A   1      42.134  29.503  28.832  1.00  0.00    -0.248 NA
ATOM     18  C   UNL A   1      40.576  30.726  30.062  1.00  0.00     0.031 C 
ATOM     19  C   UNL A   1      38.985  26.303  28.387  1.00  0.00     0.029 A 
ATOM     20  N   UNL A   1      41.177  26.676  28.475  1.00  0.00    -0.354 N 
ATOM     21  C   UNL A   1      42.711  30.695  29.255  1.00  0.00     0.074 A 
ATOM     22  C   UNL A   1      41.697  31.428  29.980  1.00  0.00     0.031 C 
ATOM     23  C   UNL A   1      39.588  25.115  28.271  1.00  0.00     0.029 A 
ATOM     24  C   UNL A   1      41.012  25.350  28.153  1.00  0.00     0.049 A 
ATOM     25  H   UNL A   1      42.057  27.099  28.603  1.00  0.00     0.167 HD
ATOM     26  C   UNL A   1      43.968  31.131  28.994  1.00  0.00     0.037 A 
ATOM     27  C   UNL A   1      41.888  24.446  27.681  1.00  0.00     0.037 A 
ATOM     28  C   UNL A   1      44.953  30.293  28.355  1.00  0.00     0.049 A 
ATOM     29  C   UNL A   1      43.273  24.935  27.387  1.00  0.00     0.074 A 
ATOM     30  C   UNL A   1      46.252  30.587  27.988  1.00  0.00     0.029 A 
ATOM     31  N   UNL A   1      44.736  28.957  28.028  1.00  0.00    -0.354 N 
ATOM     32  N   UNL A   1      43.783  26.130  27.572  1.00  0.00    -0.248 NA
ATOM     33  C   UNL A   1      44.188  23.971  26.772  1.00  0.00     0.031 C 
ATOM     34  C   UNL A   1      46.810  29.436  27.415  1.00  0.00     0.029 A 
ATOM     35  C   UNL A   1      45.878  28.410  27.473  1.00  0.00     0.049 A 
ATOM     36  H   UNL A   1      43.891  28.473  28.170  1.00  0.00     0.167 HD
ATOM     37  C   UNL A   1      45.086  26.063  27.111  1.00  0.00     0.074 A 
ATOM     38  C   UNL A   1      45.289  24.700  26.652  1.00  0.00     0.031 C 
ATOM     39  C   UNL A   1      46.029  27.036  27.059  1.00  0.00     0.037 A 
BRANCH  26  40
ATOM     40  C   UNL A   1      44.284  32.572  29.288  1.00  0.00     0.064 A 
ATOM     41  C   UNL A   1      44.652  33.032  30.561  1.00  0.00     0.173 A 
ATOM     42  C   UNL A   1      44.161  33.530  28.266  1.00  0.00     0.173 A 
ATOM     43  F   UNL A   1      44.770  32.170  31.583  1.00  0.00    -0.203 F 
ATOM     44  C   UNL A   1      44.832  34.393  30.811  1.00  0.00     0.198 A 
ATOM     45  C   UNL A   1      44.375  34.885  28.511  1.00  0.00     0.198 A 
ATOM     46  F   UNL A   1      43.815  33.155  27.025  1.00  0.00    -0.203 F 
ATOM     47  F   UNL A   1      45.105  34.814  32.054  1.00  0.00    -0.200 F 
ATOM     48  C   UNL A   1      44.695  35.318  29.787  1.00  0.00     0.200 A 
ATOM     49  F   UNL A   1      44.250  35.773  27.515  1.00  0.00    -0.200 F 
ATOM     50  F   UNL A   1      44.853  36.626  30.034  1.00  0.00    -0.200 F 
ENDBRANCH  26  40
BRANCH  27  51
ATOM     51  C   UNL A   1      41.444  23.060  27.364  1.00  0.00     0.064 A 
ATOM     52  C   UNL A   1      40.435  22.834  26.419  1.00  0.00     0.173 A 
ATOM     53  C   UNL A   1      42.045  21.932  27.951  1.00  0.00     0.173 A 
ATOM     54  F   UNL A   1      39.813  23.873  25.844  1.00  0.00    -0.203 F 
ATOM     55  C   UNL A   1      40.046  21.540  26.074  1.00  0.00     0.198 A 
ATOM     56  C   UNL A   1      41.684  20.640  27.575  1.00  0.00     0.198 A 
ATOM     57  F   UNL A   1      43.018  22.084  28.862  1.00  0.00    -0.203 F 
ATOM     58  F   UNL A   1      39.054  21.355  25.192  1.00  0.00    -0.200 F 
ATOM     59  C   UNL A   1      40.680  20.444  26.641  1.00  0.00     0.200 A 
ATOM     60  F   UNL A   1      42.320  19.587  28.106  1.00  0.00    -0.200 F 
ATOM     61  F   UNL A   1      40.321  19.201  26.291  1.00  0.00    -0.200 F 
ENDBRANCH  27  51
BRANCH  39  62
ATOM     62  C   UNL A   1      47.378  26.615  26.572  1.00  0.00     0.064 A 
ATOM     63  C   UNL A   1      48.344  26.079  27.435  1.00  0.00     0.173 A 
ATOM     64  C   UNL A   1      47.697  26.744  25.212  1.00  0.00     0.173 A 
ATOM     65  F   UNL A   1      48.088  25.963  28.747  1.00  0.00    -0.203 F 
ATOM     66  C   UNL A   1      49.596  25.714  26.956  1.00  0.00     0.198 A 
ATOM     67  C   UNL A   1      48.939  26.349  24.732  1.00  0.00     0.198 A 
ATOM     68  F   UNL A   1      46.800  27.253  24.353  1.00  0.00    -0.203 F 
ATOM     69  F   UNL A   1      50.529  25.259  27.804  1.00  0.00    -0.200 F 
ATOM     70  C   UNL A   1      49.890  25.843  25.605  1.00  0.00     0.200 A 
ATOM     71  F   UNL A   1      49.218  26.465  23.427  1.00  0.00    -0.200 F 
ATOM     72  F   UNL A   1      51.098  25.489  25.146  1.00  0.00    -0.200 F 
ENDBRANCH  39  62
ENDBRANCH  13  14
ENDBRANCH   6   8
ENDBRANCH   5   6
ENDBRANCH   4   5
ENDBRANCH   3   4
ENDBRANCH   2   3
ENDBRANCH   1   2
BRANCH   1  73
ATOM     73  C   UNL A   1      32.341  28.908  24.080  1.00  0.00     0.261 C 
BRANCH  73  74
ATOM     74  O   UNL A   1      30.956  29.120  23.728  1.00  0.00    -0.463 OA
BRANCH  74  75
ATOM     75  C   UNL A   1      30.181  28.069  23.074  1.00  0.00     0.311 C 
ATOM     76  O   UNL A   1      29.928  28.537  21.927  1.00  0.00    -0.252 OA
BRANCH  75  77
ATOM     77  C   UNL A   1      29.668  26.163  24.014  1.00  0.00     0.128 C 
ATOM     78  C   UNL A   1      29.457  25.660  25.703  1.00  0.00     0.117 C 
ATOM     79  C   UNL A   1      30.264  24.579  23.748  1.00  0.00     0.141 C 
ATOM     80  C   UNL A   1      30.662  24.809  26.040  1.00  0.00     0.227 C 
ATOM     81  N   UNL A   1      31.138  24.277  24.851  1.00  0.00    -0.311 N 
ATOM     82  O   UNL A   1      31.155  24.718  27.153  1.00  0.00    -0.274 OA
BRANCH  81  83
ATOM     83  C   UNL A   1      32.509  23.990  24.689  1.00  0.00     0.055 A 
ATOM     84  C   UNL A   1      33.356  25.057  24.361  1.00  0.00     0.028 A 
ATOM     85  C   UNL A   1      33.053  22.701  24.838  1.00  0.00     0.048 A 
ATOM     86  C   UNL A   1      34.734  24.863  24.244  1.00  0.00     0.023 A 
ATOM     87  C   UNL A   1      34.441  22.514  24.708  1.00  0.00     0.035 A 
ATOM     88  C   UNL A   1      35.273  23.594  24.425  1.00  0.00     0.041 A 
ATOM     89  Cl  UNL A   1      36.971  23.356  24.296  1.00  0.00    -0.084 Cl
BRANCH  85  90
ATOM     90  C   UNL A   1      32.253  21.477  25.097  1.00  0.00     0.195 C 
ATOM     91  O   UNL A   1      31.222  21.550  25.754  1.00  0.00    -0.289 OA
BRANCH  90  92
ATOM     92  C   UNL A   1      32.609  20.173  24.510  1.00  0.00     0.023 A 
ATOM     93  C   UNL A   1      33.286  18.908  25.609  1.00  0.00     0.012 A 
ATOM     94  C   UNL A   1      32.180  19.755  22.820  1.00  0.00     0.012 A 
ATOM     95  C   UNL A   1      33.576  17.230  25.015  1.00  0.00     0.001 A 
ATOM     96  C   UNL A   1      32.572  18.080  22.190  1.00  0.00     0.001 A 
ATOM     97  C   UNL A   1      33.272  16.841  23.280  1.00  0.00     0.000 A 
ENDBRANCH  90  92
ENDBRANCH  85  90
ENDBRANCH  81  83
ENDBRANCH  75  77
ENDBRANCH  74  75
ENDBRANCH  73  74
ENDBRANCH   1  73
TORSDOF 17
ENDMDL
