MODEL 1
REMARK VINA RESULT:     -10.4      0.000      0.000
REMARK SMILES C#CC[N@@H+](CC(=O)NC(=O)NC)CC(=O)OCCOCCOC(=O)c1ccc(-c2c3nc(c(-c4c(F)c(F)c(F)c(F)c4F)c4ccc([nH]4)c(-c4c(F)c(F)c(F)c(F)c4F)c4nc(c(-c5c(F)c(F)c(F)c(F)c5F)c5ccc2[nH]5)C=C4)C=C3)cc1
REMARK SMILES IDX 18 1 17 2 16 3 14 4 15 5 13 6 4 7 3 9 2 10 1 11 5 12 6 13
REMARK SMILES IDX 7 14 8 15 9 16 10 18 11 19 12 20 19 22 20 23 21 24 22 25
REMARK SMILES IDX 23 26 24 27 25 28 26 29 87 30 27 31 86 32 28 33 29 34 30 35
REMARK SMILES IDX 80 36 31 37 85 38 79 39 81 40 32 41 84 42 78 43 77 44 33 46
REMARK SMILES IDX 65 47 45 48 64 49 46 50 49 51 63 52 82 53 47 54 48 55 62 57
REMARK SMILES IDX 83 58 50 59 34 60 35 61 43 62 36 63 37 64 41 65 44 66 38 67
REMARK SMILES IDX 39 68 42 69 40 70 66 71 67 72 75 73 68 74 69 75 73 76 76 77
REMARK SMILES IDX 70 78 71 79 74 80 72 81 51 82 52 83 60 84 53 85 54 86 58 87
REMARK SMILES IDX 61 88 55 89 56 90 59 91 57 92
REMARK H PARENT 4 8 8 17 11 21 81 45 49 56
REMARK Flexibility Score: inf
ROOT
ATOM      1  C   UNL A   1      31.845  29.290  24.462  1.00  0.00     0.202 C 
ENDROOT
BRANCH   1   2
ATOM      2  C   UNL A   1      30.979  28.088  24.086  1.00  0.00     0.261 C 
BRANCH   2   3
ATOM      3  O   UNL A   1      31.374  27.567  22.804  1.00  0.00    -0.459 OA
BRANCH   3   4
ATOM      4  C   UNL A   1      31.494  26.220  22.704  1.00  0.00     0.361 C 
ATOM      5  O   UNL A   1      31.786  25.621  21.675  1.00  0.00    -0.245 OA
BRANCH   4   6
ATOM      6  C   UNL A   1      31.149  25.500  23.999  1.00  0.00     0.387 C 
BRANCH   6   7
ATOM      7  N   UNL A   1      32.049  24.422  24.442  1.00  0.00    -0.308 N 
ATOM      8  H   UNL A   1      32.288  24.157  23.487  1.00  0.00     0.349 HD
BRANCH   7   9
ATOM      9  C   UNL A   1      33.471  24.637  24.647  1.00  0.00     0.354 C 
BRANCH   9  10
ATOM     10  C   UNL A   1      33.703  25.903  25.455  1.00  0.00    -0.047 C 
ATOM     11  C   UNL A   1      33.902  26.990  26.147  1.00  0.00     0.010 C 
ENDBRANCH   9  10
ENDBRANCH   7   9
BRANCH   7  12
ATOM     12  C   UNL A   1      31.428  23.237  25.017  1.00  0.00     0.365 C 
BRANCH  12  13
ATOM     13  C   UNL A   1      31.524  23.132  26.527  1.00  0.00     0.283 C 
ATOM     14  O   UNL A   1      30.780  23.802  27.255  1.00  0.00    -0.268 OA
ATOM     15  N   UNL A   1      32.442  22.320  27.170  1.00  0.00    -0.273 N 
ATOM     16  C   UNL A   1      33.509  21.494  26.949  1.00  0.00     0.321 C 
ATOM     17  H   UNL A   1      32.261  22.349  28.137  1.00  0.00     0.175 HD
ATOM     18  O   UNL A   1      34.492  21.578  27.687  1.00  0.00    -0.248 OA
ATOM     19  N   UNL A   1      33.541  20.592  25.959  1.00  0.00    -0.341 N 
ATOM     20  C   UNL A   1      32.518  20.103  25.077  1.00  0.00     0.144 C 
ATOM     21  H   UNL A   1      34.428  20.191  25.810  1.00  0.00     0.165 HD
ENDBRANCH  12  13
ENDBRANCH   7  12
ENDBRANCH   6   7
ENDBRANCH   4   6
ENDBRANCH   3   4
ENDBRANCH   2   3
ENDBRANCH   1   2
BRANCH   1  22
ATOM     22  O   UNL A   1      31.506  29.919  25.700  1.00  0.00    -0.374 OA
BRANCH  22  23
ATOM     23  C   UNL A   1      30.923  31.217  25.598  1.00  0.00     0.202 C 
BRANCH  23  24
ATOM     24  C   UNL A   1      31.427  32.235  26.632  1.00  0.00     0.261 C 
BRANCH  24  25
ATOM     25  O   UNL A   1      32.669  31.811  27.231  1.00  0.00    -0.460 OA
BRANCH  25  26
ATOM     26  C   UNL A   1      33.475  32.819  27.652  1.00  0.00     0.338 C 
ATOM     27  O   UNL A   1      33.165  33.974  27.874  1.00  0.00    -0.246 OA
BRANCH  26  28
ATOM     28  C   UNL A   1      34.800  32.273  28.013  1.00  0.00     0.060 A 
ATOM     29  C   UNL A   1      34.904  30.892  28.198  1.00  0.00     0.016 A 
ATOM     30  C   UNL A   1      35.909  33.090  28.222  1.00  0.00     0.016 A 
ATOM     31  C   UNL A   1      36.105  30.334  28.636  1.00  0.00     0.010 A 
ATOM     32  C   UNL A   1      37.139  32.519  28.574  1.00  0.00     0.010 A 
ATOM     33  C   UNL A   1      37.228  31.143  28.857  1.00  0.00    -0.014 A 
BRANCH  33  34
ATOM     34  C   UNL A   1      38.407  30.582  29.582  1.00  0.00     0.031 A 
ATOM     35  C   UNL A   1      38.627  30.960  31.028  1.00  0.00     0.074 A 
ATOM     36  C   UNL A   1      39.232  29.688  29.002  1.00  0.00     0.049 A 
ATOM     37  N   UNL A   1      39.551  30.557  31.867  1.00  0.00    -0.248 NA
ATOM     38  C   UNL A   1      37.686  31.931  31.608  1.00  0.00     0.031 C 
ATOM     39  C   UNL A   1      39.143  29.222  27.620  1.00  0.00     0.029 A 
ATOM     40  N   UNL A   1      40.307  28.999  29.517  1.00  0.00    -0.354 N 
ATOM     41  C   UNL A   1      39.305  31.233  33.055  1.00  0.00     0.074 A 
ATOM     42  C   UNL A   1      38.191  32.121  32.815  1.00  0.00     0.031 C 
ATOM     43  C   UNL A   1      40.102  28.306  27.404  1.00  0.00     0.029 A 
ATOM     44  C   UNL A   1      40.898  28.143  28.620  1.00  0.00     0.049 A 
ATOM     45  H   UNL A   1      40.623  29.109  30.444  1.00  0.00     0.167 HD
ATOM     46  C   UNL A   1      39.922  31.106  34.254  1.00  0.00     0.037 A 
ATOM     47  C   UNL A   1      41.963  27.327  28.759  1.00  0.00     0.037 A 
ATOM     48  C   UNL A   1      41.013  30.207  34.515  1.00  0.00     0.049 A 
ATOM     49  C   UNL A   1      42.670  27.241  30.089  1.00  0.00     0.074 A 
ATOM     50  C   UNL A   1      41.678  29.983  35.707  1.00  0.00     0.029 A 
ATOM     51  N   UNL A   1      41.603  29.386  33.567  1.00  0.00    -0.354 N 
ATOM     52  N   UNL A   1      42.395  27.850  31.217  1.00  0.00    -0.248 NA
ATOM     53  C   UNL A   1      43.836  26.346  30.165  1.00  0.00     0.031 C 
ATOM     54  C   UNL A   1      42.713  29.074  35.467  1.00  0.00     0.029 A 
ATOM     55  C   UNL A   1      42.647  28.678  34.142  1.00  0.00     0.049 A 
ATOM     56  H   UNL A   1      41.321  29.315  32.627  1.00  0.00     0.167 HD
ATOM     57  C   UNL A   1      43.328  27.389  32.140  1.00  0.00     0.074 A 
ATOM     58  C   UNL A   1      44.168  26.438  31.445  1.00  0.00     0.031 C 
ATOM     59  C   UNL A   1      43.474  27.725  33.445  1.00  0.00     0.037 A 
BRANCH  46  60
ATOM     60  C   UNL A   1      39.435  31.978  35.379  1.00  0.00     0.064 A 
ATOM     61  C   UNL A   1      38.541  31.503  36.351  1.00  0.00     0.173 A 
ATOM     62  C   UNL A   1      39.889  33.299  35.497  1.00  0.00     0.173 A 
ATOM     63  F   UNL A   1      38.065  30.250  36.277  1.00  0.00    -0.203 F 
ATOM     64  C   UNL A   1      38.092  32.329  37.378  1.00  0.00     0.198 A 
ATOM     65  C   UNL A   1      39.466  34.112  36.546  1.00  0.00     0.198 A 
ATOM     66  F   UNL A   1      40.747  33.804  34.598  1.00  0.00    -0.203 F 
ATOM     67  F   UNL A   1      37.192  31.872  38.258  1.00  0.00    -0.200 F 
ATOM     68  C   UNL A   1      38.562  33.629  37.479  1.00  0.00     0.200 A 
ATOM     69  F   UNL A   1      39.933  35.364  36.652  1.00  0.00    -0.200 F 
ATOM     70  F   UNL A   1      38.134  34.422  38.472  1.00  0.00    -0.200 F 
ENDBRANCH  46  60
BRANCH  47  71
ATOM     71  C   UNL A   1      42.435  26.514  27.604  1.00  0.00     0.064 A 
ATOM     72  C   UNL A   1      41.915  25.236  27.351  1.00  0.00     0.173 A 
ATOM     73  C   UNL A   1      43.438  26.989  26.745  1.00  0.00     0.173 A 
ATOM     74  F   UNL A   1      40.977  24.722  28.159  1.00  0.00    -0.203 F 
ATOM     75  C   UNL A   1      42.397  24.458  26.299  1.00  0.00     0.198 A 
ATOM     76  C   UNL A   1      43.894  26.224  25.674  1.00  0.00     0.198 A 
ATOM     77  F   UNL A   1      43.974  28.202  26.945  1.00  0.00    -0.203 F 
ATOM     78  F   UNL A   1      41.923  23.218  26.114  1.00  0.00    -0.200 F 
ATOM     79  C   UNL A   1      43.380  24.955  25.457  1.00  0.00     0.200 A 
ATOM     80  F   UNL A   1      44.836  26.713  24.857  1.00  0.00    -0.200 F 
ATOM     81  F   UNL A   1      43.840  24.207  24.445  1.00  0.00    -0.200 F 
ENDBRANCH  47  71
BRANCH  59  82
ATOM     82  C   UNL A   1      44.555  27.034  34.230  1.00  0.00     0.064 A 
ATOM     83  C   UNL A   1      44.350  25.786  34.834  1.00  0.00     0.173 A 
ATOM     84  C   UNL A   1      45.832  27.610  34.334  1.00  0.00     0.173 A 
ATOM     85  F   UNL A   1      43.146  25.195  34.774  1.00  0.00    -0.203 F 
ATOM     86  C   UNL A   1      45.372  25.153  35.538  1.00  0.00     0.198 A 
ATOM     87  C   UNL A   1      46.862  26.958  35.008  1.00  0.00     0.198 A 
ATOM     88  F   UNL A   1      46.088  28.797  33.766  1.00  0.00    -0.203 F 
ATOM     89  F   UNL A   1      45.137  23.984  36.151  1.00  0.00    -0.200 F 
ATOM     90  C   UNL A   1      46.629  25.735  35.617  1.00  0.00     0.200 A 
ATOM     91  F   UNL A   1      48.080  27.513  35.067  1.00  0.00    -0.200 F 
ATOM     92  F   UNL A   1      47.613  25.120  36.286  1.00  0.00    -0.200 F 
ENDBRANCH  59  82
ENDBRANCH  33  34
ENDBRANCH  26  28
ENDBRANCH  25  26
ENDBRANCH  24  25
ENDBRANCH  23  24
ENDBRANCH  22  23
ENDBRANCH   1  22
TORSDOF 19
ENDMDL
MODEL 2
REMARK VINA RESULT:     -10.3      1.370      3.098
REMARK SMILES C#CC[N@@H+](CC(=O)NC(=O)NC)CC(=O)OCCOCCOC(=O)c1ccc(-c2c3nc(c(-c4c(F)c(F)c(F)c(F)c4F)c4ccc([nH]4)c(-c4c(F)c(F)c(F)c(F)c4F)c4nc(c(-c5c(F)c(F)c(F)c(F)c5F)c5ccc2[nH]5)C=C4)C=C3)cc1
REMARK SMILES IDX 18 1 17 2 16 3 14 4 15 5 13 6 4 7 3 9 2 10 1 11 5 12 6 13
REMARK SMILES IDX 7 14 8 15 9 16 10 18 11 19 12 20 19 22 20 23 21 24 22 25
REMARK SMILES IDX 23 26 24 27 25 28 26 29 87 30 27 31 86 32 28 33 29 34 30 35
REMARK SMILES IDX 80 36 31 37 85 38 79 39 81 40 32 41 84 42 78 43 77 44 33 46
REMARK SMILES IDX 65 47 45 48 64 49 46 50 49 51 63 52 82 53 47 54 48 55 62 57
REMARK SMILES IDX 83 58 50 59 34 60 35 61 43 62 36 63 37 64 41 65 44 66 38 67
REMARK SMILES IDX 39 68 42 69 40 70 66 71 67 72 75 73 68 74 69 75 73 76 76 77
REMARK SMILES IDX 70 78 71 79 74 80 72 81 51 82 52 83 60 84 53 85 54 86 58 87
REMARK SMILES IDX 61 88 55 89 56 90 59 91 57 92
REMARK H PARENT 4 8 8 17 11 21 81 45 49 56
REMARK Flexibility Score: inf
ROOT
ATOM      1  C   UNL A   1      33.427  29.200  26.451  1.00  0.00     0.202 C 
ENDROOT
BRANCH   1   2
ATOM      2  C   UNL A   1      32.717  27.863  26.237  1.00  0.00     0.261 C 
BRANCH   2   3
ATOM      3  O   UNL A   1      33.679  26.801  26.100  1.00  0.00    -0.459 OA
BRANCH   3   4
ATOM      4  C   UNL A   1      33.418  25.860  25.159  1.00  0.00     0.361 C 
ATOM      5  O   UNL A   1      34.272  25.197  24.582  1.00  0.00    -0.245 OA
BRANCH   4   6
ATOM      6  C   UNL A   1      31.938  25.758  24.822  1.00  0.00     0.387 C 
BRANCH   6   7
ATOM      7  N   UNL A   1      31.567  25.060  23.581  1.00  0.00    -0.308 N 
ATOM      8  H   UNL A   1      32.488  24.632  23.483  1.00  0.00     0.349 HD
BRANCH   7   9
ATOM      9  C   UNL A   1      31.035  23.708  23.583  1.00  0.00     0.354 C 
BRANCH   9  10
ATOM     10  C   UNL A   1      31.585  22.926  24.765  1.00  0.00    -0.047 C 
ATOM     11  C   UNL A   1      32.056  22.255  25.779  1.00  0.00     0.010 C 
ENDBRANCH   9  10
ENDBRANCH   7   9
BRANCH   7  12
ATOM     12  C   UNL A   1      31.403  25.875  22.386  1.00  0.00     0.365 C 
BRANCH  12  13
ATOM     13  C   UNL A   1      32.693  26.238  21.675  1.00  0.00     0.283 C 
ATOM     14  O   UNL A   1      33.220  25.448  20.881  1.00  0.00    -0.268 OA
ATOM     15  N   UNL A   1      33.359  27.432  21.883  1.00  0.00    -0.273 N 
ATOM     16  C   UNL A   1      33.348  28.568  22.645  1.00  0.00     0.321 C 
ATOM     17  H   UNL A   1      34.116  27.483  21.256  1.00  0.00     0.175 HD
ATOM     18  O   UNL A   1      34.411  28.991  23.102  1.00  0.00    -0.248 OA
ATOM     19  N   UNL A   1      32.228  29.248  22.925  1.00  0.00    -0.341 N 
ATOM     20  C   UNL A   1      30.895  29.155  22.398  1.00  0.00     0.144 C 
ATOM     21  H   UNL A   1      32.340  29.938  23.618  1.00  0.00     0.165 HD
ENDBRANCH  12  13
ENDBRANCH   7  12
ENDBRANCH   6   7
ENDBRANCH   4   6
ENDBRANCH   3   4
ENDBRANCH   2   3
ENDBRANCH   1   2
BRANCH   1  22
ATOM     22  O   UNL A   1      32.752  30.339  25.913  1.00  0.00    -0.374 OA
BRANCH  22  23
ATOM     23  C   UNL A   1      31.929  31.062  26.827  1.00  0.00     0.202 C 
BRANCH  23  24
ATOM     24  C   UNL A   1      32.163  32.580  26.847  1.00  0.00     0.261 C 
BRANCH  24  25
ATOM     25  O   UNL A   1      32.553  33.039  28.157  1.00  0.00    -0.460 OA
BRANCH  25  26
ATOM     26  C   UNL A   1      33.603  33.900  28.173  1.00  0.00     0.338 C 
ATOM     27  O   UNL A   1      33.569  35.113  28.111  1.00  0.00    -0.246 OA
BRANCH  26  28
ATOM     28  C   UNL A   1      34.843  33.158  28.485  1.00  0.00     0.060 A 
ATOM     29  C   UNL A   1      34.714  31.867  29.002  1.00  0.00     0.016 A 
ATOM     30  C   UNL A   1      36.107  33.726  28.329  1.00  0.00     0.016 A 
ATOM     31  C   UNL A   1      35.847  31.160  29.407  1.00  0.00     0.010 A 
ATOM     32  C   UNL A   1      37.248  32.981  28.652  1.00  0.00     0.010 A 
ATOM     33  C   UNL A   1      37.125  31.719  29.264  1.00  0.00    -0.014 A 
BRANCH  33  34
ATOM     34  C   UNL A   1      38.288  31.079  29.947  1.00  0.00     0.031 A 
ATOM     35  C   UNL A   1      38.551  31.396  31.400  1.00  0.00     0.074 A 
ATOM     36  C   UNL A   1      39.059  30.167  29.322  1.00  0.00     0.049 A 
ATOM     37  N   UNL A   1      39.469  30.921  32.207  1.00  0.00    -0.248 NA
ATOM     38  C   UNL A   1      37.668  32.390  32.030  1.00  0.00     0.031 C 
ATOM     39  C   UNL A   1      38.923  29.753  27.927  1.00  0.00     0.029 A 
ATOM     40  N   UNL A   1      40.108  29.410  29.794  1.00  0.00    -0.354 N 
ATOM     41  C   UNL A   1      39.276  31.566  33.422  1.00  0.00     0.074 A 
ATOM     42  C   UNL A   1      38.203  32.514  33.233  1.00  0.00     0.031 C 
ATOM     43  C   UNL A   1      39.833  28.800  27.663  1.00  0.00     0.029 A 
ATOM     44  C   UNL A   1      40.641  28.558  28.857  1.00  0.00     0.049 A 
ATOM     45  H   UNL A   1      40.444  29.473  30.717  1.00  0.00     0.167 HD
ATOM     46  C   UNL A   1      39.907  31.370  34.604  1.00  0.00     0.037 A 
ATOM     47  C   UNL A   1      41.668  27.688  28.948  1.00  0.00     0.037 A 
ATOM     48  C   UNL A   1      40.958  30.412  34.814  1.00  0.00     0.049 A 
ATOM     49  C   UNL A   1      42.393  27.523  30.261  1.00  0.00     0.074 A 
ATOM     50  C   UNL A   1      41.632  30.116  35.986  1.00  0.00     0.029 A 
ATOM     51  N   UNL A   1      41.491  29.596  33.828  1.00  0.00    -0.354 N 
ATOM     52  N   UNL A   1      42.168  28.106  31.413  1.00  0.00    -0.248 NA
ATOM     53  C   UNL A   1      43.515  26.572  30.285  1.00  0.00     0.031 C 
ATOM     54  C   UNL A   1      42.618  29.168  35.695  1.00  0.00     0.029 A 
ATOM     55  C   UNL A   1      42.510  28.820  34.359  1.00  0.00     0.049 A 
ATOM     56  H   UNL A   1      41.190  29.571  32.892  1.00  0.00     0.167 HD
ATOM     57  C   UNL A   1      43.093  27.570  32.303  1.00  0.00     0.074 A 
ATOM     58  C   UNL A   1      43.874  26.604  31.561  1.00  0.00     0.031 C 
ATOM     59  C   UNL A   1      43.278  27.854  33.616  1.00  0.00     0.037 A 
BRANCH  46  60
ATOM     60  C   UNL A   1      39.482  32.225  35.766  1.00  0.00     0.064 A 
ATOM     61  C   UNL A   1      40.061  33.479  36.015  1.00  0.00     0.173 A 
ATOM     62  C   UNL A   1      38.465  31.791  36.628  1.00  0.00     0.173 A 
ATOM     63  F   UNL A   1      41.049  33.935  35.229  1.00  0.00    -0.203 F 
ATOM     64  C   UNL A   1      39.663  34.250  37.103  1.00  0.00     0.198 A 
ATOM     65  C   UNL A   1      38.043  32.581  37.695  1.00  0.00     0.198 A 
ATOM     66  F   UNL A   1      37.874  30.603  36.435  1.00  0.00    -0.203 F 
ATOM     67  F   UNL A   1      40.272  35.416  37.355  1.00  0.00    -0.200 F 
ATOM     68  C   UNL A   1      38.649  33.804  37.937  1.00  0.00     0.200 A 
ATOM     69  F   UNL A   1      37.052  32.156  38.490  1.00  0.00    -0.200 F 
ATOM     70  F   UNL A   1      38.260  34.551  38.981  1.00  0.00    -0.200 F 
ENDBRANCH  46  60
BRANCH  47  71
ATOM     71  C   UNL A   1      42.080  26.894  27.758  1.00  0.00     0.064 A 
ATOM     72  C   UNL A   1      41.540  25.624  27.506  1.00  0.00     0.173 A 
ATOM     73  C   UNL A   1      43.046  27.378  26.863  1.00  0.00     0.173 A 
ATOM     74  F   UNL A   1      40.635  25.102  28.347  1.00  0.00    -0.203 F 
ATOM     75  C   UNL A   1      41.966  24.862  26.419  1.00  0.00     0.198 A 
ATOM     76  C   UNL A   1      43.447  26.629  25.758  1.00  0.00     0.198 A 
ATOM     77  F   UNL A   1      43.600  28.583  27.060  1.00  0.00    -0.203 F 
ATOM     78  F   UNL A   1      41.475  23.629  26.234  1.00  0.00    -0.200 F 
ATOM     79  C   UNL A   1      42.913  25.368  25.542  1.00  0.00     0.200 A 
ATOM     80  F   UNL A   1      44.354  27.127  24.908  1.00  0.00    -0.200 F 
ATOM     81  F   UNL A   1      43.321  24.636  24.496  1.00  0.00    -0.200 F 
ENDBRANCH  47  71
BRANCH  59  82
ATOM     82  C   UNL A   1      44.338  27.086  34.356  1.00  0.00     0.064 A 
ATOM     83  C   UNL A   1      45.628  27.601  34.547  1.00  0.00     0.173 A 
ATOM     84  C   UNL A   1      44.041  25.837  34.925  1.00  0.00     0.173 A 
ATOM     85  F   UNL A   1      45.969  28.786  34.017  1.00  0.00    -0.203 F 
ATOM     86  C   UNL A   1      46.590  26.882  35.256  1.00  0.00     0.198 A 
ATOM     87  C   UNL A   1      44.994  25.138  35.662  1.00  0.00     0.198 A 
ATOM     88  F   UNL A   1      42.820  25.301  34.783  1.00  0.00    -0.203 F 
ATOM     89  F   UNL A   1      47.831  27.372  35.382  1.00  0.00    -0.200 F 
ATOM     90  C   UNL A   1      46.269  25.656  35.819  1.00  0.00     0.200 A 
ATOM     91  F   UNL A   1      44.675  23.962  36.222  1.00  0.00    -0.200 F 
ATOM     92  F   UNL A   1      47.192  24.971  36.508  1.00  0.00    -0.200 F 
ENDBRANCH  59  82
ENDBRANCH  33  34
ENDBRANCH  26  28
ENDBRANCH  25  26
ENDBRANCH  24  25
ENDBRANCH  23  24
ENDBRANCH  22  23
ENDBRANCH   1  22
TORSDOF 19
ENDMDL
MODEL 3
REMARK VINA RESULT:     -10.2      1.401      2.780
REMARK SMILES C#CC[N@@H+](CC(=O)NC(=O)NC)CC(=O)OCCOCCOC(=O)c1ccc(-c2c3nc(c(-c4c(F)c(F)c(F)c(F)c4F)c4ccc([nH]4)c(-c4c(F)c(F)c(F)c(F)c4F)c4nc(c(-c5c(F)c(F)c(F)c(F)c5F)c5ccc2[nH]5)C=C4)C=C3)cc1
REMARK SMILES IDX 18 1 17 2 16 3 14 4 15 5 13 6 4 7 3 9 2 10 1 11 5 12 6 13
REMARK SMILES IDX 7 14 8 15 9 16 10 18 11 19 12 20 19 22 20 23 21 24 22 25
REMARK SMILES IDX 23 26 24 27 25 28 26 29 87 30 27 31 86 32 28 33 29 34 30 35
REMARK SMILES IDX 80 36 31 37 85 38 79 39 81 40 32 41 84 42 78 43 77 44 33 46
REMARK SMILES IDX 65 47 45 48 64 49 46 50 49 51 63 52 82 53 47 54 48 55 62 57
REMARK SMILES IDX 83 58 50 59 34 60 35 61 43 62 36 63 37 64 41 65 44 66 38 67
REMARK SMILES IDX 39 68 42 69 40 70 66 71 67 72 75 73 68 74 69 75 73 76 76 77
REMARK SMILES IDX 70 78 71 79 74 80 72 81 51 82 52 83 60 84 53 85 54 86 58 87
REMARK SMILES IDX 61 88 55 89 56 90 59 91 57 92
REMARK H PARENT 4 8 8 17 11 21 81 45 49 56
REMARK Flexibility Score: inf
ROOT
ATOM      1  C   UNL A   1      32.812  29.678  26.329  1.00  0.00     0.202 C 
ENDROOT
BRANCH   1   2
ATOM      2  C   UNL A   1      33.440  28.572  27.177  1.00  0.00     0.261 C 
BRANCH   2   3
ATOM      3  O   UNL A   1      33.829  27.463  26.345  1.00  0.00    -0.459 OA
BRANCH   3   4
ATOM      4  C   UNL A   1      32.851  26.592  25.994  1.00  0.00     0.361 C 
ATOM      5  O   UNL A   1      31.827  26.399  26.639  1.00  0.00    -0.245 OA
BRANCH   4   6
ATOM      6  C   UNL A   1      33.188  25.802  24.739  1.00  0.00     0.387 C 
BRANCH   6   7
ATOM      7  N   UNL A   1      32.075  25.175  24.007  1.00  0.00    -0.308 N 
ATOM      8  H   UNL A   1      32.697  24.570  23.472  1.00  0.00     0.349 HD
BRANCH   7   9
ATOM      9  C   UNL A   1      31.431  23.958  24.472  1.00  0.00     0.354 C 
BRANCH   9  10
ATOM     10  C   UNL A   1      31.843  22.779  23.605  1.00  0.00    -0.047 C 
ATOM     11  C   UNL A   1      32.196  21.768  22.862  1.00  0.00     0.010 C 
ENDBRANCH   9  10
ENDBRANCH   7   9
BRANCH   7  12
ATOM     12  C   UNL A   1      31.395  25.991  23.010  1.00  0.00     0.365 C 
BRANCH  12  13
ATOM     13  C   UNL A   1      30.233  26.810  23.537  1.00  0.00     0.283 C 
ATOM     14  O   UNL A   1      29.434  26.323  24.349  1.00  0.00    -0.268 OA
ATOM     15  N   UNL A   1      29.983  28.111  23.137  1.00  0.00    -0.273 N 
ATOM     16  C   UNL A   1      30.396  29.081  22.268  1.00  0.00     0.321 C 
ATOM     17  H   UNL A   1      29.236  28.465  23.672  1.00  0.00     0.175 HD
ATOM     18  O   UNL A   1      29.550  29.738  21.658  1.00  0.00    -0.248 OA
ATOM     19  N   UNL A   1      31.688  29.356  22.041  1.00  0.00    -0.341 N 
ATOM     20  C   UNL A   1      32.888  28.940  22.714  1.00  0.00     0.144 C 
ATOM     21  H   UNL A   1      31.843  29.950  21.271  1.00  0.00     0.165 HD
ENDBRANCH  12  13
ENDBRANCH   7  12
ENDBRANCH   6   7
ENDBRANCH   4   6
ENDBRANCH   3   4
ENDBRANCH   2   3
ENDBRANCH   1   2
BRANCH   1  22
ATOM     22  O   UNL A   1      31.831  30.473  26.998  1.00  0.00    -0.374 OA
BRANCH  22  23
ATOM     23  C   UNL A   1      31.382  31.630  26.294  1.00  0.00     0.202 C 
BRANCH  23  24
ATOM     24  C   UNL A   1      31.704  32.968  26.975  1.00  0.00     0.261 C 
BRANCH  24  25
ATOM     25  O   UNL A   1      33.121  33.240  26.964  1.00  0.00    -0.460 OA
BRANCH  25  26
ATOM     26  C   UNL A   1      33.618  33.731  28.128  1.00  0.00     0.338 C 
ATOM     27  O   UNL A   1      33.075  34.489  28.907  1.00  0.00    -0.246 OA
BRANCH  26  28
ATOM     28  C   UNL A   1      34.888  33.044  28.450  1.00  0.00     0.060 A 
ATOM     29  C   UNL A   1      34.827  31.687  28.776  1.00  0.00     0.016 A 
ATOM     30  C   UNL A   1      36.108  33.717  28.486  1.00  0.00     0.016 A 
ATOM     31  C   UNL A   1      35.979  31.014  29.183  1.00  0.00     0.010 A 
ATOM     32  C   UNL A   1      37.279  33.019  28.807  1.00  0.00     0.010 A 
ATOM     33  C   UNL A   1      37.213  31.678  29.232  1.00  0.00    -0.014 A 
BRANCH  33  34
ATOM     34  C   UNL A   1      38.367  31.034  29.926  1.00  0.00     0.031 A 
ATOM     35  C   UNL A   1      38.609  31.339  31.386  1.00  0.00     0.074 A 
ATOM     36  C   UNL A   1      39.149  30.129  29.304  1.00  0.00     0.049 A 
ATOM     37  N   UNL A   1      39.517  30.859  32.201  1.00  0.00    -0.248 NA
ATOM     38  C   UNL A   1      37.716  32.326  32.012  1.00  0.00     0.031 C 
ATOM     39  C   UNL A   1      39.034  29.727  27.904  1.00  0.00     0.029 A 
ATOM     40  N   UNL A   1      40.193  29.370  29.784  1.00  0.00    -0.354 N 
ATOM     41  C   UNL A   1      39.306  31.493  33.419  1.00  0.00     0.074 A 
ATOM     42  C   UNL A   1      38.233  32.441  33.223  1.00  0.00     0.031 C 
ATOM     43  C   UNL A   1      39.949  28.778  27.644  1.00  0.00     0.029 A 
ATOM     44  C   UNL A   1      40.741  28.528  28.848  1.00  0.00     0.049 A 
ATOM     45  H   UNL A   1      40.516  29.426  30.712  1.00  0.00     0.167 HD
ATOM     46  C   UNL A   1      39.921  31.288  34.608  1.00  0.00     0.037 A 
ATOM     47  C   UNL A   1      41.768  27.659  28.946  1.00  0.00     0.037 A 
ATOM     48  C   UNL A   1      40.970  30.330  34.824  1.00  0.00     0.049 A 
ATOM     49  C   UNL A   1      42.475  27.484  30.267  1.00  0.00     0.074 A 
ATOM     50  C   UNL A   1      41.628  30.025  36.003  1.00  0.00     0.029 A 
ATOM     51  N   UNL A   1      41.519  29.524  33.839  1.00  0.00    -0.354 N 
ATOM     52  N   UNL A   1      42.233  28.056  31.421  1.00  0.00    -0.248 NA
ATOM     53  C   UNL A   1      43.599  26.535  30.299  1.00  0.00     0.031 C 
ATOM     54  C   UNL A   1      42.620  29.081  35.718  1.00  0.00     0.029 A 
ATOM     55  C   UNL A   1      42.532  28.745  34.377  1.00  0.00     0.049 A 
ATOM     56  H   UNL A   1      41.232  29.507  32.898  1.00  0.00     0.167 HD
ATOM     57  C   UNL A   1      43.146  27.514  32.319  1.00  0.00     0.074 A 
ATOM     58  C   UNL A   1      43.940  26.556  31.579  1.00  0.00     0.031 C 
ATOM     59  C   UNL A   1      43.312  27.787  33.637  1.00  0.00     0.037 A 
BRANCH  46  60
ATOM     60  C   UNL A   1      39.478  32.132  35.771  1.00  0.00     0.064 A 
ATOM     61  C   UNL A   1      38.468  31.711  36.650  1.00  0.00     0.173 A 
ATOM     62  C   UNL A   1      40.091  33.368  36.023  1.00  0.00     0.173 A 
ATOM     63  F   UNL A   1      37.838  30.543  36.447  1.00  0.00    -0.203 F 
ATOM     64  C   UNL A   1      38.063  32.512  37.714  1.00  0.00     0.198 A 
ATOM     65  C   UNL A   1      39.709  34.150  37.110  1.00  0.00     0.198 A 
ATOM     66  F   UNL A   1      41.065  33.817  35.218  1.00  0.00    -0.203 F 
ATOM     67  F   UNL A   1      37.055  32.116  38.503  1.00  0.00    -0.200 F 
ATOM     68  C   UNL A   1      38.690  33.726  37.948  1.00  0.00     0.200 A 
ATOM     69  F   UNL A   1      40.327  35.316  37.344  1.00  0.00    -0.200 F 
ATOM     70  F   UNL A   1      38.304  34.494  38.978  1.00  0.00    -0.200 F 
ENDBRANCH  46  60
BRANCH  47  71
ATOM     71  C   UNL A   1      42.198  26.876  27.754  1.00  0.00     0.064 A 
ATOM     72  C   UNL A   1      41.601  25.648  27.435  1.00  0.00     0.173 A 
ATOM     73  C   UNL A   1      43.238  27.328  26.927  1.00  0.00     0.173 A 
ATOM     74  F   UNL A   1      40.624  25.156  28.209  1.00  0.00    -0.203 F 
ATOM     75  C   UNL A   1      42.042  24.893  26.348  1.00  0.00     0.198 A 
ATOM     76  C   UNL A   1      43.655  26.589  25.822  1.00  0.00     0.198 A 
ATOM     77  F   UNL A   1      43.849  28.492  27.191  1.00  0.00    -0.203 F 
ATOM     78  F   UNL A   1      41.492  23.697  26.098  1.00  0.00    -0.200 F 
ATOM     79  C   UNL A   1      43.063  25.367  25.539  1.00  0.00     0.200 A 
ATOM     80  F   UNL A   1      44.634  27.056  25.037  1.00  0.00    -0.200 F 
ATOM     81  F   UNL A   1      43.484  24.643  24.493  1.00  0.00    -0.200 F 
ENDBRANCH  47  71
BRANCH  59  82
ATOM     82  C   UNL A   1      44.364  27.015  34.385  1.00  0.00     0.064 A 
ATOM     83  C   UNL A   1      44.098  25.761  34.954  1.00  0.00     0.173 A 
ATOM     84  C   UNL A   1      45.671  27.517  34.490  1.00  0.00     0.173 A 
ATOM     85  F   UNL A   1      42.863  25.238  34.891  1.00  0.00    -0.203 F 
ATOM     86  C   UNL A   1      45.093  25.052  35.624  1.00  0.00     0.198 A 
ATOM     87  C   UNL A   1      46.672  26.790  35.130  1.00  0.00     0.198 A 
ATOM     88  F   UNL A   1      45.984  28.706  33.955  1.00  0.00    -0.203 F 
ATOM     89  F   UNL A   1      44.802  23.879  36.204  1.00  0.00    -0.200 F 
ATOM     90  C   UNL A   1      46.380  25.563  35.704  1.00  0.00     0.200 A 
ATOM     91  F   UNL A   1      47.919  27.277  35.189  1.00  0.00    -0.200 F 
ATOM     92  F   UNL A   1      47.337  24.875  36.341  1.00  0.00    -0.200 F 
ENDBRANCH  59  82
ENDBRANCH  33  34
ENDBRANCH  26  28
ENDBRANCH  25  26
ENDBRANCH  24  25
ENDBRANCH  23  24
ENDBRANCH  22  23
ENDBRANCH   1  22
TORSDOF 19
ENDMDL
