MODEL 1
REMARK VINA RESULT:     -11.7      0.000      0.000
REMARK SMILES Cn1ccc(CNC(=O)[C@@H]2[C@@H]3CC[C@@H](C3)[C@@H]2C(=O)OCCOCCOC(=O)c2ccc(-c3c4nc(c(-c5c(F)c(F)c(F)c(F)c5F)c5ccc([nH]5)c(-c5c(F)c(F)c(F)c(F)c5F)c5nc(c(-c6c(F)c(F)c(F)c(F)c6F)c6ccc3[nH]6)C=C5)C=C4)cc2)n1
REMARK SMILES IDX 21 1 20 2 19 3 17 4 18 5 16 6 10 7 11 8 12 9 15 10 14 11
REMARK SMILES IDX 13 12 8 13 7 14 9 16 6 17 5 18 1 19 2 20 3 21 91 22 4 23
REMARK SMILES IDX 22 24 23 25 24 26 25 27 26 28 27 29 28 30 29 31 90 32 30 33
REMARK SMILES IDX 89 34 31 35 32 36 33 37 83 38 34 39 88 40 82 41 84 42 35 43
REMARK SMILES IDX 87 44 81 45 80 46 36 48 68 49 48 50 67 51 49 52 52 53 66 54
REMARK SMILES IDX 85 55 50 56 51 57 65 59 86 60 53 61 37 62 38 63 46 64 39 65
REMARK SMILES IDX 40 66 44 67 47 68 41 69 42 70 45 71 43 72 69 73 70 74 78 75
REMARK SMILES IDX 71 76 72 77 76 78 79 79 73 80 74 81 77 82 75 83 54 84 55 85
REMARK SMILES IDX 63 86 56 87 57 88 61 89 64 90 58 91 59 92 62 93 60 94
REMARK H PARENT 7 15 84 47 52 58
REMARK Flexibility Score: inf
ROOT
ATOM      1  C   UNL A   1      33.492  28.062  25.852  1.00  0.00     0.202 C 
ENDROOT
BRANCH   1   2
ATOM      2  C   UNL A   1      33.689  26.652  25.284  1.00  0.00     0.261 C 
BRANCH   2   3
ATOM      3  O   UNL A   1      32.989  25.661  26.041  1.00  0.00    -0.463 OA
BRANCH   3   4
ATOM      4  C   UNL A   1      33.320  24.374  25.723  1.00  0.00     0.310 C 
ATOM      5  O   UNL A   1      32.682  23.393  26.065  1.00  0.00    -0.252 OA
BRANCH   4   6
ATOM      6  C   UNL A   1      34.550  24.370  24.838  1.00  0.00     0.115 C 
ATOM      7  C   UNL A   1      34.442  23.646  23.474  1.00  0.00     0.096 C 
ATOM      8  C   UNL A   1      35.537  22.557  23.615  1.00  0.00     0.002 C 
ATOM      9  C   UNL A   1      35.205  21.525  24.715  1.00  0.00     0.005 C 
ATOM     10  C   UNL A   1      36.648  23.362  24.301  1.00  0.00     0.009 C 
ATOM     11  C   UNL A   1      35.775  23.704  25.511  1.00  0.00     0.004 C 
ATOM     12  C   UNL A   1      35.414  22.303  26.018  1.00  0.00     0.005 C 
BRANCH   7  13
ATOM     13  C   UNL A   1      33.087  23.139  22.990  1.00  0.00     0.224 C 
ATOM     14  N   UNL A   1      32.227  23.995  22.376  1.00  0.00    -0.350 N 
ATOM     15  H   UNL A   1      31.343  23.614  22.174  1.00  0.00     0.163 HD
ATOM     16  O   UNL A   1      32.750  21.959  23.092  1.00  0.00    -0.275 OA
BRANCH  14  17
ATOM     17  C   UNL A   1      32.397  25.374  21.969  1.00  0.00     0.174 C 
BRANCH  17  18
ATOM     18  C   UNL A   1      31.306  26.213  22.560  1.00  0.00     0.082 A 
ATOM     19  C   UNL A   1      29.339  29.095  22.437  1.00  0.00     0.173 C 
ATOM     20  N   UNL A   1      29.973  27.846  22.782  1.00  0.00    -0.275 N 
ATOM     21  C   UNL A   1      29.590  26.964  23.747  1.00  0.00     0.108 A 
ATOM     22  N   UNL A   1      31.046  27.440  22.083  1.00  0.00    -0.176 NA
ATOM     23  C   UNL A   1      30.436  25.885  23.629  1.00  0.00     0.047 A 
ENDBRANCH  17  18
ENDBRANCH  14  17
ENDBRANCH   7  13
ENDBRANCH   4   6
ENDBRANCH   3   4
ENDBRANCH   2   3
ENDBRANCH   1   2
BRANCH   1  24
ATOM     24  O   UNL A   1      32.996  29.091  25.001  1.00  0.00    -0.374 OA
BRANCH  24  25
ATOM     25  C   UNL A   1      31.769  29.733  25.338  1.00  0.00     0.202 C 
BRANCH  25  26
ATOM     26  C   UNL A   1      31.768  31.020  26.165  1.00  0.00     0.261 C 
BRANCH  26  27
ATOM     27  O   UNL A   1      32.617  30.950  27.314  1.00  0.00    -0.460 OA
BRANCH  27  28
ATOM     28  C   UNL A   1      33.355  32.062  27.529  1.00  0.00     0.338 C 
ATOM     29  O   UNL A   1      32.979  33.226  27.526  1.00  0.00    -0.246 OA
BRANCH  28  30
ATOM     30  C   UNL A   1      34.689  31.654  27.982  1.00  0.00     0.060 A 
ATOM     31  C   UNL A   1      34.897  30.306  28.309  1.00  0.00     0.016 A 
ATOM     32  C   UNL A   1      35.703  32.600  28.126  1.00  0.00     0.016 A 
ATOM     33  C   UNL A   1      36.122  29.902  28.825  1.00  0.00     0.010 A 
ATOM     34  C   UNL A   1      36.923  32.197  28.661  1.00  0.00     0.010 A 
ATOM     35  C   UNL A   1      37.120  30.858  29.044  1.00  0.00    -0.014 A 
BRANCH  35  36
ATOM     36  C   UNL A   1      38.302  30.522  29.862  1.00  0.00     0.031 A 
ATOM     37  C   UNL A   1      39.277  29.526  29.306  1.00  0.00     0.074 A 
ATOM     38  C   UNL A   1      38.475  31.066  31.076  1.00  0.00     0.049 A 
ATOM     39  N   UNL A   1      40.274  28.922  29.894  1.00  0.00    -0.248 NA
ATOM     40  C   UNL A   1      39.090  29.151  27.894  1.00  0.00     0.031 C 
ATOM     41  C   UNL A   1      37.613  32.080  31.680  1.00  0.00     0.029 A 
ATOM     42  N   UNL A   1      39.422  30.810  32.034  1.00  0.00    -0.354 N 
ATOM     43  C   UNL A   1      40.823  28.088  28.930  1.00  0.00     0.074 A 
ATOM     44  C   UNL A   1      40.033  28.235  27.730  1.00  0.00     0.031 C 
ATOM     45  C   UNL A   1      38.049  32.333  32.926  1.00  0.00     0.029 A 
ATOM     46  C   UNL A   1      39.188  31.465  33.218  1.00  0.00     0.049 A 
ATOM     47  H   UNL A   1      40.194  30.216  31.887  1.00  0.00     0.167 HD
ATOM     48  C   UNL A   1      41.903  27.279  29.042  1.00  0.00     0.037 A 
ATOM     49  C   UNL A   1      39.800  31.333  34.410  1.00  0.00     0.037 A 
ATOM     50  C   UNL A   1      42.671  27.140  30.249  1.00  0.00     0.049 A 
ATOM     51  C   UNL A   1      40.943  30.356  34.535  1.00  0.00     0.074 A 
ATOM     52  C   UNL A   1      43.771  26.337  30.484  1.00  0.00     0.029 A 
ATOM     53  N   UNL A   1      42.411  27.826  31.427  1.00  0.00    -0.354 N 
ATOM     54  N   UNL A   1      41.462  29.565  33.626  1.00  0.00    -0.248 NA
ATOM     55  C   UNL A   1      41.587  30.252  35.851  1.00  0.00     0.031 C 
ATOM     56  C   UNL A   1      44.150  26.503  31.820  1.00  0.00     0.029 A 
ATOM     57  C   UNL A   1      43.325  27.456  32.397  1.00  0.00     0.049 A 
ATOM     58  H   UNL A   1      41.684  28.477  31.553  1.00  0.00     0.167 HD
ATOM     59  C   UNL A   1      42.517  28.907  34.246  1.00  0.00     0.074 A 
ATOM     60  C   UNL A   1      42.566  29.392  35.609  1.00  0.00     0.031 C 
ATOM     61  C   UNL A   1      43.371  27.986  33.737  1.00  0.00     0.037 A 
BRANCH  48  62
ATOM     62  C   UNL A   1      42.300  26.476  27.839  1.00  0.00     0.064 A 
ATOM     63  C   UNL A   1      43.296  26.921  26.956  1.00  0.00     0.173 A 
ATOM     64  C   UNL A   1      41.708  25.230  27.585  1.00  0.00     0.173 A 
ATOM     65  F   UNL A   1      43.880  28.115  27.143  1.00  0.00    -0.203 F 
ATOM     66  C   UNL A   1      43.671  26.157  25.855  1.00  0.00     0.198 A 
ATOM     67  C   UNL A   1      42.109  24.454  26.500  1.00  0.00     0.198 A 
ATOM     68  F   UNL A   1      40.750  24.758  28.397  1.00  0.00    -0.203 F 
ATOM     69  F   UNL A   1      44.593  26.623  25.001  1.00  0.00    -0.200 F 
ATOM     70  C   UNL A   1      43.084  24.921  25.633  1.00  0.00     0.200 A 
ATOM     71  F   UNL A   1      41.549  23.254  26.295  1.00  0.00    -0.200 F 
ATOM     72  F   UNL A   1      43.455  24.180  24.580  1.00  0.00    -0.200 F 
ENDBRANCH  48  62
BRANCH  49  73
ATOM     73  C   UNL A   1      39.327  32.107  35.587  1.00  0.00     0.064 A 
ATOM     74  C   UNL A   1      39.809  33.398  35.846  1.00  0.00     0.173 A 
ATOM     75  C   UNL A   1      38.412  31.561  36.500  1.00  0.00     0.173 A 
ATOM     76  F   UNL A   1      40.700  33.958  35.014  1.00  0.00    -0.203 F 
ATOM     77  C   UNL A   1      39.426  34.095  36.991  1.00  0.00     0.198 A 
ATOM     78  C   UNL A   1      38.002  32.273  37.626  1.00  0.00     0.198 A 
ATOM     79  F   UNL A   1      37.914  30.331  36.300  1.00  0.00    -0.203 F 
ATOM     80  F   UNL A   1      39.955  35.299  37.247  1.00  0.00    -0.200 F 
ATOM     81  C   UNL A   1      38.520  33.534  37.878  1.00  0.00     0.200 A 
ATOM     82  F   UNL A   1      37.115  31.731  38.471  1.00  0.00    -0.200 F 
ATOM     83  F   UNL A   1      38.156  34.202  38.980  1.00  0.00    -0.200 F 
ENDBRANCH  49  73
BRANCH  61  84
ATOM     84  C   UNL A   1      44.478  27.496  34.624  1.00  0.00     0.064 A 
ATOM     85  C   UNL A   1      44.347  26.339  35.404  1.00  0.00     0.173 A 
ATOM     86  C   UNL A   1      45.716  28.158  34.628  1.00  0.00     0.173 A 
ATOM     87  F   UNL A   1      43.179  25.680  35.444  1.00  0.00    -0.203 F 
ATOM     88  C   UNL A   1      45.411  25.871  36.170  1.00  0.00     0.198 A 
ATOM     89  C   UNL A   1      46.788  27.669  35.369  1.00  0.00     0.198 A 
ATOM     90  F   UNL A   1      45.895  29.264  33.890  1.00  0.00    -0.203 F 
ATOM     91  F   UNL A   1      45.254  24.786  36.939  1.00  0.00    -0.200 F 
ATOM     92  C   UNL A   1      46.633  26.529  36.143  1.00  0.00     0.200 A 
ATOM     93  F   UNL A   1      47.972  28.294  35.325  1.00  0.00    -0.200 F 
ATOM     94  F   UNL A   1      47.661  26.064  36.865  1.00  0.00    -0.200 F 
ENDBRANCH  61  84
ENDBRANCH  35  36
ENDBRANCH  28  30
ENDBRANCH  27  28
ENDBRANCH  26  27
ENDBRANCH  25  26
ENDBRANCH  24  25
ENDBRANCH   1  24
TORSDOF 17
ENDMDL
MODEL 2
REMARK VINA RESULT:     -11.6      1.879      3.580
REMARK SMILES Cn1ccc(CNC(=O)[C@@H]2[C@@H]3CC[C@@H](C3)[C@@H]2C(=O)OCCOCCOC(=O)c2ccc(-c3c4nc(c(-c5c(F)c(F)c(F)c(F)c5F)c5ccc([nH]5)c(-c5c(F)c(F)c(F)c(F)c5F)c5nc(c(-c6c(F)c(F)c(F)c(F)c6F)c6ccc3[nH]6)C=C5)C=C4)cc2)n1
REMARK SMILES IDX 21 1 20 2 19 3 17 4 18 5 16 6 10 7 11 8 12 9 15 10 14 11
REMARK SMILES IDX 13 12 8 13 7 14 9 16 6 17 5 18 1 19 2 20 3 21 91 22 4 23
REMARK SMILES IDX 22 24 23 25 24 26 25 27 26 28 27 29 28 30 29 31 90 32 30 33
REMARK SMILES IDX 89 34 31 35 32 36 33 37 83 38 34 39 88 40 82 41 84 42 35 43
REMARK SMILES IDX 87 44 81 45 80 46 36 48 68 49 48 50 67 51 49 52 52 53 66 54
REMARK SMILES IDX 85 55 50 56 51 57 65 59 86 60 53 61 37 62 38 63 46 64 39 65
REMARK SMILES IDX 40 66 44 67 47 68 41 69 42 70 45 71 43 72 69 73 70 74 78 75
REMARK SMILES IDX 71 76 72 77 76 78 79 79 73 80 74 81 77 82 75 83 54 84 55 85
REMARK SMILES IDX 63 86 56 87 57 88 61 89 64 90 58 91 59 92 62 93 60 94
REMARK H PARENT 7 15 84 47 52 58
REMARK Flexibility Score: inf
ROOT
ATOM      1  C   UNL A   1      33.249  27.191  23.989  1.00  0.00     0.202 C 
ENDROOT
BRANCH   1   2
ATOM      2  C   UNL A   1      32.777  25.759  24.266  1.00  0.00     0.261 C 
BRANCH   2   3
ATOM      3  O   UNL A   1      33.781  24.788  23.952  1.00  0.00    -0.463 OA
BRANCH   3   4
ATOM      4  C   UNL A   1      33.561  23.557  24.499  1.00  0.00     0.310 C 
ATOM      5  O   UNL A   1      32.606  23.275  25.204  1.00  0.00    -0.252 OA
BRANCH   4   6
ATOM      6  C   UNL A   1      34.642  22.597  24.042  1.00  0.00     0.115 C 
ATOM      7  C   UNL A   1      34.958  21.391  24.961  1.00  0.00     0.096 C 
ATOM      8  C   UNL A   1      36.452  21.638  25.292  1.00  0.00     0.002 C 
ATOM      9  C   UNL A   1      36.668  22.923  26.123  1.00  0.00     0.005 C 
ATOM     10  C   UNL A   1      36.973  22.091  23.922  1.00  0.00     0.009 C 
ATOM     11  C   UNL A   1      36.017  23.284  23.853  1.00  0.00     0.004 C 
ATOM     12  C   UNL A   1      36.412  24.051  25.119  1.00  0.00     0.005 C 
BRANCH   7  13
ATOM     13  C   UNL A   1      34.068  21.104  26.166  1.00  0.00     0.224 C 
ATOM     14  N   UNL A   1      32.942  20.358  26.011  1.00  0.00    -0.350 N 
ATOM     15  H   UNL A   1      32.378  20.292  26.814  1.00  0.00     0.163 HD
ATOM     16  O   UNL A   1      34.354  21.485  27.302  1.00  0.00    -0.275 OA
BRANCH  14  17
ATOM     17  C   UNL A   1      32.433  19.643  24.859  1.00  0.00     0.174 C 
BRANCH  17  18
ATOM     18  C   UNL A   1      32.955  18.239  24.864  1.00  0.00     0.082 A 
ATOM     19  C   UNL A   1      32.422  14.845  25.486  1.00  0.00     0.173 C 
ATOM     20  N   UNL A   1      32.964  16.139  25.149  1.00  0.00    -0.275 N 
ATOM     21  C   UNL A   1      34.159  16.404  24.551  1.00  0.00     0.108 A 
ATOM     22  N   UNL A   1      32.237  17.240  25.401  1.00  0.00    -0.176 NA
ATOM     23  C   UNL A   1      34.186  17.764  24.347  1.00  0.00     0.047 A 
ENDBRANCH  17  18
ENDBRANCH  14  17
ENDBRANCH   7  13
ENDBRANCH   4   6
ENDBRANCH   3   4
ENDBRANCH   2   3
ENDBRANCH   1   2
BRANCH   1  24
ATOM     24  O   UNL A   1      33.294  28.128  25.062  1.00  0.00    -0.374 OA
BRANCH  24  25
ATOM     25  C   UNL A   1      32.121  28.872  25.376  1.00  0.00     0.202 C 
BRANCH  25  26
ATOM     26  C   UNL A   1      32.229  30.304  25.904  1.00  0.00     0.261 C 
BRANCH  26  27
ATOM     27  O   UNL A   1      32.806  30.379  27.210  1.00  0.00    -0.460 OA
BRANCH  27  28
ATOM     28  C   UNL A   1      33.488  31.521  27.453  1.00  0.00     0.338 C 
ATOM     29  O   UNL A   1      33.054  32.664  27.480  1.00  0.00    -0.246 OA
BRANCH  28  30
ATOM     30  C   UNL A   1      34.842  31.169  27.892  1.00  0.00     0.060 A 
ATOM     31  C   UNL A   1      35.094  29.843  28.273  1.00  0.00     0.016 A 
ATOM     32  C   UNL A   1      35.833  32.147  27.972  1.00  0.00     0.016 A 
ATOM     33  C   UNL A   1      36.341  29.495  28.778  1.00  0.00     0.010 A 
ATOM     34  C   UNL A   1      37.074  31.801  28.495  1.00  0.00     0.010 A 
ATOM     35  C   UNL A   1      37.317  30.486  28.932  1.00  0.00    -0.014 A 
BRANCH  35  36
ATOM     36  C   UNL A   1      38.525  30.218  29.737  1.00  0.00     0.031 A 
ATOM     37  C   UNL A   1      39.523  29.238  29.194  1.00  0.00     0.074 A 
ATOM     38  C   UNL A   1      38.701  30.808  30.929  1.00  0.00     0.049 A 
ATOM     39  N   UNL A   1      40.552  28.688  29.782  1.00  0.00    -0.248 NA
ATOM     40  C   UNL A   1      39.323  28.811  27.799  1.00  0.00     0.031 C 
ATOM     41  C   UNL A   1      37.816  31.811  31.517  1.00  0.00     0.029 A 
ATOM     42  N   UNL A   1      39.675  30.616  31.875  1.00  0.00    -0.354 N 
ATOM     43  C   UNL A   1      41.112  27.842  28.834  1.00  0.00     0.074 A 
ATOM     44  C   UNL A   1      40.294  27.923  27.646  1.00  0.00     0.031 C 
ATOM     45  C   UNL A   1      38.266  32.120  32.745  1.00  0.00     0.029 A 
ATOM     46  C   UNL A   1      39.440  31.302  33.042  1.00  0.00     0.049 A 
ATOM     47  H   UNL A   1      40.464  30.045  31.733  1.00  0.00     0.167 HD
ATOM     48  C   UNL A   1      42.221  27.075  28.951  1.00  0.00     0.037 A 
ATOM     49  C   UNL A   1      40.079  31.230  34.225  1.00  0.00     0.037 A 
ATOM     50  C   UNL A   1      43.016  27.003  30.146  1.00  0.00     0.049 A 
ATOM     51  C   UNL A   1      41.258  30.298  34.359  1.00  0.00     0.074 A 
ATOM     52  C   UNL A   1      44.148  26.246  30.386  1.00  0.00     0.029 A 
ATOM     53  N   UNL A   1      42.754  27.718  31.306  1.00  0.00    -0.354 N 
ATOM     54  N   UNL A   1      41.787  29.496  33.466  1.00  0.00    -0.248 NA
ATOM     55  C   UNL A   1      41.930  30.260  35.665  1.00  0.00     0.031 C 
ATOM     56  C   UNL A   1      44.546  26.470  31.707  1.00  0.00     0.029 A 
ATOM     57  C   UNL A   1      43.699  27.413  32.269  1.00  0.00     0.049 A 
ATOM     58  H   UNL A   1      42.007  28.348  31.426  1.00  0.00     0.167 HD
ATOM     59  C   UNL A   1      42.876  28.895  34.086  1.00  0.00     0.074 A 
ATOM     60  C   UNL A   1      42.933  29.426  35.431  1.00  0.00     0.031 C 
ATOM     61  C   UNL A   1      43.751  27.987  33.590  1.00  0.00     0.037 A 
BRANCH  48  62
ATOM     62  C   UNL A   1      42.623  26.247  27.767  1.00  0.00     0.064 A 
ATOM     63  C   UNL A   1      42.042  24.995  27.515  1.00  0.00     0.173 A 
ATOM     64  C   UNL A   1      43.570  26.727  26.849  1.00  0.00     0.173 A 
ATOM     65  F   UNL A   1      41.145  24.482  28.371  1.00  0.00    -0.203 F 
ATOM     66  C   UNL A   1      42.409  24.246  26.401  1.00  0.00     0.198 A 
ATOM     67  C   UNL A   1      43.911  25.989  25.719  1.00  0.00     0.198 A 
ATOM     68  F   UNL A   1      44.157  27.918  27.044  1.00  0.00    -0.203 F 
ATOM     69  F   UNL A   1      41.874  23.032  26.206  1.00  0.00    -0.200 F 
ATOM     70  C   UNL A   1      43.335  24.747  25.499  1.00  0.00     0.200 A 
ATOM     71  F   UNL A   1      44.797  26.481  24.843  1.00  0.00    -0.200 F 
ATOM     72  F   UNL A   1      43.678  24.031  24.419  1.00  0.00    -0.200 F 
ENDBRANCH  48  62
BRANCH  49  73
ATOM     73  C   UNL A   1      39.601  32.027  35.386  1.00  0.00     0.064 A 
ATOM     74  C   UNL A   1      38.661  31.504  36.285  1.00  0.00     0.173 A 
ATOM     75  C   UNL A   1      40.044  33.341  35.600  1.00  0.00     0.173 A 
ATOM     76  F   UNL A   1      38.191  30.259  36.113  1.00  0.00    -0.203 F 
ATOM     77  C   UNL A   1      38.154  32.277  37.329  1.00  0.00     0.198 A 
ATOM     78  C   UNL A   1      39.563  34.101  36.665  1.00  0.00     0.198 A 
ATOM     79  F   UNL A   1      40.946  33.890  34.773  1.00  0.00    -0.203 F 
ATOM     80  F   UNL A   1      37.206  31.774  38.131  1.00  0.00    -0.200 F 
ATOM     81  C   UNL A   1      38.608  33.573  37.520  1.00  0.00     0.200 A 
ATOM     82  F   UNL A   1      40.016  35.347  36.854  1.00  0.00    -0.200 F 
ATOM     83  F   UNL A   1      38.116  34.317  38.519  1.00  0.00    -0.200 F 
ENDBRANCH  49  73
BRANCH  61  84
ATOM     84  C   UNL A   1      44.892  27.566  34.470  1.00  0.00     0.064 A 
ATOM     85  C   UNL A   1      44.813  26.435  35.296  1.00  0.00     0.173 A 
ATOM     86  C   UNL A   1      46.108  28.265  34.423  1.00  0.00     0.173 A 
ATOM     87  F   UNL A   1      43.668  25.742  35.385  1.00  0.00    -0.203 F 
ATOM     88  C   UNL A   1      45.907  26.029  36.055  1.00  0.00     0.198 A 
ATOM     89  C   UNL A   1      47.210  27.837  35.157  1.00  0.00     0.198 A 
ATOM     90  F   UNL A   1      46.237  29.347  33.641  1.00  0.00    -0.203 F 
ATOM     91  F   UNL A   1      45.800  24.969  36.866  1.00  0.00    -0.200 F 
ATOM     92  C   UNL A   1      47.107  26.723  35.977  1.00  0.00     0.200 A 
ATOM     93  F   UNL A   1      48.372  28.497  35.066  1.00  0.00    -0.200 F 
ATOM     94  F   UNL A   1      48.164  26.318  36.693  1.00  0.00    -0.200 F 
ENDBRANCH  61  84
ENDBRANCH  35  36
ENDBRANCH  28  30
ENDBRANCH  27  28
ENDBRANCH  26  27
ENDBRANCH  25  26
ENDBRANCH  24  25
ENDBRANCH   1  24
TORSDOF 17
ENDMDL
MODEL 3
REMARK VINA RESULT:     -11.5      1.949      3.253
REMARK SMILES Cn1ccc(CNC(=O)[C@@H]2[C@@H]3CC[C@@H](C3)[C@@H]2C(=O)OCCOCCOC(=O)c2ccc(-c3c4nc(c(-c5c(F)c(F)c(F)c(F)c5F)c5ccc([nH]5)c(-c5c(F)c(F)c(F)c(F)c5F)c5nc(c(-c6c(F)c(F)c(F)c(F)c6F)c6ccc3[nH]6)C=C5)C=C4)cc2)n1
REMARK SMILES IDX 21 1 20 2 19 3 17 4 18 5 16 6 10 7 11 8 12 9 15 10 14 11
REMARK SMILES IDX 13 12 8 13 7 14 9 16 6 17 5 18 1 19 2 20 3 21 91 22 4 23
REMARK SMILES IDX 22 24 23 25 24 26 25 27 26 28 27 29 28 30 29 31 90 32 30 33
REMARK SMILES IDX 89 34 31 35 32 36 33 37 83 38 34 39 88 40 82 41 84 42 35 43
REMARK SMILES IDX 87 44 81 45 80 46 36 48 68 49 48 50 67 51 49 52 52 53 66 54
REMARK SMILES IDX 85 55 50 56 51 57 65 59 86 60 53 61 37 62 38 63 46 64 39 65
REMARK SMILES IDX 40 66 44 67 47 68 41 69 42 70 45 71 43 72 69 73 70 74 78 75
REMARK SMILES IDX 71 76 72 77 76 78 79 79 73 80 74 81 77 82 75 83 54 84 55 85
REMARK SMILES IDX 63 86 56 87 57 88 61 89 64 90 58 91 59 92 62 93 60 94
REMARK H PARENT 7 15 84 47 52 58
REMARK Flexibility Score: inf
ROOT
ATOM      1  C   UNL A   1      31.033  26.372  26.447  1.00  0.00     0.202 C 
ENDROOT
BRANCH   1   2
ATOM      2  C   UNL A   1      30.881  25.372  25.294  1.00  0.00     0.261 C 
BRANCH   2   3
ATOM      3  O   UNL A   1      32.145  24.906  24.813  1.00  0.00    -0.463 OA
BRANCH   3   4
ATOM      4  C   UNL A   1      32.430  23.612  25.147  1.00  0.00     0.310 C 
ATOM      5  O   UNL A   1      31.817  22.963  25.977  1.00  0.00    -0.252 OA
BRANCH   4   6
ATOM      6  C   UNL A   1      33.569  23.104  24.285  1.00  0.00     0.115 C 
ATOM      7  C   UNL A   1      34.366  21.883  24.807  1.00  0.00     0.096 C 
ATOM      8  C   UNL A   1      35.794  22.474  24.924  1.00  0.00     0.002 C 
ATOM      9  C   UNL A   1      35.889  23.582  25.996  1.00  0.00     0.005 C 
ATOM     10  C   UNL A   1      35.859  23.310  23.640  1.00  0.00     0.009 C 
ATOM     11  C   UNL A   1      34.659  24.175  24.035  1.00  0.00     0.004 C 
ATOM     12  C   UNL A   1      35.148  24.763  25.363  1.00  0.00     0.005 C 
BRANCH   7  13
ATOM     13  C   UNL A   1      33.876  21.130  26.040  1.00  0.00     0.224 C 
ATOM     14  N   UNL A   1      32.965  20.130  25.901  1.00  0.00    -0.350 N 
ATOM     15  H   UNL A   1      32.635  19.754  26.749  1.00  0.00     0.163 HD
ATOM     16  O   UNL A   1      34.311  21.360  27.169  1.00  0.00    -0.275 OA
BRANCH  14  17
ATOM     17  C   UNL A   1      32.400  19.524  24.714  1.00  0.00     0.174 C 
BRANCH  17  18
ATOM     18  C   UNL A   1      32.854  18.101  24.607  1.00  0.00     0.082 A 
ATOM     19  C   UNL A   1      32.527  14.767  25.591  1.00  0.00     0.173 C 
ATOM     20  N   UNL A   1      32.927  16.019  24.995  1.00  0.00    -0.275 N 
ATOM     21  C   UNL A   1      33.809  16.203  23.972  1.00  0.00     0.108 A 
ATOM     22  N   UNL A   1      32.375  17.161  25.436  1.00  0.00    -0.176 NA
ATOM     23  C   UNL A   1      33.784  17.549  23.691  1.00  0.00     0.047 A 
ENDBRANCH  17  18
ENDBRANCH  14  17
ENDBRANCH   7  13
ENDBRANCH   4   6
ENDBRANCH   3   4
ENDBRANCH   2   3
ENDBRANCH   1   2
BRANCH   1  24
ATOM     24  O   UNL A   1      31.876  27.507  26.277  1.00  0.00    -0.374 OA
BRANCH  24  25
ATOM     25  C   UNL A   1      31.773  28.587  27.201  1.00  0.00     0.202 C 
BRANCH  25  26
ATOM     26  C   UNL A   1      31.834  30.035  26.712  1.00  0.00     0.261 C 
BRANCH  26  27
ATOM     27  O   UNL A   1      33.166  30.482  26.443  1.00  0.00    -0.460 OA
BRANCH  27  28
ATOM     28  C   UNL A   1      33.592  31.479  27.251  1.00  0.00     0.338 C 
ATOM     29  O   UNL A   1      32.950  32.431  27.672  1.00  0.00    -0.246 OA
BRANCH  28  30
ATOM     30  C   UNL A   1      34.935  31.143  27.735  1.00  0.00     0.060 A 
ATOM     31  C   UNL A   1      35.223  29.799  28.018  1.00  0.00     0.016 A 
ATOM     32  C   UNL A   1      35.878  32.147  27.950  1.00  0.00     0.016 A 
ATOM     33  C   UNL A   1      36.455  29.457  28.562  1.00  0.00     0.010 A 
ATOM     34  C   UNL A   1      37.104  31.805  28.512  1.00  0.00     0.010 A 
ATOM     35  C   UNL A   1      37.378  30.467  28.852  1.00  0.00    -0.014 A 
BRANCH  35  36
ATOM     36  C   UNL A   1      38.553  30.178  29.698  1.00  0.00     0.031 A 
ATOM     37  C   UNL A   1      39.566  29.201  29.178  1.00  0.00     0.074 A 
ATOM     38  C   UNL A   1      38.686  30.747  30.906  1.00  0.00     0.049 A 
ATOM     39  N   UNL A   1      40.567  28.635  29.796  1.00  0.00    -0.248 NA
ATOM     40  C   UNL A   1      39.417  28.798  27.769  1.00  0.00     0.031 C 
ATOM     41  C   UNL A   1      37.785  31.747  31.476  1.00  0.00     0.029 A 
ATOM     42  N   UNL A   1      39.622  30.534  31.886  1.00  0.00    -0.354 N 
ATOM     43  C   UNL A   1      41.158  27.800  28.856  1.00  0.00     0.074 A 
ATOM     44  C   UNL A   1      40.388  27.906  27.639  1.00  0.00     0.031 C 
ATOM     45  C   UNL A   1      38.189  32.033  32.725  1.00  0.00     0.029 A 
ATOM     46  C   UNL A   1      39.346  31.202  33.053  1.00  0.00     0.049 A 
ATOM     47  H   UNL A   1      40.412  29.960  31.764  1.00  0.00     0.167 HD
ATOM     48  C   UNL A   1      42.257  27.024  29.003  1.00  0.00     0.037 A 
ATOM     49  C   UNL A   1      39.938  31.106  34.259  1.00  0.00     0.037 A 
ATOM     50  C   UNL A   1      43.005  26.927  30.226  1.00  0.00     0.049 A 
ATOM     51  C   UNL A   1      41.105  30.164  34.423  1.00  0.00     0.074 A 
ATOM     52  C   UNL A   1      44.123  26.159  30.497  1.00  0.00     0.029 A 
ATOM     53  N   UNL A   1      42.703  27.625  31.387  1.00  0.00    -0.354 N 
ATOM     54  N   UNL A   1      41.664  29.374  33.538  1.00  0.00    -0.248 NA
ATOM     55  C   UNL A   1      41.726  30.100  35.753  1.00  0.00     0.031 C 
ATOM     56  C   UNL A   1      44.470  26.358  31.836  1.00  0.00     0.029 A 
ATOM     57  C   UNL A   1      43.608  27.297  32.381  1.00  0.00     0.049 A 
ATOM     58  H   UNL A   1      41.956  28.258  31.489  1.00  0.00     0.167 HD
ATOM     59  C   UNL A   1      42.724  28.755  34.189  1.00  0.00     0.074 A 
ATOM     60  C   UNL A   1      42.733  29.264  35.544  1.00  0.00     0.031 C 
ATOM     61  C   UNL A   1      43.613  27.850  33.712  1.00  0.00     0.037 A 
BRANCH  48  62
ATOM     62  C   UNL A   1      42.700  26.213  27.822  1.00  0.00     0.064 A 
ATOM     63  C   UNL A   1      43.677  26.685  26.933  1.00  0.00     0.173 A 
ATOM     64  C   UNL A   1      42.172  24.933  27.597  1.00  0.00     0.173 A 
ATOM     65  F   UNL A   1      44.201  27.910  27.092  1.00  0.00    -0.203 F 
ATOM     66  C   UNL A   1      44.096  25.914  25.851  1.00  0.00     0.198 A 
ATOM     67  C   UNL A   1      42.616  24.152  26.533  1.00  0.00     0.198 A 
ATOM     68  F   UNL A   1      41.234  24.435  28.416  1.00  0.00    -0.203 F 
ATOM     69  F   UNL A   1      44.998  26.404  24.990  1.00  0.00    -0.200 F 
ATOM     70  C   UNL A   1      43.572  24.645  25.659  1.00  0.00     0.200 A 
ATOM     71  F   UNL A   1      42.117  22.921  26.355  1.00  0.00    -0.200 F 
ATOM     72  F   UNL A   1      43.985  23.898  24.625  1.00  0.00    -0.200 F 
ENDBRANCH  48  62
BRANCH  49  73
ATOM     73  C   UNL A   1      39.421  31.887  35.413  1.00  0.00     0.064 A 
ATOM     74  C   UNL A   1      39.856  33.198  35.654  1.00  0.00     0.173 A 
ATOM     75  C   UNL A   1      38.510  31.328  36.323  1.00  0.00     0.173 A 
ATOM     76  F   UNL A   1      40.740  33.772  34.826  1.00  0.00    -0.203 F 
ATOM     77  C   UNL A   1      39.431  33.904  36.779  1.00  0.00     0.198 A 
ATOM     78  C   UNL A   1      38.059  32.047  37.428  1.00  0.00     0.198 A 
ATOM     79  F   UNL A   1      38.057  30.078  36.139  1.00  0.00    -0.203 F 
ATOM     80  F   UNL A   1      39.916  35.129  37.020  1.00  0.00    -0.200 F 
ATOM     81  C   UNL A   1      38.530  33.329  37.663  1.00  0.00     0.200 A 
ATOM     82  F   UNL A   1      37.177  31.492  38.270  1.00  0.00    -0.200 F 
ATOM     83  F   UNL A   1      38.127  34.005  38.747  1.00  0.00    -0.200 F 
ENDBRANCH  49  73
BRANCH  61  84
ATOM     84  C   UNL A   1      44.716  27.407  34.629  1.00  0.00     0.064 A 
ATOM     85  C   UNL A   1      44.588  26.279  35.451  1.00  0.00     0.173 A 
ATOM     86  C   UNL A   1      45.947  28.081  34.621  1.00  0.00     0.173 A 
ATOM     87  F   UNL A   1      43.427  25.609  35.504  1.00  0.00    -0.203 F 
ATOM     88  C   UNL A   1      45.649  25.852  36.245  1.00  0.00     0.198 A 
ATOM     89  C   UNL A   1      47.015  27.633  35.390  1.00  0.00     0.198 A 
ATOM     90  F   UNL A   1      46.122  29.160  33.843  1.00  0.00    -0.203 F 
ATOM     91  F   UNL A   1      45.495  24.795  37.053  1.00  0.00    -0.200 F 
ATOM     92  C   UNL A   1      46.864  26.521  36.206  1.00  0.00     0.200 A 
ATOM     93  F   UNL A   1      48.193  28.269  35.335  1.00  0.00    -0.200 F 
ATOM     94  F   UNL A   1      47.890  26.096  36.955  1.00  0.00    -0.200 F 
ENDBRANCH  61  84
ENDBRANCH  35  36
ENDBRANCH  28  30
ENDBRANCH  27  28
ENDBRANCH  26  27
ENDBRANCH  25  26
ENDBRANCH  24  25
ENDBRANCH   1  24
TORSDOF 17
ENDMDL
