MODEL 1
REMARK VINA RESULT:     -11.4      0.000      0.000
REMARK SMILES C=CCN1C(=O)/C(=C\c2ccco2)S/C1=[NH+]\c1cccc(C(=O)OCCOCCOC(=O)c2ccc(-c3c4nc(c(-c5c(F)c(F)c(F)c(F)c5F)c5ccc([nH]5)c(-c5c(F)c(F)c(F)c(F)c5F)c5nc(c(-c6c(F)c(F)c(F)c(F)c6F)c6ccc3[nH]6)C=C5)C=C4)cc2)c1
REMARK SMILES IDX 26 1 25 2 24 3 22 4 23 5 21 6 17 7 18 8 96 9 19 10 20 11
REMARK SMILES IDX 16 12 4 13 5 14 15 15 6 16 7 17 14 18 8 19 3 21 2 22 1 23
REMARK SMILES IDX 9 24 10 25 13 26 11 27 12 28 27 29 28 30 29 31 30 32 31 33
REMARK SMILES IDX 32 34 33 35 34 36 95 37 35 38 94 39 36 40 37 41 38 42 88 43
REMARK SMILES IDX 39 44 93 45 87 46 89 47 40 48 92 49 86 50 85 51 41 53 73 54
REMARK SMILES IDX 53 55 72 56 54 57 57 58 71 59 90 60 55 61 56 62 70 64 91 65
REMARK SMILES IDX 58 66 42 67 43 68 51 69 44 70 45 71 49 72 52 73 46 74 47 75
REMARK SMILES IDX 50 76 48 77 74 78 75 79 83 80 76 81 77 82 81 83 84 84 78 85
REMARK SMILES IDX 79 86 82 87 80 88 59 89 60 90 68 91 61 92 62 93 66 94 69 95
REMARK SMILES IDX 63 96 64 97 67 98 65 99
REMARK H PARENT 16 20 89 52 57 63
REMARK Flexibility Score: inf
ROOT
ATOM      1  C   UNL A   1      41.856  21.193  26.628  1.00  0.00     0.202 C 
ENDROOT
BRANCH   1   2
ATOM      2  C   UNL A   1      40.699  22.092  27.076  1.00  0.00     0.261 C 
BRANCH   2   3
ATOM      3  O   UNL A   1      39.662  22.114  26.082  1.00  0.00    -0.460 OA
BRANCH   3   4
ATOM      4  C   UNL A   1      38.754  23.111  26.215  1.00  0.00     0.338 C 
ATOM      5  O   UNL A   1      38.982  24.266  26.544  1.00  0.00    -0.246 OA
BRANCH   4   6
ATOM      6  C   UNL A   1      37.419  22.652  25.763  1.00  0.00     0.064 A 
ATOM      7  C   UNL A   1      34.997  22.779  25.769  1.00  0.00     0.126 A 
ATOM      8  C   UNL A   1      34.961  21.783  24.787  1.00  0.00     0.052 A 
ATOM      9  C   UNL A   1      36.234  23.156  26.307  1.00  0.00     0.067 A 
ATOM     10  C   UNL A   1      36.138  21.223  24.291  1.00  0.00     0.005 A 
ATOM     11  C   UNL A   1      37.368  21.677  24.760  1.00  0.00     0.016 A 
BRANCH   7  12
ATOM     12  N   UNL A   1      33.779  23.330  26.193  1.00  0.00    -0.234 N 
ATOM     13  N   UNL A   1      31.872  24.627  25.819  1.00  0.00    -0.182 N 
ATOM     14  C   UNL A   1      31.328  25.608  25.016  1.00  0.00     0.349 C 
ATOM     15  C   UNL A   1      33.073  24.098  25.428  1.00  0.00     0.324 C 
ATOM     16  O   UNL A   1      30.275  26.190  25.229  1.00  0.00    -0.240 OA
ATOM     17  C   UNL A   1      32.215  25.853  23.841  1.00  0.00     0.113 C 
ATOM     18  S   UNL A   1      33.446  24.642  23.804  1.00  0.00     0.007 SA
ATOM     19  C   UNL A   1      32.158  26.827  22.923  1.00  0.00     0.071 C 
ATOM     20  H   UNL A   1      33.452  23.128  27.099  1.00  0.00     0.313 HD
BRANCH  13  21
ATOM     21  C   UNL A   1      31.166  24.172  27.000  1.00  0.00     0.275 C 
BRANCH  21  22
ATOM     22  C   UNL A   1      30.398  22.928  26.638  1.00  0.00     0.011 C 
ATOM     23  C   UNL A   1      29.205  22.594  27.147  1.00  0.00     0.008 C 
ENDBRANCH  21  22
ENDBRANCH  13  21
BRANCH  19  24
ATOM     24  C   UNL A   1      31.226  27.893  22.957  1.00  0.00     0.128 A 
ATOM     25  C   UNL A   1      31.260  29.091  23.662  1.00  0.00     0.050 A 
ATOM     26  O   UNL A   1      30.093  27.903  22.178  1.00  0.00    -0.465 OA
ATOM     27  C   UNL A   1      30.091  29.817  23.340  1.00  0.00     0.042 A 
ATOM     28  C   UNL A   1      29.409  29.042  22.438  1.00  0.00     0.195 A 
ENDBRANCH  19  24
ENDBRANCH   7  12
ENDBRANCH   4   6
ENDBRANCH   3   4
ENDBRANCH   2   3
ENDBRANCH   1   2
BRANCH   1  29
ATOM     29  O   UNL A   1      42.446  21.521  25.371  1.00  0.00    -0.374 OA
BRANCH  29  30
ATOM     30  C   UNL A   1      43.873  21.492  25.296  1.00  0.00     0.202 C 
BRANCH  30  31
ATOM     31  C   UNL A   1      44.579  22.847  25.422  1.00  0.00     0.261 C 
BRANCH  31  32
ATOM     32  O   UNL A   1      43.692  23.940  25.127  1.00  0.00    -0.460 OA
BRANCH  32  33
ATOM     33  C   UNL A   1      44.224  25.169  25.313  1.00  0.00     0.338 C 
ATOM     34  O   UNL A   1      45.119  25.698  24.669  1.00  0.00    -0.246 OA
BRANCH  33  35
ATOM     35  C   UNL A   1      43.451  25.902  26.332  1.00  0.00     0.060 A 
ATOM     36  C   UNL A   1      43.752  27.257  26.519  1.00  0.00     0.016 A 
ATOM     37  C   UNL A   1      42.504  25.267  27.139  1.00  0.00     0.016 A 
ATOM     38  C   UNL A   1      43.146  27.972  27.549  1.00  0.00     0.010 A 
ATOM     39  C   UNL A   1      41.901  25.984  28.179  1.00  0.00     0.010 A 
ATOM     40  C   UNL A   1      42.246  27.328  28.410  1.00  0.00    -0.014 A 
BRANCH  40  41
ATOM     41  C   UNL A   1      41.783  28.023  29.636  1.00  0.00     0.031 A 
ATOM     42  C   UNL A   1      40.552  28.883  29.565  1.00  0.00     0.074 A 
ATOM     43  C   UNL A   1      42.427  27.859  30.805  1.00  0.00     0.049 A 
ATOM     44  N   UNL A   1      39.986  29.606  30.498  1.00  0.00    -0.248 NA
ATOM     45  C   UNL A   1      39.865  28.936  28.264  1.00  0.00     0.031 C 
ATOM     46  C   UNL A   1      43.600  27.013  31.011  1.00  0.00     0.029 A 
ATOM     47  N   UNL A   1      42.181  28.403  32.041  1.00  0.00    -0.354 N 
ATOM     48  C   UNL A   1      38.880  30.196  29.900  1.00  0.00     0.074 A 
ATOM     49  C   UNL A   1      38.873  29.778  28.515  1.00  0.00     0.031 C 
ATOM     50  C   UNL A   1      43.978  27.100  32.298  1.00  0.00     0.029 A 
ATOM     51  C   UNL A   1      43.094  28.031  32.996  1.00  0.00     0.049 A 
ATOM     52  H   UNL A   1      41.423  29.004  32.225  1.00  0.00     0.167 HD
ATOM     53  C   UNL A   1      37.946  31.003  30.459  1.00  0.00     0.037 A 
ATOM     54  C   UNL A   1      43.210  28.416  34.282  1.00  0.00     0.037 A 
ATOM     55  C   UNL A   1      37.956  31.421  31.836  1.00  0.00     0.049 A 
ATOM     56  C   UNL A   1      42.208  29.384  34.856  1.00  0.00     0.074 A 
ATOM     57  C   UNL A   1      37.058  32.239  32.498  1.00  0.00     0.029 A 
ATOM     58  N   UNL A   1      38.920  31.054  32.764  1.00  0.00    -0.354 N 
ATOM     59  N   UNL A   1      41.158  29.926  34.289  1.00  0.00    -0.248 NA
ATOM     60  C   UNL A   1      42.408  29.793  36.254  1.00  0.00     0.031 C 
ATOM     61  C   UNL A   1      37.502  32.405  33.813  1.00  0.00     0.029 A 
ATOM     62  C   UNL A   1      38.649  31.648  33.987  1.00  0.00     0.049 A 
ATOM     63  H   UNL A   1      39.684  30.462  32.581  1.00  0.00     0.167 HD
ATOM     64  C   UNL A   1      40.555  30.710  35.265  1.00  0.00     0.074 A 
ATOM     65  C   UNL A   1      41.352  30.565  36.466  1.00  0.00     0.031 C 
ATOM     66  C   UNL A   1      39.443  31.480  35.177  1.00  0.00     0.037 A 
BRANCH  53  67
ATOM     67  C   UNL A   1      36.843  31.502  29.574  1.00  0.00     0.064 A 
ATOM     68  C   UNL A   1      35.806  30.659  29.147  1.00  0.00     0.173 A 
ATOM     69  C   UNL A   1      36.800  32.847  29.180  1.00  0.00     0.173 A 
ATOM     70  F   UNL A   1      35.808  29.360  29.484  1.00  0.00    -0.203 F 
ATOM     71  C   UNL A   1      34.778  31.140  28.338  1.00  0.00     0.198 A 
ATOM     72  C   UNL A   1      35.756  33.331  28.394  1.00  0.00     0.198 A 
ATOM     73  F   UNL A   1      37.765  33.696  29.564  1.00  0.00    -0.203 F 
ATOM     74  F   UNL A   1      33.822  30.306  27.907  1.00  0.00    -0.200 F 
ATOM     75  C   UNL A   1      34.750  32.476  27.969  1.00  0.00     0.200 A 
ATOM     76  F   UNL A   1      35.724  34.626  28.049  1.00  0.00    -0.200 F 
ATOM     77  F   UNL A   1      33.756  32.940  27.198  1.00  0.00    -0.200 F 
ENDBRANCH  53  67
BRANCH  54  78
ATOM     78  C   UNL A   1      44.321  27.895  35.120  1.00  0.00     0.064 A 
ATOM     79  C   UNL A   1      45.563  28.545  35.161  1.00  0.00     0.173 A 
ATOM     80  C   UNL A   1      44.178  26.716  35.868  1.00  0.00     0.173 A 
ATOM     81  F   UNL A   1      45.757  29.660  34.443  1.00  0.00    -0.203 F 
ATOM     82  C   UNL A   1      46.624  28.025  35.900  1.00  0.00     0.198 A 
ATOM     83  C   UNL A   1      45.230  26.212  36.628  1.00  0.00     0.198 A 
ATOM     84  F   UNL A   1      43.012  26.053  35.861  1.00  0.00    -0.203 F 
ATOM     85  F   UNL A   1      47.815  28.639  35.878  1.00  0.00    -0.200 F 
ATOM     86  C   UNL A   1      46.456  26.862  36.636  1.00  0.00     0.200 A 
ATOM     87  F   UNL A   1      45.061  25.093  37.344  1.00  0.00    -0.200 F 
ATOM     88  F   UNL A   1      47.478  26.360  37.342  1.00  0.00    -0.200 F 
ENDBRANCH  54  78
BRANCH  66  89
ATOM     89  C   UNL A   1      38.993  32.189  36.422  1.00  0.00     0.064 A 
ATOM     90  C   UNL A   1      39.429  33.484  36.733  1.00  0.00     0.173 A 
ATOM     91  C   UNL A   1      38.080  31.576  37.295  1.00  0.00     0.173 A 
ATOM     92  F   UNL A   1      40.312  34.108  35.938  1.00  0.00    -0.203 F 
ATOM     93  C   UNL A   1      38.988  34.131  37.885  1.00  0.00     0.198 A 
ATOM     94  C   UNL A   1      37.618  32.236  38.429  1.00  0.00     0.198 A 
ATOM     95  F   UNL A   1      37.626  30.339  37.039  1.00  0.00    -0.203 F 
ATOM     96  F   UNL A   1      39.455  35.350  38.187  1.00  0.00    -0.200 F 
ATOM     97  C   UNL A   1      38.078  33.509  38.728  1.00  0.00     0.200 A 
ATOM     98  F   UNL A   1      36.729  31.639  39.235  1.00  0.00    -0.200 F 
ATOM     99  F   UNL A   1      37.651  34.135  39.833  1.00  0.00    -0.200 F 
ENDBRANCH  66  89
ENDBRANCH  40  41
ENDBRANCH  33  35
ENDBRANCH  32  33
ENDBRANCH  31  32
ENDBRANCH  30  31
ENDBRANCH  29  30
ENDBRANCH   1  29
TORSDOF 18
ENDMDL
MODEL 2
REMARK VINA RESULT:     -10.8      0.868      7.253
REMARK SMILES C=CCN1C(=O)/C(=C\c2ccco2)S/C1=[NH+]\c1cccc(C(=O)OCCOCCOC(=O)c2ccc(-c3c4nc(c(-c5c(F)c(F)c(F)c(F)c5F)c5ccc([nH]5)c(-c5c(F)c(F)c(F)c(F)c5F)c5nc(c(-c6c(F)c(F)c(F)c(F)c6F)c6ccc3[nH]6)C=C5)C=C4)cc2)c1
REMARK SMILES IDX 26 1 25 2 24 3 22 4 23 5 21 6 17 7 18 8 96 9 19 10 20 11
REMARK SMILES IDX 16 12 4 13 5 14 15 15 6 16 7 17 14 18 8 19 3 21 2 22 1 23
REMARK SMILES IDX 9 24 10 25 13 26 11 27 12 28 27 29 28 30 29 31 30 32 31 33
REMARK SMILES IDX 32 34 33 35 34 36 95 37 35 38 94 39 36 40 37 41 38 42 88 43
REMARK SMILES IDX 39 44 93 45 87 46 89 47 40 48 92 49 86 50 85 51 41 53 73 54
REMARK SMILES IDX 53 55 72 56 54 57 57 58 71 59 90 60 55 61 56 62 70 64 91 65
REMARK SMILES IDX 58 66 42 67 43 68 51 69 44 70 45 71 49 72 52 73 46 74 47 75
REMARK SMILES IDX 50 76 48 77 74 78 75 79 83 80 76 81 77 82 81 83 84 84 78 85
REMARK SMILES IDX 79 86 82 87 80 88 59 89 60 90 68 91 61 92 62 93 66 94 69 95
REMARK SMILES IDX 63 96 64 97 67 98 65 99
REMARK H PARENT 16 20 89 52 57 63
REMARK Flexibility Score: inf
ROOT
ATOM      1  C   UNL A   1      41.932  20.943  26.622  1.00  0.00     0.202 C 
ENDROOT
BRANCH   1   2
ATOM      2  C   UNL A   1      40.852  21.963  26.996  1.00  0.00     0.261 C 
BRANCH   2   3
ATOM      3  O   UNL A   1      39.669  21.759  26.206  1.00  0.00    -0.460 OA
BRANCH   3   4
ATOM      4  C   UNL A   1      38.815  22.809  26.161  1.00  0.00     0.338 C 
ATOM      5  O   UNL A   1      39.099  23.989  26.310  1.00  0.00    -0.246 OA
BRANCH   4   6
ATOM      6  C   UNL A   1      37.463  22.353  25.759  1.00  0.00     0.064 A 
ATOM      7  C   UNL A   1      35.044  22.526  25.803  1.00  0.00     0.126 A 
ATOM      8  C   UNL A   1      34.971  21.483  24.875  1.00  0.00     0.052 A 
ATOM      9  C   UNL A   1      36.298  22.906  26.298  1.00  0.00     0.067 A 
ATOM     10  C   UNL A   1      36.128  20.875  24.386  1.00  0.00     0.005 A 
ATOM     11  C   UNL A   1      37.375  21.329  24.808  1.00  0.00     0.016 A 
BRANCH   7  12
ATOM     12  N   UNL A   1      33.844  23.121  26.221  1.00  0.00    -0.234 N 
ATOM     13  N   UNL A   1      31.982  24.477  25.834  1.00  0.00    -0.182 N 
ATOM     14  C   UNL A   1      31.470  25.468  25.021  1.00  0.00     0.349 C 
ATOM     15  C   UNL A   1      33.165  23.904  25.449  1.00  0.00     0.324 C 
ATOM     16  O   UNL A   1      30.437  26.086  25.229  1.00  0.00    -0.240 OA
ATOM     17  C   UNL A   1      32.365  25.672  23.845  1.00  0.00     0.113 C 
ATOM     18  S   UNL A   1      33.556  24.421  23.820  1.00  0.00     0.007 SA
ATOM     19  C   UNL A   1      32.341  26.638  22.918  1.00  0.00     0.071 C 
ATOM     20  H   UNL A   1      33.510  22.938  27.129  1.00  0.00     0.313 HD
BRANCH  13  21
ATOM     21  C   UNL A   1      31.260  24.057  27.019  1.00  0.00     0.275 C 
BRANCH  21  22
ATOM     22  C   UNL A   1      30.354  22.916  26.637  1.00  0.00     0.011 C 
ATOM     23  C   UNL A   1      29.220  22.597  27.275  1.00  0.00     0.008 C 
ENDBRANCH  21  22
ENDBRANCH  13  21
BRANCH  19  24
ATOM     24  C   UNL A   1      31.444  27.735  22.942  1.00  0.00     0.128 A 
ATOM     25  C   UNL A   1      31.434  28.867  23.750  1.00  0.00     0.050 A 
ATOM     26  O   UNL A   1      30.411  27.857  22.044  1.00  0.00    -0.465 OA
ATOM     27  C   UNL A   1      30.333  29.664  23.363  1.00  0.00     0.042 A 
ATOM     28  C   UNL A   1      29.736  28.998  22.325  1.00  0.00     0.195 A 
ENDBRANCH  19  24
ENDBRANCH   7  12
ENDBRANCH   4   6
ENDBRANCH   3   4
ENDBRANCH   2   3
ENDBRANCH   1   2
BRANCH   1  29
ATOM     29  O   UNL A   1      42.584  21.159  25.371  1.00  0.00    -0.374 OA
BRANCH  29  30
ATOM     30  C   UNL A   1      44.004  21.003  25.343  1.00  0.00     0.202 C 
BRANCH  30  31
ATOM     31  C   UNL A   1      44.824  22.271  25.606  1.00  0.00     0.261 C 
BRANCH  31  32
ATOM     32  O   UNL A   1      44.022  23.460  25.483  1.00  0.00    -0.460 OA
BRANCH  32  33
ATOM     33  C   UNL A   1      44.718  24.619  25.502  1.00  0.00     0.338 C 
ATOM     34  O   UNL A   1      45.405  25.089  24.606  1.00  0.00    -0.246 OA
BRANCH  33  35
ATOM     35  C   UNL A   1      44.409  25.371  26.731  1.00  0.00     0.060 A 
ATOM     36  C   UNL A   1      43.517  24.787  27.639  1.00  0.00     0.016 A 
ATOM     37  C   UNL A   1      44.919  26.651  26.962  1.00  0.00     0.016 A 
ATOM     38  C   UNL A   1      43.089  25.500  28.755  1.00  0.00     0.010 A 
ATOM     39  C   UNL A   1      44.483  27.370  28.080  1.00  0.00     0.010 A 
ATOM     40  C   UNL A   1      43.539  26.811  28.961  1.00  0.00    -0.014 A 
BRANCH  40  41
ATOM     41  C   UNL A   1      42.909  27.644  30.015  1.00  0.00     0.031 A 
ATOM     42  C   UNL A   1      43.581  27.754  31.355  1.00  0.00     0.074 A 
ATOM     43  C   UNL A   1      41.776  28.324  29.768  1.00  0.00     0.049 A 
ATOM     44  N   UNL A   1      43.196  28.397  32.429  1.00  0.00    -0.248 NA
ATOM     45  C   UNL A   1      44.861  27.043  31.506  1.00  0.00     0.031 C 
ATOM     46  C   UNL A   1      41.059  28.337  28.495  1.00  0.00     0.029 A 
ATOM     47  N   UNL A   1      41.028  29.135  30.585  1.00  0.00    -0.354 N 
ATOM     48  C   UNL A   1      44.184  28.169  33.379  1.00  0.00     0.074 A 
ATOM     49  C   UNL A   1      45.167  27.300  32.769  1.00  0.00     0.031 C 
ATOM     50  C   UNL A   1      39.969  29.113  28.618  1.00  0.00     0.029 A 
ATOM     51  C   UNL A   1      39.895  29.625  29.985  1.00  0.00     0.049 A 
ATOM     52  H   UNL A   1      41.281  29.345  31.514  1.00  0.00     0.167 HD
ATOM     53  C   UNL A   1      44.270  28.652  34.642  1.00  0.00     0.037 A 
ATOM     54  C   UNL A   1      38.904  30.383  30.492  1.00  0.00     0.037 A 
ATOM     55  C   UNL A   1      43.289  29.513  35.249  1.00  0.00     0.049 A 
ATOM     56  C   UNL A   1      38.979  30.835  31.928  1.00  0.00     0.074 A 
ATOM     57  C   UNL A   1      43.283  30.053  36.522  1.00  0.00     0.029 A 
ATOM     58  N   UNL A   1      42.134  29.955  34.622  1.00  0.00    -0.354 N 
ATOM     59  N   UNL A   1      39.922  30.627  32.815  1.00  0.00    -0.248 NA
ATOM     60  C   UNL A   1      37.850  31.630  32.433  1.00  0.00     0.031 C 
ATOM     61  C   UNL A   1      42.102  30.786  36.683  1.00  0.00     0.029 A 
ATOM     62  C   UNL A   1      41.397  30.746  35.491  1.00  0.00     0.049 A 
ATOM     63  H   UNL A   1      41.874  29.740  33.697  1.00  0.00     0.167 HD
ATOM     64  C   UNL A   1      39.519  31.291  33.967  1.00  0.00     0.074 A 
ATOM     65  C   UNL A   1      38.250  31.918  33.663  1.00  0.00     0.031 C 
ATOM     66  C   UNL A   1      40.143  31.375  35.167  1.00  0.00     0.037 A 
BRANCH  53  67
ATOM     67  C   UNL A   1      45.460  28.245  35.460  1.00  0.00     0.064 A 
ATOM     68  C   UNL A   1      46.681  28.928  35.369  1.00  0.00     0.173 A 
ATOM     69  C   UNL A   1      45.366  27.184  36.373  1.00  0.00     0.173 A 
ATOM     70  F   UNL A   1      46.827  29.940  34.501  1.00  0.00    -0.203 F 
ATOM     71  C   UNL A   1      47.774  28.549  36.147  1.00  0.00     0.198 A 
ATOM     72  C   UNL A   1      46.452  26.826  37.168  1.00  0.00     0.198 A 
ATOM     73  F   UNL A   1      44.219  26.500  36.501  1.00  0.00    -0.203 F 
ATOM     74  F   UNL A   1      48.944  29.189  36.012  1.00  0.00    -0.200 F 
ATOM     75  C   UNL A   1      47.656  27.504  37.050  1.00  0.00     0.200 A 
ATOM     76  F   UNL A   1      46.333  25.823  38.050  1.00  0.00    -0.200 F 
ATOM     77  F   UNL A   1      48.705  27.146  37.804  1.00  0.00    -0.200 F 
ENDBRANCH  53  67
BRANCH  54  78
ATOM     78  C   UNL A   1      37.744  30.761  29.643  1.00  0.00     0.064 A 
ATOM     79  C   UNL A   1      36.742  29.831  29.331  1.00  0.00     0.173 A 
ATOM     80  C   UNL A   1      37.631  32.048  29.096  1.00  0.00     0.173 A 
ATOM     81  F   UNL A   1      36.819  28.580  29.808  1.00  0.00    -0.203 F 
ATOM     82  C   UNL A   1      35.685  30.166  28.487  1.00  0.00     0.198 A 
ATOM     83  C   UNL A   1      36.560  32.391  28.275  1.00  0.00     0.198 A 
ATOM     84  F   UNL A   1      38.564  32.975  29.361  1.00  0.00    -0.203 F 
ATOM     85  F   UNL A   1      34.771  29.241  28.163  1.00  0.00    -0.200 F 
ATOM     86  C   UNL A   1      35.593  31.447  27.963  1.00  0.00     0.200 A 
ATOM     87  F   UNL A   1      36.470  33.631  27.777  1.00  0.00    -0.200 F 
ATOM     88  F   UNL A   1      34.579  31.768  27.148  1.00  0.00    -0.200 F 
ENDBRANCH  54  78
BRANCH  66  89
ATOM     89  C   UNL A   1      39.488  32.211  36.230  1.00  0.00     0.064 A 
ATOM     90  C   UNL A   1      38.444  31.713  37.021  1.00  0.00     0.173 A 
ATOM     91  C   UNL A   1      39.940  33.516  36.484  1.00  0.00     0.173 A 
ATOM     92  F   UNL A   1      37.965  30.477  36.808  1.00  0.00    -0.203 F 
ATOM     93  C   UNL A   1      37.858  32.499  38.012  1.00  0.00     0.198 A 
ATOM     94  C   UNL A   1      39.374  34.287  37.494  1.00  0.00     0.198 A 
ATOM     95  F   UNL A   1      40.942  34.037  35.759  1.00  0.00    -0.203 F 
ATOM     96  F   UNL A   1      36.829  32.018  38.724  1.00  0.00    -0.200 F 
ATOM     97  C   UNL A   1      38.328  33.781  38.252  1.00  0.00     0.200 A 
ATOM     98  F   UNL A   1      39.838  35.521  37.733  1.00  0.00    -0.200 F 
ATOM     99  F   UNL A   1      37.768  34.533  39.209  1.00  0.00    -0.200 F 
ENDBRANCH  66  89
ENDBRANCH  40  41
ENDBRANCH  33  35
ENDBRANCH  32  33
ENDBRANCH  31  32
ENDBRANCH  30  31
ENDBRANCH  29  30
ENDBRANCH   1  29
TORSDOF 18
ENDMDL
MODEL 3
REMARK VINA RESULT:     -10.6      2.661      8.673
REMARK SMILES C=CCN1C(=O)/C(=C\c2ccco2)S/C1=[NH+]\c1cccc(C(=O)OCCOCCOC(=O)c2ccc(-c3c4nc(c(-c5c(F)c(F)c(F)c(F)c5F)c5ccc([nH]5)c(-c5c(F)c(F)c(F)c(F)c5F)c5nc(c(-c6c(F)c(F)c(F)c(F)c6F)c6ccc3[nH]6)C=C5)C=C4)cc2)c1
REMARK SMILES IDX 26 1 25 2 24 3 22 4 23 5 21 6 17 7 18 8 96 9 19 10 20 11
REMARK SMILES IDX 16 12 4 13 5 14 15 15 6 16 7 17 14 18 8 19 3 21 2 22 1 23
REMARK SMILES IDX 9 24 10 25 13 26 11 27 12 28 27 29 28 30 29 31 30 32 31 33
REMARK SMILES IDX 32 34 33 35 34 36 95 37 35 38 94 39 36 40 37 41 38 42 88 43
REMARK SMILES IDX 39 44 93 45 87 46 89 47 40 48 92 49 86 50 85 51 41 53 73 54
REMARK SMILES IDX 53 55 72 56 54 57 57 58 71 59 90 60 55 61 56 62 70 64 91 65
REMARK SMILES IDX 58 66 42 67 43 68 51 69 44 70 45 71 49 72 52 73 46 74 47 75
REMARK SMILES IDX 50 76 48 77 74 78 75 79 83 80 76 81 77 82 81 83 84 84 78 85
REMARK SMILES IDX 79 86 82 87 80 88 59 89 60 90 68 91 61 92 62 93 66 94 69 95
REMARK SMILES IDX 63 96 64 97 67 98 65 99
REMARK H PARENT 16 20 89 52 57 63
REMARK Flexibility Score: inf
ROOT
ATOM      1  C   UNL A   1      31.966  29.062  26.156  1.00  0.00     0.202 C 
ENDROOT
BRANCH   1   2
ATOM      2  C   UNL A   1      31.792  28.992  24.636  1.00  0.00     0.261 C 
BRANCH   2   3
ATOM      3  O   UNL A   1      30.657  28.179  24.294  1.00  0.00    -0.460 OA
BRANCH   3   4
ATOM      4  C   UNL A   1      30.507  27.919  22.973  1.00  0.00     0.338 C 
ATOM      5  O   UNL A   1      29.897  28.599  22.160  1.00  0.00    -0.246 OA
BRANCH   4   6
ATOM      6  C   UNL A   1      31.317  26.739  22.588  1.00  0.00     0.064 A 
ATOM      7  C   UNL A   1      32.298  24.571  23.056  1.00  0.00     0.126 A 
ATOM      8  C   UNL A   1      32.776  24.525  21.743  1.00  0.00     0.052 A 
ATOM      9  C   UNL A   1      31.630  25.721  23.494  1.00  0.00     0.067 A 
ATOM     10  C   UNL A   1      32.530  25.571  20.853  1.00  0.00     0.005 A 
ATOM     11  C   UNL A   1      31.777  26.666  21.268  1.00  0.00     0.016 A 
BRANCH   7  12
ATOM     12  N   UNL A   1      32.544  23.467  23.886  1.00  0.00    -0.234 N 
ATOM     13  N   UNL A   1      33.943  22.214  25.275  1.00  0.00    -0.182 N 
ATOM     14  C   UNL A   1      35.259  21.988  25.625  1.00  0.00     0.349 C 
ATOM     15  C   UNL A   1      33.694  23.276  24.446  1.00  0.00     0.324 C 
ATOM     16  O   UNL A   1      35.651  21.079  26.341  1.00  0.00    -0.240 OA
ATOM     17  C   UNL A   1      36.136  23.021  25.000  1.00  0.00     0.113 C 
ATOM     18  S   UNL A   1      35.145  24.246  24.292  1.00  0.00     0.007 SA
ATOM     19  C   UNL A   1      37.472  23.071  24.933  1.00  0.00     0.071 C 
ATOM     20  H   UNL A   1      31.820  22.819  24.046  1.00  0.00     0.313 HD
BRANCH  13  21
ATOM     21  C   UNL A   1      32.889  21.372  25.804  1.00  0.00     0.275 C 
BRANCH  21  22
ATOM     22  C   UNL A   1      32.870  20.091  25.010  1.00  0.00     0.011 C 
ATOM     23  C   UNL A   1      32.526  20.001  23.719  1.00  0.00     0.008 C 
ENDBRANCH  21  22
ENDBRANCH  13  21
BRANCH  19  24
ATOM     24  C   UNL A   1      38.328  22.050  25.417  1.00  0.00     0.128 A 
ATOM     25  C   UNL A   1      39.338  22.105  26.371  1.00  0.00     0.050 A 
ATOM     26  O   UNL A   1      38.214  20.743  25.008  1.00  0.00    -0.465 OA
ATOM     27  C   UNL A   1      39.883  20.807  26.499  1.00  0.00     0.042 A 
ATOM     28  C   UNL A   1      39.168  20.016  25.639  1.00  0.00     0.195 A 
ENDBRANCH  19  24
ENDBRANCH   7  12
ENDBRANCH   4   6
ENDBRANCH   3   4
ENDBRANCH   2   3
ENDBRANCH   1   2
BRANCH   1  29
ATOM     29  O   UNL A   1      31.604  30.301  26.766  1.00  0.00    -0.374 OA
BRANCH  29  30
ATOM     30  C   UNL A   1      32.654  31.241  27.001  1.00  0.00     0.202 C 
BRANCH  30  31
ATOM     31  C   UNL A   1      32.217  32.685  27.265  1.00  0.00     0.261 C 
BRANCH  31  32
ATOM     32  O   UNL A   1      33.341  33.581  27.320  1.00  0.00    -0.460 OA
BRANCH  32  33
ATOM     33  C   UNL A   1      33.342  34.428  28.374  1.00  0.00     0.338 C 
ATOM     34  O   UNL A   1      32.527  35.306  28.624  1.00  0.00    -0.246 OA
BRANCH  33  35
ATOM     35  C   UNL A   1      34.402  34.047  29.325  1.00  0.00     0.060 A 
ATOM     36  C   UNL A   1      35.717  34.401  29.002  1.00  0.00     0.016 A 
ATOM     37  C   UNL A   1      34.129  33.298  30.473  1.00  0.00     0.016 A 
ATOM     38  C   UNL A   1      36.774  33.962  29.795  1.00  0.00     0.010 A 
ATOM     39  C   UNL A   1      35.193  32.851  31.265  1.00  0.00     0.010 A 
ATOM     40  C   UNL A   1      36.521  33.151  30.909  1.00  0.00    -0.014 A 
BRANCH  40  41
ATOM     41  C   UNL A   1      37.652  32.499  31.613  1.00  0.00     0.031 A 
ATOM     42  C   UNL A   1      38.325  31.317  30.972  1.00  0.00     0.074 A 
ATOM     43  C   UNL A   1      38.099  32.978  32.787  1.00  0.00     0.049 A 
ATOM     44  N   UNL A   1      39.307  30.576  31.419  1.00  0.00    -0.248 NA
ATOM     45  C   UNL A   1      37.822  30.916  29.649  1.00  0.00     0.031 C 
ATOM     46  C   UNL A   1      37.563  34.145  33.482  1.00  0.00     0.029 A 
ATOM     47  N   UNL A   1      39.110  32.534  33.603  1.00  0.00    -0.354 N 
ATOM     48  C   UNL A   1      39.540  29.624  30.433  1.00  0.00     0.074 A 
ATOM     49  C   UNL A   1      38.574  29.859  29.381  1.00  0.00     0.031 C 
ATOM     50  C   UNL A   1      38.246  34.322  34.626  1.00  0.00     0.029 A 
ATOM     51  C   UNL A   1      39.244  33.263  34.758  1.00  0.00     0.049 A 
ATOM     52  H   UNL A   1      39.684  31.765  33.381  1.00  0.00     0.167 HD
ATOM     53  C   UNL A   1      40.483  28.653  30.402  1.00  0.00     0.037 A 
ATOM     54  C   UNL A   1      40.068  33.081  35.808  1.00  0.00     0.037 A 
ATOM     55  C   UNL A   1      41.441  28.419  31.450  1.00  0.00     0.049 A 
ATOM     56  C   UNL A   1      41.049  31.938  35.788  1.00  0.00     0.074 A 
ATOM     57  C   UNL A   1      42.434  27.458  31.515  1.00  0.00     0.029 A 
ATOM     58  N   UNL A   1      41.520  29.154  32.624  1.00  0.00    -0.354 N 
ATOM     59  N   UNL A   1      41.273  31.052  34.847  1.00  0.00    -0.248 NA
ATOM     60  C   UNL A   1      41.896  31.770  36.978  1.00  0.00     0.031 C 
ATOM     61  C   UNL A   1      43.085  27.582  32.747  1.00  0.00     0.029 A 
ATOM     62  C   UNL A   1      42.532  28.655  33.428  1.00  0.00     0.049 A 
ATOM     63  H   UNL A   1      40.942  29.918  32.852  1.00  0.00     0.167 HD
ATOM     64  C   UNL A   1      42.304  30.247  35.314  1.00  0.00     0.074 A 
ATOM     65  C   UNL A   1      42.670  30.756  36.620  1.00  0.00     0.031 C 
ATOM     66  C   UNL A   1      42.895  29.183  34.718  1.00  0.00     0.037 A 
BRANCH  53  67
ATOM     67  C   UNL A   1      40.514  27.756  29.200  1.00  0.00     0.064 A 
ATOM     68  C   UNL A   1      39.668  26.642  29.092  1.00  0.00     0.173 A 
ATOM     69  C   UNL A   1      41.373  28.034  28.126  1.00  0.00     0.173 A 
ATOM     70  F   UNL A   1      38.838  26.324  30.097  1.00  0.00    -0.203 F 
ATOM     71  C   UNL A   1      39.696  25.828  27.962  1.00  0.00     0.198 A 
ATOM     72  C   UNL A   1      41.379  27.233  26.987  1.00  0.00     0.198 A 
ATOM     73  F   UNL A   1      42.200  29.089  28.178  1.00  0.00    -0.203 F 
ATOM     74  F   UNL A   1      38.908  24.745  27.900  1.00  0.00    -0.200 F 
ATOM     75  C   UNL A   1      40.545  26.128  26.908  1.00  0.00     0.200 A 
ATOM     76  F   UNL A   1      42.192  27.532  25.964  1.00  0.00    -0.200 F 
ATOM     77  F   UNL A   1      40.565  25.348  25.818  1.00  0.00    -0.200 F 
ENDBRANCH  53  67
BRANCH  54  78
ATOM     78  C   UNL A   1      40.000  33.996  36.978  1.00  0.00     0.064 A 
ATOM     79  C   UNL A   1      39.136  33.736  38.051  1.00  0.00     0.173 A 
ATOM     80  C   UNL A   1      40.770  35.168  37.031  1.00  0.00     0.173 A 
ATOM     81  F   UNL A   1      38.361  32.642  38.034  1.00  0.00    -0.203 F 
ATOM     82  C   UNL A   1      39.028  34.623  39.120  1.00  0.00     0.198 A 
ATOM     83  C   UNL A   1      40.682  36.040  38.113  1.00  0.00     0.198 A 
ATOM     84  F   UNL A   1      41.610  35.466  36.028  1.00  0.00    -0.203 F 
ATOM     85  F   UNL A   1      38.155  34.375  40.106  1.00  0.00    -0.200 F 
ATOM     86  C   UNL A   1      39.804  35.771  39.152  1.00  0.00     0.200 A 
ATOM     87  F   UNL A   1      41.439  37.145  38.144  1.00  0.00    -0.200 F 
ATOM     88  F   UNL A   1      39.696  36.627  40.178  1.00  0.00    -0.200 F 
ENDBRANCH  54  78
BRANCH  66  89
ATOM     89  C   UNL A   1      44.030  28.524  35.447  1.00  0.00     0.064 A 
ATOM     90  C   UNL A   1      45.361  28.921  35.256  1.00  0.00     0.173 A 
ATOM     91  C   UNL A   1      43.776  27.507  36.382  1.00  0.00     0.173 A 
ATOM     92  F   UNL A   1      45.657  29.878  34.363  1.00  0.00    -0.203 F 
ATOM     93  C   UNL A   1      46.399  28.307  35.953  1.00  0.00     0.198 A 
ATOM     94  C   UNL A   1      44.812  26.916  37.098  1.00  0.00     0.198 A 
ATOM     95  F   UNL A   1      42.519  27.095  36.608  1.00  0.00    -0.203 F 
ATOM     96  F   UNL A   1      47.667  28.670  35.717  1.00  0.00    -0.200 F 
ATOM     97  C   UNL A   1      46.123  27.311  36.878  1.00  0.00     0.200 A 
ATOM     98  F   UNL A   1      44.543  25.964  38.002  1.00  0.00    -0.200 F 
ATOM     99  F   UNL A   1      47.123  26.726  37.552  1.00  0.00    -0.200 F 
ENDBRANCH  66  89
ENDBRANCH  40  41
ENDBRANCH  33  35
ENDBRANCH  32  33
ENDBRANCH  31  32
ENDBRANCH  30  31
ENDBRANCH  29  30
ENDBRANCH   1  29
TORSDOF 18
ENDMDL
