MODEL 1
REMARK VINA RESULT:     -11.3      0.000      0.000
REMARK SMILES COC(=O)c1ccccc1-c1ccc(/C=C(\C#N)C(=O)OCCOCCOC(=O)c2ccc(-c3c4nc(c(-c5c(F)c(F)c(F)c(F)c5F)c5ccc([nH]5)c(-c5c(F)c(F)c(F)c(F)c5F)c5nc(c(-c6c(F)c(F)c(F)c(F)c6F)c6ccc3[nH]6)C=C5)C=C4)cc2)o1
REMARK SMILES IDX 23 1 22 2 21 3 19 4 20 5 16 6 15 7 14 8 11 9 12 10 93 11
REMARK SMILES IDX 13 12 10 13 5 14 6 15 7 16 9 17 8 18 3 19 4 20 2 21 1 22
REMARK SMILES IDX 17 23 18 24 24 25 25 26 26 27 27 28 28 29 29 30 30 31 31 32
REMARK SMILES IDX 92 33 32 34 91 35 33 36 34 37 35 38 85 39 36 40 90 41 84 42
REMARK SMILES IDX 86 43 37 44 89 45 83 46 82 47 38 49 70 50 50 51 69 52 51 53
REMARK SMILES IDX 54 54 68 55 87 56 52 57 53 58 67 60 88 61 55 62 39 63 40 64
REMARK SMILES IDX 48 65 41 66 42 67 46 68 49 69 43 70 44 71 47 72 45 73 71 74
REMARK SMILES IDX 72 75 80 76 73 77 74 78 78 79 81 80 75 81 76 82 79 83 77 84
REMARK SMILES IDX 56 85 57 86 65 87 58 88 59 89 63 90 66 91 60 92 61 93 64 94
REMARK SMILES IDX 62 95
REMARK H PARENT 86 48 54 59
REMARK Flexibility Score: inf
ROOT
ATOM      1  C   UNL A   1      40.230  21.470  26.787  1.00  0.00     0.202 C 
ENDROOT
BRANCH   1   2
ATOM      2  C   UNL A   1      39.207  22.221  25.932  1.00  0.00     0.261 C 
BRANCH   2   3
ATOM      3  O   UNL A   1      37.880  21.698  26.106  1.00  0.00    -0.459 OA
BRANCH   3   4
ATOM      4  C   UNL A   1      37.471  20.904  25.090  1.00  0.00     0.349 C 
ATOM      5  O   UNL A   1      38.024  19.877  24.718  1.00  0.00    -0.245 OA
BRANCH   4   6
ATOM      6  C   UNL A   1      36.175  21.349  24.542  1.00  0.00     0.141 C 
ATOM      7  C   UNL A   1      36.212  22.607  24.050  1.00  0.00     0.074 C 
BRANCH   7   8
ATOM      8  C   UNL A   1      35.084  23.475  23.945  1.00  0.00     0.129 A 
ATOM      9  C   UNL A   1      33.648  25.111  24.412  1.00  0.00     0.135 A 
ATOM     10  C   UNL A   1      33.308  24.657  23.160  1.00  0.00     0.051 A 
ATOM     11  O   UNL A   1      34.712  24.408  24.885  1.00  0.00    -0.457 OA
ATOM     12  C   UNL A   1      34.213  23.609  22.867  1.00  0.00     0.051 A 
BRANCH   9  13
ATOM     13  C   UNL A   1      33.100  26.120  25.304  1.00  0.00     0.032 A 
ATOM     14  C   UNL A   1      31.941  25.901  26.072  1.00  0.00     0.071 A 
ATOM     15  C   UNL A   1      31.389  26.939  26.840  1.00  0.00     0.016 A 
ATOM     16  C   UNL A   1      32.000  28.192  26.868  1.00  0.00     0.001 A 
ATOM     17  C   UNL A   1      33.709  27.385  25.357  1.00  0.00     0.013 A 
ATOM     18  C   UNL A   1      33.161  28.414  26.130  1.00  0.00     0.001 A 
BRANCH  14  19
ATOM     19  C   UNL A   1      31.227  24.605  26.089  1.00  0.00     0.338 C 
ATOM     20  O   UNL A   1      30.552  24.196  25.154  1.00  0.00    -0.246 OA
BRANCH  19  21
ATOM     21  O   UNL A   1      31.405  23.989  27.280  1.00  0.00    -0.465 OA
ATOM     22  C   UNL A   1      32.395  22.962  27.271  1.00  0.00     0.282 C 
ENDBRANCH  19  21
ENDBRANCH  14  19
ENDBRANCH   9  13
ENDBRANCH   7   8
BRANCH   6  23
ATOM     23  C   UNL A   1      34.881  20.725  25.038  1.00  0.00     0.107 C 
ATOM     24  N   UNL A   1      33.808  20.207  25.450  1.00  0.00    -0.192 NA
ENDBRANCH   6  23
ENDBRANCH   4   6
ENDBRANCH   3   4
ENDBRANCH   2   3
ENDBRANCH   1   2
BRANCH   1  25
ATOM     25  O   UNL A   1      41.275  20.770  26.119  1.00  0.00    -0.374 OA
BRANCH  25  26
ATOM     26  C   UNL A   1      42.631  21.102  26.407  1.00  0.00     0.202 C 
BRANCH  26  27
ATOM     27  C   UNL A   1      43.426  21.935  25.395  1.00  0.00     0.261 C 
BRANCH  27  28
ATOM     28  O   UNL A   1      42.755  23.141  24.996  1.00  0.00    -0.460 OA
BRANCH  28  29
ATOM     29  C   UNL A   1      43.500  24.265  25.128  1.00  0.00     0.338 C 
ATOM     30  O   UNL A   1      44.480  24.590  24.471  1.00  0.00    -0.246 OA
BRANCH  29  31
ATOM     31  C   UNL A   1      42.859  25.187  26.078  1.00  0.00     0.060 A 
ATOM     32  C   UNL A   1      43.416  26.465  26.220  1.00  0.00     0.016 A 
ATOM     33  C   UNL A   1      41.788  24.783  26.876  1.00  0.00     0.016 A 
ATOM     34  C   UNL A   1      42.920  27.338  27.183  1.00  0.00     0.010 A 
ATOM     35  C   UNL A   1      41.305  25.653  27.858  1.00  0.00     0.010 A 
ATOM     36  C   UNL A   1      41.887  26.922  28.032  1.00  0.00    -0.014 A 
BRANCH  36  37
ATOM     37  C   UNL A   1      41.508  27.767  29.187  1.00  0.00     0.031 A 
ATOM     38  C   UNL A   1      42.298  27.656  30.459  1.00  0.00     0.074 A 
ATOM     39  C   UNL A   1      40.491  28.637  29.091  1.00  0.00     0.049 A 
ATOM     40  N   UNL A   1      42.123  28.271  31.601  1.00  0.00    -0.248 NA
ATOM     41  C   UNL A   1      43.441  26.730  30.441  1.00  0.00     0.031 C 
ATOM     42  C   UNL A   1      39.687  28.867  27.893  1.00  0.00     0.029 A 
ATOM     43  N   UNL A   1      39.958  29.489  30.025  1.00  0.00    -0.354 N 
ATOM     44  C   UNL A   1      43.133  27.810  32.434  1.00  0.00     0.074 A 
ATOM     45  C   UNL A   1      43.900  26.844  31.678  1.00  0.00     0.031 C 
ATOM     46  C   UNL A   1      38.752  29.791  28.167  1.00  0.00     0.029 A 
ATOM     47  C   UNL A   1      38.873  30.192  29.568  1.00  0.00     0.049 A 
ATOM     48  H   UNL A   1      40.319  29.585  30.936  1.00  0.00     0.167 HD
ATOM     49  C   UNL A   1      43.399  28.167  33.713  1.00  0.00     0.037 A 
ATOM     50  C   UNL A   1      38.056  31.043  30.217  1.00  0.00     0.037 A 
ATOM     51  C   UNL A   1      42.626  29.120  34.465  1.00  0.00     0.049 A 
ATOM     52  C   UNL A   1      38.308  31.342  31.672  1.00  0.00     0.074 A 
ATOM     53  C   UNL A   1      42.827  29.567  35.759  1.00  0.00     0.029 A 
ATOM     54  N   UNL A   1      41.492  29.762  33.991  1.00  0.00    -0.354 N 
ATOM     55  N   UNL A   1      39.278  30.922  32.448  1.00  0.00    -0.248 NA
ATOM     56  C   UNL A   1      37.345  32.227  32.342  1.00  0.00     0.031 C 
ATOM     57  C   UNL A   1      41.784  30.443  36.084  1.00  0.00     0.029 A 
ATOM     58  C   UNL A   1      40.960  30.575  34.978  1.00  0.00     0.049 A 
ATOM     59  H   UNL A   1      41.119  29.656  33.085  1.00  0.00     0.167 HD
ATOM     60  C   UNL A   1      39.053  31.502  33.689  1.00  0.00     0.074 A 
ATOM     61  C   UNL A   1      37.862  32.317  33.560  1.00  0.00     0.031 C 
ATOM     62  C   UNL A   1      39.769  31.373  34.834  1.00  0.00     0.037 A 
BRANCH  49  63
ATOM     63  C   UNL A   1      44.561  27.499  34.385  1.00  0.00     0.064 A 
ATOM     64  C   UNL A   1      44.410  26.290  35.080  1.00  0.00     0.173 A 
ATOM     65  C   UNL A   1      45.842  28.066  34.320  1.00  0.00     0.173 A 
ATOM     66  F   UNL A   1      43.202  25.716  35.184  1.00  0.00    -0.203 F 
ATOM     67  C   UNL A   1      45.497  25.687  35.709  1.00  0.00     0.198 A 
ATOM     68  C   UNL A   1      46.930  27.447  34.928  1.00  0.00     0.198 A 
ATOM     69  F   UNL A   1      46.038  29.220  33.665  1.00  0.00    -0.203 F 
ATOM     70  F   UNL A   1      45.323  24.555  36.406  1.00  0.00    -0.200 F 
ATOM     71  C   UNL A   1      46.757  26.263  35.627  1.00  0.00     0.200 A 
ATOM     72  F   UNL A   1      48.148  28.001  34.842  1.00  0.00    -0.200 F 
ATOM     73  F   UNL A   1      47.801  25.680  36.232  1.00  0.00    -0.200 F 
ENDBRANCH  49  63
BRANCH  50  74
ATOM     74  C   UNL A   1      36.910  31.660  29.502  1.00  0.00     0.064 A 
ATOM     75  C   UNL A   1      36.912  33.023  29.178  1.00  0.00     0.173 A 
ATOM     76  C   UNL A   1      35.790  30.901  29.135  1.00  0.00     0.173 A 
ATOM     77  F   UNL A   1      37.950  33.794  29.534  1.00  0.00    -0.203 F 
ATOM     78  C   UNL A   1      35.832  33.605  28.520  1.00  0.00     0.198 A 
ATOM     79  C   UNL A   1      34.721  31.480  28.455  1.00  0.00     0.198 A 
ATOM     80  F   UNL A   1      35.738  29.594  29.428  1.00  0.00    -0.203 F 
ATOM     81  F   UNL A   1      35.842  34.919  28.253  1.00  0.00    -0.200 F 
ATOM     82  C   UNL A   1      34.740  32.833  28.154  1.00  0.00     0.200 A 
ATOM     83  F   UNL A   1      33.671  30.728  28.096  1.00  0.00    -0.200 F 
ATOM     84  F   UNL A   1      33.703  33.394  27.516  1.00  0.00    -0.200 F 
ENDBRANCH  50  74
BRANCH  62  85
ATOM     85  C   UNL A   1      39.291  32.137  36.034  1.00  0.00     0.064 A 
ATOM     86  C   UNL A   1      39.751  33.434  36.305  1.00  0.00     0.173 A 
ATOM     87  C   UNL A   1      38.330  31.585  36.893  1.00  0.00     0.173 A 
ATOM     88  F   UNL A   1      40.683  33.997  35.521  1.00  0.00    -0.203 F 
ATOM     89  C   UNL A   1      39.278  34.143  37.405  1.00  0.00     0.198 A 
ATOM     90  C   UNL A   1      37.841  32.307  37.978  1.00  0.00     0.198 A 
ATOM     91  F   UNL A   1      37.856  30.349  36.674  1.00  0.00    -0.203 F 
ATOM     92  F   UNL A   1      39.759  35.366  37.669  1.00  0.00    -0.200 F 
ATOM     93  C   UNL A   1      38.318  33.583  38.236  1.00  0.00     0.200 A 
ATOM     94  F   UNL A   1      36.905  31.769  38.773  1.00  0.00    -0.200 F 
ATOM     95  F   UNL A   1      37.858  34.272  39.289  1.00  0.00    -0.200 F 
ENDBRANCH  62  85
ENDBRANCH  36  37
ENDBRANCH  29  31
ENDBRANCH  28  29
ENDBRANCH  27  28
ENDBRANCH  26  27
ENDBRANCH  25  26
ENDBRANCH   1  25
TORSDOF 19
ENDMDL
MODEL 2
REMARK VINA RESULT:     -10.9      4.085      9.149
REMARK SMILES COC(=O)c1ccccc1-c1ccc(/C=C(\C#N)C(=O)OCCOCCOC(=O)c2ccc(-c3c4nc(c(-c5c(F)c(F)c(F)c(F)c5F)c5ccc([nH]5)c(-c5c(F)c(F)c(F)c(F)c5F)c5nc(c(-c6c(F)c(F)c(F)c(F)c6F)c6ccc3[nH]6)C=C5)C=C4)cc2)o1
REMARK SMILES IDX 23 1 22 2 21 3 19 4 20 5 16 6 15 7 14 8 11 9 12 10 93 11
REMARK SMILES IDX 13 12 10 13 5 14 6 15 7 16 9 17 8 18 3 19 4 20 2 21 1 22
REMARK SMILES IDX 17 23 18 24 24 25 25 26 26 27 27 28 28 29 29 30 30 31 31 32
REMARK SMILES IDX 92 33 32 34 91 35 33 36 34 37 35 38 85 39 36 40 90 41 84 42
REMARK SMILES IDX 86 43 37 44 89 45 83 46 82 47 38 49 70 50 50 51 69 52 51 53
REMARK SMILES IDX 54 54 68 55 87 56 52 57 53 58 67 60 88 61 55 62 39 63 40 64
REMARK SMILES IDX 48 65 41 66 42 67 46 68 49 69 43 70 44 71 47 72 45 73 71 74
REMARK SMILES IDX 72 75 80 76 73 77 74 78 78 79 81 80 75 81 76 82 79 83 77 84
REMARK SMILES IDX 56 85 57 86 65 87 58 88 59 89 63 90 66 91 60 92 61 93 64 94
REMARK SMILES IDX 62 95
REMARK H PARENT 86 48 54 59
REMARK Flexibility Score: inf
ROOT
ATOM      1  C   UNL A   1      35.121  32.901  27.988  1.00  0.00     0.202 C 
ENDROOT
BRANCH   1   2
ATOM      2  C   UNL A   1      34.102  31.787  28.240  1.00  0.00     0.261 C 
BRANCH   2   3
ATOM      3  O   UNL A   1      33.974  30.917  27.103  1.00  0.00    -0.459 OA
BRANCH   3   4
ATOM      4  C   UNL A   1      34.492  29.683  27.303  1.00  0.00     0.349 C 
ATOM      5  O   UNL A   1      35.468  29.421  27.995  1.00  0.00    -0.245 OA
BRANCH   4   6
ATOM      6  C   UNL A   1      33.654  28.636  26.688  1.00  0.00     0.141 C 
ATOM      7  C   UNL A   1      33.812  28.551  25.348  1.00  0.00     0.074 C 
BRANCH   7   8
ATOM      8  C   UNL A   1      32.830  28.051  24.442  1.00  0.00     0.129 A 
ATOM      9  C   UNL A   1      30.852  27.684  23.487  1.00  0.00     0.135 A 
ATOM     10  C   UNL A   1      31.790  27.176  22.619  1.00  0.00     0.051 A 
ATOM     11  O   UNL A   1      31.470  28.211  24.577  1.00  0.00    -0.457 OA
ATOM     12  C   UNL A   1      33.046  27.399  23.231  1.00  0.00     0.051 A 
BRANCH   9  13
ATOM     13  C   UNL A   1      29.399  27.736  23.487  1.00  0.00     0.032 A 
ATOM     14  C   UNL A   1      28.683  28.853  23.014  1.00  0.00     0.071 A 
ATOM     15  C   UNL A   1      27.284  28.902  23.130  1.00  0.00     0.016 A 
ATOM     16  C   UNL A   1      26.588  27.832  23.691  1.00  0.00     0.001 A 
ATOM     17  C   UNL A   1      28.678  26.662  24.036  1.00  0.00     0.013 A 
ATOM     18  C   UNL A   1      27.285  26.712  24.140  1.00  0.00     0.001 A 
BRANCH  14  19
ATOM     19  C   UNL A   1      29.347  30.032  22.415  1.00  0.00     0.338 C 
ATOM     20  O   UNL A   1      29.717  30.076  21.250  1.00  0.00    -0.246 OA
BRANCH  19  21
ATOM     21  O   UNL A   1      29.506  31.001  23.345  1.00  0.00    -0.465 OA
ATOM     22  C   UNL A   1      28.469  31.979  23.362  1.00  0.00     0.282 C 
ENDBRANCH  19  21
ENDBRANCH  14  19
ENDBRANCH   9  13
ENDBRANCH   7   8
BRANCH   6  23
ATOM     23  C   UNL A   1      32.374  28.183  27.370  1.00  0.00     0.107 C 
ATOM     24  N   UNL A   1      31.312  27.805  27.936  1.00  0.00    -0.192 NA
ENDBRANCH   6  23
ENDBRANCH   4   6
ENDBRANCH   3   4
ENDBRANCH   2   3
ENDBRANCH   1   2
BRANCH   1  25
ATOM     25  O   UNL A   1      34.629  34.220  27.770  1.00  0.00    -0.374 OA
BRANCH  25  26
ATOM     26  C   UNL A   1      33.288  34.533  28.137  1.00  0.00     0.202 C 
BRANCH  26  27
ATOM     27  C   UNL A   1      33.040  35.557  29.251  1.00  0.00     0.261 C 
BRANCH  27  28
ATOM     28  O   UNL A   1      32.443  34.988  30.427  1.00  0.00    -0.460 OA
BRANCH  28  29
ATOM     29  C   UNL A   1      32.762  35.625  31.579  1.00  0.00     0.338 C 
ATOM     30  O   UNL A   1      32.136  36.520  32.132  1.00  0.00    -0.246 OA
BRANCH  29  31
ATOM     31  C   UNL A   1      33.906  34.963  32.224  1.00  0.00     0.060 A 
ATOM     32  C   UNL A   1      35.160  35.578  32.113  1.00  0.00     0.016 A 
ATOM     33  C   UNL A   1      33.773  33.723  32.850  1.00  0.00     0.016 A 
ATOM     34  C   UNL A   1      36.295  34.941  32.605  1.00  0.00     0.010 A 
ATOM     35  C   UNL A   1      34.916  33.075  33.325  1.00  0.00     0.010 A 
ATOM     36  C   UNL A   1      36.183  33.670  33.180  1.00  0.00    -0.014 A 
BRANCH  36  37
ATOM     37  C   UNL A   1      37.410  32.908  33.507  1.00  0.00     0.031 A 
ATOM     38  C   UNL A   1      38.123  33.195  34.797  1.00  0.00     0.074 A 
ATOM     39  C   UNL A   1      37.863  31.956  32.676  1.00  0.00     0.049 A 
ATOM     40  N   UNL A   1      39.227  32.675  35.269  1.00  0.00    -0.248 NA
ATOM     41  C   UNL A   1      37.505  34.200  35.676  1.00  0.00     0.031 C 
ATOM     42  C   UNL A   1      37.227  31.557  31.423  1.00  0.00     0.029 A 
ATOM     43  N   UNL A   1      38.974  31.155  32.763  1.00  0.00    -0.354 N 
ATOM     44  C   UNL A   1      39.435  33.286  36.497  1.00  0.00     0.074 A 
ATOM     45  C   UNL A   1      38.359  34.236  36.687  1.00  0.00     0.031 C 
ATOM     46  C   UNL A   1      37.965  30.592  30.849  1.00  0.00     0.029 A 
ATOM     47  C   UNL A   1      39.140  30.332  31.678  1.00  0.00     0.049 A 
ATOM     48  H   UNL A   1      39.592  31.171  33.529  1.00  0.00     0.167 HD
ATOM     49  C   UNL A   1      40.431  33.069  37.389  1.00  0.00     0.037 A 
ATOM     50  C   UNL A   1      40.142  29.483  31.381  1.00  0.00     0.037 A 
ATOM     51  C   UNL A   1      41.505  32.133  37.191  1.00  0.00     0.049 A 
ATOM     52  C   UNL A   1      41.296  29.339  32.340  1.00  0.00     0.074 A 
ATOM     53  C   UNL A   1      42.550  31.823  38.043  1.00  0.00     0.029 A 
ATOM     54  N   UNL A   1      41.678  31.365  36.049  1.00  0.00    -0.354 N 
ATOM     55  N   UNL A   1      41.475  29.902  33.510  1.00  0.00    -0.248 NA
ATOM     56  C   UNL A   1      42.389  28.447  31.929  1.00  0.00     0.031 C 
ATOM     57  C   UNL A   1      43.382  30.902  37.395  1.00  0.00     0.029 A 
ATOM     58  C   UNL A   1      42.832  30.607  36.158  1.00  0.00     0.049 A 
ATOM     59  H   UNL A   1      41.069  31.359  35.274  1.00  0.00     0.167 HD
ATOM     60  C   UNL A   1      42.689  29.422  33.983  1.00  0.00     0.074 A 
ATOM     61  C   UNL A   1      43.197  28.509  32.979  1.00  0.00     0.031 C 
ATOM     62  C   UNL A   1      43.327  29.710  35.145  1.00  0.00     0.037 A 
BRANCH  49  63
ATOM     63  C   UNL A   1      40.415  33.883  38.648  1.00  0.00     0.064 A 
ATOM     64  C   UNL A   1      41.133  35.084  38.754  1.00  0.00     0.173 A 
ATOM     65  C   UNL A   1      39.661  33.467  39.754  1.00  0.00     0.173 A 
ATOM     66  F   UNL A   1      41.883  35.517  37.728  1.00  0.00    -0.203 F 
ATOM     67  C   UNL A   1      41.118  35.824  39.934  1.00  0.00     0.198 A 
ATOM     68  C   UNL A   1      39.627  34.223  40.923  1.00  0.00     0.198 A 
ATOM     69  F   UNL A   1      38.955  32.328  39.701  1.00  0.00    -0.203 F 
ATOM     70  F   UNL A   1      41.847  36.945  40.030  1.00  0.00    -0.200 F 
ATOM     71  C   UNL A   1      40.361  35.396  41.015  1.00  0.00     0.200 A 
ATOM     72  F   UNL A   1      38.890  33.812  41.964  1.00  0.00    -0.200 F 
ATOM     73  F   UNL A   1      40.346  36.110  42.148  1.00  0.00    -0.200 F 
ENDBRANCH  49  63
BRANCH  50  74
ATOM     74  C   UNL A   1      40.111  28.717  30.110  1.00  0.00     0.064 A 
ATOM     75  C   UNL A   1      39.470  27.473  30.033  1.00  0.00     0.173 A 
ATOM     76  C   UNL A   1      40.724  29.210  28.949  1.00  0.00     0.173 A 
ATOM     77  F   UNL A   1      38.894  26.949  31.125  1.00  0.00    -0.203 F 
ATOM     78  C   UNL A   1      39.452  26.748  28.844  1.00  0.00     0.198 A 
ATOM     79  C   UNL A   1      40.685  28.494  27.755  1.00  0.00     0.198 A 
ATOM     80  F   UNL A   1      41.355  30.393  28.973  1.00  0.00    -0.203 F 
ATOM     81  F   UNL A   1      38.864  25.544  28.807  1.00  0.00    -0.200 F 
ATOM     82  C   UNL A   1      40.054  27.261  27.705  1.00  0.00     0.200 A 
ATOM     83  F   UNL A   1      41.260  28.998  26.655  1.00  0.00    -0.200 F 
ATOM     84  F   UNL A   1      40.031  26.563  26.561  1.00  0.00    -0.200 F 
ENDBRANCH  50  74
BRANCH  62  85
ATOM     85  C   UNL A   1      44.637  29.024  35.398  1.00  0.00     0.064 A 
ATOM     86  C   UNL A   1      45.851  29.598  34.995  1.00  0.00     0.173 A 
ATOM     87  C   UNL A   1      44.681  27.807  36.092  1.00  0.00     0.173 A 
ATOM     88  F   UNL A   1      45.859  30.753  34.313  1.00  0.00    -0.203 F 
ATOM     89  C   UNL A   1      47.063  28.967  35.261  1.00  0.00     0.198 A 
ATOM     90  C   UNL A   1      45.896  27.190  36.379  1.00  0.00     0.198 A 
ATOM     91  F   UNL A   1      43.547  27.220  36.502  1.00  0.00    -0.203 F 
ATOM     92  F   UNL A   1      48.210  29.512  34.833  1.00  0.00    -0.200 F 
ATOM     93  C   UNL A   1      47.085  27.768  35.960  1.00  0.00     0.200 A 
ATOM     94  F   UNL A   1      45.917  26.039  37.064  1.00  0.00    -0.200 F 
ATOM     95  F   UNL A   1      48.253  27.167  36.224  1.00  0.00    -0.200 F 
ENDBRANCH  62  85
ENDBRANCH  36  37
ENDBRANCH  29  31
ENDBRANCH  28  29
ENDBRANCH  27  28
ENDBRANCH  26  27
ENDBRANCH  25  26
ENDBRANCH   1  25
TORSDOF 19
ENDMDL
MODEL 3
REMARK VINA RESULT:     -10.6      4.074      8.910
REMARK SMILES COC(=O)c1ccccc1-c1ccc(/C=C(\C#N)C(=O)OCCOCCOC(=O)c2ccc(-c3c4nc(c(-c5c(F)c(F)c(F)c(F)c5F)c5ccc([nH]5)c(-c5c(F)c(F)c(F)c(F)c5F)c5nc(c(-c6c(F)c(F)c(F)c(F)c6F)c6ccc3[nH]6)C=C5)C=C4)cc2)o1
REMARK SMILES IDX 23 1 22 2 21 3 19 4 20 5 16 6 15 7 14 8 11 9 12 10 93 11
REMARK SMILES IDX 13 12 10 13 5 14 6 15 7 16 9 17 8 18 3 19 4 20 2 21 1 22
REMARK SMILES IDX 17 23 18 24 24 25 25 26 26 27 27 28 28 29 29 30 30 31 31 32
REMARK SMILES IDX 92 33 32 34 91 35 33 36 34 37 35 38 85 39 36 40 90 41 84 42
REMARK SMILES IDX 86 43 37 44 89 45 83 46 82 47 38 49 70 50 50 51 69 52 51 53
REMARK SMILES IDX 54 54 68 55 87 56 52 57 53 58 67 60 88 61 55 62 39 63 40 64
REMARK SMILES IDX 48 65 41 66 42 67 46 68 49 69 43 70 44 71 47 72 45 73 71 74
REMARK SMILES IDX 72 75 80 76 73 77 74 78 78 79 81 80 75 81 76 82 79 83 77 84
REMARK SMILES IDX 56 85 57 86 65 87 58 88 59 89 63 90 66 91 60 92 61 93 64 94
REMARK SMILES IDX 62 95
REMARK H PARENT 86 48 54 59
REMARK Flexibility Score: inf
ROOT
ATOM      1  C   UNL A   1      35.490  33.247  28.033  1.00  0.00     0.202 C 
ENDROOT
BRANCH   1   2
ATOM      2  C   UNL A   1      34.984  31.950  28.670  1.00  0.00     0.261 C 
BRANCH   2   3
ATOM      3  O   UNL A   1      34.353  31.094  27.703  1.00  0.00    -0.459 OA
BRANCH   3   4
ATOM      4  C   UNL A   1      34.814  29.822  27.722  1.00  0.00     0.349 C 
ATOM      5  O   UNL A   1      35.711  29.398  28.439  1.00  0.00    -0.245 OA
BRANCH   4   6
ATOM      6  C   UNL A   1      34.008  28.940  26.856  1.00  0.00     0.141 C 
ATOM      7  C   UNL A   1      34.224  29.152  25.539  1.00  0.00     0.074 C 
BRANCH   7   8
ATOM      8  C   UNL A   1      33.284  28.868  24.503  1.00  0.00     0.129 A 
ATOM      9  C   UNL A   1      31.343  28.668  23.431  1.00  0.00     0.135 A 
ATOM     10  C   UNL A   1      32.319  28.475  22.482  1.00  0.00     0.051 A 
ATOM     11  O   UNL A   1      31.916  28.906  24.641  1.00  0.00    -0.457 OA
ATOM     12  C   UNL A   1      33.553  28.591  23.165  1.00  0.00     0.051 A 
BRANCH   9  13
ATOM     13  C   UNL A   1      29.890  28.634  23.406  1.00  0.00     0.032 A 
ATOM     14  C   UNL A   1      29.157  27.455  23.638  1.00  0.00     0.071 A 
ATOM     15  C   UNL A   1      27.759  27.447  23.501  1.00  0.00     0.016 A 
ATOM     16  C   UNL A   1      27.080  28.616  23.160  1.00  0.00     0.001 A 
ATOM     17  C   UNL A   1      29.187  29.806  23.077  1.00  0.00     0.013 A 
ATOM     18  C   UNL A   1      27.794  29.795  22.951  1.00  0.00     0.001 A 
BRANCH  14  19
ATOM     19  C   UNL A   1      29.802  26.172  23.994  1.00  0.00     0.338 C 
ATOM     20  O   UNL A   1      29.907  25.233  23.217  1.00  0.00    -0.246 OA
BRANCH  19  21
ATOM     21  O   UNL A   1      30.203  26.193  25.286  1.00  0.00    -0.465 OA
ATOM     22  C   UNL A   1      29.528  25.261  26.128  1.00  0.00     0.282 C 
ENDBRANCH  19  21
ENDBRANCH  14  19
ENDBRANCH   9  13
ENDBRANCH   7   8
BRANCH   6  23
ATOM     23  C   UNL A   1      32.703  28.353  27.366  1.00  0.00     0.107 C 
ATOM     24  N   UNL A   1      31.620  27.865  27.789  1.00  0.00    -0.192 NA
ENDBRANCH   6  23
ENDBRANCH   4   6
ENDBRANCH   3   4
ENDBRANCH   2   3
ENDBRANCH   1   2
BRANCH   1  25
ATOM     25  O   UNL A   1      34.525  34.207  27.614  1.00  0.00    -0.374 OA
BRANCH  25  26
ATOM     26  C   UNL A   1      33.342  34.391  28.388  1.00  0.00     0.202 C 
BRANCH  26  27
ATOM     27  C   UNL A   1      33.341  35.436  29.510  1.00  0.00     0.261 C 
BRANCH  27  28
ATOM     28  O   UNL A   1      32.422  35.133  30.571  1.00  0.00    -0.460 OA
BRANCH  28  29
ATOM     29  C   UNL A   1      32.722  35.720  31.755  1.00  0.00     0.338 C 
ATOM     30  O   UNL A   1      32.090  36.592  32.335  1.00  0.00    -0.246 OA
BRANCH  29  31
ATOM     31  C   UNL A   1      33.854  35.027  32.389  1.00  0.00     0.060 A 
ATOM     32  C   UNL A   1      35.102  35.663  32.364  1.00  0.00     0.016 A 
ATOM     33  C   UNL A   1      33.718  33.745  32.924  1.00  0.00     0.016 A 
ATOM     34  C   UNL A   1      36.229  35.006  32.848  1.00  0.00     0.010 A 
ATOM     35  C   UNL A   1      34.853  33.078  33.390  1.00  0.00     0.010 A 
ATOM     36  C   UNL A   1      36.116  33.696  33.329  1.00  0.00    -0.014 A 
BRANCH  36  37
ATOM     37  C   UNL A   1      37.341  32.927  33.644  1.00  0.00     0.031 A 
ATOM     38  C   UNL A   1      38.063  33.201  34.932  1.00  0.00     0.074 A 
ATOM     39  C   UNL A   1      37.787  31.980  32.803  1.00  0.00     0.049 A 
ATOM     40  N   UNL A   1      39.167  32.674  35.393  1.00  0.00    -0.248 NA
ATOM     41  C   UNL A   1      37.454  34.202  35.822  1.00  0.00     0.031 C 
ATOM     42  C   UNL A   1      37.142  31.593  31.550  1.00  0.00     0.029 A 
ATOM     43  N   UNL A   1      38.895  31.175  32.877  1.00  0.00    -0.354 N 
ATOM     44  C   UNL A   1      39.385  33.275  36.625  1.00  0.00     0.074 A 
ATOM     45  C   UNL A   1      38.314  34.227  36.829  1.00  0.00     0.031 C 
ATOM     46  C   UNL A   1      37.873  30.630  30.965  1.00  0.00     0.029 A 
ATOM     47  C   UNL A   1      39.052  30.359  31.785  1.00  0.00     0.049 A 
ATOM     48  H   UNL A   1      39.518  31.182  33.640  1.00  0.00     0.167 HD
ATOM     49  C   UNL A   1      40.384  33.047  37.510  1.00  0.00     0.037 A 
ATOM     50  C   UNL A   1      40.050  29.510  31.476  1.00  0.00     0.037 A 
ATOM     51  C   UNL A   1      41.454  32.109  37.298  1.00  0.00     0.049 A 
ATOM     52  C   UNL A   1      41.208  29.353  32.427  1.00  0.00     0.074 A 
ATOM     53  C   UNL A   1      42.503  31.788  38.142  1.00  0.00     0.029 A 
ATOM     54  N   UNL A   1      41.618  31.349  36.149  1.00  0.00    -0.354 N 
ATOM     55  N   UNL A   1      41.395  29.906  33.600  1.00  0.00    -0.248 NA
ATOM     56  C   UNL A   1      42.296  28.461  32.003  1.00  0.00     0.031 C 
ATOM     57  C   UNL A   1      43.328  30.869  37.483  1.00  0.00     0.029 A 
ATOM     58  C   UNL A   1      42.770  30.585  36.247  1.00  0.00     0.049 A 
ATOM     59  H   UNL A   1      41.005  31.351  35.378  1.00  0.00     0.167 HD
ATOM     60  C   UNL A   1      42.611  29.418  34.063  1.00  0.00     0.074 A 
ATOM     61  C   UNL A   1      43.110  28.511  33.049  1.00  0.00     0.031 C 
ATOM     62  C   UNL A   1      43.256  29.695  35.223  1.00  0.00     0.037 A 
BRANCH  49  63
ATOM     63  C   UNL A   1      40.379  33.851  38.775  1.00  0.00     0.064 A 
ATOM     64  C   UNL A   1      39.650  33.443  39.901  1.00  0.00     0.173 A 
ATOM     65  C   UNL A   1      41.126  35.035  38.868  1.00  0.00     0.173 A 
ATOM     66  F   UNL A   1      38.908  32.325  39.857  1.00  0.00    -0.203 F 
ATOM     67  C   UNL A   1      39.646  34.206  41.066  1.00  0.00     0.198 A 
ATOM     68  C   UNL A   1      41.140  35.782  40.042  1.00  0.00     0.198 A 
ATOM     69  F   UNL A   1      41.842  35.467  37.819  1.00  0.00    -0.203 F 
ATOM     70  F   UNL A   1      38.906  33.822  42.116  1.00  0.00    -0.200 F 
ATOM     71  C   UNL A   1      40.395  35.371  41.138  1.00  0.00     0.200 A 
ATOM     72  F   UNL A   1      41.870  36.904  40.113  1.00  0.00    -0.200 F 
ATOM     73  F   UNL A   1      40.391  36.104  42.260  1.00  0.00    -0.200 F 
ENDBRANCH  49  63
BRANCH  50  74
ATOM     74  C   UNL A   1      40.008  28.753  30.199  1.00  0.00     0.064 A 
ATOM     75  C   UNL A   1      40.539  29.296  29.021  1.00  0.00     0.173 A 
ATOM     76  C   UNL A   1      39.432  27.476  30.130  1.00  0.00     0.173 A 
ATOM     77  F   UNL A   1      41.075  30.525  29.034  1.00  0.00    -0.203 F 
ATOM     78  C   UNL A   1      40.488  28.592  27.820  1.00  0.00     0.198 A 
ATOM     79  C   UNL A   1      39.403  26.764  28.933  1.00  0.00     0.198 A 
ATOM     80  F   UNL A   1      38.905  26.916  31.228  1.00  0.00    -0.203 F 
ATOM     81  F   UNL A   1      40.971  29.148  26.701  1.00  0.00    -0.200 F 
ATOM     82  C   UNL A   1      39.926  27.325  27.778  1.00  0.00     0.200 A 
ATOM     83  F   UNL A   1      38.866  25.537  28.898  1.00  0.00    -0.200 F 
ATOM     84  F   UNL A   1      39.882  26.648  26.623  1.00  0.00    -0.200 F 
ENDBRANCH  50  74
BRANCH  62  85
ATOM     85  C   UNL A   1      44.565  29.003  35.464  1.00  0.00     0.064 A 
ATOM     86  C   UNL A   1      45.782  29.594  35.096  1.00  0.00     0.173 A 
ATOM     87  C   UNL A   1      44.605  27.759  36.111  1.00  0.00     0.173 A 
ATOM     88  F   UNL A   1      45.794  30.774  34.459  1.00  0.00    -0.203 F 
ATOM     89  C   UNL A   1      46.992  28.955  35.351  1.00  0.00     0.198 A 
ATOM     90  C   UNL A   1      45.818  27.135  36.387  1.00  0.00     0.198 A 
ATOM     91  F   UNL A   1      43.468  27.155  36.487  1.00  0.00    -0.203 F 
ATOM     92  F   UNL A   1      48.142  29.519  34.955  1.00  0.00    -0.200 F 
ATOM     93  C   UNL A   1      47.010  27.730  36.003  1.00  0.00     0.200 A 
ATOM     94  F   UNL A   1      45.834  25.957  37.027  1.00  0.00    -0.200 F 
ATOM     95  F   UNL A   1      48.177  27.122  36.256  1.00  0.00    -0.200 F 
ENDBRANCH  62  85
ENDBRANCH  36  37
ENDBRANCH  29  31
ENDBRANCH  28  29
ENDBRANCH  27  28
ENDBRANCH  26  27
ENDBRANCH  25  26
ENDBRANCH   1  25
TORSDOF 19
ENDMDL
