MODEL 1
REMARK VINA RESULT:     -12.0      0.000      0.000
REMARK SMILES COc1ccc(-c2ccc(CCC(=O)OCCOCCOC(=O)c3ccc(-c4c5nc(c(-c6c(F)c(F)c(F)c(F)c6F)c6ccc([nH]6)c(-c6c(F)c(F)c(F)c(F)c6F)c6nc(c(-c7c(F)c(F)c(F)c(F)c7F)c7ccc4[nH]7)C=C6)C=C5)cc3)n2-c2ccc(C(C)=O)cc2)cc1
REMARK SMILES IDX 17 1 16 2 15 3 13 4 14 5 12 6 11 7 10 8 7 9 8 10 87 11 9 12
REMARK SMILES IDX 6 13 3 14 4 15 98 16 5 17 97 18 2 19 1 20 88 21 89 22 96 23
REMARK SMILES IDX 90 24 95 25 91 26 92 27 93 28 94 29 18 30 19 31 20 32 21 33
REMARK SMILES IDX 22 34 23 35 24 36 25 37 86 38 26 39 85 40 27 41 28 42 29 43
REMARK SMILES IDX 79 44 30 45 84 46 78 47 80 48 31 49 83 50 77 51 76 52 32 54
REMARK SMILES IDX 64 55 44 56 63 57 45 58 48 59 62 60 81 61 46 62 47 63 61 65
REMARK SMILES IDX 82 66 49 67 33 68 34 69 42 70 35 71 36 72 40 73 43 74 37 75
REMARK SMILES IDX 38 76 41 77 39 78 65 79 66 80 74 81 67 82 68 83 72 84 75 85
REMARK SMILES IDX 69 86 70 87 73 88 71 89 50 90 51 91 59 92 52 93 53 94 57 95
REMARK SMILES IDX 60 96 54 97 55 98 58 99 56 100
REMARK H PARENT 80 53 48 64
REMARK Flexibility Score: inf
ROOT
ATOM      1  C   UNL A   1      36.899  22.964  24.526  1.00  0.00     0.202 C 
ENDROOT
BRANCH   1   2
ATOM      2  C   UNL A   1      35.384  23.062  24.336  1.00  0.00     0.261 C 
BRANCH   2   3
ATOM      3  O   UNL A   1      34.691  22.938  25.594  1.00  0.00    -0.463 OA
BRANCH   3   4
ATOM      4  C   UNL A   1      33.881  21.865  25.761  1.00  0.00     0.306 C 
ATOM      5  O   UNL A   1      34.233  20.700  25.634  1.00  0.00    -0.252 OA
BRANCH   4   6
ATOM      6  C   UNL A   1      32.467  22.261  26.141  1.00  0.00     0.129 C 
BRANCH   6   7
ATOM      7  C   UNL A   1      32.160  23.760  26.270  1.00  0.00     0.066 C 
BRANCH   7   8
ATOM      8  C   UNL A   1      31.477  24.363  25.069  1.00  0.00     0.024 A 
ATOM      9  C   UNL A   1      30.464  25.920  23.778  1.00  0.00     0.053 A 
ATOM     10  C   UNL A   1      30.154  24.676  23.263  1.00  0.00     0.029 A 
ATOM     11  N   UNL A   1      31.357  25.729  24.831  1.00  0.00    -0.314 N 
ATOM     12  C   UNL A   1      30.823  23.716  24.037  1.00  0.00     0.024 A 
BRANCH   9  13
ATOM     13  C   UNL A   1      30.020  27.213  23.265  1.00  0.00    -0.001 A 
ATOM     14  C   UNL A   1      29.147  29.712  22.367  1.00  0.00     0.118 A 
ATOM     15  C   UNL A   1      30.441  29.281  22.082  1.00  0.00     0.047 A 
ATOM     16  C   UNL A   1      28.268  28.873  23.052  1.00  0.00     0.047 A 
ATOM     17  C   UNL A   1      30.881  28.035  22.533  1.00  0.00     0.014 A 
ATOM     18  C   UNL A   1      28.705  27.626  23.499  1.00  0.00     0.014 A 
BRANCH  14  19
ATOM     19  O   UNL A   1      28.807  30.950  21.896  1.00  0.00    -0.497 OA
ATOM     20  C   UNL A   1      28.028  30.918  20.702  1.00  0.00     0.278 C 
ENDBRANCH  14  19
ENDBRANCH   9  13
BRANCH  11  21
ATOM     21  C   UNL A   1      32.043  26.752  25.530  1.00  0.00     0.046 A 
ATOM     22  C   UNL A   1      31.401  27.406  26.586  1.00  0.00     0.027 A 
ATOM     23  C   UNL A   1      33.357  27.066  25.192  1.00  0.00     0.027 A 
ATOM     24  C   UNL A   1      32.082  28.392  27.309  1.00  0.00     0.014 A 
ATOM     25  C   UNL A   1      34.023  28.066  25.902  1.00  0.00     0.014 A 
ATOM     26  C   UNL A   1      33.396  28.736  26.969  1.00  0.00     0.017 A 
BRANCH  26  27
ATOM     27  C   UNL A   1      34.187  29.791  27.676  1.00  0.00     0.159 C 
ATOM     28  C   UNL A   1      33.780  31.241  27.626  1.00  0.00     0.093 C 
ATOM     29  O   UNL A   1      35.183  29.461  28.321  1.00  0.00    -0.295 OA
ENDBRANCH  26  27
ENDBRANCH  11  21
ENDBRANCH   7   8
ENDBRANCH   6   7
ENDBRANCH   4   6
ENDBRANCH   3   4
ENDBRANCH   2   3
ENDBRANCH   1   2
BRANCH   1  30
ATOM     30  O   UNL A   1      37.422  21.637  24.639  1.00  0.00    -0.374 OA
BRANCH  30  31
ATOM     31  C   UNL A   1      38.527  21.433  25.513  1.00  0.00     0.202 C 
BRANCH  31  32
ATOM     32  C   UNL A   1      39.216  20.083  25.420  1.00  0.00     0.261 C 
BRANCH  32  33
ATOM     33  O   UNL A   1      40.134  19.926  26.492  1.00  0.00    -0.460 OA
BRANCH  33  34
ATOM     34  C   UNL A   1      41.330  19.425  26.114  1.00  0.00     0.338 C 
ATOM     35  O   UNL A   1      41.584  18.295  25.752  1.00  0.00    -0.246 OA
BRANCH  34  36
ATOM     36  C   UNL A   1      42.361  20.415  26.427  1.00  0.00     0.060 A 
ATOM     37  C   UNL A   1      42.307  20.889  27.738  1.00  0.00     0.016 A 
ATOM     38  C   UNL A   1      42.920  21.150  25.371  1.00  0.00     0.016 A 
ATOM     39  C   UNL A   1      42.542  22.222  27.937  1.00  0.00     0.010 A 
ATOM     40  C   UNL A   1      43.113  22.494  25.557  1.00  0.00     0.010 A 
ATOM     41  C   UNL A   1      42.871  23.017  26.829  1.00  0.00    -0.014 A 
BRANCH  41  42
ATOM     42  C   UNL A   1      43.246  24.392  27.113  1.00  0.00     0.031 A 
ATOM     43  C   UNL A   1      41.932  25.186  27.351  1.00  0.00     0.074 A 
ATOM     44  C   UNL A   1      44.594  24.650  27.031  1.00  0.00     0.049 A 
ATOM     45  N   UNL A   1      41.688  26.446  27.207  1.00  0.00    -0.248 NA
ATOM     46  C   UNL A   1      40.673  24.467  27.746  1.00  0.00     0.031 C 
ATOM     47  C   UNL A   1      45.673  23.640  26.839  1.00  0.00     0.029 A 
ATOM     48  N   UNL A   1      45.344  25.805  27.078  1.00  0.00    -0.354 N 
ATOM     49  C   UNL A   1      40.390  26.700  27.708  1.00  0.00     0.074 A 
ATOM     50  C   UNL A   1      39.769  25.434  27.907  1.00  0.00     0.031 C 
ATOM     51  C   UNL A   1      46.886  24.230  26.688  1.00  0.00     0.029 A 
ATOM     52  C   UNL A   1      46.736  25.670  26.782  1.00  0.00     0.049 A 
ATOM     53  H   UNL A   1      44.942  26.676  27.302  1.00  0.00     0.167 HD
ATOM     54  C   UNL A   1      39.992  27.953  28.071  1.00  0.00     0.037 A 
ATOM     55  C   UNL A   1      47.663  26.668  26.581  1.00  0.00     0.037 A 
ATOM     56  C   UNL A   1      41.020  28.875  27.732  1.00  0.00     0.049 A 
ATOM     57  C   UNL A   1      46.924  27.878  26.955  1.00  0.00     0.074 A 
ATOM     58  C   UNL A   1      41.440  29.328  26.510  1.00  0.00     0.029 A 
ATOM     59  N   UNL A   1      42.015  29.052  28.663  1.00  0.00    -0.354 N 
ATOM     60  N   UNL A   1      46.634  28.207  28.177  1.00  0.00    -0.248 NA
ATOM     61  C   UNL A   1      46.344  28.698  25.885  1.00  0.00     0.031 C 
ATOM     62  C   UNL A   1      42.840  29.262  26.633  1.00  0.00     0.029 A 
ATOM     63  C   UNL A   1      43.200  29.116  27.978  1.00  0.00     0.049 A 
ATOM     64  H   UNL A   1      41.898  29.120  29.638  1.00  0.00     0.167 HD
ATOM     65  C   UNL A   1      45.572  29.054  27.990  1.00  0.00     0.074 A 
ATOM     66  C   UNL A   1      45.680  29.567  26.639  1.00  0.00     0.031 C 
ATOM     67  C   UNL A   1      44.424  28.855  28.690  1.00  0.00     0.037 A 
BRANCH  54  68
ATOM     68  C   UNL A   1      38.883  28.466  28.939  1.00  0.00     0.064 A 
ATOM     69  C   UNL A   1      38.326  29.725  28.597  1.00  0.00     0.173 A 
ATOM     70  C   UNL A   1      38.661  28.024  30.248  1.00  0.00     0.173 A 
ATOM     71  F   UNL A   1      38.417  30.201  27.344  1.00  0.00    -0.203 F 
ATOM     72  C   UNL A   1      37.773  30.569  29.554  1.00  0.00     0.198 A 
ATOM     73  C   UNL A   1      38.047  28.853  31.193  1.00  0.00     0.198 A 
ATOM     74  F   UNL A   1      39.126  26.841  30.670  1.00  0.00    -0.203 F 
ATOM     75  F   UNL A   1      37.438  31.823  29.221  1.00  0.00    -0.200 F 
ATOM     76  C   UNL A   1      37.658  30.140  30.860  1.00  0.00     0.200 A 
ATOM     77  F   UNL A   1      37.917  28.429  32.458  1.00  0.00    -0.200 F 
ATOM     78  F   UNL A   1      37.207  30.977  31.804  1.00  0.00    -0.200 F 
ENDBRANCH  54  68
BRANCH  55  79
ATOM     79  C   UNL A   1      49.079  26.915  26.078  1.00  0.00     0.064 A 
ATOM     80  C   UNL A   1      49.555  26.719  24.777  1.00  0.00     0.173 A 
ATOM     81  C   UNL A   1      50.062  27.457  26.969  1.00  0.00     0.173 A 
ATOM     82  F   UNL A   1      48.797  26.107  23.859  1.00  0.00    -0.203 F 
ATOM     83  C   UNL A   1      50.852  27.135  24.386  1.00  0.00     0.198 A 
ATOM     84  C   UNL A   1      51.313  27.925  26.571  1.00  0.00     0.198 A 
ATOM     85  F   UNL A   1      49.851  27.552  28.286  1.00  0.00    -0.203 F 
ATOM     86  F   UNL A   1      51.273  26.919  23.131  1.00  0.00    -0.200 F 
ATOM     87  C   UNL A   1      51.708  27.778  25.268  1.00  0.00     0.200 A 
ATOM     88  F   UNL A   1      52.113  28.525  27.467  1.00  0.00    -0.200 F 
ATOM     89  F   UNL A   1      52.905  28.235  24.876  1.00  0.00    -0.200 F 
ENDBRANCH  55  79
BRANCH  67  90
ATOM     90  C   UNL A   1      44.588  28.066  29.980  1.00  0.00     0.064 A 
ATOM     91  C   UNL A   1      45.399  28.580  31.006  1.00  0.00     0.173 A 
ATOM     92  C   UNL A   1      44.069  26.779  30.207  1.00  0.00     0.173 A 
ATOM     93  F   UNL A   1      45.908  29.816  30.895  1.00  0.00    -0.203 F 
ATOM     94  C   UNL A   1      45.692  27.845  32.159  1.00  0.00     0.198 A 
ATOM     95  C   UNL A   1      44.365  26.036  31.356  1.00  0.00     0.198 A 
ATOM     96  F   UNL A   1      43.244  26.213  29.330  1.00  0.00    -0.203 F 
ATOM     97  F   UNL A   1      46.465  28.382  33.112  1.00  0.00    -0.200 F 
ATOM     98  C   UNL A   1      45.182  26.570  32.332  1.00  0.00     0.200 A 
ATOM     99  F   UNL A   1      43.845  24.808  31.517  1.00  0.00    -0.200 F 
ATOM    100  F   UNL A   1      45.454  25.871  33.443  1.00  0.00    -0.200 F 
ENDBRANCH  67  90
ENDBRANCH  41  42
ENDBRANCH  34  36
ENDBRANCH  33  34
ENDBRANCH  32  33
ENDBRANCH  31  32
ENDBRANCH  30  31
ENDBRANCH   1  30
TORSDOF 20
ENDMDL
MODEL 2
REMARK VINA RESULT:     -11.9      2.864      8.501
REMARK SMILES COc1ccc(-c2ccc(CCC(=O)OCCOCCOC(=O)c3ccc(-c4c5nc(c(-c6c(F)c(F)c(F)c(F)c6F)c6ccc([nH]6)c(-c6c(F)c(F)c(F)c(F)c6F)c6nc(c(-c7c(F)c(F)c(F)c(F)c7F)c7ccc4[nH]7)C=C6)C=C5)cc3)n2-c2ccc(C(C)=O)cc2)cc1
REMARK SMILES IDX 17 1 16 2 15 3 13 4 14 5 12 6 11 7 10 8 7 9 8 10 87 11 9 12
REMARK SMILES IDX 6 13 3 14 4 15 98 16 5 17 97 18 2 19 1 20 88 21 89 22 96 23
REMARK SMILES IDX 90 24 95 25 91 26 92 27 93 28 94 29 18 30 19 31 20 32 21 33
REMARK SMILES IDX 22 34 23 35 24 36 25 37 86 38 26 39 85 40 27 41 28 42 29 43
REMARK SMILES IDX 79 44 30 45 84 46 78 47 80 48 31 49 83 50 77 51 76 52 32 54
REMARK SMILES IDX 64 55 44 56 63 57 45 58 48 59 62 60 81 61 46 62 47 63 61 65
REMARK SMILES IDX 82 66 49 67 33 68 34 69 42 70 35 71 36 72 40 73 43 74 37 75
REMARK SMILES IDX 38 76 41 77 39 78 65 79 66 80 74 81 67 82 68 83 72 84 75 85
REMARK SMILES IDX 69 86 70 87 73 88 71 89 50 90 51 91 59 92 52 93 53 94 57 95
REMARK SMILES IDX 60 96 54 97 55 98 58 99 56 100
REMARK H PARENT 80 53 48 64
REMARK Flexibility Score: inf
ROOT
ATOM      1  C   UNL A   1      32.796  27.725  26.493  1.00  0.00     0.202 C 
ENDROOT
BRANCH   1   2
ATOM      2  C   UNL A   1      31.298  27.516  26.725  1.00  0.00     0.261 C 
BRANCH   2   3
ATOM      3  O   UNL A   1      30.625  27.160  25.500  1.00  0.00    -0.463 OA
BRANCH   3   4
ATOM      4  C   UNL A   1      30.001  25.959  25.455  1.00  0.00     0.306 C 
ATOM      5  O   UNL A   1      29.597  25.346  26.434  1.00  0.00    -0.252 OA
BRANCH   4   6
ATOM      6  C   UNL A   1      29.839  25.445  24.037  1.00  0.00     0.129 C 
BRANCH   6   7
ATOM      7  C   UNL A   1      30.724  24.267  23.605  1.00  0.00     0.066 C 
BRANCH   7   8
ATOM      8  C   UNL A   1      32.204  24.544  23.658  1.00  0.00     0.024 A 
ATOM      9  C   UNL A   1      34.387  24.262  24.180  1.00  0.00     0.053 A 
ATOM     10  C   UNL A   1      34.207  25.582  23.817  1.00  0.00     0.029 A 
ATOM     11  N   UNL A   1      33.174  23.603  23.989  1.00  0.00    -0.314 N 
ATOM     12  C   UNL A   1      32.862  25.741  23.448  1.00  0.00     0.024 A 
BRANCH   9  13
ATOM     13  C   UNL A   1      35.637  23.635  24.600  1.00  0.00    -0.001 A 
ATOM     14  C   UNL A   1      37.993  22.418  25.486  1.00  0.00     0.118 A 
ATOM     15  C   UNL A   1      37.371  21.970  24.321  1.00  0.00     0.047 A 
ATOM     16  C   UNL A   1      37.472  23.511  26.178  1.00  0.00     0.047 A 
ATOM     17  C   UNL A   1      36.192  22.573  23.879  1.00  0.00     0.014 A 
ATOM     18  C   UNL A   1      36.296  24.117  25.735  1.00  0.00     0.014 A 
BRANCH  14  19
ATOM     19  O   UNL A   1      39.136  21.761  25.849  1.00  0.00    -0.497 OA
ATOM     20  C   UNL A   1      39.171  20.395  25.439  1.00  0.00     0.278 C 
ENDBRANCH  14  19
ENDBRANCH   9  13
BRANCH  11  21
ATOM     21  C   UNL A   1      32.965  22.206  24.094  1.00  0.00     0.046 A 
ATOM     22  C   UNL A   1      32.590  21.485  22.956  1.00  0.00     0.027 A 
ATOM     23  C   UNL A   1      33.177  21.558  25.308  1.00  0.00     0.027 A 
ATOM     24  C   UNL A   1      32.417  20.099  23.037  1.00  0.00     0.014 A 
ATOM     25  C   UNL A   1      32.982  20.179  25.388  1.00  0.00     0.014 A 
ATOM     26  C   UNL A   1      32.604  19.434  24.255  1.00  0.00     0.017 A 
BRANCH  26  27
ATOM     27  C   UNL A   1      32.421  17.960  24.432  1.00  0.00     0.159 C 
ATOM     28  C   UNL A   1      33.002  16.975  23.451  1.00  0.00     0.093 C 
ATOM     29  O   UNL A   1      31.792  17.548  25.408  1.00  0.00    -0.295 OA
ENDBRANCH  26  27
ENDBRANCH  11  21
ENDBRANCH   7   8
ENDBRANCH   6   7
ENDBRANCH   4   6
ENDBRANCH   3   4
ENDBRANCH   2   3
ENDBRANCH   1   2
BRANCH   1  30
ATOM     30  O   UNL A   1      33.460  28.555  27.450  1.00  0.00    -0.374 OA
BRANCH  30  31
ATOM     31  C   UNL A   1      34.459  29.449  26.973  1.00  0.00     0.202 C 
BRANCH  31  32
ATOM     32  C   UNL A   1      34.928  30.515  27.947  1.00  0.00     0.261 C 
BRANCH  32  33
ATOM     33  O   UNL A   1      35.872  29.967  28.857  1.00  0.00    -0.460 OA
BRANCH  33  34
ATOM     34  C   UNL A   1      37.127  30.435  28.685  1.00  0.00     0.338 C 
ATOM     35  O   UNL A   1      37.481  31.588  28.550  1.00  0.00    -0.246 OA
BRANCH  34  36
ATOM     36  C   UNL A   1      38.012  29.293  28.452  1.00  0.00     0.060 A 
ATOM     37  C   UNL A   1      38.236  28.513  29.586  1.00  0.00     0.016 A 
ATOM     38  C   UNL A   1      38.913  29.359  27.378  1.00  0.00     0.016 A 
ATOM     39  C   UNL A   1      39.503  28.032  29.780  1.00  0.00     0.010 A 
ATOM     40  C   UNL A   1      40.193  28.917  27.589  1.00  0.00     0.010 A 
ATOM     41  C   UNL A   1      40.478  28.304  28.811  1.00  0.00    -0.014 A 
BRANCH  41  42
ATOM     42  C   UNL A   1      41.765  27.656  28.995  1.00  0.00     0.031 A 
ATOM     43  C   UNL A   1      41.622  26.197  28.477  1.00  0.00     0.074 A 
ATOM     44  C   UNL A   1      42.717  28.428  29.618  1.00  0.00     0.049 A 
ATOM     45  N   UNL A   1      42.284  25.136  28.797  1.00  0.00    -0.248 NA
ATOM     46  C   UNL A   1      40.535  25.843  27.501  1.00  0.00     0.031 C 
ATOM     47  C   UNL A   1      42.589  29.872  29.962  1.00  0.00     0.029 A 
ATOM     48  N   UNL A   1      43.980  28.170  30.105  1.00  0.00    -0.354 N 
ATOM     49  C   UNL A   1      41.887  24.094  27.926  1.00  0.00     0.074 A 
ATOM     50  C   UNL A   1      40.726  24.550  27.240  1.00  0.00     0.031 C 
ATOM     51  C   UNL A   1      43.659  30.311  30.671  1.00  0.00     0.029 A 
ATOM     52  C   UNL A   1      44.599  29.221  30.851  1.00  0.00     0.049 A 
ATOM     53  H   UNL A   1      44.430  27.309  29.948  1.00  0.00     0.167 HD
ATOM     54  C   UNL A   1      42.659  22.987  27.730  1.00  0.00     0.037 A 
ATOM     55  C   UNL A   1      45.759  29.168  31.591  1.00  0.00     0.037 A 
ATOM     56  C   UNL A   1      43.771  23.042  28.616  1.00  0.00     0.049 A 
ATOM     57  C   UNL A   1      46.301  27.849  31.251  1.00  0.00     0.074 A 
ATOM     58  C   UNL A   1      43.833  22.884  29.974  1.00  0.00     0.029 A 
ATOM     59  N   UNL A   1      44.870  23.740  28.175  1.00  0.00    -0.354 N 
ATOM     60  N   UNL A   1      46.855  27.560  30.113  1.00  0.00    -0.248 NA
ATOM     61  C   UNL A   1      46.081  26.743  32.188  1.00  0.00     0.031 C 
ATOM     62  C   UNL A   1      44.676  23.943  30.359  1.00  0.00     0.029 A 
ATOM     63  C   UNL A   1      45.343  24.460  29.241  1.00  0.00     0.049 A 
ATOM     64  H   UNL A   1      45.246  23.726  27.266  1.00  0.00     0.167 HD
ATOM     65  C   UNL A   1      46.726  26.196  30.082  1.00  0.00     0.074 A 
ATOM     66  C   UNL A   1      46.590  25.758  31.456  1.00  0.00     0.031 C 
ATOM     67  C   UNL A   1      46.188  25.598  28.986  1.00  0.00     0.037 A 
BRANCH  54  68
ATOM     68  C   UNL A   1      42.704  21.945  26.654  1.00  0.00     0.064 A 
ATOM     69  C   UNL A   1      42.279  20.638  27.004  1.00  0.00     0.173 A 
ATOM     70  C   UNL A   1      43.501  22.053  25.509  1.00  0.00     0.173 A 
ATOM     71  F   UNL A   1      41.448  20.438  28.039  1.00  0.00    -0.203 F 
ATOM     72  C   UNL A   1      42.790  19.506  26.377  1.00  0.00     0.198 A 
ATOM     73  C   UNL A   1      43.962  20.912  24.843  1.00  0.00     0.198 A 
ATOM     74  F   UNL A   1      43.941  23.242  25.078  1.00  0.00    -0.203 F 
ATOM     75  F   UNL A   1      42.510  18.290  26.867  1.00  0.00    -0.200 F 
ATOM     76  C   UNL A   1      43.653  19.645  25.311  1.00  0.00     0.200 A 
ATOM     77  F   UNL A   1      44.786  21.047  23.794  1.00  0.00    -0.200 F 
ATOM     78  F   UNL A   1      44.216  18.563  24.757  1.00  0.00    -0.200 F 
ENDBRANCH  54  68
BRANCH  55  79
ATOM     79  C   UNL A   1      46.570  29.947  32.617  1.00  0.00     0.064 A 
ATOM     80  C   UNL A   1      47.786  30.605  32.404  1.00  0.00     0.173 A 
ATOM     81  C   UNL A   1      46.062  30.108  33.947  1.00  0.00     0.173 A 
ATOM     82  F   UNL A   1      48.451  30.451  31.252  1.00  0.00    -0.203 F 
ATOM     83  C   UNL A   1      48.370  31.434  33.393  1.00  0.00     0.198 A 
ATOM     84  C   UNL A   1      46.600  30.973  34.898  1.00  0.00     0.198 A 
ATOM     85  F   UNL A   1      45.006  29.417  34.393  1.00  0.00    -0.203 F 
ATOM     86  F   UNL A   1      49.543  32.038  33.152  1.00  0.00    -0.200 F 
ATOM     87  C   UNL A   1      47.754  31.654  34.617  1.00  0.00     0.200 A 
ATOM     88  F   UNL A   1      45.976  31.139  36.075  1.00  0.00    -0.200 F 
ATOM     89  F   UNL A   1      48.272  32.495  35.521  1.00  0.00    -0.200 F 
ENDBRANCH  55  79
BRANCH  67  90
ATOM     90  C   UNL A   1      46.272  26.413  27.704  1.00  0.00     0.064 A 
ATOM     91  C   UNL A   1      45.094  26.736  27.012  1.00  0.00     0.173 A 
ATOM     92  C   UNL A   1      47.469  26.797  27.074  1.00  0.00     0.173 A 
ATOM     93  F   UNL A   1      43.902  26.443  27.555  1.00  0.00    -0.203 F 
ATOM     94  C   UNL A   1      45.115  27.369  25.765  1.00  0.00     0.198 A 
ATOM     95  C   UNL A   1      47.496  27.425  25.823  1.00  0.00     0.198 A 
ATOM     96  F   UNL A   1      48.645  26.593  27.661  1.00  0.00    -0.203 F 
ATOM     97  F   UNL A   1      43.963  27.662  25.148  1.00  0.00    -0.200 F 
ATOM     98  C   UNL A   1      46.316  27.707  25.166  1.00  0.00     0.200 A 
ATOM     99  F   UNL A   1      48.670  27.764  25.265  1.00  0.00    -0.200 F 
ATOM    100  F   UNL A   1      46.335  28.325  23.976  1.00  0.00    -0.200 F 
ENDBRANCH  67  90
ENDBRANCH  41  42
ENDBRANCH  34  36
ENDBRANCH  33  34
ENDBRANCH  32  33
ENDBRANCH  31  32
ENDBRANCH  30  31
ENDBRANCH   1  30
TORSDOF 20
ENDMDL
MODEL 3
REMARK VINA RESULT:     -11.9      4.354     10.618
REMARK SMILES COc1ccc(-c2ccc(CCC(=O)OCCOCCOC(=O)c3ccc(-c4c5nc(c(-c6c(F)c(F)c(F)c(F)c6F)c6ccc([nH]6)c(-c6c(F)c(F)c(F)c(F)c6F)c6nc(c(-c7c(F)c(F)c(F)c(F)c7F)c7ccc4[nH]7)C=C6)C=C5)cc3)n2-c2ccc(C(C)=O)cc2)cc1
REMARK SMILES IDX 17 1 16 2 15 3 13 4 14 5 12 6 11 7 10 8 7 9 8 10 87 11 9 12
REMARK SMILES IDX 6 13 3 14 4 15 98 16 5 17 97 18 2 19 1 20 88 21 89 22 96 23
REMARK SMILES IDX 90 24 95 25 91 26 92 27 93 28 94 29 18 30 19 31 20 32 21 33
REMARK SMILES IDX 22 34 23 35 24 36 25 37 86 38 26 39 85 40 27 41 28 42 29 43
REMARK SMILES IDX 79 44 30 45 84 46 78 47 80 48 31 49 83 50 77 51 76 52 32 54
REMARK SMILES IDX 64 55 44 56 63 57 45 58 48 59 62 60 81 61 46 62 47 63 61 65
REMARK SMILES IDX 82 66 49 67 33 68 34 69 42 70 35 71 36 72 40 73 43 74 37 75
REMARK SMILES IDX 38 76 41 77 39 78 65 79 66 80 74 81 67 82 68 83 72 84 75 85
REMARK SMILES IDX 69 86 70 87 73 88 71 89 50 90 51 91 59 92 52 93 53 94 57 95
REMARK SMILES IDX 60 96 54 97 55 98 58 99 56 100
REMARK H PARENT 80 53 48 64
REMARK Flexibility Score: inf
ROOT
ATOM      1  C   UNL A   1      33.919  29.131  27.380  1.00  0.00     0.202 C 
ENDROOT
BRANCH   1   2
ATOM      2  C   UNL A   1      32.722  28.581  26.602  1.00  0.00     0.261 C 
BRANCH   2   3
ATOM      3  O   UNL A   1      32.635  29.175  25.291  1.00  0.00    -0.463 OA
BRANCH   3   4
ATOM      4  C   UNL A   1      33.271  28.544  24.275  1.00  0.00     0.306 C 
ATOM      5  O   UNL A   1      33.722  29.101  23.283  1.00  0.00    -0.252 OA
BRANCH   4   6
ATOM      6  C   UNL A   1      33.382  27.049  24.501  1.00  0.00     0.129 C 
BRANCH   6   7
ATOM      7  C   UNL A   1      33.408  26.144  23.260  1.00  0.00     0.066 C 
BRANCH   7   8
ATOM      8  C   UNL A   1      32.559  24.904  23.373  1.00  0.00     0.024 A 
ATOM      9  C   UNL A   1      32.037  22.704  23.471  1.00  0.00     0.053 A 
ATOM     10  C   UNL A   1      30.887  23.398  23.151  1.00  0.00     0.029 A 
ATOM     11  N   UNL A   1      33.044  23.641  23.702  1.00  0.00    -0.314 N 
ATOM     12  C   UNL A   1      31.204  24.765  23.139  1.00  0.00     0.024 A 
BRANCH   9  13
ATOM     13  C   UNL A   1      32.170  21.260  23.633  1.00  0.00    -0.001 A 
ATOM     14  C   UNL A   1      32.493  18.494  23.888  1.00  0.00     0.118 A 
ATOM     15  C   UNL A   1      32.459  19.301  25.025  1.00  0.00     0.047 A 
ATOM     16  C   UNL A   1      32.308  19.059  22.627  1.00  0.00     0.047 A 
ATOM     17  C   UNL A   1      32.302  20.682  24.900  1.00  0.00     0.014 A 
ATOM     18  C   UNL A   1      32.146  20.440  22.501  1.00  0.00     0.014 A 
BRANCH  14  19
ATOM     19  O   UNL A   1      32.662  17.154  24.105  1.00  0.00    -0.497 OA
ATOM     20  C   UNL A   1      33.889  16.639  23.594  1.00  0.00     0.278 C 
ENDBRANCH  14  19
ENDBRANCH   9  13
BRANCH  11  21
ATOM     21  C   UNL A   1      34.336  23.359  24.207  1.00  0.00     0.046 A 
ATOM     22  C   UNL A   1      35.343  22.962  23.321  1.00  0.00     0.027 A 
ATOM     23  C   UNL A   1      34.606  23.522  25.563  1.00  0.00     0.027 A 
ATOM     24  C   UNL A   1      36.634  22.717  23.801  1.00  0.00     0.014 A 
ATOM     25  C   UNL A   1      35.891  23.255  26.039  1.00  0.00     0.014 A 
ATOM     26  C   UNL A   1      36.918  22.854  25.165  1.00  0.00     0.017 A 
BRANCH  26  27
ATOM     27  C   UNL A   1      38.264  22.593  25.763  1.00  0.00     0.159 C 
ATOM     28  C   UNL A   1      38.998  23.657  26.537  1.00  0.00     0.093 C 
ATOM     29  O   UNL A   1      38.774  21.480  25.626  1.00  0.00    -0.295 OA
ENDBRANCH  26  27
ENDBRANCH  11  21
ENDBRANCH   7   8
ENDBRANCH   6   7
ENDBRANCH   4   6
ENDBRANCH   3   4
ENDBRANCH   2   3
ENDBRANCH   1   2
BRANCH   1  30
ATOM     30  O   UNL A   1      33.671  30.324  28.131  1.00  0.00    -0.374 OA
BRANCH  30  31
ATOM     31  C   UNL A   1      34.004  31.568  27.527  1.00  0.00     0.202 C 
BRANCH  31  32
ATOM     32  C   UNL A   1      32.937  32.647  27.580  1.00  0.00     0.261 C 
BRANCH  32  33
ATOM     33  O   UNL A   1      33.537  33.934  27.528  1.00  0.00    -0.460 OA
BRANCH  33  34
ATOM     34  C   UNL A   1      33.242  34.714  28.589  1.00  0.00     0.338 C 
ATOM     35  O   UNL A   1      32.311  35.483  28.714  1.00  0.00    -0.246 OA
BRANCH  34  36
ATOM     36  C   UNL A   1      34.371  34.667  29.519  1.00  0.00     0.060 A 
ATOM     37  C   UNL A   1      35.617  34.742  28.896  1.00  0.00     0.016 A 
ATOM     38  C   UNL A   1      34.177  34.066  30.771  1.00  0.00     0.016 A 
ATOM     39  C   UNL A   1      36.617  33.950  29.390  1.00  0.00     0.010 A 
ATOM     40  C   UNL A   1      35.161  33.237  31.243  1.00  0.00     0.010 A 
ATOM     41  C   UNL A   1      36.349  33.155  30.513  1.00  0.00    -0.014 A 
BRANCH  41  42
ATOM     42  C   UNL A   1      37.481  32.440  31.080  1.00  0.00     0.031 A 
ATOM     43  C   UNL A   1      37.742  31.204  30.174  1.00  0.00     0.074 A 
ATOM     44  C   UNL A   1      37.964  32.965  32.255  1.00  0.00     0.049 A 
ATOM     45  N   UNL A   1      38.302  30.075  30.455  1.00  0.00    -0.248 NA
ATOM     46  C   UNL A   1      37.250  31.188  28.754  1.00  0.00     0.031 C 
ATOM     47  C   UNL A   1      37.542  34.247  32.885  1.00  0.00     0.029 A 
ATOM     48  N   UNL A   1      38.897  32.535  33.173  1.00  0.00    -0.354 N 
ATOM     49  C   UNL A   1      38.450  29.349  29.250  1.00  0.00     0.074 A 
ATOM     50  C   UNL A   1      37.676  30.023  28.264  1.00  0.00     0.031 C 
ATOM     51  C   UNL A   1      38.128  34.424  34.096  1.00  0.00     0.029 A 
ATOM     52  C   UNL A   1      39.001  33.300  34.377  1.00  0.00     0.049 A 
ATOM     53  H   UNL A   1      39.460  31.744  33.010  1.00  0.00     0.167 HD
ATOM     54  C   UNL A   1      39.343  28.325  29.134  1.00  0.00     0.037 A 
ATOM     55  C   UNL A   1      39.706  32.994  35.519  1.00  0.00     0.037 A 
ATOM     56  C   UNL A   1      39.929  28.082  30.406  1.00  0.00     0.049 A 
ATOM     57  C   UNL A   1      40.483  31.818  35.117  1.00  0.00     0.074 A 
ATOM     58  C   UNL A   1      39.396  27.529  31.539  1.00  0.00     0.029 A 
ATOM     59  N   UNL A   1      41.027  28.843  30.730  1.00  0.00    -0.354 N 
ATOM     60  N   UNL A   1      41.514  31.859  34.329  1.00  0.00    -0.248 NA
ATOM     61  C   UNL A   1      39.988  30.492  35.503  1.00  0.00     0.031 C 
ATOM     62  C   UNL A   1      39.859  28.401  32.542  1.00  0.00     0.029 A 
ATOM     63  C   UNL A   1      40.894  29.202  32.046  1.00  0.00     0.049 A 
ATOM     64  H   UNL A   1      41.769  29.085  30.129  1.00  0.00     0.167 HD
ATOM     65  C   UNL A   1      41.560  30.569  33.868  1.00  0.00     0.074 A 
ATOM     66  C   UNL A   1      40.874  29.751  34.847  1.00  0.00     0.031 C 
ATOM     67  C   UNL A   1      41.636  30.337  32.531  1.00  0.00     0.037 A 
BRANCH  54  68
ATOM     68  C   UNL A   1      39.976  27.644  27.957  1.00  0.00     0.064 A 
ATOM     69  C   UNL A   1      40.419  26.311  28.146  1.00  0.00     0.173 A 
ATOM     70  C   UNL A   1      40.527  28.335  26.872  1.00  0.00     0.173 A 
ATOM     71  F   UNL A   1      39.893  25.540  29.111  1.00  0.00    -0.203 F 
ATOM     72  C   UNL A   1      41.489  25.783  27.430  1.00  0.00     0.198 A 
ATOM     73  C   UNL A   1      41.561  27.775  26.114  1.00  0.00     0.198 A 
ATOM     74  F   UNL A   1      40.164  29.593  26.592  1.00  0.00    -0.203 F 
ATOM     75  F   UNL A   1      41.998  24.592  27.775  1.00  0.00    -0.200 F 
ATOM     76  C   UNL A   1      42.077  26.529  26.430  1.00  0.00     0.200 A 
ATOM     77  F   UNL A   1      42.121  28.491  25.129  1.00  0.00    -0.200 F 
ATOM     78  F   UNL A   1      43.161  26.063  25.795  1.00  0.00    -0.200 F 
ENDBRANCH  54  68
BRANCH  55  79
ATOM     79  C   UNL A   1      39.885  33.411  36.973  1.00  0.00     0.064 A 
ATOM     80  C   UNL A   1      38.948  33.291  38.004  1.00  0.00     0.173 A 
ATOM     81  C   UNL A   1      41.144  33.941  37.408  1.00  0.00     0.173 A 
ATOM     82  F   UNL A   1      37.686  32.928  37.739  1.00  0.00    -0.203 F 
ATOM     83  C   UNL A   1      39.282  33.564  39.353  1.00  0.00     0.198 A 
ATOM     84  C   UNL A   1      41.493  34.149  38.741  1.00  0.00     0.198 A 
ATOM     85  F   UNL A   1      42.105  34.290  36.544  1.00  0.00    -0.203 F 
ATOM     86  F   UNL A   1      38.349  33.446  40.310  1.00  0.00    -0.200 F 
ATOM     87  C   UNL A   1      40.563  33.946  39.724  1.00  0.00     0.200 A 
ATOM     88  F   UNL A   1      42.742  34.535  39.047  1.00  0.00    -0.200 F 
ATOM     89  F   UNL A   1      40.894  34.133  41.009  1.00  0.00    -0.200 F 
ENDBRANCH  55  79
BRANCH  67  90
ATOM     90  C   UNL A   1      42.194  31.490  31.711  1.00  0.00     0.064 A 
ATOM     91  C   UNL A   1      43.508  31.929  31.942  1.00  0.00     0.173 A 
ATOM     92  C   UNL A   1      41.457  32.249  30.784  1.00  0.00     0.173 A 
ATOM     93  F   UNL A   1      44.300  31.246  32.781  1.00  0.00    -0.203 F 
ATOM     94  C   UNL A   1      44.033  33.064  31.314  1.00  0.00     0.198 A 
ATOM     95  C   UNL A   1      41.975  33.388  30.158  1.00  0.00     0.198 A 
ATOM     96  F   UNL A   1      40.220  31.895  30.444  1.00  0.00    -0.203 F 
ATOM     97  F   UNL A   1      45.295  33.438  31.563  1.00  0.00    -0.200 F 
ATOM     98  C   UNL A   1      43.265  33.798  30.427  1.00  0.00     0.200 A 
ATOM     99  F   UNL A   1      41.222  34.078  29.285  1.00  0.00    -0.200 F 
ATOM    100  F   UNL A   1      43.773  34.878  29.817  1.00  0.00    -0.200 F 
ENDBRANCH  67  90
ENDBRANCH  41  42
ENDBRANCH  34  36
ENDBRANCH  33  34
ENDBRANCH  32  33
ENDBRANCH  31  32
ENDBRANCH  30  31
ENDBRANCH   1  30
TORSDOF 20
ENDMDL
