MODEL 1
REMARK VINA RESULT:     -11.6      0.000      0.000
REMARK SMILES Nc1nc2ccccc2nc1N1CCC(C(=O)OCCOCCOC(=O)c2ccc(-c3c4nc(c(-c5c(F)c(F)c(F)c(F)c5F)c5ccc([nH]5)c(-c5c(F)c(F)c(F)c(F)c5F)c5nc(c(-c6c(F)c(F)c(F)c(F)c6F)c6ccc3[nH]6)C=C5)C=C4)cc2)CC1
REMARK SMILES IDX 21 1 20 2 19 3 18 4 16 5 17 6 15 7 12 8 13 9 91 10 14 11
REMARK SMILES IDX 90 12 11 13 2 14 3 15 4 16 10 17 5 18 9 19 6 20 8 21 7 22
REMARK SMILES IDX 1 23 22 26 23 27 24 28 25 29 26 30 27 31 28 32 89 33 29 34
REMARK SMILES IDX 88 35 30 36 31 37 32 38 82 39 33 40 87 41 81 42 83 43 34 44
REMARK SMILES IDX 86 45 80 46 79 47 35 49 67 50 47 51 66 52 48 53 51 54 65 55
REMARK SMILES IDX 84 56 49 57 50 58 64 60 85 61 52 62 36 63 37 64 45 65 38 66
REMARK SMILES IDX 39 67 43 68 46 69 40 70 41 71 44 72 42 73 68 74 69 75 77 76
REMARK SMILES IDX 70 77 71 78 75 79 78 80 72 81 73 82 76 83 74 84 53 85 54 86
REMARK SMILES IDX 62 87 55 88 56 89 60 90 63 91 57 92 58 93 61 94 59 95
REMARK H PARENT 1 24 1 25 83 48 51 59
REMARK Flexibility Score: inf
ROOT
ATOM      1  O   UNL A   1      31.441  28.871  23.547  1.00  0.00    -0.374 OA
ENDROOT
BRANCH   1   2
ATOM      2  C   UNL A   1      30.935  27.576  23.234  1.00  0.00     0.202 C 
BRANCH   2   3
ATOM      3  C   UNL A   1      29.616  27.149  23.880  1.00  0.00     0.261 C 
BRANCH   3   4
ATOM      4  O   UNL A   1      29.576  25.740  24.156  1.00  0.00    -0.463 OA
BRANCH   4   5
ATOM      5  C   UNL A   1      30.181  25.361  25.311  1.00  0.00     0.309 C 
ATOM      6  O   UNL A   1      30.181  26.008  26.352  1.00  0.00    -0.252 OA
BRANCH   5   7
ATOM      7  C   UNL A   1      30.897  24.036  25.196  1.00  0.00     0.103 C 
ATOM      8  N   UNL A   1      33.037  22.165  25.259  1.00  0.00    -0.353 N 
ATOM      9  C   UNL A   1      32.435  22.465  23.971  1.00  0.00     0.119 C 
ATOM     10  C   UNL A   1      32.281  22.407  26.482  1.00  0.00     0.119 C 
ATOM     11  C   UNL A   1      31.790  23.849  23.963  1.00  0.00     0.037 C 
ATOM     12  C   UNL A   1      31.706  23.816  26.469  1.00  0.00     0.037 C 
BRANCH   8  13
ATOM     13  C   UNL A   1      34.418  22.049  25.362  1.00  0.00     0.172 A 
ATOM     14  C   UNL A   1      35.058  20.793  25.175  1.00  0.00     0.167 A 
ATOM     15  N   UNL A   1      36.384  20.628  25.309  1.00  0.00    -0.226 NA
ATOM     16  C   UNL A   1      37.092  21.725  25.618  1.00  0.00     0.091 A 
ATOM     17  N   UNL A   1      35.147  23.157  25.631  1.00  0.00    -0.225 NA
ATOM     18  C   UNL A   1      38.466  21.603  25.787  1.00  0.00     0.031 A 
ATOM     19  C   UNL A   1      36.478  22.991  25.780  1.00  0.00     0.091 A 
ATOM     20  C   UNL A   1      39.253  22.701  26.130  1.00  0.00     0.002 A 
ATOM     21  C   UNL A   1      37.277  24.078  26.119  1.00  0.00     0.031 A 
ATOM     22  C   UNL A   1      38.656  23.943  26.300  1.00  0.00     0.002 A 
BRANCH  14  23
ATOM     23  N   UNL A   1      34.341  19.645  24.851  1.00  0.00    -0.381 N 
ATOM     24  H   UNL A   1      33.876  19.139  25.556  1.00  0.00     0.158 HD
ATOM     25  H   UNL A   1      34.299  19.338  23.916  1.00  0.00     0.158 HD
ENDBRANCH  14  23
ENDBRANCH   8  13
ENDBRANCH   5   7
ENDBRANCH   4   5
ENDBRANCH   3   4
ENDBRANCH   2   3
ENDBRANCH   1   2
BRANCH   1  26
ATOM     26  C   UNL A   1      31.432  29.290  24.909  1.00  0.00     0.202 C 
BRANCH  26  27
ATOM     27  C   UNL A   1      32.647  30.074  25.428  1.00  0.00     0.261 C 
BRANCH  27  28
ATOM     28  O   UNL A   1      32.568  30.365  26.836  1.00  0.00    -0.460 OA
BRANCH  28  29
ATOM     29  C   UNL A   1      33.223  31.485  27.226  1.00  0.00     0.338 C 
ATOM     30  O   UNL A   1      32.778  32.622  27.285  1.00  0.00    -0.246 OA
BRANCH  29  31
ATOM     31  C   UNL A   1      34.540  31.122  27.784  1.00  0.00     0.060 A 
ATOM     32  C   UNL A   1      35.530  32.080  28.004  1.00  0.00     0.016 A 
ATOM     33  C   UNL A   1      34.753  29.785  28.143  1.00  0.00     0.016 A 
ATOM     34  C   UNL A   1      36.727  31.697  28.617  1.00  0.00     0.010 A 
ATOM     35  C   UNL A   1      35.948  29.404  28.753  1.00  0.00     0.010 A 
ATOM     36  C   UNL A   1      36.936  30.363  29.015  1.00  0.00    -0.014 A 
BRANCH  36  37
ATOM     37  C   UNL A   1      38.127  29.999  29.824  1.00  0.00     0.031 A 
ATOM     38  C   UNL A   1      38.334  30.539  31.207  1.00  0.00     0.074 A 
ATOM     39  C   UNL A   1      39.048  29.185  29.274  1.00  0.00     0.049 A 
ATOM     40  N   UNL A   1      39.294  30.273  32.058  1.00  0.00    -0.248 NA
ATOM     41  C   UNL A   1      37.345  31.508  31.698  1.00  0.00     0.031 C 
ATOM     42  C   UNL A   1      38.979  28.638  27.918  1.00  0.00     0.029 A 
ATOM     43  N   UNL A   1      40.216  28.672  29.782  1.00  0.00    -0.354 N 
ATOM     44  C   UNL A   1      39.013  31.021  33.193  1.00  0.00     0.074 A 
ATOM     45  C   UNL A   1      37.825  31.796  32.901  1.00  0.00     0.031 C 
ATOM     46  C   UNL A   1      40.036  27.837  27.714  1.00  0.00     0.029 A 
ATOM     47  C   UNL A   1      40.875  27.839  28.910  1.00  0.00     0.049 A 
ATOM     48  H   UNL A   1      40.550  28.881  30.684  1.00  0.00     0.167 HD
ATOM     49  C   UNL A   1      39.676  31.036  34.375  1.00  0.00     0.037 A 
ATOM     50  C   UNL A   1      42.022  27.150  29.058  1.00  0.00     0.037 A 
ATOM     51  C   UNL A   1      40.868  30.273  34.652  1.00  0.00     0.049 A 
ATOM     52  C   UNL A   1      42.764  27.225  30.364  1.00  0.00     0.074 A 
ATOM     53  C   UNL A   1      41.586  30.198  35.832  1.00  0.00     0.029 A 
ATOM     54  N   UNL A   1      41.527  29.466  33.734  1.00  0.00    -0.354 N 
ATOM     55  N   UNL A   1      42.442  27.868  31.461  1.00  0.00    -0.248 NA
ATOM     56  C   UNL A   1      44.023  26.475  30.457  1.00  0.00     0.031 C 
ATOM     57  C   UNL A   1      42.709  29.393  35.614  1.00  0.00     0.029 A 
ATOM     58  C   UNL A   1      42.659  28.915  34.315  1.00  0.00     0.049 A 
ATOM     59  H   UNL A   1      41.233  29.309  32.807  1.00  0.00     0.167 HD
ATOM     60  C   UNL A   1      43.445  27.583  32.378  1.00  0.00     0.074 A 
ATOM     61  C   UNL A   1      44.375  26.692  31.716  1.00  0.00     0.031 C 
ATOM     62  C   UNL A   1      43.581  28.027  33.651  1.00  0.00     0.037 A 
BRANCH  49  63
ATOM     63  C   UNL A   1      39.125  31.894  35.478  1.00  0.00     0.064 A 
ATOM     64  C   UNL A   1      38.291  31.354  36.470  1.00  0.00     0.173 A 
ATOM     65  C   UNL A   1      39.508  33.238  35.603  1.00  0.00     0.173 A 
ATOM     66  F   UNL A   1      37.895  30.075  36.397  1.00  0.00    -0.203 F 
ATOM     67  C   UNL A   1      37.849  32.134  37.536  1.00  0.00     0.198 A 
ATOM     68  C   UNL A   1      39.087  34.006  36.686  1.00  0.00     0.198 A 
ATOM     69  F   UNL A   1      40.313  33.800  34.690  1.00  0.00    -0.203 F 
ATOM     70  F   UNL A   1      37.029  31.604  38.455  1.00  0.00    -0.200 F 
ATOM     71  C   UNL A   1      38.255  33.455  37.650  1.00  0.00     0.200 A 
ATOM     72  F   UNL A   1      39.496  35.276  36.805  1.00  0.00    -0.200 F 
ATOM     73  F   UNL A   1      37.846  34.196  38.688  1.00  0.00    -0.200 F 
ENDBRANCH  49  63
BRANCH  50  74
ATOM     74  C   UNL A   1      42.513  26.295  27.946  1.00  0.00     0.064 A 
ATOM     75  C   UNL A   1      43.383  26.810  26.974  1.00  0.00     0.173 A 
ATOM     76  C   UNL A   1      42.146  24.945  27.844  1.00  0.00     0.173 A 
ATOM     77  F   UNL A   1      43.747  28.099  27.018  1.00  0.00    -0.203 F 
ATOM     78  C   UNL A   1      43.858  26.010  25.938  1.00  0.00     0.198 A 
ATOM     79  C   UNL A   1      42.646  24.138  26.824  1.00  0.00     0.198 A 
ATOM     80  F   UNL A   1      41.319  24.403  28.751  1.00  0.00    -0.203 F 
ATOM     81  F   UNL A   1      44.658  26.536  25.001  1.00  0.00    -0.200 F 
ATOM     82  C   UNL A   1      43.497  24.672  25.868  1.00  0.00     0.200 A 
ATOM     83  F   UNL A   1      42.309  22.842  26.773  1.00  0.00    -0.200 F 
ATOM     84  F   UNL A   1      43.966  23.900  24.879  1.00  0.00    -0.200 F 
ENDBRANCH  50  74
BRANCH  62  85
ATOM     85  C   UNL A   1      44.773  27.550  34.433  1.00  0.00     0.064 A 
ATOM     86  C   UNL A   1      45.987  28.252  34.422  1.00  0.00     0.173 A 
ATOM     87  C   UNL A   1      44.676  26.420  35.261  1.00  0.00     0.173 A 
ATOM     88  F   UNL A   1      46.136  29.330  33.638  1.00  0.00    -0.203 F 
ATOM     89  C   UNL A   1      47.064  27.833  35.199  1.00  0.00     0.198 A 
ATOM     90  C   UNL A   1      45.744  26.023  36.061  1.00  0.00     0.198 A 
ATOM     91  F   UNL A   1      43.535  25.715  35.314  1.00  0.00    -0.203 F 
ATOM     92  F   UNL A   1      48.226  28.498  35.145  1.00  0.00    -0.200 F 
ATOM     93  C   UNL A   1      46.938  26.727  36.027  1.00  0.00     0.200 A 
ATOM     94  F   UNL A   1      45.614  24.965  36.874  1.00  0.00    -0.200 F 
ATOM     95  F   UNL A   1      47.969  26.338  36.789  1.00  0.00    -0.200 F 
ENDBRANCH  62  85
ENDBRANCH  36  37
ENDBRANCH  29  31
ENDBRANCH  28  29
ENDBRANCH  27  28
ENDBRANCH  26  27
ENDBRANCH   1  26
TORSDOF 16
ENDMDL
MODEL 2
REMARK VINA RESULT:     -11.5      1.109      2.581
REMARK SMILES Nc1nc2ccccc2nc1N1CCC(C(=O)OCCOCCOC(=O)c2ccc(-c3c4nc(c(-c5c(F)c(F)c(F)c(F)c5F)c5ccc([nH]5)c(-c5c(F)c(F)c(F)c(F)c5F)c5nc(c(-c6c(F)c(F)c(F)c(F)c6F)c6ccc3[nH]6)C=C5)C=C4)cc2)CC1
REMARK SMILES IDX 21 1 20 2 19 3 18 4 16 5 17 6 15 7 12 8 13 9 91 10 14 11
REMARK SMILES IDX 90 12 11 13 2 14 3 15 4 16 10 17 5 18 9 19 6 20 8 21 7 22
REMARK SMILES IDX 1 23 22 26 23 27 24 28 25 29 26 30 27 31 28 32 89 33 29 34
REMARK SMILES IDX 88 35 30 36 31 37 32 38 82 39 33 40 87 41 81 42 83 43 34 44
REMARK SMILES IDX 86 45 80 46 79 47 35 49 67 50 47 51 66 52 48 53 51 54 65 55
REMARK SMILES IDX 84 56 49 57 50 58 64 60 85 61 52 62 36 63 37 64 45 65 38 66
REMARK SMILES IDX 39 67 43 68 46 69 40 70 41 71 44 72 42 73 68 74 69 75 77 76
REMARK SMILES IDX 70 77 71 78 75 79 78 80 72 81 73 82 76 83 74 84 53 85 54 86
REMARK SMILES IDX 62 87 55 88 56 89 60 90 63 91 57 92 58 93 61 94 59 95
REMARK H PARENT 1 24 1 25 83 48 51 59
REMARK Flexibility Score: inf
ROOT
ATOM      1  O   UNL A   1      31.972  29.370  24.954  1.00  0.00    -0.374 OA
ENDROOT
BRANCH   1   2
ATOM      2  C   UNL A   1      32.136  28.916  23.613  1.00  0.00     0.202 C 
BRANCH   2   3
ATOM      3  C   UNL A   1      30.903  28.378  22.885  1.00  0.00     0.261 C 
BRANCH   3   4
ATOM      4  O   UNL A   1      30.907  26.945  22.794  1.00  0.00    -0.463 OA
BRANCH   4   5
ATOM      5  C   UNL A   1      30.457  26.296  23.898  1.00  0.00     0.309 C 
ATOM      6  O   UNL A   1      29.300  26.316  24.306  1.00  0.00    -0.252 OA
BRANCH   5   7
ATOM      7  C   UNL A   1      31.544  25.535  24.620  1.00  0.00     0.103 C 
ATOM      8  N   UNL A   1      33.285  23.387  25.280  1.00  0.00    -0.353 N 
ATOM      9  C   UNL A   1      32.278  23.769  26.255  1.00  0.00     0.119 C 
ATOM     10  C   UNL A   1      33.708  24.346  24.266  1.00  0.00     0.119 C 
ATOM     11  C   UNL A   1      31.080  24.440  25.590  1.00  0.00     0.037 C 
ATOM     12  C   UNL A   1      32.490  24.948  23.579  1.00  0.00     0.037 C 
BRANCH   8  13
ATOM     13  C   UNL A   1      33.539  22.040  25.044  1.00  0.00     0.172 A 
ATOM     14  C   UNL A   1      34.658  21.397  25.641  1.00  0.00     0.167 A 
ATOM     15  N   UNL A   1      34.964  20.110  25.406  1.00  0.00    -0.226 NA
ATOM     16  C   UNL A   1      34.144  19.444  24.580  1.00  0.00     0.091 A 
ATOM     17  N   UNL A   1      32.694  21.347  24.247  1.00  0.00    -0.225 NA
ATOM     18  C   UNL A   1      34.428  18.116  24.289  1.00  0.00     0.031 A 
ATOM     19  C   UNL A   1      33.007  20.058  23.998  1.00  0.00     0.091 A 
ATOM     20  C   UNL A   1      33.626  17.377  23.421  1.00  0.00     0.002 A 
ATOM     21  C   UNL A   1      32.214  19.307  23.137  1.00  0.00     0.031 A 
ATOM     22  C   UNL A   1      32.517  17.975  22.840  1.00  0.00     0.002 A 
BRANCH  14  23
ATOM     23  N   UNL A   1      35.518  22.070  26.503  1.00  0.00    -0.381 N 
ATOM     24  H   UNL A   1      35.199  22.855  27.004  1.00  0.00     0.158 HD
ATOM     25  H   UNL A   1      36.447  21.761  26.613  1.00  0.00     0.158 HD
ENDBRANCH  14  23
ENDBRANCH   8  13
ENDBRANCH   5   7
ENDBRANCH   4   5
ENDBRANCH   3   4
ENDBRANCH   2   3
ENDBRANCH   1   2
BRANCH   1  26
ATOM     26  C   UNL A   1      31.043  30.422  25.203  1.00  0.00     0.202 C 
BRANCH  26  27
ATOM     27  C   UNL A   1      31.401  31.459  26.278  1.00  0.00     0.261 C 
BRANCH  27  28
ATOM     28  O   UNL A   1      32.609  31.134  26.991  1.00  0.00    -0.460 OA
BRANCH  28  29
ATOM     29  C   UNL A   1      33.329  32.202  27.413  1.00  0.00     0.338 C 
ATOM     30  O   UNL A   1      32.944  33.357  27.524  1.00  0.00    -0.246 OA
BRANCH  29  31
ATOM     31  C   UNL A   1      34.632  31.749  27.935  1.00  0.00     0.060 A 
ATOM     32  C   UNL A   1      35.691  32.637  28.128  1.00  0.00     0.016 A 
ATOM     33  C   UNL A   1      34.763  30.399  28.287  1.00  0.00     0.016 A 
ATOM     34  C   UNL A   1      36.875  32.172  28.707  1.00  0.00     0.010 A 
ATOM     35  C   UNL A   1      35.946  29.937  28.863  1.00  0.00     0.010 A 
ATOM     36  C   UNL A   1      37.003  30.825  29.099  1.00  0.00    -0.014 A 
BRANCH  36  37
ATOM     37  C   UNL A   1      38.189  30.379  29.874  1.00  0.00     0.031 A 
ATOM     38  C   UNL A   1      38.441  30.860  31.272  1.00  0.00     0.074 A 
ATOM     39  C   UNL A   1      39.064  29.545  29.281  1.00  0.00     0.049 A 
ATOM     40  N   UNL A   1      39.401  30.520  32.097  1.00  0.00    -0.248 NA
ATOM     41  C   UNL A   1      37.505  31.853  31.813  1.00  0.00     0.031 C 
ATOM     42  C   UNL A   1      38.949  29.051  27.908  1.00  0.00     0.029 A 
ATOM     43  N   UNL A   1      40.214  28.962  29.751  1.00  0.00    -0.354 N 
ATOM     44  C   UNL A   1      39.172  31.239  33.262  1.00  0.00     0.074 A 
ATOM     45  C   UNL A   1      38.016  32.076  33.018  1.00  0.00     0.031 C 
ATOM     46  C   UNL A   1      39.965  28.211  27.658  1.00  0.00     0.029 A 
ATOM     47  C   UNL A   1      40.822  28.133  28.840  1.00  0.00     0.049 A 
ATOM     48  H   UNL A   1      40.571  29.124  30.653  1.00  0.00     0.167 HD
ATOM     49  C   UNL A   1      39.852  31.182  34.432  1.00  0.00     0.037 A 
ATOM     50  C   UNL A   1      41.938  27.388  28.943  1.00  0.00     0.037 A 
ATOM     51  C   UNL A   1      41.012  30.356  34.662  1.00  0.00     0.049 A 
ATOM     52  C   UNL A   1      42.702  27.382  30.239  1.00  0.00     0.074 A 
ATOM     53  C   UNL A   1      41.744  30.206  35.827  1.00  0.00     0.029 A 
ATOM     54  N   UNL A   1      41.619  29.554  33.706  1.00  0.00    -0.354 N 
ATOM     55  N   UNL A   1      42.427  27.999  31.363  1.00  0.00    -0.248 NA
ATOM     56  C   UNL A   1      43.927  26.573  30.284  1.00  0.00     0.031 C 
ATOM     57  C   UNL A   1      42.825  29.360  35.562  1.00  0.00     0.029 A 
ATOM     58  C   UNL A   1      42.734  28.932  34.248  1.00  0.00     0.049 A 
ATOM     59  H   UNL A   1      41.305  29.443  32.779  1.00  0.00     0.167 HD
ATOM     60  C   UNL A   1      43.429  27.637  32.252  1.00  0.00     0.074 A 
ATOM     61  C   UNL A   1      44.307  26.729  31.544  1.00  0.00     0.031 C 
ATOM     62  C   UNL A   1      43.605  28.027  33.538  1.00  0.00     0.037 A 
BRANCH  49  63
ATOM     63  C   UNL A   1      39.357  32.023  35.574  1.00  0.00     0.064 A 
ATOM     64  C   UNL A   1      38.469  31.502  36.528  1.00  0.00     0.173 A 
ATOM     65  C   UNL A   1      39.846  33.323  35.774  1.00  0.00     0.173 A 
ATOM     66  F   UNL A   1      37.972  30.265  36.384  1.00  0.00    -0.203 F 
ATOM     67  C   UNL A   1      38.077  32.259  37.630  1.00  0.00     0.198 A 
ATOM     68  C   UNL A   1      39.474  34.065  36.892  1.00  0.00     0.198 A 
ATOM     69  F   UNL A   1      40.706  33.864  34.899  1.00  0.00    -0.203 F 
ATOM     70  F   UNL A   1      37.205  31.751  38.512  1.00  0.00    -0.200 F 
ATOM     71  C   UNL A   1      38.587  33.535  37.817  1.00  0.00     0.200 A 
ATOM     72  F   UNL A   1      39.983  35.290  37.081  1.00  0.00    -0.200 F 
ATOM     73  F   UNL A   1      38.226  34.252  38.889  1.00  0.00    -0.200 F 
ENDBRANCH  49  63
BRANCH  50  74
ATOM     74  C   UNL A   1      42.373  26.552  27.794  1.00  0.00     0.064 A 
ATOM     75  C   UNL A   1      41.820  25.282  27.579  1.00  0.00     0.173 A 
ATOM     76  C   UNL A   1      43.327  27.012  26.874  1.00  0.00     0.173 A 
ATOM     77  F   UNL A   1      40.917  24.791  28.440  1.00  0.00    -0.203 F 
ATOM     78  C   UNL A   1      42.212  24.500  26.496  1.00  0.00     0.198 A 
ATOM     79  C   UNL A   1      43.697  26.242  25.774  1.00  0.00     0.198 A 
ATOM     80  F   UNL A   1      43.884  28.223  27.032  1.00  0.00    -0.203 F 
ATOM     81  F   UNL A   1      41.696  23.274  26.334  1.00  0.00    -0.200 F 
ATOM     82  C   UNL A   1      43.144  24.984  25.588  1.00  0.00     0.200 A 
ATOM     83  F   UNL A   1      44.583  26.722  24.891  1.00  0.00    -0.200 F 
ATOM     84  F   UNL A   1      43.511  24.237  24.538  1.00  0.00    -0.200 F 
ENDBRANCH  50  74
BRANCH  62  85
ATOM     85  C   UNL A   1      44.785  27.469  34.282  1.00  0.00     0.064 A 
ATOM     86  C   UNL A   1      44.708  26.250  34.972  1.00  0.00     0.173 A 
ATOM     87  C   UNL A   1      46.027  28.123  34.243  1.00  0.00     0.173 A 
ATOM     88  F   UNL A   1      43.542  25.592  35.052  1.00  0.00    -0.203 F 
ATOM     89  C   UNL A   1      45.826  25.714  35.606  1.00  0.00     0.198 A 
ATOM     90  C   UNL A   1      47.150  27.568  34.850  1.00  0.00     0.198 A 
ATOM     91  F   UNL A   1      46.158  29.289  33.591  1.00  0.00    -0.203 F 
ATOM     92  F   UNL A   1      45.720  24.567  36.290  1.00  0.00    -0.200 F 
ATOM     93  C   UNL A   1      47.048  26.367  35.535  1.00  0.00     0.200 A 
ATOM     94  F   UNL A   1      48.334  28.191  34.764  1.00  0.00    -0.200 F 
ATOM     95  F   UNL A   1      48.127  25.838  36.129  1.00  0.00    -0.200 F 
ENDBRANCH  62  85
ENDBRANCH  36  37
ENDBRANCH  29  31
ENDBRANCH  28  29
ENDBRANCH  27  28
ENDBRANCH  26  27
ENDBRANCH   1  26
TORSDOF 16
ENDMDL
MODEL 3
REMARK VINA RESULT:     -11.4      3.537      9.151
REMARK SMILES Nc1nc2ccccc2nc1N1CCC(C(=O)OCCOCCOC(=O)c2ccc(-c3c4nc(c(-c5c(F)c(F)c(F)c(F)c5F)c5ccc([nH]5)c(-c5c(F)c(F)c(F)c(F)c5F)c5nc(c(-c6c(F)c(F)c(F)c(F)c6F)c6ccc3[nH]6)C=C5)C=C4)cc2)CC1
REMARK SMILES IDX 21 1 20 2 19 3 18 4 16 5 17 6 15 7 12 8 13 9 91 10 14 11
REMARK SMILES IDX 90 12 11 13 2 14 3 15 4 16 10 17 5 18 9 19 6 20 8 21 7 22
REMARK SMILES IDX 1 23 22 26 23 27 24 28 25 29 26 30 27 31 28 32 89 33 29 34
REMARK SMILES IDX 88 35 30 36 31 37 32 38 82 39 33 40 87 41 81 42 83 43 34 44
REMARK SMILES IDX 86 45 80 46 79 47 35 49 67 50 47 51 66 52 48 53 51 54 65 55
REMARK SMILES IDX 84 56 49 57 50 58 64 60 85 61 52 62 36 63 37 64 45 65 38 66
REMARK SMILES IDX 39 67 43 68 46 69 40 70 41 71 44 72 42 73 68 74 69 75 77 76
REMARK SMILES IDX 70 77 71 78 75 79 78 80 72 81 73 82 76 83 74 84 53 85 54 86
REMARK SMILES IDX 62 87 55 88 56 89 60 90 63 91 57 92 58 93 61 94 59 95
REMARK H PARENT 1 24 1 25 83 48 51 59
REMARK Flexibility Score: inf
ROOT
ATOM      1  O   UNL A   1      34.021  33.921  29.096  1.00  0.00    -0.374 OA
ENDROOT
BRANCH   1   2
ATOM      2  C   UNL A   1      34.598  33.167  28.033  1.00  0.00     0.202 C 
BRANCH   2   3
ATOM      3  C   UNL A   1      35.196  31.799  28.369  1.00  0.00     0.261 C 
BRANCH   3   4
ATOM      4  O   UNL A   1      34.299  30.722  28.058  1.00  0.00    -0.463 OA
BRANCH   4   5
ATOM      5  C   UNL A   1      34.896  29.578  27.637  1.00  0.00     0.309 C 
ATOM      6  O   UNL A   1      36.045  29.242  27.904  1.00  0.00    -0.252 OA
BRANCH   5   7
ATOM      7  C   UNL A   1      34.000  28.730  26.764  1.00  0.00     0.103 C 
ATOM      8  N   UNL A   1      32.032  28.096  24.814  1.00  0.00    -0.353 N 
ATOM      9  C   UNL A   1      31.740  27.779  26.202  1.00  0.00     0.119 C 
ATOM     10  C   UNL A   1      33.417  28.254  24.386  1.00  0.00     0.119 C 
ATOM     11  C   UNL A   1      32.518  28.679  27.157  1.00  0.00     0.037 C 
ATOM     12  C   UNL A   1      34.145  29.207  25.323  1.00  0.00     0.037 C 
BRANCH   8  13
ATOM     13  C   UNL A   1      31.038  28.641  24.009  1.00  0.00     0.172 A 
ATOM     14  C   UNL A   1      30.607  27.970  22.832  1.00  0.00     0.167 A 
ATOM     15  N   UNL A   1      29.682  28.482  22.003  1.00  0.00    -0.226 NA
ATOM     16  C   UNL A   1      29.163  29.669  22.351  1.00  0.00     0.091 A 
ATOM     17  N   UNL A   1      30.476  29.817  24.373  1.00  0.00    -0.225 NA
ATOM     18  C   UNL A   1      28.216  30.251  21.517  1.00  0.00     0.031 A 
ATOM     19  C   UNL A   1      29.556  30.340  23.535  1.00  0.00     0.091 A 
ATOM     20  C   UNL A   1      27.656  31.492  21.813  1.00  0.00     0.002 A 
ATOM     21  C   UNL A   1      28.986  31.576  23.819  1.00  0.00     0.031 A 
ATOM     22  C   UNL A   1      28.044  32.160  22.966  1.00  0.00     0.002 A 
BRANCH  14  23
ATOM     23  N   UNL A   1      31.132  26.737  22.455  1.00  0.00    -0.381 N 
ATOM     24  H   UNL A   1      30.527  25.994  22.227  1.00  0.00     0.158 HD
ATOM     25  H   UNL A   1      32.107  26.607  22.417  1.00  0.00     0.158 HD
ENDBRANCH  14  23
ENDBRANCH   8  13
ENDBRANCH   5   7
ENDBRANCH   4   5
ENDBRANCH   3   4
ENDBRANCH   2   3
ENDBRANCH   1   2
BRANCH   1  26
ATOM     26  C   UNL A   1      33.956  35.338  28.962  1.00  0.00     0.202 C 
BRANCH  26  27
ATOM     27  C   UNL A   1      32.805  36.075  29.664  1.00  0.00     0.261 C 
BRANCH  27  28
ATOM     28  O   UNL A   1      33.139  36.492  31.002  1.00  0.00    -0.460 OA
BRANCH  28  29
ATOM     29  C   UNL A   1      32.724  35.652  31.982  1.00  0.00     0.338 C 
ATOM     30  O   UNL A   1      31.573  35.345  32.256  1.00  0.00    -0.246 OA
BRANCH  29  31
ATOM     31  C   UNL A   1      33.888  34.969  32.578  1.00  0.00     0.060 A 
ATOM     32  C   UNL A   1      33.771  33.718  33.183  1.00  0.00     0.016 A 
ATOM     33  C   UNL A   1      35.138  35.593  32.470  1.00  0.00     0.016 A 
ATOM     34  C   UNL A   1      34.920  33.077  33.654  1.00  0.00     0.010 A 
ATOM     35  C   UNL A   1      36.284  34.952  32.942  1.00  0.00     0.010 A 
ATOM     36  C   UNL A   1      36.187  33.678  33.516  1.00  0.00    -0.014 A 
BRANCH  36  37
ATOM     37  C   UNL A   1      37.418  32.919  33.852  1.00  0.00     0.031 A 
ATOM     38  C   UNL A   1      37.959  31.856  32.944  1.00  0.00     0.074 A 
ATOM     39  C   UNL A   1      38.035  33.186  35.019  1.00  0.00     0.049 A 
ATOM     40  N   UNL A   1      39.051  31.144  33.072  1.00  0.00    -0.248 NA
ATOM     41  C   UNL A   1      37.172  31.542  31.744  1.00  0.00     0.031 C 
ATOM     42  C   UNL A   1      37.574  34.163  36.005  1.00  0.00     0.029 A 
ATOM     43  N   UNL A   1      39.180  32.668  35.572  1.00  0.00    -0.354 N 
ATOM     44  C   UNL A   1      39.097  30.316  31.959  1.00  0.00     0.074 A 
ATOM     45  C   UNL A   1      37.893  30.573  31.195  1.00  0.00     0.031 C 
ATOM     46  C   UNL A   1      38.445  34.203  37.025  1.00  0.00     0.029 A 
ATOM     47  C   UNL A   1      39.508  33.231  36.782  1.00  0.00     0.049 A 
ATOM     48  H   UNL A   1      39.714  31.961  35.144  1.00  0.00     0.167 HD
ATOM     49  C   UNL A   1      40.069  29.443  31.600  1.00  0.00     0.037 A 
ATOM     50  C   UNL A   1      40.550  32.996  37.601  1.00  0.00     0.037 A 
ATOM     51  C   UNL A   1      41.257  29.181  32.374  1.00  0.00     0.049 A 
ATOM     52  C   UNL A   1      41.589  31.984  37.201  1.00  0.00     0.074 A 
ATOM     53  C   UNL A   1      42.314  28.341  32.071  1.00  0.00     0.029 A 
ATOM     54  N   UNL A   1      41.541  29.745  33.611  1.00  0.00    -0.354 N 
ATOM     55  N   UNL A   1      41.666  31.269  36.105  1.00  0.00    -0.248 NA
ATOM     56  C   UNL A   1      42.687  31.750  38.148  1.00  0.00     0.031 C 
ATOM     57  C   UNL A   1      43.207  28.350  33.146  1.00  0.00     0.029 A 
ATOM     58  C   UNL A   1      42.740  29.244  34.096  1.00  0.00     0.049 A 
ATOM     59  H   UNL A   1      40.973  30.402  34.075  1.00  0.00     0.167 HD
ATOM     60  C   UNL A   1      42.829  30.519  36.219  1.00  0.00     0.074 A 
ATOM     61  C   UNL A   1      43.436  30.881  37.483  1.00  0.00     0.031 C 
ATOM     62  C   UNL A   1      43.340  29.610  35.355  1.00  0.00     0.037 A 
BRANCH  49  63
ATOM     63  C   UNL A   1      39.907  28.706  30.300  1.00  0.00     0.064 A 
ATOM     64  C   UNL A   1      40.411  29.231  29.101  1.00  0.00     0.173 A 
ATOM     65  C   UNL A   1      39.332  27.426  30.267  1.00  0.00     0.173 A 
ATOM     66  F   UNL A   1      40.969  30.450  29.078  1.00  0.00    -0.203 F 
ATOM     67  C   UNL A   1      40.331  28.508  27.913  1.00  0.00     0.198 A 
ATOM     68  C   UNL A   1      39.280  26.695  29.083  1.00  0.00     0.198 A 
ATOM     69  F   UNL A   1      38.846  26.873  31.387  1.00  0.00    -0.203 F 
ATOM     70  F   UNL A   1      40.794  29.042  26.774  1.00  0.00    -0.200 F 
ATOM     71  C   UNL A   1      39.776  27.237  27.906  1.00  0.00     0.200 A 
ATOM     72  F   UNL A   1      38.762  25.459  29.082  1.00  0.00    -0.200 F 
ATOM     73  F   UNL A   1      39.721  26.535  26.767  1.00  0.00    -0.200 F 
ENDBRANCH  49  63
BRANCH  50  74
ATOM     74  C   UNL A   1      40.680  33.768  38.864  1.00  0.00     0.064 A 
ATOM     75  C   UNL A   1      41.498  34.905  38.930  1.00  0.00     0.173 A 
ATOM     76  C   UNL A   1      39.973  33.406  40.020  1.00  0.00     0.173 A 
ATOM     77  F   UNL A   1      42.208  35.281  37.857  1.00  0.00    -0.203 F 
ATOM     78  C   UNL A   1      41.613  35.641  40.106  1.00  0.00     0.198 A 
ATOM     79  C   UNL A   1      40.064  34.161  41.187  1.00  0.00     0.198 A 
ATOM     80  F   UNL A   1      39.173  32.328  40.008  1.00  0.00    -0.203 F 
ATOM     81  F   UNL A   1      42.431  36.702  40.154  1.00  0.00    -0.200 F 
ATOM     82  C   UNL A   1      40.889  35.275  41.232  1.00  0.00     0.200 A 
ATOM     83  F   UNL A   1      39.349  33.812  42.265  1.00  0.00    -0.200 F 
ATOM     84  F   UNL A   1      40.988  35.992  42.359  1.00  0.00    -0.200 F 
ENDBRANCH  50  74
BRANCH  62  85
ATOM     85  C   UNL A   1      44.634  28.942  35.729  1.00  0.00     0.064 A 
ATOM     86  C   UNL A   1      45.874  29.504  35.394  1.00  0.00     0.173 A 
ATOM     87  C   UNL A   1      44.633  27.766  36.495  1.00  0.00     0.173 A 
ATOM     88  F   UNL A   1      45.931  30.620  34.651  1.00  0.00    -0.203 F 
ATOM     89  C   UNL A   1      47.065  28.907  35.799  1.00  0.00     0.198 A 
ATOM     90  C   UNL A   1      45.825  27.189  36.927  1.00  0.00     0.198 A 
ATOM     91  F   UNL A   1      43.474  27.189  36.849  1.00  0.00    -0.203 F 
ATOM     92  F   UNL A   1      48.239  29.442  35.437  1.00  0.00    -0.200 F 
ATOM     93  C   UNL A   1      47.039  27.757  36.576  1.00  0.00     0.200 A 
ATOM     94  F   UNL A   1      45.797  26.089  37.692  1.00  0.00    -0.200 F 
ATOM     95  F   UNL A   1      48.186  27.195  36.982  1.00  0.00    -0.200 F 
ENDBRANCH  62  85
ENDBRANCH  36  37
ENDBRANCH  29  31
ENDBRANCH  28  29
ENDBRANCH  27  28
ENDBRANCH  26  27
ENDBRANCH   1  26
TORSDOF 16
ENDMDL
