MODEL 1
REMARK VINA RESULT:     -11.8      0.000      0.000
REMARK SMILES C[C@H]1[C@@H](C(=O)OCCOCCOC(=O)c2ccc(-c3c4nc(c(-c5c(F)c(F)c(F)c(F)c5F)c5ccc([nH]5)c(-c5c(F)c(F)c(F)c(F)c5F)c5nc(c(-c6c(F)c(F)c(F)c(F)c6F)c6ccc3[nH]6)C=C5)C=C4)cc2)CCN1C(=O)c1n[nH]c(N)n1
REMARK SMILES IDX 8 1 7 2 6 3 4 4 5 5 3 6 1 7 2 8 80 9 78 10 79 11 81 12 82 13
REMARK SMILES IDX 83 14 84 15 88 16 85 17 86 18 87 20 9 23 10 24 11 25 12 26
REMARK SMILES IDX 13 27 14 28 15 29 16 30 77 31 17 32 76 33 18 34 19 35 20 36
REMARK SMILES IDX 70 37 21 38 75 39 69 40 71 41 22 42 74 43 68 44 67 45 23 47
REMARK SMILES IDX 55 48 35 49 54 50 36 51 39 52 53 53 72 54 37 55 38 56 52 58
REMARK SMILES IDX 73 59 40 60 24 61 25 62 33 63 26 64 27 65 31 66 34 67 28 68
REMARK SMILES IDX 29 69 32 70 30 71 56 72 57 73 65 74 58 75 59 76 63 77 66 78
REMARK SMILES IDX 60 79 61 80 64 81 62 82 41 83 42 84 50 85 43 86 44 87 48 88
REMARK SMILES IDX 51 89 45 90 46 91 49 92 47 93
REMARK H PARENT 85 19 87 21 87 22 71 46 39 57
REMARK Flexibility Score: inf
ROOT
ATOM      1  C   UNL A   1      31.338  28.944  23.180  1.00  0.00     0.202 C 
ENDROOT
BRANCH   1   2
ATOM      2  C   UNL A   1      30.374  27.914  22.585  1.00  0.00     0.261 C 
BRANCH   2   3
ATOM      3  O   UNL A   1      31.096  27.088  21.650  1.00  0.00    -0.463 OA
BRANCH   3   4
ATOM      4  C   UNL A   1      31.692  25.976  22.121  1.00  0.00     0.311 C 
ATOM      5  O   UNL A   1      32.674  25.454  21.603  1.00  0.00    -0.252 OA
BRANCH   4   6
ATOM      6  C   UNL A   1      31.081  25.433  23.406  1.00  0.00     0.123 C 
ATOM      7  C   UNL A   1      33.103  26.229  24.912  1.00  0.00     0.032 C 
ATOM      8  C   UNL A   1      31.743  25.539  24.803  1.00  0.00     0.096 C 
ATOM      9  N   UNL A   1      31.806  24.159  25.310  1.00  0.00    -0.332 N 
ATOM     10  C   UNL A   1      30.763  23.936  23.215  1.00  0.00     0.039 C 
ATOM     11  C   UNL A   1      31.539  23.191  24.280  1.00  0.00     0.121 C 
BRANCH   9  12
ATOM     12  C   UNL A   1      32.149  23.722  26.594  1.00  0.00     0.293 C 
ATOM     13  O   UNL A   1      31.441  24.007  27.563  1.00  0.00    -0.265 OA
BRANCH  12  14
ATOM     14  C   UNL A   1      33.364  22.891  26.748  1.00  0.00     0.241 A 
ATOM     15  N   UNL A   1      33.471  21.868  27.624  1.00  0.00    -0.147 NA
ATOM     16  N   UNL A   1      34.521  23.120  26.021  1.00  0.00    -0.187 NA
ATOM     17  N   UNL A   1      34.726  21.450  27.399  1.00  0.00    -0.245 N 
ATOM     18  C   UNL A   1      35.357  22.223  26.470  1.00  0.00     0.216 A 
ATOM     19  H   UNL A   1      35.142  20.679  27.851  1.00  0.00     0.193 HD
BRANCH  18  20
ATOM     20  N   UNL A   1      36.635  22.046  26.127  1.00  0.00    -0.368 N 
ATOM     21  H   UNL A   1      37.242  21.554  26.726  1.00  0.00     0.159 HD
ATOM     22  H   UNL A   1      36.971  22.407  25.275  1.00  0.00     0.159 HD
ENDBRANCH  18  20
ENDBRANCH  12  14
ENDBRANCH   9  12
ENDBRANCH   4   6
ENDBRANCH   3   4
ENDBRANCH   2   3
ENDBRANCH   1   2
BRANCH   1  23
ATOM     23  O   UNL A   1      31.000  29.355  24.507  1.00  0.00    -0.374 OA
BRANCH  23  24
ATOM     24  C   UNL A   1      32.089  29.740  25.347  1.00  0.00     0.202 C 
BRANCH  24  25
ATOM     25  C   UNL A   1      31.777  30.887  26.310  1.00  0.00     0.261 C 
BRANCH  25  26
ATOM     26  O   UNL A   1      32.659  30.850  27.445  1.00  0.00    -0.460 OA
BRANCH  26  27
ATOM     27  C   UNL A   1      33.421  31.954  27.593  1.00  0.00     0.338 C 
ATOM     28  O   UNL A   1      33.040  33.118  27.619  1.00  0.00    -0.246 OA
BRANCH  27  29
ATOM     29  C   UNL A   1      34.819  31.583  27.879  1.00  0.00     0.060 A 
ATOM     30  C   UNL A   1      35.099  30.215  27.981  1.00  0.00     0.016 A 
ATOM     31  C   UNL A   1      35.822  32.530  28.119  1.00  0.00     0.016 A 
ATOM     32  C   UNL A   1      36.349  29.789  28.412  1.00  0.00     0.010 A 
ATOM     33  C   UNL A   1      37.082  32.099  28.549  1.00  0.00     0.010 A 
ATOM     34  C   UNL A   1      37.331  30.729  28.752  1.00  0.00    -0.014 A 
BRANCH  34  35
ATOM     35  C   UNL A   1      38.524  30.257  29.495  1.00  0.00     0.031 A 
ATOM     36  C   UNL A   1      38.710  30.699  30.921  1.00  0.00     0.074 A 
ATOM     37  C   UNL A   1      39.367  29.366  28.945  1.00  0.00     0.049 A 
ATOM     38  N   UNL A   1      39.610  30.326  31.797  1.00  0.00    -0.248 NA
ATOM     39  C   UNL A   1      37.749  31.690  31.433  1.00  0.00     0.031 C 
ATOM     40  C   UNL A   1      39.271  28.842  27.585  1.00  0.00     0.029 A 
ATOM     41  N   UNL A   1      40.460  28.729  29.478  1.00  0.00    -0.354 N 
ATOM     42  C   UNL A   1      39.319  31.030  32.958  1.00  0.00     0.074 A 
ATOM     43  C   UNL A   1      38.189  31.885  32.666  1.00  0.00     0.031 C 
ATOM     44  C   UNL A   1      40.261  27.953  27.391  1.00  0.00     0.029 A 
ATOM     45  C   UNL A   1      41.065  27.857  28.609  1.00  0.00     0.049 A 
ATOM     46  H   UNL A   1      40.778  28.883  30.397  1.00  0.00     0.167 HD
ATOM     47  C   UNL A   1      39.925  30.957  34.168  1.00  0.00     0.037 A 
ATOM     48  C   UNL A   1      42.143  27.070  28.781  1.00  0.00     0.037 A 
ATOM     49  C   UNL A   1      41.046  30.103  34.460  1.00  0.00     0.049 A 
ATOM     50  C   UNL A   1      42.829  27.039  30.123  1.00  0.00     0.074 A 
ATOM     51  C   UNL A   1      41.726  29.948  35.655  1.00  0.00     0.029 A 
ATOM     52  N   UNL A   1      41.656  29.262  33.540  1.00  0.00    -0.354 N 
ATOM     53  N   UNL A   1      42.524  27.681  31.225  1.00  0.00    -0.248 NA
ATOM     54  C   UNL A   1      44.001  26.160  30.246  1.00  0.00     0.031 C 
ATOM     55  C   UNL A   1      42.774  29.046  35.447  1.00  0.00     0.029 A 
ATOM     56  C   UNL A   1      42.717  28.601  34.137  1.00  0.00     0.049 A 
ATOM     57  H   UNL A   1      41.375  29.151  32.604  1.00  0.00     0.167 HD
ATOM     58  C   UNL A   1      43.445  27.263  32.178  1.00  0.00     0.074 A 
ATOM     59  C   UNL A   1      44.309  26.301  31.528  1.00  0.00     0.031 C 
ATOM     60  C   UNL A   1      43.564  27.642  33.474  1.00  0.00     0.037 A 
BRANCH  47  61
ATOM     61  C   UNL A   1      39.396  31.840  35.259  1.00  0.00     0.064 A 
ATOM     62  C   UNL A   1      38.523  31.353  36.243  1.00  0.00     0.173 A 
ATOM     63  C   UNL A   1      39.788  33.185  35.337  1.00  0.00     0.173 A 
ATOM     64  F   UNL A   1      38.107  30.078  36.204  1.00  0.00    -0.203 F 
ATOM     65  C   UNL A   1      38.040  32.186  37.249  1.00  0.00     0.198 A 
ATOM     66  C   UNL A   1      39.326  34.008  36.360  1.00  0.00     0.198 A 
ATOM     67  F   UNL A   1      40.623  33.700  34.422  1.00  0.00    -0.203 F 
ATOM     68  F   UNL A   1      37.170  31.711  38.151  1.00  0.00    -0.200 F 
ATOM     69  C   UNL A   1      38.447  33.511  37.311  1.00  0.00     0.200 A 
ATOM     70  F   UNL A   1      39.727  35.286  36.423  1.00  0.00    -0.200 F 
ATOM     71  F   UNL A   1      37.986  34.310  38.282  1.00  0.00    -0.200 F 
ENDBRANCH  47  61
BRANCH  48  72
ATOM     72  C   UNL A   1      42.638  26.232  27.657  1.00  0.00     0.064 A 
ATOM     73  C   UNL A   1      43.633  26.696  26.787  1.00  0.00     0.173 A 
ATOM     74  C   UNL A   1      42.109  24.955  27.422  1.00  0.00     0.173 A 
ATOM     75  F   UNL A   1      44.152  27.921  26.957  1.00  0.00    -0.203 F 
ATOM     76  C   UNL A   1      44.067  25.924  25.711  1.00  0.00     0.198 A 
ATOM     77  C   UNL A   1      42.563  24.171  26.363  1.00  0.00     0.198 A 
ATOM     78  F   UNL A   1      41.155  24.463  28.226  1.00  0.00    -0.203 F 
ATOM     79  F   UNL A   1      44.986  26.411  24.866  1.00  0.00    -0.200 F 
ATOM     80  C   UNL A   1      43.535  24.659  25.504  1.00  0.00     0.200 A 
ATOM     81  F   UNL A   1      42.054  22.946  26.173  1.00  0.00    -0.200 F 
ATOM     82  F   UNL A   1      43.954  23.916  24.471  1.00  0.00    -0.200 F 
ENDBRANCH  48  72
BRANCH  60  83
ATOM     83  C   UNL A   1      44.648  26.989  34.284  1.00  0.00     0.064 A 
ATOM     84  C   UNL A   1      44.432  25.784  34.967  1.00  0.00     0.173 A 
ATOM     85  C   UNL A   1      45.926  27.565  34.354  1.00  0.00     0.173 A 
ATOM     86  F   UNL A   1      43.224  25.200  34.942  1.00  0.00    -0.203 F 
ATOM     87  C   UNL A   1      45.445  25.196  35.719  1.00  0.00     0.198 A 
ATOM     88  C   UNL A   1      46.946  26.958  35.082  1.00  0.00     0.198 A 
ATOM     89  F   UNL A   1      46.187  28.712  33.712  1.00  0.00    -0.203 F 
ATOM     90  F   UNL A   1      45.201  24.072  36.408  1.00  0.00    -0.200 F 
ATOM     91  C   UNL A   1      46.702  25.780  35.771  1.00  0.00     0.200 A 
ATOM     92  F   UNL A   1      48.163  27.517  35.120  1.00  0.00    -0.200 F 
ATOM     93  F   UNL A   1      47.677  25.211  36.494  1.00  0.00    -0.200 F 
ENDBRANCH  60  83
ENDBRANCH  34  35
ENDBRANCH  27  29
ENDBRANCH  26  27
ENDBRANCH  25  26
ENDBRANCH  24  25
ENDBRANCH  23  24
ENDBRANCH   1  23
TORSDOF 17
ENDMDL
MODEL 2
REMARK VINA RESULT:     -11.5      1.554      2.354
REMARK SMILES C[C@H]1[C@@H](C(=O)OCCOCCOC(=O)c2ccc(-c3c4nc(c(-c5c(F)c(F)c(F)c(F)c5F)c5ccc([nH]5)c(-c5c(F)c(F)c(F)c(F)c5F)c5nc(c(-c6c(F)c(F)c(F)c(F)c6F)c6ccc3[nH]6)C=C5)C=C4)cc2)CCN1C(=O)c1n[nH]c(N)n1
REMARK SMILES IDX 8 1 7 2 6 3 4 4 5 5 3 6 1 7 2 8 80 9 78 10 79 11 81 12 82 13
REMARK SMILES IDX 83 14 84 15 88 16 85 17 86 18 87 20 9 23 10 24 11 25 12 26
REMARK SMILES IDX 13 27 14 28 15 29 16 30 77 31 17 32 76 33 18 34 19 35 20 36
REMARK SMILES IDX 70 37 21 38 75 39 69 40 71 41 22 42 74 43 68 44 67 45 23 47
REMARK SMILES IDX 55 48 35 49 54 50 36 51 39 52 53 53 72 54 37 55 38 56 52 58
REMARK SMILES IDX 73 59 40 60 24 61 25 62 33 63 26 64 27 65 31 66 34 67 28 68
REMARK SMILES IDX 29 69 32 70 30 71 56 72 57 73 65 74 58 75 59 76 63 77 66 78
REMARK SMILES IDX 60 79 61 80 64 81 62 82 41 83 42 84 50 85 43 86 44 87 48 88
REMARK SMILES IDX 51 89 45 90 46 91 49 92 47 93
REMARK H PARENT 85 19 87 21 87 22 71 46 39 57
REMARK Flexibility Score: inf
ROOT
ATOM      1  C   UNL A   1      31.923  28.621  23.160  1.00  0.00     0.202 C 
ENDROOT
BRANCH   1   2
ATOM      2  C   UNL A   1      31.894  27.118  22.876  1.00  0.00     0.261 C 
BRANCH   2   3
ATOM      3  O   UNL A   1      32.162  26.408  24.102  1.00  0.00    -0.463 OA
BRANCH   3   4
ATOM      4  C   UNL A   1      31.343  25.393  24.435  1.00  0.00     0.311 C 
ATOM      5  O   UNL A   1      30.250  25.195  23.914  1.00  0.00    -0.252 OA
BRANCH   4   6
ATOM      6  C   UNL A   1      31.908  24.451  25.490  1.00  0.00     0.123 C 
ATOM      7  C   UNL A   1      33.694  23.401  23.848  1.00  0.00     0.032 C 
ATOM      8  C   UNL A   1      33.069  23.455  25.242  1.00  0.00     0.096 C 
ATOM      9  N   UNL A   1      32.545  22.139  25.640  1.00  0.00    -0.332 N 
ATOM     10  C   UNL A   1      30.759  23.605  26.074  1.00  0.00     0.039 C 
ATOM     11  C   UNL A   1      31.118  22.156  25.819  1.00  0.00     0.121 C 
BRANCH   9  12
ATOM     12  C   UNL A   1      33.243  20.934  25.780  1.00  0.00     0.293 C 
ATOM     13  O   UNL A   1      34.214  20.857  26.537  1.00  0.00    -0.265 OA
BRANCH  12  14
ATOM     14  C   UNL A   1      32.766  19.758  25.019  1.00  0.00     0.241 A 
ATOM     15  N   UNL A   1      32.492  18.560  25.579  1.00  0.00    -0.147 NA
ATOM     16  N   UNL A   1      32.595  19.779  23.644  1.00  0.00    -0.187 NA
ATOM     17  N   UNL A   1      32.117  17.841  24.509  1.00  0.00    -0.245 N 
ATOM     18  C   UNL A   1      32.216  18.563  23.356  1.00  0.00     0.216 A 
ATOM     19  H   UNL A   1      31.810  16.906  24.550  1.00  0.00     0.193 HD
BRANCH  18  20
ATOM     20  N   UNL A   1      31.962  18.044  22.152  1.00  0.00    -0.368 N 
ATOM     21  H   UNL A   1      32.673  17.575  21.659  1.00  0.00     0.159 HD
ATOM     22  H   UNL A   1      31.065  18.132  21.758  1.00  0.00     0.159 HD
ENDBRANCH  18  20
ENDBRANCH  12  14
ENDBRANCH   9  12
ENDBRANCH   4   6
ENDBRANCH   3   4
ENDBRANCH   2   3
ENDBRANCH   1   2
BRANCH   1  23
ATOM     23  O   UNL A   1      31.527  28.969  24.490  1.00  0.00    -0.374 OA
BRANCH  23  24
ATOM     24  C   UNL A   1      32.482  29.692  25.267  1.00  0.00     0.202 C 
BRANCH  24  25
ATOM     25  C   UNL A   1      31.889  30.807  26.130  1.00  0.00     0.261 C 
BRANCH  25  26
ATOM     26  O   UNL A   1      32.565  30.883  27.396  1.00  0.00    -0.460 OA
BRANCH  26  27
ATOM     27  C   UNL A   1      33.328  31.985  27.555  1.00  0.00     0.338 C 
ATOM     28  O   UNL A   1      32.946  33.148  27.602  1.00  0.00    -0.246 OA
BRANCH  27  29
ATOM     29  C   UNL A   1      34.729  31.610  27.822  1.00  0.00     0.060 A 
ATOM     30  C   UNL A   1      34.995  30.246  27.987  1.00  0.00     0.016 A 
ATOM     31  C   UNL A   1      35.749  32.555  27.986  1.00  0.00     0.016 A 
ATOM     32  C   UNL A   1      36.251  29.826  28.406  1.00  0.00     0.010 A 
ATOM     33  C   UNL A   1      37.016  32.131  28.404  1.00  0.00     0.010 A 
ATOM     34  C   UNL A   1      37.253  30.770  28.670  1.00  0.00    -0.014 A 
BRANCH  34  35
ATOM     35  C   UNL A   1      38.460  30.320  29.404  1.00  0.00     0.031 A 
ATOM     36  C   UNL A   1      38.647  30.762  30.831  1.00  0.00     0.074 A 
ATOM     37  C   UNL A   1      39.319  29.449  28.847  1.00  0.00     0.049 A 
ATOM     38  N   UNL A   1      39.559  30.406  31.700  1.00  0.00    -0.248 NA
ATOM     39  C   UNL A   1      37.668  31.731  31.351  1.00  0.00     0.031 C 
ATOM     40  C   UNL A   1      39.226  28.928  27.486  1.00  0.00     0.029 A 
ATOM     41  N   UNL A   1      40.428  28.833  29.371  1.00  0.00    -0.354 N 
ATOM     42  C   UNL A   1      39.260  31.100  32.865  1.00  0.00     0.074 A 
ATOM     43  C   UNL A   1      38.111  31.932  32.583  1.00  0.00     0.031 C 
ATOM     44  C   UNL A   1      40.233  28.060  27.283  1.00  0.00     0.029 A 
ATOM     45  C   UNL A   1      41.046  27.978  28.496  1.00  0.00     0.049 A 
ATOM     46  H   UNL A   1      40.749  28.991  30.288  1.00  0.00     0.167 HD
ATOM     47  C   UNL A   1      39.875  31.035  34.071  1.00  0.00     0.037 A 
ATOM     48  C   UNL A   1      42.142  27.212  28.658  1.00  0.00     0.037 A 
ATOM     49  C   UNL A   1      41.016  30.205  34.353  1.00  0.00     0.049 A 
ATOM     50  C   UNL A   1      42.836  27.192  29.996  1.00  0.00     0.074 A 
ATOM     51  C   UNL A   1      41.706  30.060  35.544  1.00  0.00     0.029 A 
ATOM     52  N   UNL A   1      41.637  29.379  33.428  1.00  0.00    -0.354 N 
ATOM     53  N   UNL A   1      42.525  27.824  31.102  1.00  0.00    -0.248 NA
ATOM     54  C   UNL A   1      44.027  26.338  30.110  1.00  0.00     0.031 C 
ATOM     55  C   UNL A   1      42.772  29.181  35.327  1.00  0.00     0.029 A 
ATOM     56  C   UNL A   1      42.716  28.739  34.015  1.00  0.00     0.049 A 
ATOM     57  H   UNL A   1      41.354  29.266  32.492  1.00  0.00     0.167 HD
ATOM     58  C   UNL A   1      43.459  27.423  32.048  1.00  0.00     0.074 A 
ATOM     59  C   UNL A   1      44.340  26.481  31.390  1.00  0.00     0.031 C 
ATOM     60  C   UNL A   1      43.579  27.800  33.345  1.00  0.00     0.037 A 
BRANCH  47  61
ATOM     61  C   UNL A   1      39.335  31.904  35.169  1.00  0.00     0.064 A 
ATOM     62  C   UNL A   1      38.519  31.385  36.184  1.00  0.00     0.173 A 
ATOM     63  C   UNL A   1      39.657  33.268  35.218  1.00  0.00     0.173 A 
ATOM     64  F   UNL A   1      38.169  30.090  36.174  1.00  0.00    -0.203 F 
ATOM     65  C   UNL A   1      38.024  32.205  37.196  1.00  0.00     0.198 A 
ATOM     66  C   UNL A   1      39.184  34.080  36.246  1.00  0.00     0.198 A 
ATOM     67  F   UNL A   1      40.436  33.814  34.272  1.00  0.00    -0.203 F 
ATOM     68  F   UNL A   1      37.209  31.697  38.130  1.00  0.00    -0.200 F 
ATOM     69  C   UNL A   1      38.362  33.550  37.230  1.00  0.00     0.200 A 
ATOM     70  F   UNL A   1      39.520  35.377  36.282  1.00  0.00    -0.200 F 
ATOM     71  F   UNL A   1      37.891  34.337  38.205  1.00  0.00    -0.200 F 
ENDBRANCH  47  61
BRANCH  48  72
ATOM     72  C   UNL A   1      42.647  26.388  27.529  1.00  0.00     0.064 A 
ATOM     73  C   UNL A   1      42.165  25.092  27.303  1.00  0.00     0.173 A 
ATOM     74  C   UNL A   1      43.635  26.877  26.663  1.00  0.00     0.173 A 
ATOM     75  F   UNL A   1      41.237  24.570  28.120  1.00  0.00    -0.203 F 
ATOM     76  C   UNL A   1      42.668  24.307  26.267  1.00  0.00     0.198 A 
ATOM     77  C   UNL A   1      44.117  26.103  25.610  1.00  0.00     0.198 A 
ATOM     78  F   UNL A   1      44.128  28.113  26.836  1.00  0.00    -0.203 F 
ATOM     79  F   UNL A   1      42.225  23.053  26.102  1.00  0.00    -0.200 F 
ATOM     80  C   UNL A   1      43.640  24.816  25.418  1.00  0.00     0.200 A 
ATOM     81  F   UNL A   1      45.047  26.603  24.785  1.00  0.00    -0.200 F 
ATOM     82  F   UNL A   1      44.121  24.062  24.420  1.00  0.00    -0.200 F 
ENDBRANCH  48  72
BRANCH  60  83
ATOM     83  C   UNL A   1      44.681  27.167  34.146  1.00  0.00     0.064 A 
ATOM     84  C   UNL A   1      45.947  27.761  34.253  1.00  0.00     0.173 A 
ATOM     85  C   UNL A   1      44.458  25.966  34.835  1.00  0.00     0.173 A 
ATOM     86  F   UNL A   1      46.215  28.904  33.602  1.00  0.00    -0.203 F 
ATOM     87  C   UNL A   1      46.960  27.158  34.993  1.00  0.00     0.198 A 
ATOM     88  C   UNL A   1      45.463  25.381  35.599  1.00  0.00     0.198 A 
ATOM     89  F   UNL A   1      43.263  25.362  34.772  1.00  0.00    -0.203 F 
ATOM     90  F   UNL A   1      48.178  27.715  35.038  1.00  0.00    -0.200 F 
ATOM     91  C   UNL A   1      46.716  25.972  35.670  1.00  0.00     0.200 A 
ATOM     92  F   UNL A   1      45.222  24.243  36.264  1.00  0.00    -0.200 F 
ATOM     93  F   UNL A   1      47.692  25.394  36.384  1.00  0.00    -0.200 F 
ENDBRANCH  60  83
ENDBRANCH  34  35
ENDBRANCH  27  29
ENDBRANCH  26  27
ENDBRANCH  25  26
ENDBRANCH  24  25
ENDBRANCH  23  24
ENDBRANCH   1  23
TORSDOF 17
ENDMDL
MODEL 3
REMARK VINA RESULT:     -11.5      1.222      2.349
REMARK SMILES C[C@H]1[C@@H](C(=O)OCCOCCOC(=O)c2ccc(-c3c4nc(c(-c5c(F)c(F)c(F)c(F)c5F)c5ccc([nH]5)c(-c5c(F)c(F)c(F)c(F)c5F)c5nc(c(-c6c(F)c(F)c(F)c(F)c6F)c6ccc3[nH]6)C=C5)C=C4)cc2)CCN1C(=O)c1n[nH]c(N)n1
REMARK SMILES IDX 8 1 7 2 6 3 4 4 5 5 3 6 1 7 2 8 80 9 78 10 79 11 81 12 82 13
REMARK SMILES IDX 83 14 84 15 88 16 85 17 86 18 87 20 9 23 10 24 11 25 12 26
REMARK SMILES IDX 13 27 14 28 15 29 16 30 77 31 17 32 76 33 18 34 19 35 20 36
REMARK SMILES IDX 70 37 21 38 75 39 69 40 71 41 22 42 74 43 68 44 67 45 23 47
REMARK SMILES IDX 55 48 35 49 54 50 36 51 39 52 53 53 72 54 37 55 38 56 52 58
REMARK SMILES IDX 73 59 40 60 24 61 25 62 33 63 26 64 27 65 31 66 34 67 28 68
REMARK SMILES IDX 29 69 32 70 30 71 56 72 57 73 65 74 58 75 59 76 63 77 66 78
REMARK SMILES IDX 60 79 61 80 64 81 62 82 41 83 42 84 50 85 43 86 44 87 48 88
REMARK SMILES IDX 51 89 45 90 46 91 49 92 47 93
REMARK H PARENT 85 19 87 21 87 22 71 46 39 57
REMARK Flexibility Score: inf
ROOT
ATOM      1  C   UNL A   1      32.654  29.636  25.312  1.00  0.00     0.202 C 
ENDROOT
BRANCH   1   2
ATOM      2  C   UNL A   1      31.258  29.071  25.038  1.00  0.00     0.261 C 
BRANCH   2   3
ATOM      3  O   UNL A   1      31.341  27.633  24.990  1.00  0.00    -0.463 OA
BRANCH   3   4
ATOM      4  C   UNL A   1      31.375  26.963  26.157  1.00  0.00     0.311 C 
ATOM      5  O   UNL A   1      31.283  27.499  27.257  1.00  0.00    -0.252 OA
BRANCH   4   6
ATOM      6  C   UNL A   1      31.480  25.451  26.011  1.00  0.00     0.123 C 
ATOM      7  C   UNL A   1      34.042  25.516  25.359  1.00  0.00     0.032 C 
ATOM      8  C   UNL A   1      32.777  24.697  25.621  1.00  0.00     0.096 C 
ATOM      9  N   UNL A   1      32.418  23.885  24.448  1.00  0.00    -0.332 N 
ATOM     10  C   UNL A   1      30.409  24.969  25.011  1.00  0.00     0.039 C 
ATOM     11  C   UNL A   1      31.149  24.271  23.890  1.00  0.00     0.121 C 
BRANCH   9  12
ATOM     12  C   UNL A   1      33.173  22.890  23.818  1.00  0.00     0.293 C 
ATOM     13  O   UNL A   1      33.550  23.033  22.652  1.00  0.00    -0.265 OA
BRANCH  12  14
ATOM     14  C   UNL A   1      33.525  21.681  24.597  1.00  0.00     0.241 A 
ATOM     15  N   UNL A   1      34.787  21.226  24.751  1.00  0.00    -0.147 NA
ATOM     16  N   UNL A   1      32.570  20.886  25.211  1.00  0.00    -0.187 NA
ATOM     17  N   UNL A   1      34.590  20.133  25.505  1.00  0.00    -0.245 N 
ATOM     18  C   UNL A   1      33.264  19.917  25.744  1.00  0.00     0.216 A 
ATOM     19  H   UNL A   1      35.313  19.557  25.844  1.00  0.00     0.193 HD
BRANCH  18  20
ATOM     20  N   UNL A   1      32.813  18.855  26.415  1.00  0.00    -0.368 N 
ATOM     21  H   UNL A   1      32.416  18.097  25.928  1.00  0.00     0.159 HD
ATOM     22  H   UNL A   1      32.877  18.830  27.397  1.00  0.00     0.159 HD
ENDBRANCH  18  20
ENDBRANCH  12  14
ENDBRANCH   9  12
ENDBRANCH   4   6
ENDBRANCH   3   4
ENDBRANCH   2   3
ENDBRANCH   1   2
BRANCH   1  23
ATOM     23  O   UNL A   1      32.702  30.560  26.402  1.00  0.00    -0.374 OA
BRANCH  23  24
ATOM     24  C   UNL A   1      31.541  31.367  26.599  1.00  0.00     0.202 C 
BRANCH  24  25
ATOM     25  C   UNL A   1      31.828  32.794  27.073  1.00  0.00     0.261 C 
BRANCH  25  26
ATOM     26  O   UNL A   1      33.234  33.083  26.993  1.00  0.00    -0.460 OA
BRANCH  26  27
ATOM     27  C   UNL A   1      33.784  33.496  28.153  1.00  0.00     0.338 C 
ATOM     28  O   UNL A   1      33.274  34.226  28.995  1.00  0.00    -0.246 OA
BRANCH  27  29
ATOM     29  C   UNL A   1      35.078  32.826  28.380  1.00  0.00     0.060 A 
ATOM     30  C   UNL A   1      35.030  31.489  28.792  1.00  0.00     0.016 A 
ATOM     31  C   UNL A   1      36.305  33.490  28.274  1.00  0.00     0.016 A 
ATOM     32  C   UNL A   1      36.193  30.840  29.189  1.00  0.00     0.010 A 
ATOM     33  C   UNL A   1      37.477  32.834  28.669  1.00  0.00     0.010 A 
ATOM     34  C   UNL A   1      37.415  31.525  29.181  1.00  0.00    -0.014 A 
BRANCH  34  35
ATOM     35  C   UNL A   1      38.563  30.914  29.895  1.00  0.00     0.031 A 
ATOM     36  C   UNL A   1      38.763  31.235  31.352  1.00  0.00     0.074 A 
ATOM     37  C   UNL A   1      39.347  30.008  29.287  1.00  0.00     0.049 A 
ATOM     38  N   UNL A   1      39.623  30.736  32.203  1.00  0.00    -0.248 NA
ATOM     39  C   UNL A   1      37.869  32.252  31.929  1.00  0.00     0.031 C 
ATOM     40  C   UNL A   1      39.231  29.595  27.891  1.00  0.00     0.029 A 
ATOM     41  N   UNL A   1      40.385  29.257  29.778  1.00  0.00    -0.354 N 
ATOM     42  C   UNL A   1      39.369  31.371  33.412  1.00  0.00     0.074 A 
ATOM     43  C   UNL A   1      38.307  32.324  33.177  1.00  0.00     0.031 C 
ATOM     44  C   UNL A   1      40.157  28.654  27.637  1.00  0.00     0.029 A 
ATOM     45  C   UNL A   1      40.937  28.411  28.850  1.00  0.00     0.049 A 
ATOM     46  H   UNL A   1      40.703  29.319  30.707  1.00  0.00     0.167 HD
ATOM     47  C   UNL A   1      39.955  31.165  34.616  1.00  0.00     0.037 A 
ATOM     48  C   UNL A   1      41.955  27.537  28.970  1.00  0.00     0.037 A 
ATOM     49  C   UNL A   1      41.008  30.214  34.852  1.00  0.00     0.049 A 
ATOM     50  C   UNL A   1      42.621  27.358  30.310  1.00  0.00     0.074 A 
ATOM     51  C   UNL A   1      41.661  29.923  36.036  1.00  0.00     0.029 A 
ATOM     52  N   UNL A   1      41.568  29.402  33.876  1.00  0.00    -0.354 N 
ATOM     53  N   UNL A   1      42.349  27.937  31.455  1.00  0.00    -0.248 NA
ATOM     54  C   UNL A   1      43.726  26.391  30.376  1.00  0.00     0.031 C 
ATOM     55  C   UNL A   1      42.645  28.966  35.769  1.00  0.00     0.029 A 
ATOM     56  C   UNL A   1      42.572  28.624  34.429  1.00  0.00     0.049 A 
ATOM     57  H   UNL A   1      41.291  29.381  32.932  1.00  0.00     0.167 HD
ATOM     58  C   UNL A   1      43.226  27.386  32.380  1.00  0.00     0.074 A 
ATOM     59  C   UNL A   1      44.028  26.414  31.666  1.00  0.00     0.031 C 
ATOM     60  C   UNL A   1      43.357  27.658  33.702  1.00  0.00     0.037 A 
BRANCH  47  61
ATOM     61  C   UNL A   1      39.477  32.001  35.767  1.00  0.00     0.064 A 
ATOM     62  C   UNL A   1      39.982  33.288  36.003  1.00  0.00     0.173 A 
ATOM     63  C   UNL A   1      38.483  31.518  36.632  1.00  0.00     0.173 A 
ATOM     64  F   UNL A   1      40.944  33.791  35.214  1.00  0.00    -0.203 F 
ATOM     65  C   UNL A   1      39.529  34.051  37.077  1.00  0.00     0.198 A 
ATOM     66  C   UNL A   1      38.012  32.293  37.687  1.00  0.00     0.198 A 
ATOM     67  F   UNL A   1      37.965  30.293  36.449  1.00  0.00    -0.203 F 
ATOM     68  F   UNL A   1      40.058  35.260  37.310  1.00  0.00    -0.200 F 
ATOM     69  C   UNL A   1      38.540  33.556  37.914  1.00  0.00     0.200 A 
ATOM     70  F   UNL A   1      37.050  31.816  38.490  1.00  0.00    -0.200 F 
ATOM     71  F   UNL A   1      38.100  34.291  38.943  1.00  0.00    -0.200 F 
ENDBRANCH  47  61
BRANCH  48  72
ATOM     72  C   UNL A   1      42.402  26.751  27.790  1.00  0.00     0.064 A 
ATOM     73  C   UNL A   1      43.400  27.231  26.932  1.00  0.00     0.173 A 
ATOM     74  C   UNL A   1      41.823  25.510  27.488  1.00  0.00     0.173 A 
ATOM     75  F   UNL A   1      43.966  28.425  27.166  1.00  0.00    -0.203 F 
ATOM     76  C   UNL A   1      43.790  26.510  25.806  1.00  0.00     0.198 A 
ATOM     77  C   UNL A   1      42.233  24.775  26.377  1.00  0.00     0.198 A 
ATOM     78  F   UNL A   1      40.864  25.005  28.278  1.00  0.00    -0.203 F 
ATOM     79  F   UNL A   1      44.713  27.014  24.976  1.00  0.00    -0.200 F 
ATOM     80  C   UNL A   1      43.209  25.280  25.532  1.00  0.00     0.200 A 
ATOM     81  F   UNL A   1      41.677  23.583  26.124  1.00  0.00    -0.200 F 
ATOM     82  F   UNL A   1      43.586  24.585  24.450  1.00  0.00    -0.200 F 
ENDBRANCH  48  72
BRANCH  60  83
ATOM     83  C   UNL A   1      44.382  26.871  34.468  1.00  0.00     0.064 A 
ATOM     84  C   UNL A   1      45.694  27.337  34.636  1.00  0.00     0.173 A 
ATOM     85  C   UNL A   1      44.038  25.647  35.063  1.00  0.00     0.173 A 
ATOM     86  F   UNL A   1      46.075  28.496  34.076  1.00  0.00    -0.203 F 
ATOM     87  C   UNL A   1      46.633  26.592  35.342  1.00  0.00     0.198 A 
ATOM     88  C   UNL A   1      44.971  24.919  35.795  1.00  0.00     0.198 A 
ATOM     89  F   UNL A   1      42.794  25.161  34.939  1.00  0.00    -0.203 F 
ATOM     90  F   UNL A   1      47.895  27.032  35.445  1.00  0.00    -0.200 F 
ATOM     91  C   UNL A   1      46.270  25.387  35.926  1.00  0.00     0.200 A 
ATOM     92  F   UNL A   1      44.616  23.762  36.369  1.00  0.00    -0.200 F 
ATOM     93  F   UNL A   1      47.176  24.672  36.607  1.00  0.00    -0.200 F 
ENDBRANCH  60  83
ENDBRANCH  34  35
ENDBRANCH  27  29
ENDBRANCH  26  27
ENDBRANCH  25  26
ENDBRANCH  24  25
ENDBRANCH  23  24
ENDBRANCH   1  23
TORSDOF 17
ENDMDL
