MODEL 1
REMARK VINA RESULT:     -10.3      0.000      0.000
REMARK SMILES O=C(OCCOCCOC(=O)c1cc(=O)[nH]c2c(Br)cccc12)c1ccc(-c2c3nc(c(-c4c(F)c(F)c(F)c(F)c4F)c4ccc([nH]4)c(-c4c(F)c(F)c(F)c(F)c4F)c4nc(c(-c5c(F)c(F)c(F)c(F)c5F)c5ccc2[nH]5)C=C4)C=C3)cc1
REMARK SMILES IDX 5 1 4 2 3 3 2 4 1 5 24 6 25 7 86 8 26 9 85 10 27 11 28 12
REMARK SMILES IDX 29 13 79 14 30 15 84 16 78 17 80 18 31 19 83 20 77 21 76 22
REMARK SMILES IDX 32 24 64 25 44 26 63 27 45 28 48 29 62 30 81 31 46 32 47 33
REMARK SMILES IDX 61 35 82 36 49 37 33 38 34 39 42 40 35 41 36 42 40 43 43 44
REMARK SMILES IDX 37 45 38 46 41 47 39 48 65 49 66 50 74 51 67 52 68 53 72 54
REMARK SMILES IDX 75 55 69 56 70 57 73 58 71 59 50 60 51 61 59 62 52 63 53 64
REMARK SMILES IDX 57 65 60 66 54 67 55 68 58 69 56 70 6 71 7 72 8 73 9 74
REMARK SMILES IDX 10 75 11 76 12 77 13 78 23 79 14 80 17 81 22 82 15 83 16 84
REMARK SMILES IDX 18 85 21 86 19 88 20 89
REMARK H PARENT 80 23 48 34 16 87
REMARK Flexibility Score: inf
ROOT
ATOM      1  C   UNL A   1      33.258  33.993  28.026  1.00  0.00     0.202 C 
ENDROOT
BRANCH   1   2
ATOM      2  C   UNL A   1      34.033  32.745  28.452  1.00  0.00     0.261 C 
BRANCH   2   3
ATOM      3  O   UNL A   1      33.743  31.636  27.595  1.00  0.00    -0.460 OA
BRANCH   3   4
ATOM      4  C   UNL A   1      34.421  30.476  27.444  1.00  0.00     0.338 C 
ATOM      5  O   UNL A   1      33.966  29.660  26.642  1.00  0.00    -0.246 OA
BRANCH   4   6
ATOM      6  C   UNL A   1      35.696  30.101  28.154  1.00  0.00     0.060 A 
ATOM      7  C   UNL A   1      36.865  30.141  27.368  1.00  0.00     0.016 A 
ATOM      8  C   UNL A   1      35.834  29.664  29.476  1.00  0.00     0.016 A 
ATOM      9  C   UNL A   1      38.102  29.727  27.869  1.00  0.00     0.010 A 
ATOM     10  C   UNL A   1      37.064  29.247  29.987  1.00  0.00     0.010 A 
ATOM     11  C   UNL A   1      38.199  29.267  29.183  1.00  0.00    -0.014 A 
BRANCH  11  12
ATOM     12  C   UNL A   1      39.495  28.894  29.771  1.00  0.00     0.031 A 
ATOM     13  C   UNL A   1      40.264  27.722  29.253  1.00  0.00     0.074 A 
ATOM     14  C   UNL A   1      39.910  29.589  30.844  1.00  0.00     0.049 A 
ATOM     15  N   UNL A   1      41.445  27.292  29.611  1.00  0.00    -0.248 NA
ATOM     16  C   UNL A   1      39.616  26.911  28.209  1.00  0.00     0.031 C 
ATOM     17  C   UNL A   1      39.164  30.685  31.465  1.00  0.00     0.029 A 
ATOM     18  N   UNL A   1      41.037  29.470  31.607  1.00  0.00    -0.354 N 
ATOM     19  C   UNL A   1      41.697  26.179  28.820  1.00  0.00     0.074 A 
ATOM     20  C   UNL A   1      40.522  25.963  28.003  1.00  0.00     0.031 C 
ATOM     21  C   UNL A   1      39.859  31.146  32.515  1.00  0.00     0.029 A 
ATOM     22  C   UNL A   1      41.096  30.382  32.630  1.00  0.00     0.049 A 
ATOM     23  H   UNL A   1      41.736  28.798  31.439  1.00  0.00     0.167 HD
ATOM     24  C   UNL A   1      42.824  25.430  28.777  1.00  0.00     0.037 A 
ATOM     25  C   UNL A   1      42.061  30.590  33.543  1.00  0.00     0.037 A 
ATOM     26  C   UNL A   1      43.966  25.663  29.626  1.00  0.00     0.049 A 
ATOM     27  C   UNL A   1      43.312  29.767  33.458  1.00  0.00     0.074 A 
ATOM     28  C   UNL A   1      45.189  25.017  29.631  1.00  0.00     0.029 A 
ATOM     29  N   UNL A   1      44.012  26.615  30.638  1.00  0.00    -0.354 N 
ATOM     30  N   UNL A   1      43.599  28.793  32.626  1.00  0.00    -0.248 NA
ATOM     31  C   UNL A   1      44.380  30.082  34.413  1.00  0.00     0.031 C 
ATOM     32  C   UNL A   1      45.958  25.548  30.673  1.00  0.00     0.029 A 
ATOM     33  C   UNL A   1      45.233  26.558  31.288  1.00  0.00     0.049 A 
ATOM     34  H   UNL A   1      43.284  27.238  30.858  1.00  0.00     0.167 HD
ATOM     35  C   UNL A   1      44.886  28.387  32.944  1.00  0.00     0.074 A 
ATOM     36  C   UNL A   1      45.329  29.235  34.035  1.00  0.00     0.031 C 
ATOM     37  C   UNL A   1      45.633  27.404  32.385  1.00  0.00     0.037 A 
BRANCH  24  38
ATOM     38  C   UNL A   1      42.895  24.315  27.774  1.00  0.00     0.064 A 
ATOM     39  C   UNL A   1      43.365  24.537  26.469  1.00  0.00     0.173 A 
ATOM     40  C   UNL A   1      42.566  22.999  28.133  1.00  0.00     0.173 A 
ATOM     41  F   UNL A   1      43.688  25.777  26.070  1.00  0.00    -0.203 F 
ATOM     42  C   UNL A   1      43.490  23.490  25.560  1.00  0.00     0.198 A 
ATOM     43  C   UNL A   1      42.716  21.948  27.229  1.00  0.00     0.198 A 
ATOM     44  F   UNL A   1      42.118  22.726  29.367  1.00  0.00    -0.203 F 
ATOM     45  F   UNL A   1      43.914  23.734  24.313  1.00  0.00    -0.200 F 
ATOM     46  C   UNL A   1      43.175  22.195  25.944  1.00  0.00     0.200 A 
ATOM     47  F   UNL A   1      42.424  20.695  27.604  1.00  0.00    -0.200 F 
ATOM     48  F   UNL A   1      43.312  21.185  25.073  1.00  0.00    -0.200 F 
ENDBRANCH  24  38
BRANCH  25  49
ATOM     49  C   UNL A   1      41.893  31.688  34.524  1.00  0.00     0.064 A 
ATOM     50  C   UNL A   1      42.370  32.974  34.238  1.00  0.00     0.173 A 
ATOM     51  C   UNL A   1      41.158  31.508  35.705  1.00  0.00     0.173 A 
ATOM     52  F   UNL A   1      43.081  33.191  33.122  1.00  0.00    -0.203 F 
ATOM     53  C   UNL A   1      42.115  34.041  35.096  1.00  0.00     0.198 A 
ATOM     54  C   UNL A   1      40.886  32.580  36.551  1.00  0.00     0.198 A 
ATOM     55  F   UNL A   1      40.663  30.299  36.009  1.00  0.00    -0.203 F 
ATOM     56  F   UNL A   1      42.586  35.261  34.803  1.00  0.00    -0.200 F 
ATOM     57  C   UNL A   1      41.364  33.846  36.246  1.00  0.00     0.200 A 
ATOM     58  F   UNL A   1      40.141  32.393  37.649  1.00  0.00    -0.200 F 
ATOM     59  F   UNL A   1      41.093  34.880  37.055  1.00  0.00    -0.200 F 
ENDBRANCH  25  49
BRANCH  37  60
ATOM     60  C   UNL A   1      47.002  27.187  32.956  1.00  0.00     0.064 A 
ATOM     61  C   UNL A   1      47.220  26.260  33.984  1.00  0.00     0.173 A 
ATOM     62  C   UNL A   1      48.109  27.871  32.434  1.00  0.00     0.173 A 
ATOM     63  F   UNL A   1      46.187  25.594  34.522  1.00  0.00    -0.203 F 
ATOM     64  C   UNL A   1      48.499  26.036  34.482  1.00  0.00     0.198 A 
ATOM     65  C   UNL A   1      49.390  27.627  32.917  1.00  0.00     0.198 A 
ATOM     66  F   UNL A   1      47.949  28.764  31.445  1.00  0.00    -0.203 F 
ATOM     67  F   UNL A   1      48.682  25.172  35.490  1.00  0.00    -0.200 F 
ATOM     68  C   UNL A   1      49.583  26.714  33.943  1.00  0.00     0.200 A 
ATOM     69  F   UNL A   1      50.439  28.272  32.389  1.00  0.00    -0.200 F 
ATOM     70  F   UNL A   1      50.817  26.490  34.418  1.00  0.00    -0.200 F 
ENDBRANCH  37  60
ENDBRANCH  11  12
ENDBRANCH   4   6
ENDBRANCH   3   4
ENDBRANCH   2   3
ENDBRANCH   1   2
BRANCH   1  71
ATOM     71  O   UNL A   1      32.576  34.618  29.112  1.00  0.00    -0.374 OA
BRANCH  71  72
ATOM     72  C   UNL A   1      33.316  35.642  29.781  1.00  0.00     0.202 C 
BRANCH  72  73
ATOM     73  C   UNL A   1      33.070  35.574  31.288  1.00  0.00     0.261 C 
BRANCH  73  74
ATOM     74  O   UNL A   1      34.325  35.418  31.971  1.00  0.00    -0.460 OA
BRANCH  74  75
ATOM     75  C   UNL A   1      34.739  34.144  32.211  1.00  0.00     0.339 C 
ATOM     76  O   UNL A   1      34.053  33.137  32.166  1.00  0.00    -0.246 OA
BRANCH  75  77
ATOM     77  C   UNL A   1      36.218  34.154  32.381  1.00  0.00     0.074 A 
ATOM     78  C   UNL A   1      36.676  34.490  33.599  1.00  0.00     0.088 A 
ATOM     79  C   UNL A   1      37.168  33.931  31.269  1.00  0.00     0.014 A 
ATOM     80  C   UNL A   1      38.112  34.706  33.848  1.00  0.00     0.249 A 
ATOM     81  C   UNL A   1      38.523  34.241  31.482  1.00  0.00     0.063 A 
ATOM     82  C   UNL A   1      36.781  33.486  29.997  1.00  0.00     0.011 A 
ATOM     83  O   UNL A   1      38.515  34.995  34.967  1.00  0.00    -0.270 OA
ATOM     84  N   UNL A   1      38.940  34.612  32.770  1.00  0.00    -0.321 N 
ATOM     85  C   UNL A   1      39.443  34.175  30.426  1.00  0.00     0.042 A 
ATOM     86  C   UNL A   1      37.698  33.430  28.943  1.00  0.00     0.002 A 
ATOM     87  H   UNL A   1      39.894  34.818  32.903  1.00  0.00     0.170 HD
ATOM     88  Br  UNL A   1      41.272  34.626  30.674  1.00  0.00    -0.049 Br
ATOM     89  C   UNL A   1      39.027  33.787  29.153  1.00  0.00     0.018 A 
ENDBRANCH  75  77
ENDBRANCH  74  75
ENDBRANCH  73  74
ENDBRANCH  72  73
ENDBRANCH  71  72
ENDBRANCH   1  71
TORSDOF 14
ENDMDL
MODEL 2
REMARK VINA RESULT:     -10.3      0.605      7.497
REMARK SMILES O=C(OCCOCCOC(=O)c1cc(=O)[nH]c2c(Br)cccc12)c1ccc(-c2c3nc(c(-c4c(F)c(F)c(F)c(F)c4F)c4ccc([nH]4)c(-c4c(F)c(F)c(F)c(F)c4F)c4nc(c(-c5c(F)c(F)c(F)c(F)c5F)c5ccc2[nH]5)C=C4)C=C3)cc1
REMARK SMILES IDX 5 1 4 2 3 3 2 4 1 5 24 6 25 7 86 8 26 9 85 10 27 11 28 12
REMARK SMILES IDX 29 13 79 14 30 15 84 16 78 17 80 18 31 19 83 20 77 21 76 22
REMARK SMILES IDX 32 24 64 25 44 26 63 27 45 28 48 29 62 30 81 31 46 32 47 33
REMARK SMILES IDX 61 35 82 36 49 37 33 38 34 39 42 40 35 41 36 42 40 43 43 44
REMARK SMILES IDX 37 45 38 46 41 47 39 48 65 49 66 50 74 51 67 52 68 53 72 54
REMARK SMILES IDX 75 55 69 56 70 57 73 58 71 59 50 60 51 61 59 62 52 63 53 64
REMARK SMILES IDX 57 65 60 66 54 67 55 68 58 69 56 70 6 71 7 72 8 73 9 74
REMARK SMILES IDX 10 75 11 76 12 77 13 78 23 79 14 80 17 81 22 82 15 83 16 84
REMARK SMILES IDX 18 85 21 86 19 88 20 89
REMARK H PARENT 80 23 48 34 16 87
REMARK Flexibility Score: inf
ROOT
ATOM      1  C   UNL A   1      33.492  33.991  28.048  1.00  0.00     0.202 C 
ENDROOT
BRANCH   1   2
ATOM      2  C   UNL A   1      34.027  32.686  28.637  1.00  0.00     0.261 C 
BRANCH   2   3
ATOM      3  O   UNL A   1      33.711  31.568  27.800  1.00  0.00    -0.460 OA
BRANCH   3   4
ATOM      4  C   UNL A   1      34.475  30.501  27.479  1.00  0.00     0.338 C 
ATOM      5  O   UNL A   1      34.119  29.825  26.513  1.00  0.00    -0.246 OA
BRANCH   4   6
ATOM      6  C   UNL A   1      35.737  30.075  28.184  1.00  0.00     0.060 A 
ATOM      7  C   UNL A   1      36.918  30.155  27.419  1.00  0.00     0.016 A 
ATOM      8  C   UNL A   1      35.853  29.559  29.479  1.00  0.00     0.016 A 
ATOM      9  C   UNL A   1      38.146  29.704  27.913  1.00  0.00     0.010 A 
ATOM     10  C   UNL A   1      37.072  29.105  29.982  1.00  0.00     0.010 A 
ATOM     11  C   UNL A   1      38.220  29.166  29.197  1.00  0.00    -0.014 A 
BRANCH  11  12
ATOM     12  C   UNL A   1      39.504  28.750  29.782  1.00  0.00     0.031 A 
ATOM     13  C   UNL A   1      40.107  29.502  30.925  1.00  0.00     0.074 A 
ATOM     14  C   UNL A   1      40.152  27.731  29.191  1.00  0.00     0.049 A 
ATOM     15  N   UNL A   1      41.195  29.238  31.599  1.00  0.00    -0.248 NA
ATOM     16  C   UNL A   1      39.409  30.723  31.358  1.00  0.00     0.031 C 
ATOM     17  C   UNL A   1      39.669  27.012  28.011  1.00  0.00     0.029 A 
ATOM     18  N   UNL A   1      41.348  27.140  29.484  1.00  0.00    -0.354 N 
ATOM     19  C   UNL A   1      41.300  30.241  32.553  1.00  0.00     0.074 A 
ATOM     20  C   UNL A   1      40.198  31.152  32.335  1.00  0.00     0.031 C 
ATOM     21  C   UNL A   1      40.562  26.066  27.682  1.00  0.00     0.029 A 
ATOM     22  C   UNL A   1      41.667  26.113  28.633  1.00  0.00     0.049 A 
ATOM     23  H   UNL A   1      41.923  27.422  30.232  1.00  0.00     0.167 HD
ATOM     24  C   UNL A   1      42.229  30.361  33.531  1.00  0.00     0.037 A 
ATOM     25  C   UNL A   1      42.728  25.287  28.640  1.00  0.00     0.037 A 
ATOM     26  C   UNL A   1      43.328  29.443  33.700  1.00  0.00     0.049 A 
ATOM     27  C   UNL A   1      43.728  25.421  29.749  1.00  0.00     0.074 A 
ATOM     28  C   UNL A   1      44.293  29.420  34.690  1.00  0.00     0.029 A 
ATOM     29  N   UNL A   1      43.613  28.391  32.838  1.00  0.00    -0.354 N 
ATOM     30  N   UNL A   1      43.759  26.296  30.726  1.00  0.00    -0.248 NA
ATOM     31  C   UNL A   1      44.823  24.445  29.777  1.00  0.00     0.031 C 
ATOM     32  C   UNL A   1      45.186  28.381  34.404  1.00  0.00     0.029 A 
ATOM     33  C   UNL A   1      44.752  27.727  33.260  1.00  0.00     0.049 A 
ATOM     34  H   UNL A   1      43.082  28.153  32.045  1.00  0.00     0.167 HD
ATOM     35  C   UNL A   1      44.864  25.971  31.496  1.00  0.00     0.074 A 
ATOM     36  C   UNL A   1      45.467  24.804  30.880  1.00  0.00     0.031 C 
ATOM     37  C   UNL A   1      45.337  26.580  32.611  1.00  0.00     0.037 A 
BRANCH  24  38
ATOM     38  C   UNL A   1      42.089  31.496  34.504  1.00  0.00     0.064 A 
ATOM     39  C   UNL A   1      42.705  32.736  34.269  1.00  0.00     0.173 A 
ATOM     40  C   UNL A   1      41.274  31.378  35.639  1.00  0.00     0.173 A 
ATOM     41  F   UNL A   1      43.500  32.904  33.201  1.00  0.00    -0.203 F 
ATOM     42  C   UNL A   1      42.522  33.808  35.140  1.00  0.00     0.198 A 
ATOM     43  C   UNL A   1      41.072  32.459  36.496  1.00  0.00     0.198 A 
ATOM     44  F   UNL A   1      40.656  30.219  35.911  1.00  0.00    -0.203 F 
ATOM     45  F   UNL A   1      43.144  34.972  34.908  1.00  0.00    -0.200 F 
ATOM     46  C   UNL A   1      41.698  33.671  36.247  1.00  0.00     0.200 A 
ATOM     47  F   UNL A   1      40.265  32.331  37.558  1.00  0.00    -0.200 F 
ATOM     48  F   UNL A   1      41.509  34.708  37.074  1.00  0.00    -0.200 F 
ENDBRANCH  24  38
BRANCH  25  49
ATOM     49  C   UNL A   1      42.807  24.216  27.618  1.00  0.00     0.064 A 
ATOM     50  C   UNL A   1      43.390  24.468  26.370  1.00  0.00     0.173 A 
ATOM     51  C   UNL A   1      42.412  22.901  27.905  1.00  0.00     0.173 A 
ATOM     52  F   UNL A   1      43.779  25.711  26.051  1.00  0.00    -0.203 F 
ATOM     53  C   UNL A   1      43.579  23.443  25.445  1.00  0.00     0.198 A 
ATOM     54  C   UNL A   1      42.621  21.873  26.989  1.00  0.00     0.198 A 
ATOM     55  F   UNL A   1      41.870  22.608  29.096  1.00  0.00    -0.203 F 
ATOM     56  F   UNL A   1      44.135  23.710  24.256  1.00  0.00    -0.200 F 
ATOM     57  C   UNL A   1      43.205  22.144  25.760  1.00  0.00     0.200 A 
ATOM     58  F   UNL A   1      42.279  20.617  27.303  1.00  0.00    -0.200 F 
ATOM     59  F   UNL A   1      43.415  21.154  24.882  1.00  0.00    -0.200 F 
ENDBRANCH  25  49
BRANCH  37  60
ATOM     60  C   UNL A   1      46.575  26.000  33.225  1.00  0.00     0.064 A 
ATOM     61  C   UNL A   1      47.846  26.482  32.886  1.00  0.00     0.173 A 
ATOM     62  C   UNL A   1      46.485  24.994  34.198  1.00  0.00     0.173 A 
ATOM     63  F   UNL A   1      47.980  27.433  31.950  1.00  0.00    -0.203 F 
ATOM     64  C   UNL A   1      48.988  25.965  33.488  1.00  0.00     0.198 A 
ATOM     65  C   UNL A   1      47.627  24.496  34.816  1.00  0.00     0.198 A 
ATOM     66  F   UNL A   1      45.288  24.506  34.558  1.00  0.00    -0.203 F 
ATOM     67  F   UNL A   1      50.198  26.413  33.125  1.00  0.00    -0.200 F 
ATOM     68  C   UNL A   1      48.877  24.979  34.458  1.00  0.00     0.200 A 
ATOM     69  F   UNL A   1      47.519  23.553  35.762  1.00  0.00    -0.200 F 
ATOM     70  F   UNL A   1      49.978  24.489  35.045  1.00  0.00    -0.200 F 
ENDBRANCH  37  60
ENDBRANCH  11  12
ENDBRANCH   4   6
ENDBRANCH   3   4
ENDBRANCH   2   3
ENDBRANCH   1   2
BRANCH   1  71
ATOM     71  O   UNL A   1      32.612  34.679  28.935  1.00  0.00    -0.374 OA
BRANCH  71  72
ATOM     72  C   UNL A   1      33.211  35.746  29.674  1.00  0.00     0.202 C 
BRANCH  72  73
ATOM     73  C   UNL A   1      33.063  35.499  31.175  1.00  0.00     0.261 C 
BRANCH  73  74
ATOM     74  O   UNL A   1      34.364  35.368  31.770  1.00  0.00    -0.460 OA
BRANCH  74  75
ATOM     75  C   UNL A   1      34.740  34.118  32.156  1.00  0.00     0.339 C 
ATOM     76  O   UNL A   1      34.031  33.127  32.198  1.00  0.00    -0.246 OA
BRANCH  75  77
ATOM     77  C   UNL A   1      36.213  34.113  32.367  1.00  0.00     0.074 A 
ATOM     78  C   UNL A   1      36.639  34.422  33.604  1.00  0.00     0.088 A 
ATOM     79  C   UNL A   1      37.193  33.905  31.278  1.00  0.00     0.014 A 
ATOM     80  C   UNL A   1      38.069  34.622  33.897  1.00  0.00     0.249 A 
ATOM     81  C   UNL A   1      38.543  34.201  31.535  1.00  0.00     0.063 A 
ATOM     82  C   UNL A   1      36.839  33.488  29.987  1.00  0.00     0.011 A 
ATOM     83  O   UNL A   1      38.442  34.886  35.033  1.00  0.00    -0.270 OA
ATOM     84  N   UNL A   1      38.926  34.542  32.841  1.00  0.00    -0.321 N 
ATOM     85  C   UNL A   1      39.493  34.148  30.504  1.00  0.00     0.042 A 
ATOM     86  C   UNL A   1      37.785  33.446  28.958  1.00  0.00     0.002 A 
ATOM     87  H   UNL A   1      39.878  34.739  33.005  1.00  0.00     0.170 HD
ATOM     88  Br  UNL A   1      41.317  34.580  30.812  1.00  0.00    -0.049 Br
ATOM     89  C   UNL A   1      39.110  33.789  29.212  1.00  0.00     0.018 A 
ENDBRANCH  75  77
ENDBRANCH  74  75
ENDBRANCH  73  74
ENDBRANCH  72  73
ENDBRANCH  71  72
ENDBRANCH   1  71
TORSDOF 14
ENDMDL
MODEL 3
REMARK VINA RESULT:     -10.0      4.296     10.137
REMARK SMILES O=C(OCCOCCOC(=O)c1cc(=O)[nH]c2c(Br)cccc12)c1ccc(-c2c3nc(c(-c4c(F)c(F)c(F)c(F)c4F)c4ccc([nH]4)c(-c4c(F)c(F)c(F)c(F)c4F)c4nc(c(-c5c(F)c(F)c(F)c(F)c5F)c5ccc2[nH]5)C=C4)C=C3)cc1
REMARK SMILES IDX 5 1 4 2 3 3 2 4 1 5 24 6 25 7 86 8 26 9 85 10 27 11 28 12
REMARK SMILES IDX 29 13 79 14 30 15 84 16 78 17 80 18 31 19 83 20 77 21 76 22
REMARK SMILES IDX 32 24 64 25 44 26 63 27 45 28 48 29 62 30 81 31 46 32 47 33
REMARK SMILES IDX 61 35 82 36 49 37 33 38 34 39 42 40 35 41 36 42 40 43 43 44
REMARK SMILES IDX 37 45 38 46 41 47 39 48 65 49 66 50 74 51 67 52 68 53 72 54
REMARK SMILES IDX 75 55 69 56 70 57 73 58 71 59 50 60 51 61 59 62 52 63 53 64
REMARK SMILES IDX 57 65 60 66 54 67 55 68 58 69 56 70 6 71 7 72 8 73 9 74
REMARK SMILES IDX 10 75 11 76 12 77 13 78 23 79 14 80 17 81 22 82 15 83 16 84
REMARK SMILES IDX 18 85 21 86 19 88 20 89
REMARK H PARENT 80 23 48 34 16 87
REMARK Flexibility Score: inf
ROOT
ATOM      1  C   UNL A   1      31.787  28.807  24.762  1.00  0.00     0.202 C 
ENDROOT
BRANCH   1   2
ATOM      2  C   UNL A   1      31.789  29.842  25.887  1.00  0.00     0.261 C 
BRANCH   2   3
ATOM      3  O   UNL A   1      33.042  30.532  25.957  1.00  0.00    -0.460 OA
BRANCH   3   4
ATOM      4  C   UNL A   1      33.548  31.281  26.962  1.00  0.00     0.338 C 
ATOM      5  O   UNL A   1      32.901  32.273  27.303  1.00  0.00    -0.246 OA
BRANCH   4   6
ATOM      6  C   UNL A   1      34.820  31.000  27.718  1.00  0.00     0.060 A 
ATOM      7  C   UNL A   1      34.938  29.699  28.248  1.00  0.00     0.016 A 
ATOM      8  C   UNL A   1      35.855  31.897  28.001  1.00  0.00     0.016 A 
ATOM      9  C   UNL A   1      36.021  29.328  29.051  1.00  0.00     0.010 A 
ATOM     10  C   UNL A   1      36.940  31.539  28.802  1.00  0.00     0.010 A 
ATOM     11  C   UNL A   1      37.020  30.258  29.339  1.00  0.00    -0.014 A 
BRANCH  11  12
ATOM     12  C   UNL A   1      38.212  29.886  30.117  1.00  0.00     0.031 A 
ATOM     13  C   UNL A   1      38.454  30.466  31.473  1.00  0.00     0.074 A 
ATOM     14  C   UNL A   1      39.112  29.083  29.525  1.00  0.00     0.049 A 
ATOM     15  N   UNL A   1      39.416  30.202  32.319  1.00  0.00    -0.248 NA
ATOM     16  C   UNL A   1      37.506  31.492  31.937  1.00  0.00     0.031 C 
ATOM     17  C   UNL A   1      38.989  28.556  28.165  1.00  0.00     0.029 A 
ATOM     18  N   UNL A   1      40.303  28.587  29.974  1.00  0.00    -0.354 N 
ATOM     19  C   UNL A   1      39.175  31.006  33.425  1.00  0.00     0.074 A 
ATOM     20  C   UNL A   1      38.011  31.810  33.122  1.00  0.00     0.031 C 
ATOM     21  C   UNL A   1      40.062  27.800  27.890  1.00  0.00     0.029 A 
ATOM     22  C   UNL A   1      40.938  27.789  29.058  1.00  0.00     0.049 A 
ATOM     23  H   UNL A   1      40.669  28.782  30.867  1.00  0.00     0.167 HD
ATOM     24  C   UNL A   1      39.862  31.039  34.591  1.00  0.00     0.037 A 
ATOM     25  C   UNL A   1      42.090  27.103  29.163  1.00  0.00     0.037 A 
ATOM     26  C   UNL A   1      41.034  30.238  34.847  1.00  0.00     0.049 A 
ATOM     27  C   UNL A   1      42.818  27.133  30.473  1.00  0.00     0.074 A 
ATOM     28  C   UNL A   1      41.776  30.134  36.009  1.00  0.00     0.029 A 
ATOM     29  N   UNL A   1      41.641  29.413  33.907  1.00  0.00    -0.354 N 
ATOM     30  N   UNL A   1      42.521  27.800  31.564  1.00  0.00    -0.248 NA
ATOM     31  C   UNL A   1      44.023  26.302  30.582  1.00  0.00     0.031 C 
ATOM     32  C   UNL A   1      42.857  29.279  35.760  1.00  0.00     0.029 A 
ATOM     33  C   UNL A   1      42.762  28.814  34.457  1.00  0.00     0.049 A 
ATOM     34  H   UNL A   1      41.321  29.274  32.988  1.00  0.00     0.167 HD
ATOM     35  C   UNL A   1      43.489  27.460  32.496  1.00  0.00     0.074 A 
ATOM     36  C   UNL A   1      44.373  26.511  31.845  1.00  0.00     0.031 C 
ATOM     37  C   UNL A   1      43.633  27.890  33.772  1.00  0.00     0.037 A 
BRANCH  24  38
ATOM     38  C   UNL A   1      39.361  31.940  35.683  1.00  0.00     0.064 A 
ATOM     39  C   UNL A   1      38.415  31.493  36.620  1.00  0.00     0.173 A 
ATOM     40  C   UNL A   1      39.880  33.233  35.848  1.00  0.00     0.173 A 
ATOM     41  F   UNL A   1      37.881  30.267  36.507  1.00  0.00    -0.203 F 
ATOM     42  C   UNL A   1      37.998  32.308  37.669  1.00  0.00     0.198 A 
ATOM     43  C   UNL A   1      39.480  34.038  36.913  1.00  0.00     0.198 A 
ATOM     44  F   UNL A   1      40.790  33.711  34.987  1.00  0.00    -0.203 F 
ATOM     45  F   UNL A   1      37.074  31.867  38.533  1.00  0.00    -0.200 F 
ATOM     46  C   UNL A   1      38.539  33.576  37.820  1.00  0.00     0.200 A 
ATOM     47  F   UNL A   1      40.012  35.259  37.067  1.00  0.00    -0.200 F 
ATOM     48  F   UNL A   1      38.151  34.354  38.841  1.00  0.00    -0.200 F 
ENDBRANCH  24  38
BRANCH  25  49
ATOM     49  C   UNL A   1      42.533  26.268  28.022  1.00  0.00     0.064 A 
ATOM     50  C   UNL A   1      41.997  24.988  27.828  1.00  0.00     0.173 A 
ATOM     51  C   UNL A   1      43.405  26.769  27.044  1.00  0.00     0.173 A 
ATOM     52  F   UNL A   1      41.161  24.468  28.739  1.00  0.00    -0.203 F 
ATOM     53  C   UNL A   1      42.314  24.241  26.696  1.00  0.00     0.198 A 
ATOM     54  C   UNL A   1      43.705  26.029  25.903  1.00  0.00     0.198 A 
ATOM     55  F   UNL A   1      43.926  27.998  27.176  1.00  0.00    -0.203 F 
ATOM     56  F   UNL A   1      41.791  23.017  26.536  1.00  0.00    -0.200 F 
ATOM     57  C   UNL A   1      43.159  24.766  25.729  1.00  0.00     0.200 A 
ATOM     58  F   UNL A   1      44.503  26.548  24.960  1.00  0.00    -0.200 F 
ATOM     59  F   UNL A   1      43.439  24.058  24.626  1.00  0.00    -0.200 F 
ENDBRANCH  25  49
BRANCH  37  60
ATOM     60  C   UNL A   1      44.800  27.348  34.542  1.00  0.00     0.064 A 
ATOM     61  C   UNL A   1      46.021  28.033  34.586  1.00  0.00     0.173 A 
ATOM     62  C   UNL A   1      44.676  26.164  35.283  1.00  0.00     0.173 A 
ATOM     63  F   UNL A   1      46.187  29.162  33.880  1.00  0.00    -0.203 F 
ATOM     64  C   UNL A   1      47.086  27.543  35.333  1.00  0.00     0.198 A 
ATOM     65  C   UNL A   1      45.736  25.689  36.050  1.00  0.00     0.198 A 
ATOM     66  F   UNL A   1      43.523  25.477  35.276  1.00  0.00    -0.203 F 
ATOM     67  F   UNL A   1      48.258  28.194  35.333  1.00  0.00    -0.200 F 
ATOM     68  C   UNL A   1      46.941  26.376  36.070  1.00  0.00     0.200 A 
ATOM     69  F   UNL A   1      45.591  24.570  36.771  1.00  0.00    -0.200 F 
ATOM     70  F   UNL A   1      47.965  25.911  36.798  1.00  0.00    -0.200 F 
ENDBRANCH  37  60
ENDBRANCH  11  12
ENDBRANCH   4   6
ENDBRANCH   3   4
ENDBRANCH   2   3
ENDBRANCH   1   2
BRANCH   1  71
ATOM     71  O   UNL A   1      32.614  29.182  23.663  1.00  0.00    -0.374 OA
BRANCH  71  72
ATOM     72  C   UNL A   1      33.776  28.371  23.477  1.00  0.00     0.202 C 
BRANCH  72  73
ATOM     73  C   UNL A   1      33.867  27.901  22.025  1.00  0.00     0.261 C 
BRANCH  73  74
ATOM     74  O   UNL A   1      33.915  26.465  21.988  1.00  0.00    -0.460 OA
BRANCH  74  75
ATOM     75  C   UNL A   1      32.912  25.833  21.320  1.00  0.00     0.339 C 
ATOM     76  O   UNL A   1      32.887  25.569  20.130  1.00  0.00    -0.246 OA
BRANCH  75  77
ATOM     77  C   UNL A   1      31.908  25.363  22.313  1.00  0.00     0.074 A 
ATOM     78  C   UNL A   1      30.869  26.184  22.543  1.00  0.00     0.088 A 
ATOM     79  C   UNL A   1      32.066  24.128  23.111  1.00  0.00     0.014 A 
ATOM     80  C   UNL A   1      29.903  25.917  23.624  1.00  0.00     0.249 A 
ATOM     81  C   UNL A   1      31.208  23.932  24.208  1.00  0.00     0.063 A 
ATOM     82  C   UNL A   1      33.065  23.173  22.871  1.00  0.00     0.011 A 
ATOM     83  O   UNL A   1      28.952  26.666  23.810  1.00  0.00    -0.270 OA
ATOM     84  N   UNL A   1      30.155  24.837  24.414  1.00  0.00    -0.321 N 
ATOM     85  C   UNL A   1      31.398  22.848  25.076  1.00  0.00     0.042 A 
ATOM     86  C   UNL A   1      33.258  22.098  23.744  1.00  0.00     0.002 A 
ATOM     87  H   UNL A   1      29.558  24.680  25.183  1.00  0.00     0.170 HD
ATOM     88  Br  UNL A   1      30.279  22.580  26.588  1.00  0.00    -0.049 Br
ATOM     89  C   UNL A   1      32.434  21.942  24.855  1.00  0.00     0.018 A 
ENDBRANCH  75  77
ENDBRANCH  74  75
ENDBRANCH  73  74
ENDBRANCH  72  73
ENDBRANCH  71  72
ENDBRANCH   1  71
TORSDOF 14
ENDMDL
