MODEL 1
REMARK VINA RESULT:     -11.5      0.000      0.000
REMARK SMILES CC(C)CCc1cc2c(cc1Cl)C=C(C(=O)OCCOCCOC(=O)c1ccc(-c3c4nc(c(-c5c(F)c(F)c(F)c(F)c5F)c5ccc([nH]5)c(-c5c(F)c(F)c(F)c(F)c5F)c5nc(c(-c6c(F)c(F)c(F)c(F)c6F)c6ccc3[nH]6)C=C5)C=C4)cc1)[C@@H](C(F)(F)F)O2
REMARK SMILES IDX 19 1 18 2 17 3 15 4 16 5 14 6 6 7 7 8 11 9 8 10 10 11 12 12
REMARK SMILES IDX 9 13 94 14 13 15 89 16 5 17 4 18 2 19 1 20 3 21 90 22 91 23
REMARK SMILES IDX 92 24 93 25 20 26 21 27 22 28 23 29 24 30 25 31 26 32 27 33
REMARK SMILES IDX 88 34 28 35 87 36 29 37 30 38 31 39 81 40 32 41 86 42 80 43
REMARK SMILES IDX 82 44 33 45 85 46 79 47 78 48 34 50 66 51 46 52 65 53 47 54
REMARK SMILES IDX 50 55 64 56 83 57 48 58 49 59 63 61 84 62 51 63 35 64 36 65
REMARK SMILES IDX 44 66 37 67 38 68 42 69 45 70 39 71 40 72 43 73 41 74 67 75
REMARK SMILES IDX 68 76 76 77 69 78 70 79 74 80 77 81 71 82 72 83 75 84 73 85
REMARK SMILES IDX 52 86 53 87 61 88 54 89 55 90 59 91 62 92 56 93 57 94 60 95
REMARK SMILES IDX 58 96
REMARK H PARENT 82 49 50 60
REMARK Flexibility Score: inf
ROOT
ATOM      1  C   UNL A   1      37.338  22.643  25.353  1.00  0.00     0.202 C 
ENDROOT
BRANCH   1   2
ATOM      2  C   UNL A   1      35.917  22.148  25.639  1.00  0.00     0.261 C 
BRANCH   2   3
ATOM      3  O   UNL A   1      34.928  22.954  24.984  1.00  0.00    -0.460 OA
BRANCH   3   4
ATOM      4  C   UNL A   1      33.998  23.482  25.816  1.00  0.00     0.338 C 
ATOM      5  O   UNL A   1      33.787  23.162  26.974  1.00  0.00    -0.246 OA
BRANCH   4   6
ATOM      6  C   UNL A   1      33.339  24.624  25.157  1.00  0.00     0.087 C 
ATOM      7  C   UNL A   1      31.078  29.012  24.297  1.00  0.00    -0.026 A 
ATOM      8  C   UNL A   1      31.251  27.832  23.553  1.00  0.00     0.052 A 
ATOM      9  C   UNL A   1      31.858  29.171  25.458  1.00  0.00     0.045 A 
ATOM     10  C   UNL A   1      32.040  26.785  24.032  1.00  0.00     0.128 A 
ATOM     11  C   UNL A   1      32.689  28.143  25.913  1.00  0.00     0.032 A 
ATOM     12  Cl  UNL A   1      31.820  30.625  26.395  1.00  0.00    -0.084 Cl
ATOM     13  C   UNL A   1      32.740  26.930  25.226  1.00  0.00     0.019 A 
ATOM     14  O   UNL A   1      32.063  25.648  23.275  1.00  0.00    -0.475 OA
ATOM     15  C   UNL A   1      33.469  25.805  25.775  1.00  0.00     0.027 C 
ATOM     16  C   UNL A   1      32.572  24.426  23.879  1.00  0.00     0.316 C 
BRANCH   7  17
ATOM     17  C   UNL A   1      30.079  30.082  23.897  1.00  0.00     0.037 C 
BRANCH  17  18
ATOM     18  C   UNL A   1      29.326  29.927  22.566  1.00  0.00     0.008 C 
BRANCH  18  19
ATOM     19  C   UNL A   1      27.787  30.063  22.630  1.00  0.00    -0.017 C 
ATOM     20  C   UNL A   1      27.098  28.793  23.127  1.00  0.00     0.007 C 
ATOM     21  C   UNL A   1      27.419  31.247  23.527  1.00  0.00     0.007 C 
ENDBRANCH  18  19
ENDBRANCH  17  18
ENDBRANCH   7  17
BRANCH  16  22
ATOM     22  C   UNL A   1      31.422  23.422  24.044  1.00  0.00     0.430 C 
ATOM     23  F   UNL A   1      31.824  22.159  23.763  1.00  0.00    -0.167 F 
ATOM     24  F   UNL A   1      30.958  23.403  25.317  1.00  0.00    -0.167 F 
ATOM     25  F   UNL A   1      30.376  23.705  23.236  1.00  0.00    -0.167 F 
ENDBRANCH  16  22
ENDBRANCH   4   6
ENDBRANCH   3   4
ENDBRANCH   2   3
ENDBRANCH   1   2
BRANCH   1  26
ATOM     26  O   UNL A   1      38.398  21.694  25.407  1.00  0.00    -0.374 OA
BRANCH  26  27
ATOM     27  C   UNL A   1      38.143  20.355  24.988  1.00  0.00     0.202 C 
BRANCH  27  28
ATOM     28  C   UNL A   1      39.103  19.248  25.441  1.00  0.00     0.261 C 
BRANCH  28  29
ATOM     29  O   UNL A   1      39.964  19.659  26.517  1.00  0.00    -0.460 OA
BRANCH  29  30
ATOM     30  C   UNL A   1      41.291  19.573  26.250  1.00  0.00     0.338 C 
ATOM     31  O   UNL A   1      41.887  18.638  25.739  1.00  0.00    -0.246 OA
BRANCH  30  32
ATOM     32  C   UNL A   1      41.919  20.885  26.490  1.00  0.00     0.060 A 
ATOM     33  C   UNL A   1      42.108  21.794  25.450  1.00  0.00     0.016 A 
ATOM     34  C   UNL A   1      42.286  21.213  27.802  1.00  0.00     0.016 A 
ATOM     35  C   UNL A   1      42.648  23.050  25.734  1.00  0.00     0.010 A 
ATOM     36  C   UNL A   1      42.825  22.468  28.083  1.00  0.00     0.010 A 
ATOM     37  C   UNL A   1      42.993  23.404  27.053  1.00  0.00    -0.014 A 
BRANCH  37  38
ATOM     38  C   UNL A   1      43.416  24.792  27.361  1.00  0.00     0.031 A 
ATOM     39  C   UNL A   1      44.808  25.267  27.078  1.00  0.00     0.074 A 
ATOM     40  C   UNL A   1      42.515  25.630  27.909  1.00  0.00     0.049 A 
ATOM     41  N   UNL A   1      45.307  26.471  27.204  1.00  0.00    -0.248 NA
ATOM     42  C   UNL A   1      45.770  24.264  26.600  1.00  0.00     0.031 C 
ATOM     43  C   UNL A   1      41.145  25.263  28.270  1.00  0.00     0.029 A 
ATOM     44  N   UNL A   1      42.605  26.957  28.244  1.00  0.00    -0.354 N 
ATOM     45  C   UNL A   1      46.630  26.380  26.797  1.00  0.00     0.074 A 
ATOM     46  C   UNL A   1      46.876  24.988  26.477  1.00  0.00     0.031 C 
ATOM     47  C   UNL A   1      40.509  26.349  28.736  1.00  0.00     0.029 A 
ATOM     48  C   UNL A   1      41.435  27.479  28.736  1.00  0.00     0.049 A 
ATOM     49  H   UNL A   1      43.431  27.483  28.141  1.00  0.00     0.167 HD
ATOM     50  C   UNL A   1      47.543  27.373  26.678  1.00  0.00     0.037 A 
ATOM     51  C   UNL A   1      41.136  28.730  29.136  1.00  0.00     0.037 A 
ATOM     52  C   UNL A   1      47.293  28.753  27.012  1.00  0.00     0.049 A 
ATOM     53  C   UNL A   1      42.186  29.802  29.042  1.00  0.00     0.074 A 
ATOM     54  C   UNL A   1      48.146  29.836  26.887  1.00  0.00     0.029 A 
ATOM     55  N   UNL A   1      46.109  29.238  27.550  1.00  0.00    -0.354 N 
ATOM     56  N   UNL A   1      43.407  29.723  28.570  1.00  0.00    -0.248 NA
ATOM     57  C   UNL A   1      41.818  31.138  29.532  1.00  0.00     0.031 C 
ATOM     58  C   UNL A   1      47.501  30.964  27.403  1.00  0.00     0.029 A 
ATOM     59  C   UNL A   1      46.223  30.598  27.796  1.00  0.00     0.049 A 
ATOM     60  H   UNL A   1      45.307  28.696  27.731  1.00  0.00     0.167 HD
ATOM     61  C   UNL A   1      43.945  30.997  28.688  1.00  0.00     0.074 A 
ATOM     62  C   UNL A   1      42.911  31.837  29.254  1.00  0.00     0.031 C 
ATOM     63  C   UNL A   1      45.188  31.427  28.361  1.00  0.00     0.037 A 
BRANCH  50  64
ATOM     64  C   UNL A   1      48.903  27.019  26.147  1.00  0.00     0.064 A 
ATOM     65  C   UNL A   1      49.196  27.111  24.778  1.00  0.00     0.173 A 
ATOM     66  C   UNL A   1      49.948  26.676  27.020  1.00  0.00     0.173 A 
ATOM     67  F   UNL A   1      48.233  27.431  23.902  1.00  0.00    -0.203 F 
ATOM     68  C   UNL A   1      50.480  26.859  24.302  1.00  0.00     0.198 A 
ATOM     69  C   UNL A   1      51.237  26.454  26.543  1.00  0.00     0.198 A 
ATOM     70  F   UNL A   1      49.724  26.585  28.340  1.00  0.00    -0.203 F 
ATOM     71  F   UNL A   1      50.728  26.924  22.986  1.00  0.00    -0.200 F 
ATOM     72  C   UNL A   1      51.501  26.542  25.184  1.00  0.00     0.200 A 
ATOM     73  F   UNL A   1      52.227  26.167  27.399  1.00  0.00    -0.200 F 
ATOM     74  F   UNL A   1      52.741  26.322  24.725  1.00  0.00    -0.200 F 
ENDBRANCH  50  64
BRANCH  51  75
ATOM     75  C   UNL A   1      39.766  29.037  29.624  1.00  0.00     0.064 A 
ATOM     76  C   UNL A   1      38.775  29.494  28.744  1.00  0.00     0.173 A 
ATOM     77  C   UNL A   1      39.412  28.859  30.970  1.00  0.00     0.173 A 
ATOM     78  F   UNL A   1      39.070  29.698  27.451  1.00  0.00    -0.203 F 
ATOM     79  C   UNL A   1      37.486  29.770  29.194  1.00  0.00     0.198 A 
ATOM     80  C   UNL A   1      38.115  29.106  31.412  1.00  0.00     0.198 A 
ATOM     81  F   UNL A   1      40.323  28.421  31.851  1.00  0.00    -0.203 F 
ATOM     82  F   UNL A   1      36.567  30.240  28.338  1.00  0.00    -0.200 F 
ATOM     83  C   UNL A   1      37.154  29.567  30.525  1.00  0.00     0.200 A 
ATOM     84  F   UNL A   1      37.795  28.891  32.694  1.00  0.00    -0.200 F 
ATOM     85  F   UNL A   1      35.910  29.820  30.953  1.00  0.00    -0.200 F 
ENDBRANCH  51  75
BRANCH  63  86
ATOM     86  C   UNL A   1      45.513  32.875  28.598  1.00  0.00     0.064 A 
ATOM     87  C   UNL A   1      46.154  33.297  29.772  1.00  0.00     0.173 A 
ATOM     88  C   UNL A   1      45.259  33.837  27.608  1.00  0.00     0.173 A 
ATOM     89  F   UNL A   1      46.407  32.421  30.756  1.00  0.00    -0.203 F 
ATOM     90  C   UNL A   1      46.521  34.629  29.949  1.00  0.00     0.198 A 
ATOM     91  C   UNL A   1      45.655  35.161  27.775  1.00  0.00     0.198 A 
ATOM     92  F   UNL A   1      44.653  33.485  26.463  1.00  0.00    -0.203 F 
ATOM     93  F   UNL A   1      47.104  35.015  31.092  1.00  0.00    -0.200 F 
ATOM     94  C   UNL A   1      46.283  35.556  28.946  1.00  0.00     0.200 A 
ATOM     95  F   UNL A   1      45.442  36.051  26.797  1.00  0.00    -0.200 F 
ATOM     96  F   UNL A   1      46.659  36.832  29.108  1.00  0.00    -0.200 F 
ENDBRANCH  63  86
ENDBRANCH  37  38
ENDBRANCH  30  32
ENDBRANCH  29  30
ENDBRANCH  28  29
ENDBRANCH  27  28
ENDBRANCH  26  27
ENDBRANCH   1  26
TORSDOF 18
ENDMDL
MODEL 2
REMARK VINA RESULT:     -11.5      5.427     11.030
REMARK SMILES CC(C)CCc1cc2c(cc1Cl)C=C(C(=O)OCCOCCOC(=O)c1ccc(-c3c4nc(c(-c5c(F)c(F)c(F)c(F)c5F)c5ccc([nH]5)c(-c5c(F)c(F)c(F)c(F)c5F)c5nc(c(-c6c(F)c(F)c(F)c(F)c6F)c6ccc3[nH]6)C=C5)C=C4)cc1)[C@@H](C(F)(F)F)O2
REMARK SMILES IDX 19 1 18 2 17 3 15 4 16 5 14 6 6 7 7 8 11 9 8 10 10 11 12 12
REMARK SMILES IDX 9 13 94 14 13 15 89 16 5 17 4 18 2 19 1 20 3 21 90 22 91 23
REMARK SMILES IDX 92 24 93 25 20 26 21 27 22 28 23 29 24 30 25 31 26 32 27 33
REMARK SMILES IDX 88 34 28 35 87 36 29 37 30 38 31 39 81 40 32 41 86 42 80 43
REMARK SMILES IDX 82 44 33 45 85 46 79 47 78 48 34 50 66 51 46 52 65 53 47 54
REMARK SMILES IDX 50 55 64 56 83 57 48 58 49 59 63 61 84 62 51 63 35 64 36 65
REMARK SMILES IDX 44 66 37 67 38 68 42 69 45 70 39 71 40 72 43 73 41 74 67 75
REMARK SMILES IDX 68 76 76 77 69 78 70 79 74 80 77 81 71 82 72 83 75 84 73 85
REMARK SMILES IDX 52 86 53 87 61 88 54 89 55 90 59 91 62 92 56 93 57 94 60 95
REMARK SMILES IDX 58 96
REMARK H PARENT 82 49 50 60
REMARK Flexibility Score: inf
ROOT
ATOM      1  C   UNL A   1      32.186  29.969  26.872  1.00  0.00     0.202 C 
ENDROOT
BRANCH   1   2
ATOM      2  C   UNL A   1      31.760  28.498  26.826  1.00  0.00     0.261 C 
BRANCH   2   3
ATOM      3  O   UNL A   1      32.889  27.615  26.819  1.00  0.00    -0.460 OA
BRANCH   3   4
ATOM      4  C   UNL A   1      33.229  27.153  25.592  1.00  0.00     0.338 C 
ATOM      5  O   UNL A   1      33.810  27.769  24.713  1.00  0.00    -0.246 OA
BRANCH   4   6
ATOM      6  C   UNL A   1      32.912  25.716  25.501  1.00  0.00     0.087 C 
ATOM      7  C   UNL A   1      33.226  20.775  24.732  1.00  0.00    -0.026 A 
ATOM      8  C   UNL A   1      32.165  21.673  24.936  1.00  0.00     0.052 A 
ATOM      9  C   UNL A   1      34.529  21.235  25.002  1.00  0.00     0.045 A 
ATOM     10  C   UNL A   1      32.401  23.016  25.234  1.00  0.00     0.128 A 
ATOM     11  C   UNL A   1      34.765  22.567  25.351  1.00  0.00     0.032 A 
ATOM     12  Cl  UNL A   1      35.907  20.193  24.899  1.00  0.00    -0.084 Cl
ATOM     13  C   UNL A   1      33.704  23.470  25.417  1.00  0.00     0.019 A 
ATOM     14  O   UNL A   1      31.301  23.821  25.318  1.00  0.00    -0.475 OA
ATOM     15  C   UNL A   1      33.953  24.883  25.618  1.00  0.00     0.027 C 
ATOM     16  C   UNL A   1      31.494  25.263  25.280  1.00  0.00     0.316 C 
BRANCH   7  17
ATOM     17  C   UNL A   1      33.005  19.364  24.219  1.00  0.00     0.037 C 
BRANCH  17  18
ATOM     18  C   UNL A   1      32.901  18.217  25.237  1.00  0.00     0.008 C 
BRANCH  18  19
ATOM     19  C   UNL A   1      33.635  16.907  24.871  1.00  0.00    -0.017 C 
ATOM     20  C   UNL A   1      32.832  15.656  25.226  1.00  0.00     0.007 C 
ATOM     21  C   UNL A   1      33.968  16.913  23.377  1.00  0.00     0.007 C 
ENDBRANCH  18  19
ENDBRANCH  17  18
ENDBRANCH   7  17
BRANCH  16  22
ATOM     22  C   UNL A   1      30.905  25.823  23.977  1.00  0.00     0.430 C 
ATOM     23  F   UNL A   1      29.894  25.046  23.519  1.00  0.00    -0.167 F 
ATOM     24  F   UNL A   1      30.386  27.062  24.158  1.00  0.00    -0.167 F 
ATOM     25  F   UNL A   1      31.828  25.910  22.994  1.00  0.00    -0.167 F 
ENDBRANCH  16  22
ENDBRANCH   4   6
ENDBRANCH   3   4
ENDBRANCH   2   3
ENDBRANCH   1   2
BRANCH   1  26
ATOM     26  O   UNL A   1      31.452  30.900  26.084  1.00  0.00    -0.374 OA
BRANCH  26  27
ATOM     27  C   UNL A   1      31.386  32.260  26.510  1.00  0.00     0.202 C 
BRANCH  27  28
ATOM     28  C   UNL A   1      32.283  32.711  27.670  1.00  0.00     0.261 C 
BRANCH  28  29
ATOM     29  O   UNL A   1      32.956  33.954  27.408  1.00  0.00    -0.460 OA
BRANCH  29  30
ATOM     30  C   UNL A   1      33.158  34.734  28.499  1.00  0.00     0.338 C 
ATOM     31  O   UNL A   1      32.426  35.610  28.933  1.00  0.00    -0.246 OA
BRANCH  30  32
ATOM     32  C   UNL A   1      34.333  34.238  29.238  1.00  0.00     0.060 A 
ATOM     33  C   UNL A   1      34.191  33.571  30.454  1.00  0.00     0.016 A 
ATOM     34  C   UNL A   1      35.599  34.418  28.666  1.00  0.00     0.016 A 
ATOM     35  C   UNL A   1      35.326  33.061  31.088  1.00  0.00     0.010 A 
ATOM     36  C   UNL A   1      36.732  33.907  29.300  1.00  0.00     0.010 A 
ATOM     37  C   UNL A   1      36.601  33.208  30.508  1.00  0.00    -0.014 A 
BRANCH  37  38
ATOM     38  C   UNL A   1      37.772  32.527  31.112  1.00  0.00     0.031 A 
ATOM     39  C   UNL A   1      38.279  32.898  32.472  1.00  0.00     0.074 A 
ATOM     40  C   UNL A   1      38.383  31.557  30.405  1.00  0.00     0.049 A 
ATOM     41  N   UNL A   1      39.230  32.337  33.175  1.00  0.00    -0.248 NA
ATOM     42  C   UNL A   1      37.643  34.049  33.129  1.00  0.00     0.031 C 
ATOM     43  C   UNL A   1      38.006  31.144  29.053  1.00  0.00     0.029 A 
ATOM     44  N   UNL A   1      39.434  30.735  30.725  1.00  0.00    -0.354 N 
ATOM     45  C   UNL A   1      39.292  33.047  34.366  1.00  0.00     0.074 A 
ATOM     46  C   UNL A   1      38.322  34.119  34.267  1.00  0.00     0.031 C 
ATOM     47  C   UNL A   1      38.784  30.119  28.675  1.00  0.00     0.029 A 
ATOM     48  C   UNL A   1      39.735  29.823  29.744  1.00  0.00     0.049 A 
ATOM     49  H   UNL A   1      39.925  30.794  31.576  1.00  0.00     0.167 HD
ATOM     50  C   UNL A   1      40.070  32.807  35.448  1.00  0.00     0.037 A 
ATOM     51  C   UNL A   1      40.666  28.850  29.710  1.00  0.00     0.037 A 
ATOM     52  C   UNL A   1      41.042  31.745  35.533  1.00  0.00     0.049 A 
ATOM     53  C   UNL A   1      41.551  28.639  30.908  1.00  0.00     0.074 A 
ATOM     54  C   UNL A   1      41.848  31.400  36.604  1.00  0.00     0.029 A 
ATOM     55  N   UNL A   1      41.351  30.868  34.503  1.00  0.00    -0.354 N 
ATOM     56  N   UNL A   1      41.539  29.259  32.063  1.00  0.00    -0.248 NA
ATOM     57  C   UNL A   1      42.577  27.593  30.799  1.00  0.00     0.031 C 
ATOM     58  C   UNL A   1      42.685  30.354  36.204  1.00  0.00     0.029 A 
ATOM     59  C   UNL A   1      42.361  30.006  34.902  1.00  0.00     0.049 A 
ATOM     60  H   UNL A   1      40.917  30.859  33.619  1.00  0.00     0.167 HD
ATOM     61  C   UNL A   1      42.539  28.668  32.824  1.00  0.00     0.074 A 
ATOM     62  C   UNL A   1      43.122  27.623  32.008  1.00  0.00     0.031 C 
ATOM     63  C   UNL A   1      42.937  28.969  34.083  1.00  0.00     0.037 A 
BRANCH  50  64
ATOM     64  C   UNL A   1      39.898  33.692  36.650  1.00  0.00     0.064 A 
ATOM     65  C   UNL A   1      40.579  34.914  36.756  1.00  0.00     0.173 A 
ATOM     66  C   UNL A   1      38.978  33.365  37.658  1.00  0.00     0.173 A 
ATOM     67  F   UNL A   1      41.472  35.273  35.821  1.00  0.00    -0.203 F 
ATOM     68  C   UNL A   1      40.356  35.768  37.832  1.00  0.00     0.198 A 
ATOM     69  C   UNL A   1      38.736  34.235  38.718  1.00  0.00     0.198 A 
ATOM     70  F   UNL A   1      38.291  32.213  37.599  1.00  0.00    -0.203 F 
ATOM     71  F   UNL A   1      41.041  36.917  37.927  1.00  0.00    -0.200 F 
ATOM     72  C   UNL A   1      39.427  35.433  38.807  1.00  0.00     0.200 A 
ATOM     73  F   UNL A   1      37.824  33.919  39.647  1.00  0.00    -0.200 F 
ATOM     74  F   UNL A   1      39.198  36.267  39.830  1.00  0.00    -0.200 F 
ENDBRANCH  50  64
BRANCH  51  75
ATOM     75  C   UNL A   1      40.775  27.979  28.511  1.00  0.00     0.064 A 
ATOM     76  C   UNL A   1      40.102  26.751  28.451  1.00  0.00     0.173 A 
ATOM     77  C   UNL A   1      41.532  28.365  27.394  1.00  0.00     0.173 A 
ATOM     78  F   UNL A   1      39.382  26.330  29.500  1.00  0.00    -0.203 F 
ATOM     79  C   UNL A   1      40.190  25.938  27.323  1.00  0.00     0.198 A 
ATOM     80  C   UNL A   1      41.594  27.565  26.256  1.00  0.00     0.198 A 
ATOM     81  F   UNL A   1      42.191  29.532  27.401  1.00  0.00    -0.203 F 
ATOM     82  F   UNL A   1      39.566  24.752  27.306  1.00  0.00    -0.200 F 
ATOM     83  C   UNL A   1      40.928  26.349  26.223  1.00  0.00     0.200 A 
ATOM     84  F   UNL A   1      42.293  27.975  25.189  1.00  0.00    -0.200 F 
ATOM     85  F   UNL A   1      41.000  25.572  25.134  1.00  0.00    -0.200 F 
ENDBRANCH  51  75
BRANCH  63  86
ATOM     86  C   UNL A   1      44.059  28.163  34.674  1.00  0.00     0.064 A 
ATOM     87  C   UNL A   1      43.818  26.951  35.337  1.00  0.00     0.173 A 
ATOM     88  C   UNL A   1      45.394  28.561  34.502  1.00  0.00     0.173 A 
ATOM     89  F   UNL A   1      42.560  26.532  35.542  1.00  0.00    -0.203 F 
ATOM     90  C   UNL A   1      44.870  26.172  35.813  1.00  0.00     0.198 A 
ATOM     91  C   UNL A   1      46.445  27.765  34.950  1.00  0.00     0.198 A 
ATOM     92  F   UNL A   1      45.682  29.709  33.869  1.00  0.00    -0.203 F 
ATOM     93  F   UNL A   1      44.614  25.033  36.472  1.00  0.00    -0.200 F 
ATOM     94  C   UNL A   1      46.181  26.573  35.608  1.00  0.00     0.200 A 
ATOM     95  F   UNL A   1      47.711  28.144  34.735  1.00  0.00    -0.200 F 
ATOM     96  F   UNL A   1      47.193  25.810  36.045  1.00  0.00    -0.200 F 
ENDBRANCH  63  86
ENDBRANCH  37  38
ENDBRANCH  30  32
ENDBRANCH  29  30
ENDBRANCH  28  29
ENDBRANCH  27  28
ENDBRANCH  26  27
ENDBRANCH   1  26
TORSDOF 18
ENDMDL
MODEL 3
REMARK VINA RESULT:     -11.3      5.622     10.175
REMARK SMILES CC(C)CCc1cc2c(cc1Cl)C=C(C(=O)OCCOCCOC(=O)c1ccc(-c3c4nc(c(-c5c(F)c(F)c(F)c(F)c5F)c5ccc([nH]5)c(-c5c(F)c(F)c(F)c(F)c5F)c5nc(c(-c6c(F)c(F)c(F)c(F)c6F)c6ccc3[nH]6)C=C5)C=C4)cc1)[C@@H](C(F)(F)F)O2
REMARK SMILES IDX 19 1 18 2 17 3 15 4 16 5 14 6 6 7 7 8 11 9 8 10 10 11 12 12
REMARK SMILES IDX 9 13 94 14 13 15 89 16 5 17 4 18 2 19 1 20 3 21 90 22 91 23
REMARK SMILES IDX 92 24 93 25 20 26 21 27 22 28 23 29 24 30 25 31 26 32 27 33
REMARK SMILES IDX 88 34 28 35 87 36 29 37 30 38 31 39 81 40 32 41 86 42 80 43
REMARK SMILES IDX 82 44 33 45 85 46 79 47 78 48 34 50 66 51 46 52 65 53 47 54
REMARK SMILES IDX 50 55 64 56 83 57 48 58 49 59 63 61 84 62 51 63 35 64 36 65
REMARK SMILES IDX 44 66 37 67 38 68 42 69 45 70 39 71 40 72 43 73 41 74 67 75
REMARK SMILES IDX 68 76 76 77 69 78 70 79 74 80 77 81 71 82 72 83 75 84 73 85
REMARK SMILES IDX 52 86 53 87 61 88 54 89 55 90 59 91 62 92 56 93 57 94 60 95
REMARK SMILES IDX 58 96
REMARK H PARENT 82 49 50 60
REMARK Flexibility Score: inf
ROOT
ATOM      1  C   UNL A   1      32.224  30.229  26.896  1.00  0.00     0.202 C 
ENDROOT
BRANCH   1   2
ATOM      2  C   UNL A   1      31.830  28.749  26.891  1.00  0.00     0.261 C 
BRANCH   2   3
ATOM      3  O   UNL A   1      32.974  27.892  26.775  1.00  0.00    -0.460 OA
BRANCH   3   4
ATOM      4  C   UNL A   1      33.183  27.407  25.527  1.00  0.00     0.338 C 
ATOM      5  O   UNL A   1      33.672  28.005  24.582  1.00  0.00    -0.246 OA
BRANCH   4   6
ATOM      6  C   UNL A   1      32.853  25.970  25.496  1.00  0.00     0.087 C 
ATOM      7  C   UNL A   1      33.107  21.005  24.874  1.00  0.00    -0.026 A 
ATOM      8  C   UNL A   1      32.059  21.917  25.092  1.00  0.00     0.052 A 
ATOM      9  C   UNL A   1      34.422  21.463  25.076  1.00  0.00     0.045 A 
ATOM     10  C   UNL A   1      32.316  23.267  25.336  1.00  0.00     0.128 A 
ATOM     11  C   UNL A   1      34.680  22.805  25.372  1.00  0.00     0.032 A 
ATOM     12  Cl  UNL A   1      35.788  20.408  24.951  1.00  0.00    -0.084 Cl
ATOM     13  C   UNL A   1      33.628  23.717  25.452  1.00  0.00     0.019 A 
ATOM     14  O   UNL A   1      31.225  24.082  25.439  1.00  0.00    -0.475 OA
ATOM     15  C   UNL A   1      33.893  25.133  25.597  1.00  0.00     0.027 C 
ATOM     16  C   UNL A   1      31.425  25.521  25.347  1.00  0.00     0.316 C 
BRANCH   7  17
ATOM     17  C   UNL A   1      32.856  19.580  24.417  1.00  0.00     0.037 C 
BRANCH  17  18
ATOM     18  C   UNL A   1      32.973  18.443  25.445  1.00  0.00     0.008 C 
BRANCH  18  19
ATOM     19  C   UNL A   1      33.590  17.120  24.938  1.00  0.00    -0.017 C 
ATOM     20  C   UNL A   1      32.690  15.911  25.182  1.00  0.00     0.007 C 
ATOM     21  C   UNL A   1      33.907  17.248  23.446  1.00  0.00     0.007 C 
ENDBRANCH  18  19
ENDBRANCH  17  18
ENDBRANCH   7  17
BRANCH  16  22
ATOM     22  C   UNL A   1      30.787  26.043  24.052  1.00  0.00     0.430 C 
ATOM     23  F   UNL A   1      31.681  26.065  23.035  1.00  0.00    -0.167 F 
ATOM     24  F   UNL A   1      29.764  25.251  23.648  1.00  0.00    -0.167 F 
ATOM     25  F   UNL A   1      30.298  27.295  24.192  1.00  0.00    -0.167 F 
ENDBRANCH  16  22
ENDBRANCH   4   6
ENDBRANCH   3   4
ENDBRANCH   2   3
ENDBRANCH   1   2
BRANCH   1  26
ATOM     26  O   UNL A   1      31.314  31.163  26.324  1.00  0.00    -0.374 OA
BRANCH  26  27
ATOM     27  C   UNL A   1      31.477  32.549  26.617  1.00  0.00     0.202 C 
BRANCH  27  28
ATOM     28  C   UNL A   1      32.541  32.963  27.642  1.00  0.00     0.261 C 
BRANCH  28  29
ATOM     29  O   UNL A   1      33.011  34.308  27.449  1.00  0.00    -0.460 OA
BRANCH  29  30
ATOM     30  C   UNL A   1      33.132  35.039  28.585  1.00  0.00     0.338 C 
ATOM     31  O   UNL A   1      32.381  35.913  28.989  1.00  0.00    -0.246 OA
BRANCH  30  32
ATOM     32  C   UNL A   1      34.226  34.486  29.403  1.00  0.00     0.060 A 
ATOM     33  C   UNL A   1      33.981  33.942  30.663  1.00  0.00     0.016 A 
ATOM     34  C   UNL A   1      35.519  34.484  28.864  1.00  0.00     0.016 A 
ATOM     35  C   UNL A   1      35.037  33.371  31.376  1.00  0.00     0.010 A 
ATOM     36  C   UNL A   1      36.573  33.913  29.577  1.00  0.00     0.010 A 
ATOM     37  C   UNL A   1      36.336  33.335  30.831  1.00  0.00    -0.014 A 
BRANCH  37  38
ATOM     38  C   UNL A   1      37.411  32.588  31.529  1.00  0.00     0.031 A 
ATOM     39  C   UNL A   1      38.097  31.420  30.888  1.00  0.00     0.074 A 
ATOM     40  C   UNL A   1      37.764  32.982  32.768  1.00  0.00     0.049 A 
ATOM     41  N   UNL A   1      39.114  30.722  31.328  1.00  0.00    -0.248 NA
ATOM     42  C   UNL A   1      37.572  30.969  29.592  1.00  0.00     0.031 C 
ATOM     43  C   UNL A   1      37.134  34.076  33.508  1.00  0.00     0.029 A 
ATOM     44  N   UNL A   1      38.741  32.524  33.615  1.00  0.00    -0.354 N 
ATOM     45  C   UNL A   1      39.370  29.768  30.354  1.00  0.00     0.074 A 
ATOM     46  C   UNL A   1      38.363  29.937  29.325  1.00  0.00     0.031 C 
ATOM     47  C   UNL A   1      37.768  34.233  34.680  1.00  0.00     0.029 A 
ATOM     48  C   UNL A   1      38.826  33.232  34.788  1.00  0.00     0.049 A 
ATOM     49  H   UNL A   1      39.324  31.760  33.402  1.00  0.00     0.167 HD
ATOM     50  C   UNL A   1      40.369  28.856  30.314  1.00  0.00     0.037 A 
ATOM     51  C   UNL A   1      39.666  33.097  35.831  1.00  0.00     0.037 A 
ATOM     52  C   UNL A   1      41.359  28.686  31.348  1.00  0.00     0.049 A 
ATOM     53  C   UNL A   1      40.735  32.040  35.782  1.00  0.00     0.074 A 
ATOM     54  C   UNL A   1      42.434  27.814  31.376  1.00  0.00     0.029 A 
ATOM     55  N   UNL A   1      41.388  29.391  32.543  1.00  0.00    -0.354 N 
ATOM     56  N   UNL A   1      41.025  31.203  34.815  1.00  0.00    -0.248 NA
ATOM     57  C   UNL A   1      41.596  31.910  36.966  1.00  0.00     0.031 C 
ATOM     58  C   UNL A   1      43.076  27.949  32.610  1.00  0.00     0.029 A 
ATOM     59  C   UNL A   1      42.440  28.948  33.329  1.00  0.00     0.049 A 
ATOM     60  H   UNL A   1      40.754  30.102  32.795  1.00  0.00     0.167 HD
ATOM     61  C   UNL A   1      42.109  30.462  35.264  1.00  0.00     0.074 A 
ATOM     62  C   UNL A   1      42.442  30.964  36.581  1.00  0.00     0.031 C 
ATOM     63  C   UNL A   1      42.764  29.453  34.640  1.00  0.00     0.037 A 
BRANCH  50  64
ATOM     64  C   UNL A   1      40.467  27.971  29.103  1.00  0.00     0.064 A 
ATOM     65  C   UNL A   1      39.737  26.775  29.016  1.00  0.00     0.173 A 
ATOM     66  C   UNL A   1      41.220  28.362  27.986  1.00  0.00     0.173 A 
ATOM     67  F   UNL A   1      39.006  26.353  30.057  1.00  0.00    -0.203 F 
ATOM     68  C   UNL A   1      39.770  25.999  27.861  1.00  0.00     0.198 A 
ATOM     69  C   UNL A   1      41.226  27.599  26.821  1.00  0.00     0.198 A 
ATOM     70  F   UNL A   1      41.927  29.503  28.012  1.00  0.00    -0.203 F 
ATOM     71  F   UNL A   1      39.088  24.846  27.811  1.00  0.00    -0.200 F 
ATOM     72  C   UNL A   1      40.504  26.416  26.761  1.00  0.00     0.200 A 
ATOM     73  F   UNL A   1      41.920  28.014  25.753  1.00  0.00    -0.200 F 
ATOM     74  F   UNL A   1      40.515  25.679  25.642  1.00  0.00    -0.200 F 
ENDBRANCH  50  64
BRANCH  51  75
ATOM     75  C   UNL A   1      39.550  34.018  36.992  1.00  0.00     0.064 A 
ATOM     76  C   UNL A   1      38.810  33.656  38.126  1.00  0.00     0.173 A 
ATOM     77  C   UNL A   1      40.194  35.265  37.004  1.00  0.00     0.173 A 
ATOM     78  F   UNL A   1      38.161  32.482  38.155  1.00  0.00    -0.203 F 
ATOM     79  C   UNL A   1      38.710  34.509  39.222  1.00  0.00     0.198 A 
ATOM     80  C   UNL A   1      40.118  36.104  38.113  1.00  0.00     0.198 A 
ATOM     81  F   UNL A   1      40.917  35.656  35.945  1.00  0.00    -0.203 F 
ATOM     82  F   UNL A   1      37.966  34.153  40.279  1.00  0.00    -0.200 F 
ATOM     83  C   UNL A   1      39.371  35.728  39.219  1.00  0.00     0.200 A 
ATOM     84  F   UNL A   1      40.773  37.271  38.112  1.00  0.00    -0.200 F 
ATOM     85  F   UNL A   1      39.286  36.542  40.280  1.00  0.00    -0.200 F 
ENDBRANCH  51  75
BRANCH  63  86
ATOM     86  C   UNL A   1      43.916  28.814  35.363  1.00  0.00     0.064 A 
ATOM     87  C   UNL A   1      45.224  29.304  35.231  1.00  0.00     0.173 A 
ATOM     88  C   UNL A   1      43.700  27.757  36.261  1.00  0.00     0.173 A 
ATOM     89  F   UNL A   1      45.488  30.303  34.375  1.00  0.00    -0.203 F 
ATOM     90  C   UNL A   1      46.273  28.755  35.964  1.00  0.00     0.198 A 
ATOM     91  C   UNL A   1      44.745  27.232  37.017  1.00  0.00     0.198 A 
ATOM     92  F   UNL A   1      42.467  27.255  36.431  1.00  0.00    -0.203 F 
ATOM     93  F   UNL A   1      47.519  29.218  35.799  1.00  0.00    -0.200 F 
ATOM     94  C   UNL A   1      46.030  27.729  36.865  1.00  0.00     0.200 A 
ATOM     95  F   UNL A   1      44.505  26.254  37.901  1.00  0.00    -0.200 F 
ATOM     96  F   UNL A   1      47.036  27.218  37.589  1.00  0.00    -0.200 F 
ENDBRANCH  63  86
ENDBRANCH  37  38
ENDBRANCH  30  32
ENDBRANCH  29  30
ENDBRANCH  28  29
ENDBRANCH  27  28
ENDBRANCH  26  27
ENDBRANCH   1  26
TORSDOF 18
ENDMDL
