MODEL 1
REMARK VINA RESULT:     -10.8      0.000      0.000
REMARK SMILES Cc1cc2c(c(C)c1Cl)C=C(C(=O)OCCOCCOC(=O)c1ccc(-c3c4nc(c(-c5c(F)c(F)c(F)c(F)c5F)c5ccc([nH]5)c(-c5c(F)c(F)c(F)c(F)c5F)c5nc(c(-c6c(F)c(F)c(F)c(F)c6F)c6ccc3[nH]6)C=C5)C=C4)cc1)[C@@H](C(F)(F)F)O2
REMARK SMILES IDX 18 1 17 2 16 3 15 4 14 5 12 6 13 7 11 8 1 9 2 10 3 11 8 12
REMARK SMILES IDX 4 13 6 14 9 15 5 16 91 17 7 18 10 19 86 20 87 21 88 22 89 23
REMARK SMILES IDX 90 24 19 25 20 26 21 27 22 28 23 29 24 30 85 31 25 32 84 33
REMARK SMILES IDX 26 34 27 35 28 36 78 37 29 38 83 39 77 40 79 41 30 42 82 43
REMARK SMILES IDX 76 44 75 45 31 47 63 48 43 49 62 50 44 51 47 52 61 53 80 54
REMARK SMILES IDX 45 55 46 56 60 58 81 59 48 60 32 61 33 62 41 63 34 64 35 65
REMARK SMILES IDX 39 66 42 67 36 68 37 69 40 70 38 71 64 72 65 73 73 74 66 75
REMARK SMILES IDX 67 76 71 77 74 78 68 79 69 80 72 81 70 82 49 83 50 84 58 85
REMARK SMILES IDX 51 86 52 87 56 88 59 89 53 90 54 91 57 92 55 93
REMARK H PARENT 79 46 47 57
REMARK Flexibility Score: inf
ROOT
ATOM      1  C   UNL A   1      33.611  35.050  28.449  1.00  0.00     0.202 C 
ENDROOT
BRANCH   1   2
ATOM      2  O   UNL A   1      32.671  35.992  28.968  1.00  0.00    -0.374 OA
BRANCH   2   3
ATOM      3  C   UNL A   1      32.933  36.553  30.252  1.00  0.00     0.202 C 
BRANCH   3   4
ATOM      4  C   UNL A   1      32.777  35.612  31.449  1.00  0.00     0.261 C 
BRANCH   4   5
ATOM      5  O   UNL A   1      33.998  35.514  32.201  1.00  0.00    -0.460 OA
BRANCH   5   6
ATOM      6  C   UNL A   1      34.678  34.359  32.016  1.00  0.00     0.338 C 
ATOM      7  O   UNL A   1      34.246  33.321  31.539  1.00  0.00    -0.246 OA
BRANCH   6   8
ATOM      8  C   UNL A   1      36.097  34.552  32.366  1.00  0.00     0.087 C 
ATOM      9  C   UNL A   1      42.541  34.131  32.680  1.00  0.00     0.046 C 
ATOM     10  C   UNL A   1      41.110  34.349  32.270  1.00  0.00    -0.028 A 
ATOM     11  C   UNL A   1      40.145  34.549  33.266  1.00  0.00     0.052 A 
ATOM     12  C   UNL A   1      40.706  34.329  30.920  1.00  0.00     0.047 A 
ATOM     13  C   UNL A   1      38.794  34.655  32.937  1.00  0.00     0.128 A 
ATOM     14  C   UNL A   1      39.344  34.467  30.567  1.00  0.00    -0.021 A 
ATOM     15  Cl  UNL A   1      41.918  34.099  29.696  1.00  0.00    -0.084 Cl
ATOM     16  C   UNL A   1      38.383  34.578  31.602  1.00  0.00     0.022 A 
ATOM     17  O   UNL A   1      37.950  34.833  33.997  1.00  0.00    -0.475 OA
ATOM     18  C   UNL A   1      38.893  34.479  29.125  1.00  0.00     0.047 C 
ATOM     19  C   UNL A   1      36.950  34.537  31.334  1.00  0.00     0.027 C 
ATOM     20  C   UNL A   1      36.516  34.715  33.796  1.00  0.00     0.316 C 
BRANCH  20  21
ATOM     21  C   UNL A   1      35.994  33.591  34.704  1.00  0.00     0.430 C 
ATOM     22  F   UNL A   1      36.302  33.828  36.001  1.00  0.00    -0.167 F 
ATOM     23  F   UNL A   1      34.646  33.481  34.643  1.00  0.00    -0.167 F 
ATOM     24  F   UNL A   1      36.514  32.387  34.375  1.00  0.00    -0.167 F 
ENDBRANCH  20  21
ENDBRANCH   6   8
ENDBRANCH   5   6
ENDBRANCH   4   5
ENDBRANCH   3   4
ENDBRANCH   2   3
ENDBRANCH   1   2
BRANCH   1  25
ATOM     25  C   UNL A   1      33.043  33.727  27.921  1.00  0.00     0.261 C 
BRANCH  25  26
ATOM     26  O   UNL A   1      33.671  32.588  28.539  1.00  0.00    -0.460 OA
BRANCH  26  27
ATOM     27  C   UNL A   1      34.003  31.591  27.686  1.00  0.00     0.338 C 
ATOM     28  O   UNL A   1      33.396  31.230  26.689  1.00  0.00    -0.246 OA
BRANCH  27  29
ATOM     29  C   UNL A   1      35.343  31.074  28.014  1.00  0.00     0.060 A 
ATOM     30  C   UNL A   1      35.491  29.686  28.135  1.00  0.00     0.016 A 
ATOM     31  C   UNL A   1      36.409  31.931  28.296  1.00  0.00     0.016 A 
ATOM     32  C   UNL A   1      36.696  29.150  28.582  1.00  0.00     0.010 A 
ATOM     33  C   UNL A   1      37.614  31.391  28.759  1.00  0.00     0.010 A 
ATOM     34  C   UNL A   1      37.750  30.003  28.938  1.00  0.00    -0.014 A 
BRANCH  34  35
ATOM     35  C   UNL A   1      38.928  29.443  29.641  1.00  0.00     0.031 A 
ATOM     36  C   UNL A   1      39.230  29.910  31.038  1.00  0.00     0.074 A 
ATOM     37  C   UNL A   1      39.686  28.494  29.065  1.00  0.00     0.049 A 
ATOM     38  N   UNL A   1      40.208  29.563  31.836  1.00  0.00    -0.248 NA
ATOM     39  C   UNL A   1      38.300  30.892  31.618  1.00  0.00     0.031 C 
ATOM     40  C   UNL A   1      39.459  27.923  27.740  1.00  0.00     0.029 A 
ATOM     41  N   UNL A   1      40.801  27.840  29.529  1.00  0.00    -0.354 N 
ATOM     42  C   UNL A   1      40.007  30.276  33.010  1.00  0.00     0.074 A 
ATOM     43  C   UNL A   1      38.835  31.100  32.813  1.00  0.00     0.031 C 
ATOM     44  C   UNL A   1      40.406  27.001  27.495  1.00  0.00     0.029 A 
ATOM     45  C   UNL A   1      41.322  26.939  28.634  1.00  0.00     0.049 A 
ATOM     46  H   UNL A   1      41.190  28.002  30.418  1.00  0.00     0.167 HD
ATOM     47  C   UNL A   1      40.728  30.235  34.155  1.00  0.00     0.037 A 
ATOM     48  C   UNL A   1      42.422  26.165  28.721  1.00  0.00     0.037 A 
ATOM     49  C   UNL A   1      41.895  29.416  34.350  1.00  0.00     0.049 A 
ATOM     50  C   UNL A   1      43.262  26.212  29.971  1.00  0.00     0.074 A 
ATOM     51  C   UNL A   1      42.696  29.313  35.473  1.00  0.00     0.029 A 
ATOM     52  N   UNL A   1      42.428  28.564  33.396  1.00  0.00    -0.354 N 
ATOM     53  N   UNL A   1      43.064  26.887  31.077  1.00  0.00    -0.248 NA
ATOM     54  C   UNL A   1      44.483  25.391  29.983  1.00  0.00     0.031 C 
ATOM     55  C   UNL A   1      43.739  28.428  35.186  1.00  0.00     0.029 A 
ATOM     56  C   UNL A   1      43.561  27.946  33.899  1.00  0.00     0.049 A 
ATOM     57  H   UNL A   1      42.057  28.420  32.496  1.00  0.00     0.167 HD
ATOM     58  C   UNL A   1      44.116  26.556  31.922  1.00  0.00     0.074 A 
ATOM     59  C   UNL A   1      44.945  25.609  31.206  1.00  0.00     0.031 C 
ATOM     60  C   UNL A   1      44.371  26.998  33.177  1.00  0.00     0.037 A 
BRANCH  47  61
ATOM     61  C   UNL A   1      40.283  31.102  35.293  1.00  0.00     0.064 A 
ATOM     62  C   UNL A   1      41.022  32.230  35.683  1.00  0.00     0.173 A 
ATOM     63  C   UNL A   1      39.069  30.850  35.950  1.00  0.00     0.173 A 
ATOM     64  F   UNL A   1      42.195  32.505  35.094  1.00  0.00    -0.203 F 
ATOM     65  C   UNL A   1      40.563  33.068  36.695  1.00  0.00     0.198 A 
ATOM     66  C   UNL A   1      38.604  31.704  36.945  1.00  0.00     0.198 A 
ATOM     67  F   UNL A   1      38.326  29.785  35.610  1.00  0.00    -0.203 F 
ATOM     68  F   UNL A   1      41.296  34.127  37.068  1.00  0.00    -0.200 F 
ATOM     69  C   UNL A   1      39.350  32.811  37.317  1.00  0.00     0.200 A 
ATOM     70  F   UNL A   1      37.427  31.460  37.538  1.00  0.00    -0.200 F 
ATOM     71  F   UNL A   1      38.903  33.630  38.279  1.00  0.00    -0.200 F 
ENDBRANCH  47  61
BRANCH  48  72
ATOM     72  C   UNL A   1      42.796  25.277  27.590  1.00  0.00     0.064 A 
ATOM     73  C   UNL A   1      43.729  25.689  26.629  1.00  0.00     0.173 A 
ATOM     74  C   UNL A   1      42.221  24.007  27.439  1.00  0.00     0.173 A 
ATOM     75  F   UNL A   1      44.285  26.907  26.715  1.00  0.00    -0.203 F 
ATOM     76  C   UNL A   1      44.064  24.869  25.553  1.00  0.00     0.198 A 
ATOM     77  C   UNL A   1      42.576  23.178  26.377  1.00  0.00     0.198 A 
ATOM     78  F   UNL A   1      41.319  23.568  28.330  1.00  0.00    -0.203 F 
ATOM     79  F   UNL A   1      44.927  25.304  24.626  1.00  0.00    -0.200 F 
ATOM     80  C   UNL A   1      43.492  23.611  25.432  1.00  0.00     0.200 A 
ATOM     81  F   UNL A   1      42.028  21.959  26.270  1.00  0.00    -0.200 F 
ATOM     82  F   UNL A   1      43.817  22.822  24.400  1.00  0.00    -0.200 F 
ENDBRANCH  48  72
BRANCH  60  83
ATOM     83  C   UNL A   1      45.581  26.454  33.876  1.00  0.00     0.064 A 
ATOM     84  C   UNL A   1      46.813  27.121  33.831  1.00  0.00     0.173 A 
ATOM     85  C   UNL A   1      45.487  25.297  34.666  1.00  0.00     0.173 A 
ATOM     86  F   UNL A   1      46.956  28.223  33.080  1.00  0.00    -0.203 F 
ATOM     87  C   UNL A   1      47.911  26.643  34.542  1.00  0.00     0.198 A 
ATOM     88  C   UNL A   1      46.578  24.839  35.397  1.00  0.00     0.198 A 
ATOM     89  F   UNL A   1      44.326  24.629  34.749  1.00  0.00    -0.203 F 
ATOM     90  F   UNL A   1      49.087  27.279  34.462  1.00  0.00    -0.200 F 
ATOM     91  C   UNL A   1      47.789  25.510  35.332  1.00  0.00     0.200 A 
ATOM     92  F   UNL A   1      46.455  23.752  36.173  1.00  0.00    -0.200 F 
ATOM     93  F   UNL A   1      48.843  25.062  36.031  1.00  0.00    -0.200 F 
ENDBRANCH  60  83
ENDBRANCH  34  35
ENDBRANCH  27  29
ENDBRANCH  26  27
ENDBRANCH  25  26
ENDBRANCH   1  25
TORSDOF 15
ENDMDL
MODEL 2
REMARK VINA RESULT:     -10.7      3.938     10.231
REMARK SMILES Cc1cc2c(c(C)c1Cl)C=C(C(=O)OCCOCCOC(=O)c1ccc(-c3c4nc(c(-c5c(F)c(F)c(F)c(F)c5F)c5ccc([nH]5)c(-c5c(F)c(F)c(F)c(F)c5F)c5nc(c(-c6c(F)c(F)c(F)c(F)c6F)c6ccc3[nH]6)C=C5)C=C4)cc1)[C@@H](C(F)(F)F)O2
REMARK SMILES IDX 18 1 17 2 16 3 15 4 14 5 12 6 13 7 11 8 1 9 2 10 3 11 8 12
REMARK SMILES IDX 4 13 6 14 9 15 5 16 91 17 7 18 10 19 86 20 87 21 88 22 89 23
REMARK SMILES IDX 90 24 19 25 20 26 21 27 22 28 23 29 24 30 85 31 25 32 84 33
REMARK SMILES IDX 26 34 27 35 28 36 78 37 29 38 83 39 77 40 79 41 30 42 82 43
REMARK SMILES IDX 76 44 75 45 31 47 63 48 43 49 62 50 44 51 47 52 61 53 80 54
REMARK SMILES IDX 45 55 46 56 60 58 81 59 48 60 32 61 33 62 41 63 34 64 35 65
REMARK SMILES IDX 39 66 42 67 36 68 37 69 40 70 38 71 64 72 65 73 73 74 66 75
REMARK SMILES IDX 67 76 71 77 74 78 68 79 69 80 72 81 70 82 49 83 50 84 58 85
REMARK SMILES IDX 51 86 52 87 56 88 59 89 53 90 54 91 57 92 55 93
REMARK H PARENT 79 46 47 57
REMARK Flexibility Score: inf
ROOT
ATOM      1  C   UNL A   1      31.407  29.382  25.124  1.00  0.00     0.202 C 
ENDROOT
BRANCH   1   2
ATOM      2  O   UNL A   1      31.880  29.289  23.779  1.00  0.00    -0.374 OA
BRANCH   2   3
ATOM      3  C   UNL A   1      33.176  28.734  23.567  1.00  0.00     0.202 C 
BRANCH   3   4
ATOM      4  C   UNL A   1      33.222  27.320  22.984  1.00  0.00     0.261 C 
BRANCH   4   5
ATOM      5  O   UNL A   1      33.982  26.433  23.822  1.00  0.00    -0.460 OA
BRANCH   5   6
ATOM      6  C   UNL A   1      33.234  25.662  24.644  1.00  0.00     0.338 C 
ATOM      7  O   UNL A   1      32.146  25.940  25.123  1.00  0.00    -0.246 OA
BRANCH   6   8
ATOM      8  C   UNL A   1      33.866  24.340  24.802  1.00  0.00     0.087 C 
ATOM      9  C   UNL A   1      38.057  19.417  24.881  1.00  0.00     0.046 C 
ATOM     10  C   UNL A   1      37.302  20.697  25.119  1.00  0.00    -0.028 A 
ATOM     11  C   UNL A   1      35.941  20.750  24.792  1.00  0.00     0.052 A 
ATOM     12  C   UNL A   1      37.928  21.851  25.631  1.00  0.00     0.047 A 
ATOM     13  C   UNL A   1      35.228  21.942  24.902  1.00  0.00     0.128 A 
ATOM     14  C   UNL A   1      37.212  23.060  25.780  1.00  0.00    -0.021 A 
ATOM     15  Cl  UNL A   1      39.613  21.763  26.050  1.00  0.00    -0.084 Cl
ATOM     16  C   UNL A   1      35.861  23.105  25.356  1.00  0.00     0.022 A 
ATOM     17  O   UNL A   1      33.912  21.869  24.540  1.00  0.00    -0.475 OA
ATOM     18  C   UNL A   1      37.855  24.301  26.356  1.00  0.00     0.047 C 
ATOM     19  C   UNL A   1      35.109  24.354  25.301  1.00  0.00     0.027 C 
ATOM     20  C   UNL A   1      33.145  23.093  24.386  1.00  0.00     0.316 C 
BRANCH  20  21
ATOM     21  C   UNL A   1      32.625  23.157  22.942  1.00  0.00     0.430 C 
ATOM     22  F   UNL A   1      32.388  21.916  22.453  1.00  0.00    -0.167 F 
ATOM     23  F   UNL A   1      31.455  23.832  22.858  1.00  0.00    -0.167 F 
ATOM     24  F   UNL A   1      33.503  23.762  22.110  1.00  0.00    -0.167 F 
ENDBRANCH  20  21
ENDBRANCH   6   8
ENDBRANCH   5   6
ENDBRANCH   4   5
ENDBRANCH   3   4
ENDBRANCH   2   3
ENDBRANCH   1   2
BRANCH   1  25
ATOM     25  C   UNL A   1      31.635  30.716  25.846  1.00  0.00     0.261 C 
BRANCH  25  26
ATOM     26  O   UNL A   1      32.549  30.580  26.950  1.00  0.00    -0.460 OA
BRANCH  26  27
ATOM     27  C   UNL A   1      33.249  31.699  27.248  1.00  0.00     0.338 C 
ATOM     28  O   UNL A   1      32.839  32.850  27.270  1.00  0.00    -0.246 OA
BRANCH  27  29
ATOM     29  C   UNL A   1      34.590  31.339  27.741  1.00  0.00     0.060 A 
ATOM     30  C   UNL A   1      34.833  29.989  28.030  1.00  0.00     0.016 A 
ATOM     31  C   UNL A   1      35.557  32.309  28.008  1.00  0.00     0.016 A 
ATOM     32  C   UNL A   1      36.030  29.611  28.632  1.00  0.00     0.010 A 
ATOM     33  C   UNL A   1      36.753  31.929  28.625  1.00  0.00     0.010 A 
ATOM     34  C   UNL A   1      36.979  30.585  28.972  1.00  0.00    -0.014 A 
BRANCH  34  35
ATOM     35  C   UNL A   1      38.129  30.207  29.827  1.00  0.00     0.031 A 
ATOM     36  C   UNL A   1      39.186  29.297  29.264  1.00  0.00     0.074 A 
ATOM     37  C   UNL A   1      38.258  30.709  31.068  1.00  0.00     0.049 A 
ATOM     38  N   UNL A   1      40.270  28.833  29.832  1.00  0.00    -0.248 NA
ATOM     39  C   UNL A   1      39.003  28.860  27.871  1.00  0.00     0.031 C 
ATOM     40  C   UNL A   1      37.329  31.643  31.700  1.00  0.00     0.029 A 
ATOM     41  N   UNL A   1      39.230  30.505  32.016  1.00  0.00    -0.354 N 
ATOM     42  C   UNL A   1      40.898  28.058  28.867  1.00  0.00     0.074 A 
ATOM     43  C   UNL A   1      40.062  28.086  27.687  1.00  0.00     0.031 C 
ATOM     44  C   UNL A   1      37.776  31.933  32.934  1.00  0.00     0.029 A 
ATOM     45  C   UNL A   1      39.006  31.183  33.188  1.00  0.00     0.049 A 
ATOM     46  H   UNL A   1      40.014  29.928  31.868  1.00  0.00     0.167 HD
ATOM     47  C   UNL A   1      42.075  27.395  28.953  1.00  0.00     0.037 A 
ATOM     48  C   UNL A   1      39.708  31.183  34.338  1.00  0.00     0.037 A 
ATOM     49  C   UNL A   1      42.906  27.366  30.128  1.00  0.00     0.049 A 
ATOM     50  C   UNL A   1      40.964  30.358  34.439  1.00  0.00     0.074 A 
ATOM     51  C   UNL A   1      44.112  26.715  30.313  1.00  0.00     0.029 A 
ATOM     52  N   UNL A   1      42.611  28.014  31.317  1.00  0.00    -0.354 N 
ATOM     53  N   UNL A   1      41.552  29.630  33.521  1.00  0.00    -0.248 NA
ATOM     54  C   UNL A   1      41.652  30.351  35.740  1.00  0.00     0.031 C 
ATOM     55  C   UNL A   1      44.530  26.936  31.629  1.00  0.00     0.029 A 
ATOM     56  C   UNL A   1      43.605  27.761  32.249  1.00  0.00     0.049 A 
ATOM     57  H   UNL A   1      41.815  28.570  31.477  1.00  0.00     0.167 HD
ATOM     58  C   UNL A   1      42.687  29.100  34.122  1.00  0.00     0.074 A 
ATOM     59  C   UNL A   1      42.714  29.599  35.481  1.00  0.00     0.031 C 
ATOM     60  C   UNL A   1      43.622  28.274  33.595  1.00  0.00     0.037 A 
BRANCH  47  61
ATOM     61  C   UNL A   1      42.542  26.638  27.747  1.00  0.00     0.064 A 
ATOM     62  C   UNL A   1      43.381  27.233  26.792  1.00  0.00     0.173 A 
ATOM     63  C   UNL A   1      42.211  25.285  27.582  1.00  0.00     0.173 A 
ATOM     64  F   UNL A   1      43.714  28.528  26.900  1.00  0.00    -0.203 F 
ATOM     65  C   UNL A   1      43.865  26.501  25.712  1.00  0.00     0.198 A 
ATOM     66  C   UNL A   1      42.716  24.551  26.513  1.00  0.00     0.198 A 
ATOM     67  F   UNL A   1      41.414  24.672  28.470  1.00  0.00    -0.203 F 
ATOM     68  F   UNL A   1      44.646  27.095  24.799  1.00  0.00    -0.200 F 
ATOM     69  C   UNL A   1      43.541  25.159  25.579  1.00  0.00     0.200 A 
ATOM     70  F   UNL A   1      42.411  23.252  26.392  1.00  0.00    -0.200 F 
ATOM     71  F   UNL A   1      44.024  24.451  24.548  1.00  0.00    -0.200 F 
ENDBRANCH  47  61
BRANCH  48  72
ATOM     72  C   UNL A   1      39.238  31.993  35.493  1.00  0.00     0.064 A 
ATOM     73  C   UNL A   1      38.418  31.431  36.480  1.00  0.00     0.173 A 
ATOM     74  C   UNL A   1      39.588  33.344  35.626  1.00  0.00     0.173 A 
ATOM     75  F   UNL A   1      38.033  30.150  36.382  1.00  0.00    -0.203 F 
ATOM     76  C   UNL A   1      37.955  32.194  37.551  1.00  0.00     0.198 A 
ATOM     77  C   UNL A   1      39.147  34.099  36.711  1.00  0.00     0.198 A 
ATOM     78  F   UNL A   1      40.368  33.930  34.705  1.00  0.00    -0.203 F 
ATOM     79  F   UNL A   1      37.139  31.643  38.460  1.00  0.00    -0.200 F 
ATOM     80  C   UNL A   1      38.326  33.525  37.669  1.00  0.00     0.200 A 
ATOM     81  F   UNL A   1      39.515  35.382  36.825  1.00  0.00    -0.200 F 
ATOM     82  F   UNL A   1      37.885  34.256  38.701  1.00  0.00    -0.200 F 
ENDBRANCH  48  72
BRANCH  60  83
ATOM     83  C   UNL A   1      44.769  27.867  34.471  1.00  0.00     0.064 A 
ATOM     84  C   UNL A   1      44.732  26.684  35.221  1.00  0.00     0.173 A 
ATOM     85  C   UNL A   1      45.949  28.628  34.498  1.00  0.00     0.173 A 
ATOM     86  F   UNL A   1      43.623  25.929  35.238  1.00  0.00    -0.203 F 
ATOM     87  C   UNL A   1      45.832  26.282  35.976  1.00  0.00     0.198 A 
ATOM     88  C   UNL A   1      47.055  28.209  35.231  1.00  0.00     0.198 A 
ATOM     89  F   UNL A   1      46.036  29.764  33.789  1.00  0.00    -0.203 F 
ATOM     90  F   UNL A   1      45.765  25.162  36.709  1.00  0.00    -0.200 F 
ATOM     91  C   UNL A   1      46.994  27.038  35.972  1.00  0.00     0.200 A 
ATOM     92  F   UNL A   1      48.183  28.933  35.213  1.00  0.00    -0.200 F 
ATOM     93  F   UNL A   1      48.058  26.639  36.684  1.00  0.00    -0.200 F 
ENDBRANCH  60  83
ENDBRANCH  34  35
ENDBRANCH  27  29
ENDBRANCH  26  27
ENDBRANCH  25  26
ENDBRANCH   1  25
TORSDOF 15
ENDMDL
MODEL 3
REMARK VINA RESULT:     -10.7      0.759      7.346
REMARK SMILES Cc1cc2c(c(C)c1Cl)C=C(C(=O)OCCOCCOC(=O)c1ccc(-c3c4nc(c(-c5c(F)c(F)c(F)c(F)c5F)c5ccc([nH]5)c(-c5c(F)c(F)c(F)c(F)c5F)c5nc(c(-c6c(F)c(F)c(F)c(F)c6F)c6ccc3[nH]6)C=C5)C=C4)cc1)[C@@H](C(F)(F)F)O2
REMARK SMILES IDX 18 1 17 2 16 3 15 4 14 5 12 6 13 7 11 8 1 9 2 10 3 11 8 12
REMARK SMILES IDX 4 13 6 14 9 15 5 16 91 17 7 18 10 19 86 20 87 21 88 22 89 23
REMARK SMILES IDX 90 24 19 25 20 26 21 27 22 28 23 29 24 30 85 31 25 32 84 33
REMARK SMILES IDX 26 34 27 35 28 36 78 37 29 38 83 39 77 40 79 41 30 42 82 43
REMARK SMILES IDX 76 44 75 45 31 47 63 48 43 49 62 50 44 51 47 52 61 53 80 54
REMARK SMILES IDX 45 55 46 56 60 58 81 59 48 60 32 61 33 62 41 63 34 64 35 65
REMARK SMILES IDX 39 66 42 67 36 68 37 69 40 70 38 71 64 72 65 73 73 74 66 75
REMARK SMILES IDX 67 76 71 77 74 78 68 79 69 80 72 81 70 82 49 83 50 84 58 85
REMARK SMILES IDX 51 86 52 87 56 88 59 89 53 90 54 91 57 92 55 93
REMARK H PARENT 79 46 47 57
REMARK Flexibility Score: inf
ROOT
ATOM      1  C   UNL A   1      33.607  35.075  28.418  1.00  0.00     0.202 C 
ENDROOT
BRANCH   1   2
ATOM      2  O   UNL A   1      32.713  36.102  28.850  1.00  0.00    -0.374 OA
BRANCH   2   3
ATOM      3  C   UNL A   1      32.913  36.654  30.149  1.00  0.00     0.202 C 
BRANCH   3   4
ATOM      4  C   UNL A   1      32.769  35.688  31.327  1.00  0.00     0.261 C 
BRANCH   4   5
ATOM      5  O   UNL A   1      33.993  35.584  32.073  1.00  0.00    -0.460 OA
BRANCH   5   6
ATOM      6  C   UNL A   1      34.673  34.432  31.877  1.00  0.00     0.338 C 
ATOM      7  O   UNL A   1      34.246  33.404  31.374  1.00  0.00    -0.246 OA
BRANCH   6   8
ATOM      8  C   UNL A   1      36.087  34.615  32.251  1.00  0.00     0.087 C 
ATOM      9  C   UNL A   1      42.508  34.064  32.772  1.00  0.00     0.046 C 
ATOM     10  C   UNL A   1      41.093  34.287  32.308  1.00  0.00    -0.028 A 
ATOM     11  C   UNL A   1      40.108  34.578  33.261  1.00  0.00     0.052 A 
ATOM     12  C   UNL A   1      40.724  34.184  30.952  1.00  0.00     0.047 A 
ATOM     13  C   UNL A   1      38.770  34.694  32.889  1.00  0.00     0.128 A 
ATOM     14  C   UNL A   1      39.377  34.330  30.553  1.00  0.00    -0.021 A 
ATOM     15  Cl  UNL A   1      41.962  33.842  29.781  1.00  0.00    -0.084 Cl
ATOM     16  C   UNL A   1      38.392  34.534  31.552  1.00  0.00     0.022 A 
ATOM     17  O   UNL A   1      37.903  34.964  33.911  1.00  0.00    -0.475 OA
ATOM     18  C   UNL A   1      38.963  34.254  29.102  1.00  0.00     0.047 C 
ATOM     19  C   UNL A   1      36.965  34.509  31.247  1.00  0.00     0.027 C 
ATOM     20  C   UNL A   1      36.473  34.866  33.678  1.00  0.00     0.316 C 
BRANCH  20  21
ATOM     21  C   UNL A   1      35.898  33.820  34.646  1.00  0.00     0.430 C 
ATOM     22  F   UNL A   1      35.582  32.674  33.995  1.00  0.00    -0.167 F 
ATOM     23  F   UNL A   1      36.789  33.481  35.607  1.00  0.00    -0.167 F 
ATOM     24  F   UNL A   1      34.780  34.259  35.265  1.00  0.00    -0.167 F 
ENDBRANCH  20  21
ENDBRANCH   6   8
ENDBRANCH   5   6
ENDBRANCH   4   5
ENDBRANCH   3   4
ENDBRANCH   2   3
ENDBRANCH   1   2
BRANCH   1  25
ATOM     25  C   UNL A   1      32.976  33.840  27.763  1.00  0.00     0.261 C 
BRANCH  25  26
ATOM     26  O   UNL A   1      33.349  32.624  28.438  1.00  0.00    -0.460 OA
BRANCH  26  27
ATOM     27  C   UNL A   1      33.793  31.637  27.624  1.00  0.00     0.338 C 
ATOM     28  O   UNL A   1      33.306  31.269  26.566  1.00  0.00    -0.246 OA
BRANCH  27  29
ATOM     29  C   UNL A   1      35.099  31.144  28.096  1.00  0.00     0.060 A 
ATOM     30  C   UNL A   1      35.180  29.804  28.496  1.00  0.00     0.016 A 
ATOM     31  C   UNL A   1      36.194  31.998  28.240  1.00  0.00     0.016 A 
ATOM     32  C   UNL A   1      36.346  29.322  29.084  1.00  0.00     0.010 A 
ATOM     33  C   UNL A   1      37.360  31.516  28.843  1.00  0.00     0.010 A 
ATOM     34  C   UNL A   1      37.428  30.187  29.300  1.00  0.00    -0.014 A 
BRANCH  34  35
ATOM     35  C   UNL A   1      38.561  29.734  30.142  1.00  0.00     0.031 A 
ATOM     36  C   UNL A   1      39.564  28.779  29.558  1.00  0.00     0.074 A 
ATOM     37  C   UNL A   1      38.722  30.207  31.390  1.00  0.00     0.049 A 
ATOM     38  N   UNL A   1      40.624  28.247  30.112  1.00  0.00    -0.248 NA
ATOM     39  C   UNL A   1      39.351  28.376  28.159  1.00  0.00     0.031 C 
ATOM     40  C   UNL A   1      37.848  31.178  32.044  1.00  0.00     0.029 A 
ATOM     41  N   UNL A   1      39.687  29.935  32.329  1.00  0.00    -0.354 N 
ATOM     42  C   UNL A   1      41.205  27.456  29.130  1.00  0.00     0.074 A 
ATOM     43  C   UNL A   1      40.367  27.549  27.955  1.00  0.00     0.031 C 
ATOM     44  C   UNL A   1      38.315  31.422  33.279  1.00  0.00     0.029 A 
ATOM     45  C   UNL A   1      39.504  30.603  33.514  1.00  0.00     0.049 A 
ATOM     46  H   UNL A   1      40.437  29.319  32.167  1.00  0.00     0.167 HD
ATOM     47  C   UNL A   1      42.346  26.730  29.198  1.00  0.00     0.037 A 
ATOM     48  C   UNL A   1      40.211  30.546  34.660  1.00  0.00     0.037 A 
ATOM     49  C   UNL A   1      43.179  26.636  30.367  1.00  0.00     0.049 A 
ATOM     50  C   UNL A   1      41.421  29.653  34.740  1.00  0.00     0.074 A 
ATOM     51  C   UNL A   1      44.350  25.919  30.534  1.00  0.00     0.029 A 
ATOM     52  N   UNL A   1      42.925  27.278  31.569  1.00  0.00    -0.354 N 
ATOM     53  N   UNL A   1      41.965  28.910  33.807  1.00  0.00    -0.248 NA
ATOM     54  C   UNL A   1      42.114  29.587  36.036  1.00  0.00     0.031 C 
ATOM     55  C   UNL A   1      44.785  26.094  31.852  1.00  0.00     0.029 A 
ATOM     56  C   UNL A   1      43.909  26.956  32.490  1.00  0.00     0.049 A 
ATOM     57  H   UNL A   1      42.161  27.874  31.743  1.00  0.00     0.167 HD
ATOM     58  C   UNL A   1      43.073  28.310  34.391  1.00  0.00     0.074 A 
ATOM     59  C   UNL A   1      43.133  28.784  35.758  1.00  0.00     0.031 C 
ATOM     60  C   UNL A   1      43.959  27.444  33.845  1.00  0.00     0.037 A 
BRANCH  47  61
ATOM     61  C   UNL A   1      42.765  25.970  27.977  1.00  0.00     0.064 A 
ATOM     62  C   UNL A   1      42.270  24.684  27.712  1.00  0.00     0.173 A 
ATOM     63  C   UNL A   1      43.608  26.561  27.024  1.00  0.00     0.173 A 
ATOM     64  F   UNL A   1      41.472  24.072  28.599  1.00  0.00    -0.203 F 
ATOM     65  C   UNL A   1      42.611  24.015  26.539  1.00  0.00     0.198 A 
ATOM     66  C   UNL A   1      43.928  25.898  25.843  1.00  0.00     0.198 A 
ATOM     67  F   UNL A   1      44.103  27.791  27.231  1.00  0.00    -0.203 F 
ATOM     68  F   UNL A   1      42.146  22.777  26.317  1.00  0.00    -0.200 F 
ATOM     69  C   UNL A   1      43.430  24.626  25.602  1.00  0.00     0.200 A 
ATOM     70  F   UNL A   1      44.710  26.494  24.933  1.00  0.00    -0.200 F 
ATOM     71  F   UNL A   1      43.742  23.987  24.466  1.00  0.00    -0.200 F 
ENDBRANCH  47  61
BRANCH  48  72
ATOM     72  C   UNL A   1      39.791  31.360  35.831  1.00  0.00     0.064 A 
ATOM     73  C   UNL A   1      38.616  31.060  36.533  1.00  0.00     0.173 A 
ATOM     74  C   UNL A   1      40.547  32.459  36.264  1.00  0.00     0.173 A 
ATOM     75  F   UNL A   1      37.845  30.035  36.139  1.00  0.00    -0.203 F 
ATOM     76  C   UNL A   1      38.206  31.835  37.616  1.00  0.00     0.198 A 
ATOM     77  C   UNL A   1      40.150  33.218  37.363  1.00  0.00     0.198 A 
ATOM     78  F   UNL A   1      41.678  32.791  35.622  1.00  0.00    -0.203 F 
ATOM     79  F   UNL A   1      37.058  31.551  38.244  1.00  0.00    -0.200 F 
ATOM     80  C   UNL A   1      38.978  32.909  38.034  1.00  0.00     0.200 A 
ATOM     81  F   UNL A   1      40.904  34.249  37.769  1.00  0.00    -0.200 F 
ATOM     82  F   UNL A   1      38.585  33.652  39.078  1.00  0.00    -0.200 F 
ENDBRANCH  48  72
BRANCH  60  83
ATOM     83  C   UNL A   1      45.088  26.962  34.708  1.00  0.00     0.064 A 
ATOM     84  C   UNL A   1      46.293  27.671  34.799  1.00  0.00     0.173 A 
ATOM     85  C   UNL A   1      44.930  25.823  35.514  1.00  0.00     0.173 A 
ATOM     86  F   UNL A   1      46.495  28.759  34.040  1.00  0.00    -0.203 F 
ATOM     87  C   UNL A   1      47.306  27.251  35.658  1.00  0.00     0.198 A 
ATOM     88  C   UNL A   1      45.934  25.423  36.391  1.00  0.00     0.198 A 
ATOM     89  F   UNL A   1      43.791  25.116  35.469  1.00  0.00    -0.203 F 
ATOM     90  F   UNL A   1      48.461  27.927  35.709  1.00  0.00    -0.200 F 
ATOM     91  C   UNL A   1      47.121  26.135  36.460  1.00  0.00     0.200 A 
ATOM     92  F   UNL A   1      45.747  24.353  37.177  1.00  0.00    -0.200 F 
ATOM     93  F   UNL A   1      48.090  25.744  37.300  1.00  0.00    -0.200 F 
ENDBRANCH  60  83
ENDBRANCH  34  35
ENDBRANCH  27  29
ENDBRANCH  26  27
ENDBRANCH  25  26
ENDBRANCH   1  25
TORSDOF 15
ENDMDL
