MODEL 1
REMARK VINA RESULT:     -10.6      0.000      0.000
REMARK SMILES CC(=O)c1c(C)nn(CC(=O)N2CCC[C@H](c3cccc(C(=O)OCCOCCOC(=O)c4ccc(-c5c6nc(c(-c7c(F)c(F)c(F)c(F)c7F)c7ccc([nH]7)c(-c7c(F)c(F)c(F)c(F)c7F)c7nc(c(-c8c(F)c(F)c(F)c(F)c8F)c8ccc5[nH]8)C=C7)C=C6)cc4)c3)C2)c1C
REMARK SMILES IDX 25 1 24 2 22 3 23 4 21 5 17 6 18 7 96 8 19 9 20 10 16 11
REMARK SMILES IDX 12 12 13 13 97 14 14 15 15 16 10 17 11 18 9 19 8 20 4 21
REMARK SMILES IDX 5 22 98 23 6 24 7 25 99 26 2 27 1 28 3 29 26 30 27 31 28 32
REMARK SMILES IDX 29 33 30 34 31 35 32 36 33 37 34 38 95 39 35 40 94 41 36 42
REMARK SMILES IDX 37 43 38 44 88 45 39 46 93 47 87 48 89 49 40 50 92 51 86 52
REMARK SMILES IDX 85 53 41 55 73 56 53 57 72 58 54 59 57 60 71 61 90 62 55 63
REMARK SMILES IDX 56 64 70 66 91 67 58 68 42 69 43 70 51 71 44 72 45 73 49 74
REMARK SMILES IDX 52 75 46 76 47 77 50 78 48 79 74 80 75 81 83 82 76 83 77 84
REMARK SMILES IDX 81 85 84 86 78 87 79 88 82 89 80 90 59 91 60 92 68 93 61 94
REMARK SMILES IDX 62 95 66 96 69 97 63 98 64 99 67 100 65 101
REMARK H PARENT 89 54 57 65
REMARK Flexibility Score: inf
ROOT
ATOM      1  C   UNL A   1      43.545  18.844  25.369  1.00  0.00     0.261 C 
ENDROOT
BRANCH   1   2
ATOM      2  O   UNL A   1      44.021  19.982  24.639  1.00  0.00    -0.460 OA
BRANCH   2   3
ATOM      3  C   UNL A   1      45.180  20.503  25.115  1.00  0.00     0.338 C 
ATOM      4  O   UNL A   1      46.247  19.931  25.247  1.00  0.00    -0.246 OA
BRANCH   3   5
ATOM      5  C   UNL A   1      45.033  21.966  25.242  1.00  0.00     0.060 A 
ATOM      6  C   UNL A   1      45.797  24.142  26.013  1.00  0.00    -0.042 A 
ATOM      7  C   UNL A   1      44.652  24.678  25.410  1.00  0.00     0.004 A 
ATOM      8  C   UNL A   1      45.936  22.746  25.978  1.00  0.00     0.019 A 
ATOM      9  C   UNL A   1      43.725  23.905  24.715  1.00  0.00     0.001 A 
ATOM     10  C   UNL A   1      43.933  22.545  24.604  1.00  0.00     0.016 A 
BRANCH   6  11
ATOM     11  C   UNL A   1      46.871  25.033  26.651  1.00  0.00     0.039 C 
ATOM     12  N   UNL A   1      45.932  25.307  28.973  1.00  0.00    -0.340 N 
ATOM     13  C   UNL A   1      45.533  26.694  28.698  1.00  0.00     0.119 C 
ATOM     14  C   UNL A   1      47.091  24.851  28.186  1.00  0.00     0.127 C 
ATOM     15  C   UNL A   1      45.350  26.974  27.209  1.00  0.00     0.022 C 
ATOM     16  C   UNL A   1      46.581  26.533  26.417  1.00  0.00     0.012 C 
BRANCH  12  17
ATOM     17  C   UNL A   1      45.094  24.537  29.769  1.00  0.00     0.244 C 
ATOM     18  O   UNL A   1      44.857  23.363  29.434  1.00  0.00    -0.273 OA
BRANCH  17  19
ATOM     19  C   UNL A   1      44.245  25.078  30.913  1.00  0.00     0.244 C 
BRANCH  19  20
ATOM     20  N   UNL A   1      44.799  25.224  32.247  1.00  0.00    -0.259 N 
ATOM     21  C   UNL A   1      45.437  24.929  34.336  1.00  0.00     0.061 A 
ATOM     22  C   UNL A   1      45.816  26.202  33.833  1.00  0.00     0.070 A 
ATOM     23  C   UNL A   1      44.764  24.318  33.283  1.00  0.00     0.047 A 
ATOM     24  C   UNL A   1      46.453  27.345  34.538  1.00  0.00     0.069 C 
ATOM     25  N   UNL A   1      45.541  26.309  32.530  1.00  0.00    -0.177 NA
ATOM     26  C   UNL A   1      44.031  23.029  33.185  1.00  0.00     0.067 C 
BRANCH  21  27
ATOM     27  C   UNL A   1      45.667  24.417  35.677  1.00  0.00     0.163 C 
ATOM     28  C   UNL A   1      44.501  24.392  36.633  1.00  0.00     0.093 C 
ATOM     29  O   UNL A   1      46.757  23.947  36.001  1.00  0.00    -0.294 OA
ENDBRANCH  21  27
ENDBRANCH  19  20
ENDBRANCH  17  19
ENDBRANCH  12  17
ENDBRANCH   6  11
ENDBRANCH   3   5
ENDBRANCH   2   3
ENDBRANCH   1   2
BRANCH   1  30
ATOM     30  C   UNL A   1      42.338  19.188  26.246  1.00  0.00     0.202 C 
BRANCH  30  31
ATOM     31  O   UNL A   1      41.026  18.990  25.720  1.00  0.00    -0.374 OA
BRANCH  31  32
ATOM     32  C   UNL A   1      39.968  19.872  26.078  1.00  0.00     0.202 C 
BRANCH  32  33
ATOM     33  C   UNL A   1      40.139  21.361  25.819  1.00  0.00     0.261 C 
BRANCH  33  34
ATOM     34  O   UNL A   1      39.711  22.145  26.922  1.00  0.00    -0.460 OA
BRANCH  34  35
ATOM     35  C   UNL A   1      40.730  22.625  27.670  1.00  0.00     0.338 C 
ATOM     36  O   UNL A   1      41.397  22.024  28.490  1.00  0.00    -0.246 OA
BRANCH  35  37
ATOM     37  C   UNL A   1      40.794  24.077  27.477  1.00  0.00     0.060 A 
ATOM     38  C   UNL A   1      42.010  24.661  27.828  1.00  0.00     0.016 A 
ATOM     39  C   UNL A   1      39.610  24.820  27.349  1.00  0.00     0.016 A 
ATOM     40  C   UNL A   1      41.976  25.932  28.341  1.00  0.00     0.010 A 
ATOM     41  C   UNL A   1      39.580  26.092  27.863  1.00  0.00     0.010 A 
ATOM     42  C   UNL A   1      40.740  26.583  28.450  1.00  0.00    -0.014 A 
BRANCH  42  43
ATOM     43  C   UNL A   1      40.732  27.878  29.087  1.00  0.00     0.031 A 
ATOM     44  C   UNL A   1      41.721  28.782  28.470  1.00  0.00     0.074 A 
ATOM     45  C   UNL A   1      39.901  28.204  30.093  1.00  0.00     0.049 A 
ATOM     46  N   UNL A   1      42.830  29.185  28.991  1.00  0.00    -0.248 NA
ATOM     47  C   UNL A   1      41.580  29.080  27.036  1.00  0.00     0.031 C 
ATOM     48  C   UNL A   1      38.755  27.465  30.624  1.00  0.00     0.029 A 
ATOM     49  N   UNL A   1      39.889  29.350  30.827  1.00  0.00    -0.354 N 
ATOM     50  C   UNL A   1      43.439  29.958  28.012  1.00  0.00     0.074 A 
ATOM     51  C   UNL A   1      42.734  29.697  26.786  1.00  0.00     0.031 C 
ATOM     52  C   UNL A   1      38.028  28.281  31.426  1.00  0.00     0.029 A 
ATOM     53  C   UNL A   1      38.733  29.543  31.574  1.00  0.00     0.049 A 
ATOM     54  H   UNL A   1      40.637  29.990  30.827  1.00  0.00     0.167 HD
ATOM     55  C   UNL A   1      44.296  30.952  28.364  1.00  0.00     0.037 A 
ATOM     56  C   UNL A   1      38.383  30.704  32.189  1.00  0.00     0.037 A 
ATOM     57  C   UNL A   1      44.803  30.742  29.699  1.00  0.00     0.049 A 
ATOM     58  C   UNL A   1      39.631  31.500  32.360  1.00  0.00     0.074 A 
ATOM     59  C   UNL A   1      45.555  29.751  30.300  1.00  0.00     0.029 A 
ATOM     60  N   UNL A   1      44.209  31.435  30.726  1.00  0.00    -0.354 N 
ATOM     61  N   UNL A   1      40.595  31.153  33.167  1.00  0.00    -0.248 NA
ATOM     62  C   UNL A   1      40.016  32.386  31.269  1.00  0.00     0.031 C 
ATOM     63  C   UNL A   1      44.997  29.600  31.604  1.00  0.00     0.029 A 
ATOM     64  C   UNL A   1      43.992  30.556  31.755  1.00  0.00     0.049 A 
ATOM     65  H   UNL A   1      43.981  32.393  30.723  1.00  0.00     0.167 HD
ATOM     66  C   UNL A   1      41.758  31.400  32.452  1.00  0.00     0.074 A 
ATOM     67  C   UNL A   1      41.341  32.213  31.311  1.00  0.00     0.031 C 
ATOM     68  C   UNL A   1      42.893  30.676  32.683  1.00  0.00     0.037 A 
BRANCH  55  69
ATOM     69  C   UNL A   1      44.318  32.298  27.688  1.00  0.00     0.064 A 
ATOM     70  C   UNL A   1      45.357  32.578  26.781  1.00  0.00     0.173 A 
ATOM     71  C   UNL A   1      43.569  33.417  28.119  1.00  0.00     0.173 A 
ATOM     72  F   UNL A   1      46.137  31.593  26.311  1.00  0.00    -0.203 F 
ATOM     73  C   UNL A   1      45.686  33.886  26.419  1.00  0.00     0.198 A 
ATOM     74  C   UNL A   1      43.867  34.714  27.714  1.00  0.00     0.198 A 
ATOM     75  F   UNL A   1      42.597  33.328  29.032  1.00  0.00    -0.203 F 
ATOM     76  F   UNL A   1      46.770  34.113  25.665  1.00  0.00    -0.200 F 
ATOM     77  C   UNL A   1      44.947  34.953  26.895  1.00  0.00     0.200 A 
ATOM     78  F   UNL A   1      43.148  35.736  28.202  1.00  0.00    -0.200 F 
ATOM     79  F   UNL A   1      45.302  36.211  26.607  1.00  0.00    -0.200 F 
ENDBRANCH  55  69
BRANCH  56  80
ATOM     80  C   UNL A   1      37.036  31.319  32.282  1.00  0.00     0.064 A 
ATOM     81  C   UNL A   1      36.626  31.998  33.444  1.00  0.00     0.173 A 
ATOM     82  C   UNL A   1      36.239  31.509  31.136  1.00  0.00     0.173 A 
ATOM     83  F   UNL A   1      37.356  31.917  34.565  1.00  0.00    -0.203 F 
ATOM     84  C   UNL A   1      35.501  32.833  33.449  1.00  0.00     0.198 A 
ATOM     85  C   UNL A   1      35.116  32.338  31.144  1.00  0.00     0.198 A 
ATOM     86  F   UNL A   1      36.593  30.977  29.959  1.00  0.00    -0.203 F 
ATOM     87  F   UNL A   1      35.178  33.514  34.558  1.00  0.00    -0.200 F 
ATOM     88  C   UNL A   1      34.754  33.010  32.297  1.00  0.00     0.200 A 
ATOM     89  F   UNL A   1      34.427  32.536  30.011  1.00  0.00    -0.200 F 
ATOM     90  F   UNL A   1      33.716  33.859  32.283  1.00  0.00    -0.200 F 
ENDBRANCH  56  80
BRANCH  68  91
ATOM     91  C   UNL A   1      42.917  29.776  33.886  1.00  0.00     0.064 A 
ATOM     92  C   UNL A   1      42.556  28.416  33.864  1.00  0.00     0.173 A 
ATOM     93  C   UNL A   1      43.465  30.277  35.073  1.00  0.00     0.173 A 
ATOM     94  F   UNL A   1      42.118  27.837  32.738  1.00  0.00    -0.203 F 
ATOM     95  C   UNL A   1      42.699  27.612  34.995  1.00  0.00     0.198 A 
ATOM     96  C   UNL A   1      43.643  29.463  36.188  1.00  0.00     0.198 A 
ATOM     97  F   UNL A   1      43.879  31.552  35.135  1.00  0.00    -0.203 F 
ATOM     98  F   UNL A   1      42.338  26.321  34.953  1.00  0.00    -0.200 F 
ATOM     99  C   UNL A   1      43.250  28.135  36.153  1.00  0.00     0.200 A 
ATOM    100  F   UNL A   1      44.223  29.961  37.289  1.00  0.00    -0.200 F 
ATOM    101  F   UNL A   1      43.427  27.354  37.227  1.00  0.00    -0.200 F 
ENDBRANCH  68  91
ENDBRANCH  42  43
ENDBRANCH  35  37
ENDBRANCH  34  35
ENDBRANCH  33  34
ENDBRANCH  32  33
ENDBRANCH  31  32
ENDBRANCH  30  31
ENDBRANCH   1  30
TORSDOF 19
ENDMDL
MODEL 2
REMARK VINA RESULT:     -10.2      4.146      7.593
REMARK SMILES CC(=O)c1c(C)nn(CC(=O)N2CCC[C@H](c3cccc(C(=O)OCCOCCOC(=O)c4ccc(-c5c6nc(c(-c7c(F)c(F)c(F)c(F)c7F)c7ccc([nH]7)c(-c7c(F)c(F)c(F)c(F)c7F)c7nc(c(-c8c(F)c(F)c(F)c(F)c8F)c8ccc5[nH]8)C=C7)C=C6)cc4)c3)C2)c1C
REMARK SMILES IDX 25 1 24 2 22 3 23 4 21 5 17 6 18 7 96 8 19 9 20 10 16 11
REMARK SMILES IDX 12 12 13 13 97 14 14 15 15 16 10 17 11 18 9 19 8 20 4 21
REMARK SMILES IDX 5 22 98 23 6 24 7 25 99 26 2 27 1 28 3 29 26 30 27 31 28 32
REMARK SMILES IDX 29 33 30 34 31 35 32 36 33 37 34 38 95 39 35 40 94 41 36 42
REMARK SMILES IDX 37 43 38 44 88 45 39 46 93 47 87 48 89 49 40 50 92 51 86 52
REMARK SMILES IDX 85 53 41 55 73 56 53 57 72 58 54 59 57 60 71 61 90 62 55 63
REMARK SMILES IDX 56 64 70 66 91 67 58 68 42 69 43 70 51 71 44 72 45 73 49 74
REMARK SMILES IDX 52 75 46 76 47 77 50 78 48 79 74 80 75 81 83 82 76 83 77 84
REMARK SMILES IDX 81 85 84 86 78 87 79 88 82 89 80 90 59 91 60 92 68 93 61 94
REMARK SMILES IDX 62 95 66 96 69 97 63 98 64 99 67 100 65 101
REMARK H PARENT 89 54 57 65
REMARK Flexibility Score: inf
ROOT
ATOM      1  C   UNL A   1      34.667  19.513  24.647  1.00  0.00     0.261 C 
ENDROOT
BRANCH   1   2
ATOM      2  O   UNL A   1      33.485  20.219  25.049  1.00  0.00    -0.460 OA
BRANCH   2   3
ATOM      3  C   UNL A   1      32.999  21.070  24.111  1.00  0.00     0.338 C 
ATOM      4  O   UNL A   1      32.206  20.813  23.223  1.00  0.00    -0.246 OA
BRANCH   3   5
ATOM      5  C   UNL A   1      33.395  22.448  24.460  1.00  0.00     0.060 A 
ATOM      6  C   UNL A   1      33.895  24.754  23.870  1.00  0.00    -0.042 A 
ATOM      7  C   UNL A   1      34.136  24.974  25.232  1.00  0.00     0.004 A 
ATOM      8  C   UNL A   1      33.586  23.439  23.487  1.00  0.00     0.019 A 
ATOM      9  C   UNL A   1      33.992  23.984  26.201  1.00  0.00     0.001 A 
ATOM     10  C   UNL A   1      33.589  22.721  25.817  1.00  0.00     0.016 A 
BRANCH   6  11
ATOM     11  C   UNL A   1      33.926  25.895  22.845  1.00  0.00     0.039 C 
ATOM     12  N   UNL A   1      32.188  27.440  23.813  1.00  0.00    -0.340 N 
ATOM     13  C   UNL A   1      31.219  27.081  22.768  1.00  0.00     0.119 C 
ATOM     14  C   UNL A   1      33.594  27.319  23.392  1.00  0.00     0.127 C 
ATOM     15  C   UNL A   1      31.505  25.720  22.138  1.00  0.00     0.022 C 
ATOM     16  C   UNL A   1      32.958  25.632  21.669  1.00  0.00     0.012 C 
BRANCH  12  17
ATOM     17  C   UNL A   1      31.704  27.661  25.096  1.00  0.00     0.244 C 
ATOM     18  O   UNL A   1      31.229  26.705  25.733  1.00  0.00    -0.273 OA
BRANCH  17  19
ATOM     19  C   UNL A   1      31.494  29.036  25.720  1.00  0.00     0.244 C 
BRANCH  19  20
ATOM     20  N   UNL A   1      32.556  29.683  26.469  1.00  0.00    -0.259 N 
ATOM     21  C   UNL A   1      33.812  31.093  27.606  1.00  0.00     0.061 A 
ATOM     22  C   UNL A   1      34.449  29.839  27.417  1.00  0.00     0.070 A 
ATOM     23  C   UNL A   1      32.583  30.968  26.965  1.00  0.00     0.047 A 
ATOM     24  C   UNL A   1      35.830  29.418  27.771  1.00  0.00     0.069 C 
ATOM     25  N   UNL A   1      33.623  28.958  26.846  1.00  0.00    -0.177 NA
ATOM     26  C   UNL A   1      31.492  31.940  26.704  1.00  0.00     0.067 C 
BRANCH  21  27
ATOM     27  C   UNL A   1      34.361  32.259  28.280  1.00  0.00     0.163 C 
ATOM     28  C   UNL A   1      35.644  32.845  27.745  1.00  0.00     0.093 C 
ATOM     29  O   UNL A   1      33.761  32.799  29.207  1.00  0.00    -0.294 OA
ENDBRANCH  21  27
ENDBRANCH  19  20
ENDBRANCH  17  19
ENDBRANCH  12  17
ENDBRANCH   6  11
ENDBRANCH   3   5
ENDBRANCH   2   3
ENDBRANCH   1   2
BRANCH   1  30
ATOM     30  C   UNL A   1      35.943  20.230  25.092  1.00  0.00     0.202 C 
BRANCH  30  31
ATOM     31  O   UNL A   1      36.522  21.206  24.226  1.00  0.00    -0.374 OA
BRANCH  31  32
ATOM     32  C   UNL A   1      37.230  22.316  24.767  1.00  0.00     0.202 C 
BRANCH  32  33
ATOM     33  C   UNL A   1      38.320  22.057  25.796  1.00  0.00     0.261 C 
BRANCH  33  34
ATOM     34  O   UNL A   1      38.740  23.250  26.439  1.00  0.00    -0.460 OA
BRANCH  34  35
ATOM     35  C   UNL A   1      39.908  23.121  27.108  1.00  0.00     0.338 C 
ATOM     36  O   UNL A   1      40.312  22.147  27.714  1.00  0.00    -0.246 OA
BRANCH  35  37
ATOM     37  C   UNL A   1      40.554  24.435  27.157  1.00  0.00     0.060 A 
ATOM     38  C   UNL A   1      41.593  24.543  28.081  1.00  0.00     0.016 A 
ATOM     39  C   UNL A   1      39.903  25.557  26.622  1.00  0.00     0.016 A 
ATOM     40  C   UNL A   1      41.773  25.758  28.690  1.00  0.00     0.010 A 
ATOM     41  C   UNL A   1      40.086  26.772  27.233  1.00  0.00     0.010 A 
ATOM     42  C   UNL A   1      40.938  26.824  28.329  1.00  0.00    -0.014 A 
BRANCH  42  43
ATOM     43  C   UNL A   1      41.092  28.058  29.063  1.00  0.00     0.031 A 
ATOM     44  C   UNL A   1      42.266  28.817  28.591  1.00  0.00     0.074 A 
ATOM     45  C   UNL A   1      40.246  28.455  30.030  1.00  0.00     0.049 A 
ATOM     46  N   UNL A   1      43.379  28.988  29.219  1.00  0.00    -0.248 NA
ATOM     47  C   UNL A   1      42.297  29.227  27.178  1.00  0.00     0.031 C 
ATOM     48  C   UNL A   1      38.953  27.892  30.418  1.00  0.00     0.029 A 
ATOM     49  N   UNL A   1      40.363  29.537  30.848  1.00  0.00    -0.354 N 
ATOM     50  C   UNL A   1      44.188  29.707  28.350  1.00  0.00     0.074 A 
ATOM     51  C   UNL A   1      43.554  29.652  27.060  1.00  0.00     0.031 C 
ATOM     52  C   UNL A   1      38.307  28.767  31.227  1.00  0.00     0.029 A 
ATOM     53  C   UNL A   1      39.196  29.876  31.523  1.00  0.00     0.049 A 
ATOM     54  H   UNL A   1      41.204  30.038  30.951  1.00  0.00     0.167 HD
ATOM     55  C   UNL A   1      45.165  30.514  28.840  1.00  0.00     0.037 A 
ATOM     56  C   UNL A   1      38.994  31.037  32.200  1.00  0.00     0.037 A 
ATOM     57  C   UNL A   1      45.517  30.135  30.187  1.00  0.00     0.049 A 
ATOM     58  C   UNL A   1      40.338  31.595  32.521  1.00  0.00     0.074 A 
ATOM     59  C   UNL A   1      46.041  28.992  30.761  1.00  0.00     0.029 A 
ATOM     60  N   UNL A   1      44.963  30.852  31.219  1.00  0.00    -0.354 N 
ATOM     61  N   UNL A   1      41.160  31.036  33.366  1.00  0.00    -0.248 NA
ATOM     62  C   UNL A   1      40.955  32.470  31.533  1.00  0.00     0.031 C 
ATOM     63  C   UNL A   1      45.358  28.856  32.006  1.00  0.00     0.029 A 
ATOM     64  C   UNL A   1      44.517  29.958  32.159  1.00  0.00     0.049 A 
ATOM     65  H   UNL A   1      44.897  31.833  31.275  1.00  0.00     0.167 HD
ATOM     66  C   UNL A   1      42.404  31.126  32.758  1.00  0.00     0.074 A 
ATOM     67  C   UNL A   1      42.224  32.070  31.656  1.00  0.00     0.031 C 
ATOM     68  C   UNL A   1      43.379  30.205  33.012  1.00  0.00     0.037 A 
BRANCH  55  69
ATOM     69  C   UNL A   1      45.467  31.878  28.273  1.00  0.00     0.064 A 
ATOM     70  C   UNL A   1      44.411  32.800  28.142  1.00  0.00     0.173 A 
ATOM     71  C   UNL A   1      46.649  32.202  27.570  1.00  0.00     0.173 A 
ATOM     72  F   UNL A   1      43.239  32.589  28.759  1.00  0.00    -0.203 F 
ATOM     73  C   UNL A   1      44.500  33.903  27.290  1.00  0.00     0.198 A 
ATOM     74  C   UNL A   1      46.751  33.332  26.764  1.00  0.00     0.198 A 
ATOM     75  F   UNL A   1      47.715  31.396  27.535  1.00  0.00    -0.203 F 
ATOM     76  F   UNL A   1      43.422  34.673  27.089  1.00  0.00    -0.200 F 
ATOM     77  C   UNL A   1      45.665  34.161  26.593  1.00  0.00     0.200 A 
ATOM     78  F   UNL A   1      47.885  33.553  26.084  1.00  0.00    -0.200 F 
ATOM     79  F   UNL A   1      45.730  35.176  25.722  1.00  0.00    -0.200 F 
ENDBRANCH  55  69
BRANCH  56  80
ATOM     80  C   UNL A   1      37.765  31.868  32.244  1.00  0.00     0.064 A 
ATOM     81  C   UNL A   1      37.083  32.094  33.454  1.00  0.00     0.173 A 
ATOM     82  C   UNL A   1      37.401  32.693  31.162  1.00  0.00     0.173 A 
ATOM     83  F   UNL A   1      37.404  31.391  34.550  1.00  0.00    -0.203 F 
ATOM     84  C   UNL A   1      36.116  33.099  33.576  1.00  0.00     0.198 A 
ATOM     85  C   UNL A   1      36.434  33.691  31.284  1.00  0.00     0.198 A 
ATOM     86  F   UNL A   1      38.051  32.616  29.993  1.00  0.00    -0.203 F 
ATOM     87  F   UNL A   1      35.534  33.328  34.762  1.00  0.00    -0.200 F 
ATOM     88  C   UNL A   1      35.800  33.904  32.494  1.00  0.00     0.200 A 
ATOM     89  F   UNL A   1      36.169  34.493  30.242  1.00  0.00    -0.200 F 
ATOM     90  F   UNL A   1      34.923  34.908  32.627  1.00  0.00    -0.200 F 
ENDBRANCH  56  80
BRANCH  68  91
ATOM     91  C   UNL A   1      43.153  29.238  34.139  1.00  0.00     0.064 A 
ATOM     92  C   UNL A   1      42.468  28.015  34.008  1.00  0.00     0.173 A 
ATOM     93  C   UNL A   1      43.780  29.495  35.365  1.00  0.00     0.173 A 
ATOM     94  F   UNL A   1      41.927  27.650  32.838  1.00  0.00    -0.203 F 
ATOM     95  C   UNL A   1      42.383  27.117  35.072  1.00  0.00     0.198 A 
ATOM     96  C   UNL A   1      43.726  28.580  36.412  1.00  0.00     0.198 A 
ATOM     97  F   UNL A   1      44.494  30.619  35.530  1.00  0.00    -0.203 F 
ATOM     98  F   UNL A   1      41.714  25.963  34.927  1.00  0.00    -0.200 F 
ATOM     99  C   UNL A   1      43.018  27.397  36.270  1.00  0.00     0.200 A 
ATOM    100  F   UNL A   1      44.384  28.834  37.551  1.00  0.00    -0.200 F 
ATOM    101  F   UNL A   1      42.972  26.517  37.280  1.00  0.00    -0.200 F 
ENDBRANCH  68  91
ENDBRANCH  42  43
ENDBRANCH  35  37
ENDBRANCH  34  35
ENDBRANCH  33  34
ENDBRANCH  32  33
ENDBRANCH  31  32
ENDBRANCH  30  31
ENDBRANCH   1  30
TORSDOF 19
ENDMDL
MODEL 3
REMARK VINA RESULT:     -10.1      5.394     10.978
REMARK SMILES CC(=O)c1c(C)nn(CC(=O)N2CCC[C@H](c3cccc(C(=O)OCCOCCOC(=O)c4ccc(-c5c6nc(c(-c7c(F)c(F)c(F)c(F)c7F)c7ccc([nH]7)c(-c7c(F)c(F)c(F)c(F)c7F)c7nc(c(-c8c(F)c(F)c(F)c(F)c8F)c8ccc5[nH]8)C=C7)C=C6)cc4)c3)C2)c1C
REMARK SMILES IDX 25 1 24 2 22 3 23 4 21 5 17 6 18 7 96 8 19 9 20 10 16 11
REMARK SMILES IDX 12 12 13 13 97 14 14 15 15 16 10 17 11 18 9 19 8 20 4 21
REMARK SMILES IDX 5 22 98 23 6 24 7 25 99 26 2 27 1 28 3 29 26 30 27 31 28 32
REMARK SMILES IDX 29 33 30 34 31 35 32 36 33 37 34 38 95 39 35 40 94 41 36 42
REMARK SMILES IDX 37 43 38 44 88 45 39 46 93 47 87 48 89 49 40 50 92 51 86 52
REMARK SMILES IDX 85 53 41 55 73 56 53 57 72 58 54 59 57 60 71 61 90 62 55 63
REMARK SMILES IDX 56 64 70 66 91 67 58 68 42 69 43 70 51 71 44 72 45 73 49 74
REMARK SMILES IDX 52 75 46 76 47 77 50 78 48 79 74 80 75 81 83 82 76 83 77 84
REMARK SMILES IDX 81 85 84 86 78 87 79 88 82 89 80 90 59 91 60 92 68 93 61 94
REMARK SMILES IDX 62 95 66 96 69 97 63 98 64 99 67 100 65 101
REMARK H PARENT 89 54 57 65
REMARK Flexibility Score: inf
ROOT
ATOM      1  C   UNL A   1      34.342  30.986  27.948  1.00  0.00     0.261 C 
ENDROOT
BRANCH   1   2
ATOM      2  O   UNL A   1      33.875  30.686  26.626  1.00  0.00    -0.460 OA
BRANCH   2   3
ATOM      3  C   UNL A   1      32.596  30.233  26.578  1.00  0.00     0.338 C 
ATOM      4  O   UNL A   1      31.577  30.896  26.637  1.00  0.00    -0.246 OA
BRANCH   3   5
ATOM      5  C   UNL A   1      32.605  28.807  26.200  1.00  0.00     0.060 A 
ATOM      6  C   UNL A   1      31.565  26.837  25.225  1.00  0.00    -0.042 A 
ATOM      7  C   UNL A   1      32.740  26.146  25.544  1.00  0.00     0.004 A 
ATOM      8  C   UNL A   1      31.488  28.178  25.632  1.00  0.00     0.019 A 
ATOM      9  C   UNL A   1      33.839  26.752  26.149  1.00  0.00     0.001 A 
ATOM     10  C   UNL A   1      33.783  28.097  26.451  1.00  0.00     0.016 A 
BRANCH   6  11
ATOM     11  C   UNL A   1      30.426  26.179  24.434  1.00  0.00     0.039 C 
ATOM     12  N   UNL A   1      31.709  25.182  22.509  1.00  0.00    -0.340 N 
ATOM     13  C   UNL A   1      31.205  26.206  21.583  1.00  0.00     0.119 C 
ATOM     14  C   UNL A   1      30.800  24.893  23.632  1.00  0.00     0.127 C 
ATOM     15  C   UNL A   1      30.763  27.482  22.294  1.00  0.00     0.022 C 
ATOM     16  C   UNL A   1      29.787  27.163  23.428  1.00  0.00     0.012 C 
BRANCH  12  17
ATOM     17  C   UNL A   1      33.019  24.749  22.347  1.00  0.00     0.244 C 
ATOM     18  O   UNL A   1      33.804  25.443  21.678  1.00  0.00    -0.273 OA
BRANCH  17  19
ATOM     19  C   UNL A   1      33.530  23.366  22.734  1.00  0.00     0.244 C 
BRANCH  19  20
ATOM     20  N   UNL A   1      34.387  23.186  23.891  1.00  0.00    -0.259 N 
ATOM     21  C   UNL A   1      36.092  22.939  25.266  1.00  0.00     0.061 A 
ATOM     22  C   UNL A   1      34.846  22.920  25.947  1.00  0.00     0.070 A 
ATOM     23  C   UNL A   1      35.761  23.101  23.924  1.00  0.00     0.047 A 
ATOM     24  C   UNL A   1      34.557  22.652  27.380  1.00  0.00     0.069 C 
ATOM     25  N   UNL A   1      33.838  23.205  25.118  1.00  0.00    -0.177 NA
ATOM     26  C   UNL A   1      36.584  23.098  22.688  1.00  0.00     0.067 C 
BRANCH  21  27
ATOM     27  C   UNL A   1      37.411  22.773  25.854  1.00  0.00     0.163 C 
ATOM     28  C   UNL A   1      38.094  23.996  26.415  1.00  0.00     0.093 C 
ATOM     29  O   UNL A   1      37.924  21.661  25.962  1.00  0.00    -0.294 OA
ENDBRANCH  21  27
ENDBRANCH  19  20
ENDBRANCH  17  19
ENDBRANCH  12  17
ENDBRANCH   6  11
ENDBRANCH   3   5
ENDBRANCH   2   3
ENDBRANCH   1   2
BRANCH   1  30
ATOM     30  C   UNL A   1      34.292  32.486  28.248  1.00  0.00     0.202 C 
BRANCH  30  31
ATOM     31  O   UNL A   1      34.492  32.926  29.590  1.00  0.00    -0.374 OA
BRANCH  31  32
ATOM     32  C   UNL A   1      35.809  33.113  30.096  1.00  0.00     0.202 C 
BRANCH  32  33
ATOM     33  C   UNL A   1      36.495  31.950  30.798  1.00  0.00     0.261 C 
BRANCH  33  34
ATOM     34  O   UNL A   1      37.082  31.045  29.877  1.00  0.00    -0.460 OA
BRANCH  34  35
ATOM     35  C   UNL A   1      36.931  29.747  30.226  1.00  0.00     0.338 C 
ATOM     36  O   UNL A   1      36.204  29.289  31.087  1.00  0.00    -0.246 OA
BRANCH  35  37
ATOM     37  C   UNL A   1      37.944  28.962  29.515  1.00  0.00     0.060 A 
ATOM     38  C   UNL A   1      38.583  27.993  30.288  1.00  0.00     0.016 A 
ATOM     39  C   UNL A   1      38.481  29.438  28.309  1.00  0.00     0.016 A 
ATOM     40  C   UNL A   1      39.898  27.725  30.006  1.00  0.00     0.010 A 
ATOM     41  C   UNL A   1      39.796  29.167  28.028  1.00  0.00     0.010 A 
ATOM     42  C   UNL A   1      40.511  28.403  28.943  1.00  0.00    -0.014 A 
BRANCH  42  43
ATOM     43  C   UNL A   1      41.921  28.169  28.740  1.00  0.00     0.031 A 
ATOM     44  C   UNL A   1      42.157  26.868  28.087  1.00  0.00     0.074 A 
ATOM     45  C   UNL A   1      42.876  29.052  29.086  1.00  0.00     0.049 A 
ATOM     46  N   UNL A   1      42.659  25.811  28.630  1.00  0.00    -0.248 NA
ATOM     47  C   UNL A   1      41.556  26.644  26.763  1.00  0.00     0.031 C 
ATOM     48  C   UNL A   1      42.738  30.438  29.532  1.00  0.00     0.029 A 
ATOM     49  N   UNL A   1      44.225  28.882  29.037  1.00  0.00    -0.354 N 
ATOM     50  C   UNL A   1      42.619  24.835  27.643  1.00  0.00     0.074 A 
ATOM     51  C   UNL A   1      41.764  25.338  26.603  1.00  0.00     0.031 C 
ATOM     52  C   UNL A   1      43.949  31.046  29.487  1.00  0.00     0.029 A 
ATOM     53  C   UNL A   1      44.957  30.058  29.148  1.00  0.00     0.049 A 
ATOM     54  H   UNL A   1      44.647  27.999  28.930  1.00  0.00     0.167 HD
ATOM     55  C   UNL A   1      43.520  23.818  27.656  1.00  0.00     0.037 A 
ATOM     56  C   UNL A   1      46.287  30.179  28.891  1.00  0.00     0.037 A 
ATOM     57  C   UNL A   1      44.090  23.654  28.972  1.00  0.00     0.049 A 
ATOM     58  C   UNL A   1      46.877  28.815  28.993  1.00  0.00     0.074 A 
ATOM     59  C   UNL A   1      43.573  23.338  30.214  1.00  0.00     0.029 A 
ATOM     60  N   UNL A   1      45.321  24.213  29.211  1.00  0.00    -0.354 N 
ATOM     61  N   UNL A   1      46.971  28.158  30.116  1.00  0.00    -0.248 NA
ATOM     62  C   UNL A   1      46.886  27.996  27.788  1.00  0.00     0.031 C 
ATOM     63  C   UNL A   1      44.295  24.154  31.135  1.00  0.00     0.029 A 
ATOM     64  C   UNL A   1      45.262  24.861  30.418  1.00  0.00     0.049 A 
ATOM     65  H   UNL A   1      46.108  24.160  28.620  1.00  0.00     0.167 HD
ATOM     66  C   UNL A   1      46.606  26.859  29.796  1.00  0.00     0.074 A 
ATOM     67  C   UNL A   1      46.620  26.806  28.335  1.00  0.00     0.031 C 
ATOM     68  C   UNL A   1      46.037  26.038  30.727  1.00  0.00     0.037 A 
BRANCH  55  69
ATOM     69  C   UNL A   1      44.184  23.291  26.410  1.00  0.00     0.064 A 
ATOM     70  C   UNL A   1      44.041  21.926  26.097  1.00  0.00     0.173 A 
ATOM     71  C   UNL A   1      45.198  23.975  25.700  1.00  0.00     0.173 A 
ATOM     72  F   UNL A   1      43.116  21.177  26.716  1.00  0.00    -0.203 F 
ATOM     73  C   UNL A   1      44.912  21.277  25.221  1.00  0.00     0.198 A 
ATOM     74  C   UNL A   1      46.030  23.335  24.787  1.00  0.00     0.198 A 
ATOM     75  F   UNL A   1      45.507  25.254  25.933  1.00  0.00    -0.203 F 
ATOM     76  F   UNL A   1      44.825  19.949  25.062  1.00  0.00    -0.200 F 
ATOM     77  C   UNL A   1      45.913  21.979  24.576  1.00  0.00     0.200 A 
ATOM     78  F   UNL A   1      47.005  24.032  24.186  1.00  0.00    -0.200 F 
ATOM     79  F   UNL A   1      46.794  21.347  23.790  1.00  0.00    -0.200 F 
ENDBRANCH  55  69
BRANCH  56  80
ATOM     80  C   UNL A   1      46.988  31.292  28.204  1.00  0.00     0.064 A 
ATOM     81  C   UNL A   1      46.406  31.948  27.104  1.00  0.00     0.173 A 
ATOM     82  C   UNL A   1      48.102  31.925  28.789  1.00  0.00     0.173 A 
ATOM     83  F   UNL A   1      45.309  31.444  26.521  1.00  0.00    -0.203 F 
ATOM     84  C   UNL A   1      46.896  33.174  26.636  1.00  0.00     0.198 A 
ATOM     85  C   UNL A   1      48.592  33.145  28.318  1.00  0.00     0.198 A 
ATOM     86  F   UNL A   1      48.673  31.427  29.893  1.00  0.00    -0.203 F 
ATOM     87  F   UNL A   1      46.277  33.802  25.627  1.00  0.00    -0.200 F 
ATOM     88  C   UNL A   1      47.982  33.776  27.250  1.00  0.00     0.200 A 
ATOM     89  F   UNL A   1      49.615  33.739  28.950  1.00  0.00    -0.200 F 
ATOM     90  F   UNL A   1      48.411  34.980  26.846  1.00  0.00    -0.200 F 
ENDBRANCH  56  80
BRANCH  68  91
ATOM     91  C   UNL A   1      46.035  26.497  32.158  1.00  0.00     0.064 A 
ATOM     92  C   UNL A   1      44.997  27.240  32.749  1.00  0.00     0.173 A 
ATOM     93  C   UNL A   1      47.058  26.040  32.998  1.00  0.00     0.173 A 
ATOM     94  F   UNL A   1      43.933  27.628  32.034  1.00  0.00    -0.203 F 
ATOM     95  C   UNL A   1      45.012  27.545  34.111  1.00  0.00     0.198 A 
ATOM     96  C   UNL A   1      47.051  26.313  34.362  1.00  0.00     0.198 A 
ATOM     97  F   UNL A   1      48.046  25.279  32.500  1.00  0.00    -0.203 F 
ATOM     98  F   UNL A   1      44.017  28.266  34.650  1.00  0.00    -0.200 F 
ATOM     99  C   UNL A   1      46.035  27.075  34.916  1.00  0.00     0.200 A 
ATOM    100  F   UNL A   1      48.016  25.813  35.146  1.00  0.00    -0.200 F 
ATOM    101  F   UNL A   1      46.030  27.333  36.232  1.00  0.00    -0.200 F 
ENDBRANCH  68  91
ENDBRANCH  42  43
ENDBRANCH  35  37
ENDBRANCH  34  35
ENDBRANCH  33  34
ENDBRANCH  32  33
ENDBRANCH  31  32
ENDBRANCH  30  31
ENDBRANCH   1  30
TORSDOF 19
ENDMDL
