MODEL 1
REMARK VINA RESULT:     -10.0      0.000      0.000
REMARK SMILES O=C(OCCOCCOC(=O)[C@@H]1C[C@H]1c1cccc(F)c1F)c1ccc(-c2c3nc(c(-c4c(F)c(F)c(F)c(F)c4F)c4ccc([nH]4)c(-c4c(F)c(F)c(F)c(F)c4F)c4nc(c(-c5c(F)c(F)c(F)c(F)c5F)c5ccc2[nH]5)C=C4)C=C3)cc1
REMARK SMILES IDX 5 1 4 2 3 3 2 4 1 5 23 6 24 7 85 8 25 9 84 10 26 11 27 12
REMARK SMILES IDX 28 13 78 14 29 15 83 16 77 17 79 18 30 19 82 20 76 21 75 22
REMARK SMILES IDX 31 24 63 25 43 26 62 27 44 28 47 29 61 30 80 31 45 32 46 33
REMARK SMILES IDX 60 35 81 36 48 37 32 38 33 39 41 40 34 41 35 42 39 43 42 44
REMARK SMILES IDX 36 45 37 46 40 47 38 48 64 49 65 50 73 51 66 52 67 53 71 54
REMARK SMILES IDX 74 55 68 56 69 57 72 58 70 59 49 60 50 61 58 62 51 63 52 64
REMARK SMILES IDX 56 65 59 66 53 67 54 68 57 69 55 70 6 71 7 72 8 73 9 74
REMARK SMILES IDX 10 75 11 76 12 77 13 78 14 79 15 80 16 81 21 82 17 83 19 84
REMARK SMILES IDX 22 85 18 86 20 87
REMARK H PARENT 79 23 47 34
REMARK Flexibility Score: inf
ROOT
ATOM      1  C   UNL A   1      41.193  20.745  27.466  1.00  0.00     0.202 C 
ENDROOT
BRANCH   1   2
ATOM      2  C   UNL A   1      40.497  21.198  26.179  1.00  0.00     0.261 C 
BRANCH   2   3
ATOM      3  O   UNL A   1      39.183  21.695  26.473  1.00  0.00    -0.460 OA
BRANCH   3   4
ATOM      4  C   UNL A   1      38.679  22.915  26.170  1.00  0.00     0.338 C 
ATOM      5  O   UNL A   1      37.775  22.994  25.340  1.00  0.00    -0.246 OA
BRANCH   4   6
ATOM      6  C   UNL A   1      39.113  24.171  26.852  1.00  0.00     0.060 A 
ATOM      7  C   UNL A   1      38.840  24.493  28.182  1.00  0.00     0.016 A 
ATOM      8  C   UNL A   1      39.925  25.049  26.115  1.00  0.00     0.016 A 
ATOM      9  C   UNL A   1      39.296  25.667  28.754  1.00  0.00     0.010 A 
ATOM     10  C   UNL A   1      40.433  26.215  26.697  1.00  0.00     0.010 A 
ATOM     11  C   UNL A   1      40.108  26.523  28.021  1.00  0.00    -0.014 A 
BRANCH  11  12
ATOM     12  C   UNL A   1      40.553  27.759  28.679  1.00  0.00     0.031 A 
ATOM     13  C   UNL A   1      42.014  27.960  28.911  1.00  0.00     0.074 A 
ATOM     14  C   UNL A   1      39.654  28.735  28.900  1.00  0.00     0.049 A 
ATOM     15  N   UNL A   1      42.629  28.961  29.478  1.00  0.00    -0.248 NA
ATOM     16  C   UNL A   1      42.909  26.900  28.417  1.00  0.00     0.031 C 
ATOM     17  C   UNL A   1      38.231  28.655  28.559  1.00  0.00     0.029 A 
ATOM     18  N   UNL A   1      39.804  29.993  29.414  1.00  0.00    -0.354 N 
ATOM     19  C   UNL A   1      43.977  28.642  29.431  1.00  0.00     0.074 A 
ATOM     20  C   UNL A   1      44.098  27.360  28.777  1.00  0.00     0.031 C 
ATOM     21  C   UNL A   1      37.648  29.830  28.838  1.00  0.00     0.029 A 
ATOM     22  C   UNL A   1      38.636  30.714  29.446  1.00  0.00     0.049 A 
ATOM     23  H   UNL A   1      40.667  30.348  29.729  1.00  0.00     0.167 HD
ATOM     24  C   UNL A   1      45.014  29.368  29.907  1.00  0.00     0.037 A 
ATOM     25  C   UNL A   1      38.398  31.941  29.944  1.00  0.00     0.037 A 
ATOM     26  C   UNL A   1      44.849  30.639  30.558  1.00  0.00     0.049 A 
ATOM     27  C   UNL A   1      39.550  32.679  30.564  1.00  0.00     0.074 A 
ATOM     28  C   UNL A   1      45.801  31.430  31.170  1.00  0.00     0.029 A 
ATOM     29  N   UNL A   1      43.634  31.305  30.672  1.00  0.00    -0.354 N 
ATOM     30  N   UNL A   1      40.816  32.333  30.616  1.00  0.00    -0.248 NA
ATOM     31  C   UNL A   1      39.248  33.957  31.219  1.00  0.00     0.031 C 
ATOM     32  C   UNL A   1      45.155  32.558  31.687  1.00  0.00     0.029 A 
ATOM     33  C   UNL A   1      43.809  32.493  31.359  1.00  0.00     0.049 A 
ATOM     34  H   UNL A   1      42.775  30.979  30.317  1.00  0.00     0.167 HD
ATOM     35  C   UNL A   1      41.462  33.345  31.309  1.00  0.00     0.074 A 
ATOM     36  C   UNL A   1      40.450  34.333  31.634  1.00  0.00     0.031 C 
ATOM     37  C   UNL A   1      42.768  33.447  31.656  1.00  0.00     0.037 A 
BRANCH  24  38
ATOM     38  C   UNL A   1      46.379  28.766  29.801  1.00  0.00     0.064 A 
ATOM     39  C   UNL A   1      46.852  27.908  30.805  1.00  0.00     0.173 A 
ATOM     40  C   UNL A   1      47.218  29.020  28.706  1.00  0.00     0.173 A 
ATOM     41  F   UNL A   1      46.083  27.623  31.868  1.00  0.00    -0.203 F 
ATOM     42  C   UNL A   1      48.115  27.329  30.719  1.00  0.00     0.198 A 
ATOM     43  C   UNL A   1      48.473  28.422  28.612  1.00  0.00     0.198 A 
ATOM     44  F   UNL A   1      46.800  29.808  27.704  1.00  0.00    -0.203 F 
ATOM     45  F   UNL A   1      48.546  26.517  31.694  1.00  0.00    -0.200 F 
ATOM     46  C   UNL A   1      48.922  27.582  29.620  1.00  0.00     0.200 A 
ATOM     47  F   UNL A   1      49.239  28.640  27.534  1.00  0.00    -0.200 F 
ATOM     48  F   UNL A   1      50.127  27.004  29.526  1.00  0.00    -0.200 F 
ENDBRANCH  24  38
BRANCH  25  49
ATOM     49  C   UNL A   1      37.022  32.505  29.909  1.00  0.00     0.064 A 
ATOM     50  C   UNL A   1      36.574  33.264  28.816  1.00  0.00     0.173 A 
ATOM     51  C   UNL A   1      36.137  32.327  30.981  1.00  0.00     0.173 A 
ATOM     52  F   UNL A   1      37.378  33.462  27.761  1.00  0.00    -0.203 F 
ATOM     53  C   UNL A   1      35.308  33.848  28.810  1.00  0.00     0.198 A 
ATOM     54  C   UNL A   1      34.860  32.888  30.961  1.00  0.00     0.198 A 
ATOM     55  F   UNL A   1      36.508  31.592  32.039  1.00  0.00    -0.203 F 
ATOM     56  F   UNL A   1      34.925  34.601  27.770  1.00  0.00    -0.200 F 
ATOM     57  C   UNL A   1      34.450  33.655  29.881  1.00  0.00     0.200 A 
ATOM     58  F   UNL A   1      34.024  32.679  31.987  1.00  0.00    -0.200 F 
ATOM     59  F   UNL A   1      33.229  34.206  29.871  1.00  0.00    -0.200 F 
ENDBRANCH  25  49
BRANCH  37  60
ATOM     60  C   UNL A   1      43.176  34.666  32.421  1.00  0.00     0.064 A 
ATOM     61  C   UNL A   1      43.148  34.667  33.822  1.00  0.00     0.173 A 
ATOM     62  C   UNL A   1      43.500  35.860  31.761  1.00  0.00     0.173 A 
ATOM     63  F   UNL A   1      42.834  33.547  34.492  1.00  0.00    -0.203 F 
ATOM     64  C   UNL A   1      43.411  35.828  34.539  1.00  0.00     0.198 A 
ATOM     65  C   UNL A   1      43.786  37.014  32.482  1.00  0.00     0.198 A 
ATOM     66  F   UNL A   1      43.549  35.899  30.421  1.00  0.00    -0.203 F 
ATOM     67  F   UNL A   1      43.343  35.818  35.877  1.00  0.00    -0.200 F 
ATOM     68  C   UNL A   1      43.731  37.001  33.868  1.00  0.00     0.200 A 
ATOM     69  F   UNL A   1      44.115  38.141  31.835  1.00  0.00    -0.200 F 
ATOM     70  F   UNL A   1      43.986  38.119  34.560  1.00  0.00    -0.200 F 
ENDBRANCH  37  60
ENDBRANCH  11  12
ENDBRANCH   4   6
ENDBRANCH   3   4
ENDBRANCH   2   3
ENDBRANCH   1   2
BRANCH   1  71
ATOM     71  O   UNL A   1      42.330  19.909  27.247  1.00  0.00    -0.374 OA
BRANCH  71  72
ATOM     72  C   UNL A   1      42.230  19.062  26.102  1.00  0.00     0.202 C 
BRANCH  72  73
ATOM     73  C   UNL A   1      43.589  18.916  25.416  1.00  0.00     0.261 C 
BRANCH  73  74
ATOM     74  O   UNL A   1      43.886  20.114  24.676  1.00  0.00    -0.463 OA
BRANCH  74  75
ATOM     75  C   UNL A   1      45.073  20.707  24.980  1.00  0.00     0.309 C 
ATOM     76  O   UNL A   1      46.185  20.231  24.802  1.00  0.00    -0.252 OA
BRANCH  75  77
ATOM     77  C   UNL A   1      44.920  22.086  25.515  1.00  0.00     0.107 C 
ATOM     78  C   UNL A   1      43.591  22.785  25.437  1.00  0.00     0.025 C 
ATOM     79  C   UNL A   1      44.753  23.315  24.629  1.00  0.00     0.037 C 
BRANCH  79  80
ATOM     80  C   UNL A   1      45.461  24.610  25.002  1.00  0.00    -0.005 A 
ATOM     81  C   UNL A   1      46.861  24.653  25.153  1.00  0.00     0.007 A 
ATOM     82  C   UNL A   1      44.785  25.829  25.165  1.00  0.00     0.162 A 
ATOM     83  C   UNL A   1      47.550  25.834  25.461  1.00  0.00     0.004 A 
ATOM     84  C   UNL A   1      45.463  27.005  25.485  1.00  0.00     0.159 A 
ATOM     85  F   UNL A   1      43.454  25.878  25.005  1.00  0.00    -0.203 F 
ATOM     86  C   UNL A   1      46.843  27.016  25.633  1.00  0.00     0.042 A 
ATOM     87  F   UNL A   1      44.782  28.148  25.648  1.00  0.00    -0.204 F 
ENDBRANCH  79  80
ENDBRANCH  75  77
ENDBRANCH  74  75
ENDBRANCH  73  74
ENDBRANCH  72  73
ENDBRANCH  71  72
ENDBRANCH   1  71
TORSDOF 15
ENDMDL
MODEL 2
REMARK VINA RESULT:      -9.9      3.948     11.120
REMARK SMILES O=C(OCCOCCOC(=O)[C@@H]1C[C@H]1c1cccc(F)c1F)c1ccc(-c2c3nc(c(-c4c(F)c(F)c(F)c(F)c4F)c4ccc([nH]4)c(-c4c(F)c(F)c(F)c(F)c4F)c4nc(c(-c5c(F)c(F)c(F)c(F)c5F)c5ccc2[nH]5)C=C4)C=C3)cc1
REMARK SMILES IDX 5 1 4 2 3 3 2 4 1 5 23 6 24 7 85 8 25 9 84 10 26 11 27 12
REMARK SMILES IDX 28 13 78 14 29 15 83 16 77 17 79 18 30 19 82 20 76 21 75 22
REMARK SMILES IDX 31 24 63 25 43 26 62 27 44 28 47 29 61 30 80 31 45 32 46 33
REMARK SMILES IDX 60 35 81 36 48 37 32 38 33 39 41 40 34 41 35 42 39 43 42 44
REMARK SMILES IDX 36 45 37 46 40 47 38 48 64 49 65 50 73 51 66 52 67 53 71 54
REMARK SMILES IDX 74 55 68 56 69 57 72 58 70 59 49 60 50 61 58 62 51 63 52 64
REMARK SMILES IDX 56 65 59 66 53 67 54 68 57 69 55 70 6 71 7 72 8 73 9 74
REMARK SMILES IDX 10 75 11 76 12 77 13 78 14 79 15 80 16 81 21 82 17 83 19 84
REMARK SMILES IDX 22 85 18 86 20 87
REMARK H PARENT 79 23 47 34
REMARK Flexibility Score: inf
ROOT
ATOM      1  C   UNL A   1      33.555  34.050  28.098  1.00  0.00     0.202 C 
ENDROOT
BRANCH   1   2
ATOM      2  C   UNL A   1      34.587  32.923  28.204  1.00  0.00     0.261 C 
BRANCH   2   3
ATOM      3  O   UNL A   1      33.937  31.645  28.132  1.00  0.00    -0.460 OA
BRANCH   3   4
ATOM      4  C   UNL A   1      34.499  30.452  27.824  1.00  0.00     0.338 C 
ATOM      5  O   UNL A   1      33.860  29.653  27.143  1.00  0.00    -0.246 OA
BRANCH   4   6
ATOM      6  C   UNL A   1      35.896  30.085  28.205  1.00  0.00     0.060 A 
ATOM      7  C   UNL A   1      37.023  30.300  27.412  1.00  0.00     0.016 A 
ATOM      8  C   UNL A   1      36.088  29.559  29.494  1.00  0.00     0.016 A 
ATOM      9  C   UNL A   1      38.292  29.955  27.842  1.00  0.00     0.010 A 
ATOM     10  C   UNL A   1      37.370  29.252  29.959  1.00  0.00     0.010 A 
ATOM     11  C   UNL A   1      38.473  29.446  29.123  1.00  0.00    -0.014 A 
BRANCH  11  12
ATOM     12  C   UNL A   1      39.842  29.089  29.518  1.00  0.00     0.031 A 
ATOM     13  C   UNL A   1      40.518  29.904  30.571  1.00  0.00     0.074 A 
ATOM     14  C   UNL A   1      40.376  27.949  29.045  1.00  0.00     0.049 A 
ATOM     15  N   UNL A   1      41.718  29.778  31.066  1.00  0.00    -0.248 NA
ATOM     16  C   UNL A   1      39.728  30.997  31.164  1.00  0.00     0.031 C 
ATOM     17  C   UNL A   1      39.704  27.029  28.123  1.00  0.00     0.029 A 
ATOM     18  N   UNL A   1      41.575  27.345  29.304  1.00  0.00    -0.354 N 
ATOM     19  C   UNL A   1      41.836  30.787  32.010  1.00  0.00     0.074 A 
ATOM     20  C   UNL A   1      40.589  31.516  32.027  1.00  0.00     0.031 C 
ATOM     21  C   UNL A   1      40.487  25.958  27.925  1.00  0.00     0.029 A 
ATOM     22  C   UNL A   1      41.742  26.153  28.642  1.00  0.00     0.049 A 
ATOM     23  H   UNL A   1      42.253  27.727  29.908  1.00  0.00     0.167 HD
ATOM     24  C   UNL A   1      42.908  31.072  32.784  1.00  0.00     0.037 A 
ATOM     25  C   UNL A   1      42.809  25.334  28.604  1.00  0.00     0.037 A 
ATOM     26  C   UNL A   1      44.134  30.324  32.732  1.00  0.00     0.049 A 
ATOM     27  C   UNL A   1      44.025  25.735  29.391  1.00  0.00     0.074 A 
ATOM     28  C   UNL A   1      45.325  30.565  33.388  1.00  0.00     0.029 A 
ATOM     29  N   UNL A   1      44.316  29.175  31.971  1.00  0.00    -0.354 N 
ATOM     30  N   UNL A   1      44.179  26.752  30.207  1.00  0.00    -0.248 NA
ATOM     31  C   UNL A   1      45.223  24.903  29.234  1.00  0.00     0.031 C 
ATOM     32  C   UNL A   1      46.239  29.582  32.995  1.00  0.00     0.029 A 
ATOM     33  C   UNL A   1      45.606  28.702  32.130  1.00  0.00     0.049 A 
ATOM     34  H   UNL A   1      43.627  28.760  31.402  1.00  0.00     0.167 HD
ATOM     35  C   UNL A   1      45.487  26.685  30.661  1.00  0.00     0.074 A 
ATOM     36  C   UNL A   1      46.076  25.510  30.048  1.00  0.00     0.031 C 
ATOM     37  C   UNL A   1      46.146  27.523  31.498  1.00  0.00     0.037 A 
BRANCH  24  38
ATOM     38  C   UNL A   1      42.811  32.268  33.677  1.00  0.00     0.064 A 
ATOM     39  C   UNL A   1      43.132  33.543  33.185  1.00  0.00     0.173 A 
ATOM     40  C   UNL A   1      42.389  32.166  35.010  1.00  0.00     0.173 A 
ATOM     41  F   UNL A   1      43.531  33.696  31.913  1.00  0.00    -0.203 F 
ATOM     42  C   UNL A   1      43.038  34.670  33.997  1.00  0.00     0.198 A 
ATOM     43  C   UNL A   1      42.274  33.299  35.814  1.00  0.00     0.198 A 
ATOM     44  F   UNL A   1      42.040  30.975  35.517  1.00  0.00    -0.203 F 
ATOM     45  F   UNL A   1      43.356  35.876  33.507  1.00  0.00    -0.200 F 
ATOM     46  C   UNL A   1      42.604  34.548  35.308  1.00  0.00     0.200 A 
ATOM     47  F   UNL A   1      41.823  33.185  37.070  1.00  0.00    -0.200 F 
ATOM     48  F   UNL A   1      42.489  35.636  36.081  1.00  0.00    -0.200 F 
ENDBRANCH  24  38
BRANCH  25  49
ATOM     49  C   UNL A   1      42.775  24.105  27.768  1.00  0.00     0.064 A 
ATOM     50  C   UNL A   1      43.053  24.153  26.392  1.00  0.00     0.173 A 
ATOM     51  C   UNL A   1      42.431  22.863  28.317  1.00  0.00     0.173 A 
ATOM     52  F   UNL A   1      43.392  25.316  25.815  1.00  0.00    -0.203 F 
ATOM     53  C   UNL A   1      42.959  23.014  25.594  1.00  0.00     0.198 A 
ATOM     54  C   UNL A   1      42.365  21.718  27.522  1.00  0.00     0.198 A 
ATOM     55  F   UNL A   1      42.178  22.759  29.629  1.00  0.00    -0.203 F 
ATOM     56  F   UNL A   1      43.190  23.100  24.277  1.00  0.00    -0.200 F 
ATOM     57  C   UNL A   1      42.619  21.796  26.161  1.00  0.00     0.200 A 
ATOM     58  F   UNL A   1      42.060  20.537  28.078  1.00  0.00    -0.200 F 
ATOM     59  F   UNL A   1      42.539  20.698  25.397  1.00  0.00    -0.200 F 
ENDBRANCH  25  49
BRANCH  37  60
ATOM     60  C   UNL A   1      47.574  27.195  31.802  1.00  0.00     0.064 A 
ATOM     61  C   UNL A   1      47.898  26.383  32.897  1.00  0.00     0.173 A 
ATOM     62  C   UNL A   1      48.621  27.765  31.063  1.00  0.00     0.173 A 
ATOM     63  F   UNL A   1      46.926  25.826  33.635  1.00  0.00    -0.203 F 
ATOM     64  C   UNL A   1      49.223  26.168  33.257  1.00  0.00     0.198 A 
ATOM     65  C   UNL A   1      49.946  27.528  31.411  1.00  0.00     0.198 A 
ATOM     66  F   UNL A   1      48.354  28.538  30.000  1.00  0.00    -0.203 F 
ATOM     67  F   UNL A   1      49.512  25.419  34.330  1.00  0.00    -0.200 F 
ATOM     68  C   UNL A   1      50.246  26.740  32.513  1.00  0.00     0.200 A 
ATOM     69  F   UNL A   1      50.934  28.063  30.681  1.00  0.00    -0.200 F 
ATOM     70  F   UNL A   1      51.523  26.531  32.859  1.00  0.00    -0.200 F 
ENDBRANCH  37  60
ENDBRANCH  11  12
ENDBRANCH   4   6
ENDBRANCH   3   4
ENDBRANCH   2   3
ENDBRANCH   1   2
BRANCH   1  71
ATOM     71  O   UNL A   1      32.770  34.229  29.278  1.00  0.00    -0.374 OA
BRANCH  71  72
ATOM     72  C   UNL A   1      32.980  35.474  29.946  1.00  0.00     0.202 C 
BRANCH  72  73
ATOM     73  C   UNL A   1      33.990  35.314  31.083  1.00  0.00     0.261 C 
BRANCH  73  74
ATOM     74  O   UNL A   1      33.429  34.482  32.113  1.00  0.00    -0.463 OA
BRANCH  74  75
ATOM     75  C   UNL A   1      34.115  33.336  32.375  1.00  0.00     0.309 C 
ATOM     76  O   UNL A   1      34.225  32.373  31.630  1.00  0.00    -0.252 OA
BRANCH  75  77
ATOM     77  C   UNL A   1      34.821  33.360  33.684  1.00  0.00     0.107 C 
ATOM     78  C   UNL A   1      35.075  34.667  34.383  1.00  0.00     0.025 C 
ATOM     79  C   UNL A   1      36.247  33.872  33.857  1.00  0.00     0.037 C 
BRANCH  79  80
ATOM     80  C   UNL A   1      37.198  33.138  34.792  1.00  0.00    -0.005 A 
ATOM     81  C   UNL A   1      37.540  33.678  36.048  1.00  0.00     0.007 A 
ATOM     82  C   UNL A   1      37.742  31.880  34.493  1.00  0.00     0.162 A 
ATOM     83  C   UNL A   1      38.383  33.013  36.949  1.00  0.00     0.004 A 
ATOM     84  C   UNL A   1      38.592  31.219  35.379  1.00  0.00     0.159 A 
ATOM     85  F   UNL A   1      37.437  31.283  33.330  1.00  0.00    -0.203 F 
ATOM     86  C   UNL A   1      38.916  31.778  36.608  1.00  0.00     0.042 A 
ATOM     87  F   UNL A   1      39.105  30.025  35.052  1.00  0.00    -0.204 F 
ENDBRANCH  79  80
ENDBRANCH  75  77
ENDBRANCH  74  75
ENDBRANCH  73  74
ENDBRANCH  72  73
ENDBRANCH  71  72
ENDBRANCH   1  71
TORSDOF 15
ENDMDL
MODEL 3
REMARK VINA RESULT:      -9.9      3.958     11.126
REMARK SMILES O=C(OCCOCCOC(=O)[C@@H]1C[C@H]1c1cccc(F)c1F)c1ccc(-c2c3nc(c(-c4c(F)c(F)c(F)c(F)c4F)c4ccc([nH]4)c(-c4c(F)c(F)c(F)c(F)c4F)c4nc(c(-c5c(F)c(F)c(F)c(F)c5F)c5ccc2[nH]5)C=C4)C=C3)cc1
REMARK SMILES IDX 5 1 4 2 3 3 2 4 1 5 23 6 24 7 85 8 25 9 84 10 26 11 27 12
REMARK SMILES IDX 28 13 78 14 29 15 83 16 77 17 79 18 30 19 82 20 76 21 75 22
REMARK SMILES IDX 31 24 63 25 43 26 62 27 44 28 47 29 61 30 80 31 45 32 46 33
REMARK SMILES IDX 60 35 81 36 48 37 32 38 33 39 41 40 34 41 35 42 39 43 42 44
REMARK SMILES IDX 36 45 37 46 40 47 38 48 64 49 65 50 73 51 66 52 67 53 71 54
REMARK SMILES IDX 74 55 68 56 69 57 72 58 70 59 49 60 50 61 58 62 51 63 52 64
REMARK SMILES IDX 56 65 59 66 53 67 54 68 57 69 55 70 6 71 7 72 8 73 9 74
REMARK SMILES IDX 10 75 11 76 12 77 13 78 14 79 15 80 16 81 21 82 17 83 19 84
REMARK SMILES IDX 22 85 18 86 20 87
REMARK H PARENT 79 23 47 34
REMARK Flexibility Score: inf
ROOT
ATOM      1  C   UNL A   1      33.785  34.068  28.287  1.00  0.00     0.202 C 
ENDROOT
BRANCH   1   2
ATOM      2  C   UNL A   1      33.493  32.716  27.629  1.00  0.00     0.261 C 
BRANCH   2   3
ATOM      3  O   UNL A   1      34.038  31.650  28.421  1.00  0.00    -0.460 OA
BRANCH   3   4
ATOM      4  C   UNL A   1      34.608  30.505  27.977  1.00  0.00     0.338 C 
ATOM      5  O   UNL A   1      33.985  29.799  27.185  1.00  0.00    -0.246 OA
BRANCH   4   6
ATOM      6  C   UNL A   1      35.995  30.087  28.342  1.00  0.00     0.060 A 
ATOM      7  C   UNL A   1      37.145  30.427  27.628  1.00  0.00     0.016 A 
ATOM      8  C   UNL A   1      36.151  29.370  29.540  1.00  0.00     0.016 A 
ATOM      9  C   UNL A   1      38.402  30.024  28.040  1.00  0.00     0.010 A 
ATOM     10  C   UNL A   1      37.422  29.000  29.993  1.00  0.00     0.010 A 
ATOM     11  C   UNL A   1      38.548  29.325  29.232  1.00  0.00    -0.014 A 
BRANCH  11  12
ATOM     12  C   UNL A   1      39.907  28.916  29.612  1.00  0.00     0.031 A 
ATOM     13  C   UNL A   1      40.606  29.673  30.692  1.00  0.00     0.074 A 
ATOM     14  C   UNL A   1      40.409  27.780  29.096  1.00  0.00     0.049 A 
ATOM     15  N   UNL A   1      41.802  29.496  31.180  1.00  0.00    -0.248 NA
ATOM     16  C   UNL A   1      39.847  30.764  31.326  1.00  0.00     0.031 C 
ATOM     17  C   UNL A   1      39.711  26.913  28.142  1.00  0.00     0.029 A 
ATOM     18  N   UNL A   1      41.591  27.134  29.331  1.00  0.00    -0.354 N 
ATOM     19  C   UNL A   1      41.949  30.466  32.160  1.00  0.00     0.074 A 
ATOM     20  C   UNL A   1      40.723  31.228  32.205  1.00  0.00     0.031 C 
ATOM     21  C   UNL A   1      40.464  25.829  27.904  1.00  0.00     0.029 A 
ATOM     22  C   UNL A   1      41.724  25.963  28.625  1.00  0.00     0.049 A 
ATOM     23  H   UNL A   1      42.280  27.475  29.946  1.00  0.00     0.167 HD
ATOM     24  C   UNL A   1      43.030  30.693  32.941  1.00  0.00     0.037 A 
ATOM     25  C   UNL A   1      42.768  25.117  28.555  1.00  0.00     0.037 A 
ATOM     26  C   UNL A   1      44.235  29.914  32.859  1.00  0.00     0.049 A 
ATOM     27  C   UNL A   1      43.996  25.455  29.353  1.00  0.00     0.074 A 
ATOM     28  C   UNL A   1      45.433  30.098  33.521  1.00  0.00     0.029 A 
ATOM     29  N   UNL A   1      44.384  28.789  32.057  1.00  0.00    -0.354 N 
ATOM     30  N   UNL A   1      44.178  26.437  30.206  1.00  0.00    -0.248 NA
ATOM     31  C   UNL A   1      45.170  24.596  29.164  1.00  0.00     0.031 C 
ATOM     32  C   UNL A   1      46.319  29.105  33.091  1.00  0.00     0.029 A 
ATOM     33  C   UNL A   1      45.660  28.275  32.195  1.00  0.00     0.049 A 
ATOM     34  H   UNL A   1      43.684  28.414  31.475  1.00  0.00     0.167 HD
ATOM     35  C   UNL A   1      45.484  26.318  30.654  1.00  0.00     0.074 A 
ATOM     36  C   UNL A   1      46.040  25.150  29.998  1.00  0.00     0.031 C 
ATOM     37  C   UNL A   1      46.168  27.106  31.520  1.00  0.00     0.037 A 
BRANCH  24  38
ATOM     38  C   UNL A   1      42.967  31.858  33.878  1.00  0.00     0.064 A 
ATOM     39  C   UNL A   1      43.262  33.151  33.416  1.00  0.00     0.173 A 
ATOM     40  C   UNL A   1      42.602  31.709  35.223  1.00  0.00     0.173 A 
ATOM     41  F   UNL A   1      43.605  33.348  32.134  1.00  0.00    -0.203 F 
ATOM     42  C   UNL A   1      43.199  34.249  34.269  1.00  0.00     0.198 A 
ATOM     43  C   UNL A   1      42.518  32.814  36.069  1.00  0.00     0.198 A 
ATOM     44  F   UNL A   1      42.279  30.500  35.704  1.00  0.00    -0.203 F 
ATOM     45  F   UNL A   1      43.491  35.472  33.806  1.00  0.00    -0.200 F 
ATOM     46  C   UNL A   1      42.821  34.081  35.592  1.00  0.00     0.200 A 
ATOM     47  F   UNL A   1      42.120  32.655  37.339  1.00  0.00    -0.200 F 
ATOM     48  F   UNL A   1      42.736  35.142  36.406  1.00  0.00    -0.200 F 
ENDBRANCH  24  38
BRANCH  25  49
ATOM     49  C   UNL A   1      42.700  23.921  27.675  1.00  0.00     0.064 A 
ATOM     50  C   UNL A   1      42.286  22.674  28.173  1.00  0.00     0.173 A 
ATOM     51  C   UNL A   1      43.079  23.987  26.328  1.00  0.00     0.173 A 
ATOM     52  F   UNL A   1      41.908  22.553  29.454  1.00  0.00    -0.203 F 
ATOM     53  C   UNL A   1      42.282  21.537  27.366  1.00  0.00     0.198 A 
ATOM     54  C   UNL A   1      43.047  22.855  25.514  1.00  0.00     0.198 A 
ATOM     55  F   UNL A   1      43.461  25.158  25.798  1.00  0.00    -0.203 F 
ATOM     56  F   UNL A   1      41.921  20.354  27.881  1.00  0.00    -0.200 F 
ATOM     57  C   UNL A   1      42.660  21.630  26.035  1.00  0.00     0.200 A 
ATOM     58  F   UNL A   1      43.389  22.952  24.222  1.00  0.00    -0.200 F 
ATOM     59  F   UNL A   1      42.645  20.540  25.256  1.00  0.00    -0.200 F 
ENDBRANCH  25  49
BRANCH  37  60
ATOM     60  C   UNL A   1      47.586  26.728  31.809  1.00  0.00     0.064 A 
ATOM     61  C   UNL A   1      48.631  27.257  31.039  1.00  0.00     0.173 A 
ATOM     62  C   UNL A   1      47.897  25.770  32.784  1.00  0.00     0.173 A 
ATOM     63  F   UNL A   1      48.376  28.170  30.089  1.00  0.00    -0.203 F 
ATOM     64  C   UNL A   1      49.939  26.824  31.221  1.00  0.00     0.198 A 
ATOM     65  C   UNL A   1      49.210  25.357  32.980  1.00  0.00     0.198 A 
ATOM     66  F   UNL A   1      46.928  25.248  33.550  1.00  0.00    -0.203 F 
ATOM     67  F   UNL A   1      50.920  27.315  30.450  1.00  0.00    -0.200 F 
ATOM     68  C   UNL A   1      50.228  25.876  32.193  1.00  0.00     0.200 A 
ATOM     69  F   UNL A   1      49.492  24.457  33.932  1.00  0.00    -0.200 F 
ATOM     70  F   UNL A   1      51.489  25.460  32.368  1.00  0.00    -0.200 F 
ENDBRANCH  37  60
ENDBRANCH  11  12
ENDBRANCH   4   6
ENDBRANCH   3   4
ENDBRANCH   2   3
ENDBRANCH   1   2
BRANCH   1  71
ATOM     71  O   UNL A   1      32.640  34.683  28.879  1.00  0.00    -0.374 OA
BRANCH  71  72
ATOM     72  C   UNL A   1      32.905  35.924  29.534  1.00  0.00     0.202 C 
BRANCH  72  73
ATOM     73  C   UNL A   1      33.735  35.701  30.798  1.00  0.00     0.261 C 
BRANCH  73  74
ATOM     74  O   UNL A   1      32.964  34.953  31.755  1.00  0.00    -0.463 OA
BRANCH  74  75
ATOM     75  C   UNL A   1      33.617  33.913  32.344  1.00  0.00     0.309 C 
ATOM     76  O   UNL A   1      33.306  33.366  33.393  1.00  0.00    -0.252 OA
BRANCH  75  77
ATOM     77  C   UNL A   1      34.766  33.413  31.545  1.00  0.00     0.107 C 
ATOM     78  C   UNL A   1      35.275  32.013  31.745  1.00  0.00     0.025 C 
ATOM     79  C   UNL A   1      36.155  33.179  32.131  1.00  0.00     0.037 C 
BRANCH  79  80
ATOM     80  C   UNL A   1      37.384  33.555  31.317  1.00  0.00    -0.005 A 
ATOM     81  C   UNL A   1      37.393  33.423  29.913  1.00  0.00     0.007 A 
ATOM     82  C   UNL A   1      38.544  34.095  31.892  1.00  0.00     0.162 A 
ATOM     83  C   UNL A   1      38.493  33.793  29.129  1.00  0.00     0.004 A 
ATOM     84  C   UNL A   1      39.648  34.453  31.118  1.00  0.00     0.159 A 
ATOM     85  F   UNL A   1      38.602  34.284  33.220  1.00  0.00    -0.203 F 
ATOM     86  C   UNL A   1      39.630  34.306  29.738  1.00  0.00     0.042 A 
ATOM     87  F   UNL A   1      40.745  34.952  31.706  1.00  0.00    -0.204 F 
ENDBRANCH  79  80
ENDBRANCH  75  77
ENDBRANCH  74  75
ENDBRANCH  73  74
ENDBRANCH  72  73
ENDBRANCH  71  72
ENDBRANCH   1  71
TORSDOF 15
ENDMDL
