MODEL 1
REMARK VINA RESULT:     -12.0      0.000      0.000
REMARK SMILES Cc1ccc(Nc2c(C)cccc2Cl)c(CC(=O)OCCOCCOC(=O)c2ccc(-c3c4nc(c(-c5c(F)c(F)c(F)c(F)c5F)c5ccc([nH]5)c(-c5c(F)c(F)c(F)c(F)c5F)c5nc(c(-c6c(F)c(F)c(F)c(F)c6F)c6ccc3[nH]6)C=C5)C=C4)cc2)c1
REMARK SMILES IDX 21 1 20 2 19 3 17 4 18 5 16 6 15 7 1 8 2 9 3 10 91 11 4 12
REMARK SMILES IDX 5 13 6 14 7 16 8 17 13 18 9 19 10 20 12 21 14 22 11 23 22 24
REMARK SMILES IDX 23 25 24 26 25 27 26 28 27 29 28 30 29 31 90 32 30 33 89 34
REMARK SMILES IDX 31 35 32 36 33 37 83 38 34 39 88 40 82 41 84 42 35 43 87 44
REMARK SMILES IDX 81 45 80 46 36 48 68 49 48 50 67 51 49 52 52 53 66 54 85 55
REMARK SMILES IDX 50 56 51 57 65 59 86 60 53 61 37 62 38 63 46 64 39 65 40 66
REMARK SMILES IDX 44 67 47 68 41 69 42 70 45 71 43 72 69 73 70 74 78 75 71 76
REMARK SMILES IDX 72 77 76 78 79 79 73 80 74 81 77 82 75 83 54 84 55 85 63 86
REMARK SMILES IDX 56 87 57 88 61 89 64 90 58 91 59 92 62 93 60 94
REMARK H PARENT 6 15 84 47 52 58
REMARK Flexibility Score: inf
ROOT
ATOM      1  C   UNL A   1      33.846  31.574  27.940  1.00  0.00     0.202 C 
ENDROOT
BRANCH   1   2
ATOM      2  C   UNL A   1      33.412  30.497  26.960  1.00  0.00     0.261 C 
BRANCH   2   3
ATOM      3  O   UNL A   1      32.128  29.974  27.250  1.00  0.00    -0.463 OA
BRANCH   3   4
ATOM      4  C   UNL A   1      31.930  28.622  27.214  1.00  0.00     0.310 C 
ATOM      5  O   UNL A   1      31.270  27.956  28.000  1.00  0.00    -0.252 OA
BRANCH   4   6
ATOM      6  C   UNL A   1      32.690  28.021  26.041  1.00  0.00     0.160 C 
BRANCH   6   7
ATOM      7  C   UNL A   1      31.699  27.451  25.043  1.00  0.00    -0.013 A 
ATOM      8  C   UNL A   1      29.213  29.255  22.765  1.00  0.00     0.044 C 
ATOM      9  C   UNL A   1      29.904  28.164  23.529  1.00  0.00    -0.051 A 
ATOM     10  C   UNL A   1      29.305  26.922  23.704  1.00  0.00     0.005 A 
ATOM     11  C   UNL A   1      31.135  28.393  24.140  1.00  0.00     0.009 A 
ATOM     12  C   UNL A   1      29.898  25.954  24.529  1.00  0.00     0.026 A 
ATOM     13  C   UNL A   1      31.085  26.198  25.248  1.00  0.00     0.042 A 
BRANCH  13  14
ATOM     14  N   UNL A   1      31.613  25.236  26.157  1.00  0.00    -0.354 N 
ATOM     15  H   UNL A   1      31.600  25.487  27.108  1.00  0.00     0.167 HD
BRANCH  14  16
ATOM     16  C   UNL A   1      32.159  23.956  25.857  1.00  0.00     0.060 A 
ATOM     17  C   UNL A   1      33.469  23.831  25.358  1.00  0.00    -0.026 A 
ATOM     18  C   UNL A   1      31.361  22.792  25.874  1.00  0.00     0.064 A 
ATOM     19  C   UNL A   1      34.518  24.871  25.648  1.00  0.00     0.046 C 
ATOM     20  C   UNL A   1      33.843  22.676  24.653  1.00  0.00     0.005 A 
ATOM     21  C   UNL A   1      31.728  21.654  25.150  1.00  0.00     0.023 A 
ATOM     22  Cl  UNL A   1      29.958  22.679  26.877  1.00  0.00    -0.082 Cl
ATOM     23  C   UNL A   1      32.952  21.618  24.494  1.00  0.00     0.002 A 
ENDBRANCH  14  16
ENDBRANCH  13  14
ENDBRANCH   6   7
ENDBRANCH   4   6
ENDBRANCH   3   4
ENDBRANCH   2   3
ENDBRANCH   1   2
BRANCH   1  24
ATOM     24  O   UNL A   1      33.736  32.836  27.314  1.00  0.00    -0.374 OA
BRANCH  24  25
ATOM     25  C   UNL A   1      32.917  33.765  28.002  1.00  0.00     0.202 C 
BRANCH  25  26
ATOM     26  C   UNL A   1      33.771  34.619  28.939  1.00  0.00     0.261 C 
BRANCH  26  27
ATOM     27  O   UNL A   1      33.613  34.200  30.312  1.00  0.00    -0.460 OA
BRANCH  27  28
ATOM     28  C   UNL A   1      34.773  34.145  31.019  1.00  0.00     0.338 C 
ATOM     29  O   UNL A   1      35.179  35.034  31.761  1.00  0.00    -0.246 OA
BRANCH  28  30
ATOM     30  C   UNL A   1      35.577  32.962  30.606  1.00  0.00     0.060 A 
ATOM     31  C   UNL A   1      35.491  31.787  31.374  1.00  0.00     0.016 A 
ATOM     32  C   UNL A   1      36.644  33.156  29.731  1.00  0.00     0.016 A 
ATOM     33  C   UNL A   1      36.576  30.906  31.418  1.00  0.00     0.010 A 
ATOM     34  C   UNL A   1      37.759  32.357  29.884  1.00  0.00     0.010 A 
ATOM     35  C   UNL A   1      37.751  31.255  30.756  1.00  0.00    -0.014 A 
BRANCH  35  36
ATOM     36  C   UNL A   1      39.062  30.645  30.984  1.00  0.00     0.031 A 
ATOM     37  C   UNL A   1      39.397  29.378  30.303  1.00  0.00     0.074 A 
ATOM     38  C   UNL A   1      40.053  31.334  31.595  1.00  0.00     0.049 A 
ATOM     39  N   UNL A   1      40.519  28.773  30.460  1.00  0.00    -0.248 NA
ATOM     40  C   UNL A   1      38.479  28.638  29.441  1.00  0.00     0.031 C 
ATOM     41  C   UNL A   1      41.501  31.207  31.399  1.00  0.00     0.029 A 
ATOM     42  N   UNL A   1      39.969  32.349  32.526  1.00  0.00    -0.354 N 
ATOM     43  C   UNL A   1      40.616  27.813  29.491  1.00  0.00     0.074 A 
ATOM     44  C   UNL A   1      39.278  27.670  28.979  1.00  0.00     0.031 C 
ATOM     45  C   UNL A   1      42.148  31.950  32.313  1.00  0.00     0.029 A 
ATOM     46  C   UNL A   1      41.157  32.446  33.247  1.00  0.00     0.049 A 
ATOM     47  H   UNL A   1      39.181  32.923  32.661  1.00  0.00     0.167 HD
ATOM     48  C   UNL A   1      41.859  27.351  29.186  1.00  0.00     0.037 A 
ATOM     49  C   UNL A   1      41.179  32.279  34.601  1.00  0.00     0.037 A 
ATOM     50  C   UNL A   1      42.840  27.786  30.195  1.00  0.00     0.049 A 
ATOM     51  C   UNL A   1      41.778  30.923  34.944  1.00  0.00     0.074 A 
ATOM     52  C   UNL A   1      43.908  28.665  30.236  1.00  0.00     0.029 A 
ATOM     53  N   UNL A   1      42.576  27.468  31.521  1.00  0.00    -0.354 N 
ATOM     54  N   UNL A   1      42.306  30.133  34.048  1.00  0.00    -0.248 NA
ATOM     55  C   UNL A   1      41.791  30.313  36.270  1.00  0.00     0.031 C 
ATOM     56  C   UNL A   1      44.228  28.906  31.618  1.00  0.00     0.029 A 
ATOM     57  C   UNL A   1      43.391  28.137  32.412  1.00  0.00     0.049 A 
ATOM     58  H   UNL A   1      41.879  26.831  31.798  1.00  0.00     0.167 HD
ATOM     59  C   UNL A   1      42.656  28.940  34.595  1.00  0.00     0.074 A 
ATOM     60  C   UNL A   1      42.298  29.095  35.999  1.00  0.00     0.031 C 
ATOM     61  C   UNL A   1      43.190  27.926  33.847  1.00  0.00     0.037 A 
BRANCH  48  62
ATOM     62  C   UNL A   1      42.214  26.583  27.936  1.00  0.00     0.064 A 
ATOM     63  C   UNL A   1      41.813  25.237  27.804  1.00  0.00     0.173 A 
ATOM     64  C   UNL A   1      43.019  27.065  26.880  1.00  0.00     0.173 A 
ATOM     65  F   UNL A   1      41.059  24.645  28.740  1.00  0.00    -0.203 F 
ATOM     66  C   UNL A   1      42.184  24.447  26.709  1.00  0.00     0.198 A 
ATOM     67  C   UNL A   1      43.343  26.292  25.761  1.00  0.00     0.198 A 
ATOM     68  F   UNL A   1      43.580  28.278  26.905  1.00  0.00    -0.203 F 
ATOM     69  F   UNL A   1      41.815  23.161  26.663  1.00  0.00    -0.200 F 
ATOM     70  C   UNL A   1      42.938  24.979  25.681  1.00  0.00     0.200 A 
ATOM     71  F   UNL A   1      44.077  26.828  24.774  1.00  0.00    -0.200 F 
ATOM     72  F   UNL A   1      43.287  24.226  24.630  1.00  0.00    -0.200 F 
ENDBRANCH  48  62
BRANCH  49  73
ATOM     73  C   UNL A   1      40.013  32.987  35.217  1.00  0.00     0.064 A 
ATOM     74  C   UNL A   1      38.978  32.141  35.685  1.00  0.00     0.173 A 
ATOM     75  C   UNL A   1      40.188  34.214  35.873  1.00  0.00     0.173 A 
ATOM     76  F   UNL A   1      38.775  30.949  35.100  1.00  0.00    -0.203 F 
ATOM     77  C   UNL A   1      38.324  32.401  36.888  1.00  0.00     0.198 A 
ATOM     78  C   UNL A   1      39.501  34.482  37.064  1.00  0.00     0.198 A 
ATOM     79  F   UNL A   1      41.168  35.047  35.497  1.00  0.00    -0.203 F 
ATOM     80  F   UNL A   1      37.539  31.460  37.435  1.00  0.00    -0.200 F 
ATOM     81  C   UNL A   1      38.620  33.551  37.598  1.00  0.00     0.200 A 
ATOM     82  F   UNL A   1      39.818  35.570  37.782  1.00  0.00    -0.200 F 
ATOM     83  F   UNL A   1      38.138  33.713  38.839  1.00  0.00    -0.200 F 
ENDBRANCH  49  73
BRANCH  61  84
ATOM     84  C   UNL A   1      43.537  26.602  34.460  1.00  0.00     0.064 A 
ATOM     85  C   UNL A   1      42.548  25.686  34.843  1.00  0.00     0.173 A 
ATOM     86  C   UNL A   1      44.870  26.224  34.728  1.00  0.00     0.173 A 
ATOM     87  F   UNL A   1      41.247  26.000  34.751  1.00  0.00    -0.203 F 
ATOM     88  C   UNL A   1      42.874  24.421  35.329  1.00  0.00     0.198 A 
ATOM     89  C   UNL A   1      45.190  24.991  35.288  1.00  0.00     0.198 A 
ATOM     90  F   UNL A   1      45.909  27.011  34.418  1.00  0.00    -0.203 F 
ATOM     91  F   UNL A   1      41.900  23.532  35.568  1.00  0.00    -0.200 F 
ATOM     92  C   UNL A   1      44.195  24.074  35.551  1.00  0.00     0.200 A 
ATOM     93  F   UNL A   1      46.472  24.691  35.541  1.00  0.00    -0.200 F 
ATOM     94  F   UNL A   1      44.509  22.856  36.010  1.00  0.00    -0.200 F 
ENDBRANCH  61  84
ENDBRANCH  35  36
ENDBRANCH  28  30
ENDBRANCH  27  28
ENDBRANCH  26  27
ENDBRANCH  25  26
ENDBRANCH  24  25
ENDBRANCH   1  24
TORSDOF 17
ENDMDL
MODEL 2
REMARK VINA RESULT:     -11.8      3.928      9.636
REMARK SMILES Cc1ccc(Nc2c(C)cccc2Cl)c(CC(=O)OCCOCCOC(=O)c2ccc(-c3c4nc(c(-c5c(F)c(F)c(F)c(F)c5F)c5ccc([nH]5)c(-c5c(F)c(F)c(F)c(F)c5F)c5nc(c(-c6c(F)c(F)c(F)c(F)c6F)c6ccc3[nH]6)C=C5)C=C4)cc2)c1
REMARK SMILES IDX 21 1 20 2 19 3 17 4 18 5 16 6 15 7 1 8 2 9 3 10 91 11 4 12
REMARK SMILES IDX 5 13 6 14 7 16 8 17 13 18 9 19 10 20 12 21 14 22 11 23 22 24
REMARK SMILES IDX 23 25 24 26 25 27 26 28 27 29 28 30 29 31 90 32 30 33 89 34
REMARK SMILES IDX 31 35 32 36 33 37 83 38 34 39 88 40 82 41 84 42 35 43 87 44
REMARK SMILES IDX 81 45 80 46 36 48 68 49 48 50 67 51 49 52 52 53 66 54 85 55
REMARK SMILES IDX 50 56 51 57 65 59 86 60 53 61 37 62 38 63 46 64 39 65 40 66
REMARK SMILES IDX 44 67 47 68 41 69 42 70 45 71 43 72 69 73 70 74 78 75 71 76
REMARK SMILES IDX 72 77 76 78 79 79 73 80 74 81 77 82 75 83 54 84 55 85 63 86
REMARK SMILES IDX 56 87 57 88 61 89 64 90 58 91 59 92 62 93 60 94
REMARK H PARENT 6 15 84 47 52 58
REMARK Flexibility Score: inf
ROOT
ATOM      1  C   UNL A   1      35.062  21.932  26.530  1.00  0.00     0.202 C 
ENDROOT
BRANCH   1   2
ATOM      2  C   UNL A   1      34.654  23.213  25.822  1.00  0.00     0.261 C 
BRANCH   2   3
ATOM      3  O   UNL A   1      33.655  23.934  26.520  1.00  0.00    -0.463 OA
BRANCH   3   4
ATOM      4  C   UNL A   1      32.602  23.258  27.074  1.00  0.00     0.310 C 
ATOM      5  O   UNL A   1      32.621  22.577  28.089  1.00  0.00    -0.252 OA
BRANCH   4   6
ATOM      6  C   UNL A   1      31.362  23.444  26.214  1.00  0.00     0.160 C 
BRANCH   6   7
ATOM      7  C   UNL A   1      31.427  22.495  25.031  1.00  0.00    -0.013 A 
ATOM      8  C   UNL A   1      33.010  19.024  24.767  1.00  0.00     0.044 C 
ATOM      9  C   UNL A   1      32.393  20.335  24.379  1.00  0.00    -0.051 A 
ATOM     10  C   UNL A   1      32.439  20.788  23.066  1.00  0.00     0.005 A 
ATOM     11  C   UNL A   1      31.818  21.164  25.340  1.00  0.00     0.009 A 
ATOM     12  C   UNL A   1      31.978  22.072  22.737  1.00  0.00     0.026 A 
ATOM     13  C   UNL A   1      31.495  22.973  23.706  1.00  0.00     0.042 A 
BRANCH  13  14
ATOM     14  N   UNL A   1      31.126  24.306  23.362  1.00  0.00    -0.354 N 
ATOM     15  H   UNL A   1      30.431  24.398  22.672  1.00  0.00     0.167 HD
BRANCH  14  16
ATOM     16  C   UNL A   1      31.641  25.521  23.895  1.00  0.00     0.060 A 
ATOM     17  C   UNL A   1      33.009  25.832  23.787  1.00  0.00    -0.026 A 
ATOM     18  C   UNL A   1      30.848  26.368  24.699  1.00  0.00     0.064 A 
ATOM     19  C   UNL A   1      33.855  25.264  22.679  1.00  0.00     0.046 C 
ATOM     20  C   UNL A   1      33.589  26.759  24.668  1.00  0.00     0.005 A 
ATOM     21  C   UNL A   1      31.432  27.272  25.592  1.00  0.00     0.023 A 
ATOM     22  Cl  UNL A   1      29.127  26.409  24.538  1.00  0.00    -0.082 Cl
ATOM     23  C   UNL A   1      32.813  27.428  25.611  1.00  0.00     0.002 A 
ENDBRANCH  14  16
ENDBRANCH  13  14
ENDBRANCH   6   7
ENDBRANCH   4   6
ENDBRANCH   3   4
ENDBRANCH   2   3
ENDBRANCH   1   2
BRANCH   1  24
ATOM     24  O   UNL A   1      36.332  21.530  26.057  1.00  0.00    -0.374 OA
BRANCH  24  25
ATOM     25  C   UNL A   1      37.202  22.598  25.728  1.00  0.00     0.202 C 
BRANCH  25  26
ATOM     26  C   UNL A   1      38.644  22.096  25.671  1.00  0.00     0.261 C 
BRANCH  26  27
ATOM     27  O   UNL A   1      39.355  22.414  26.887  1.00  0.00    -0.460 OA
BRANCH  27  28
ATOM     28  C   UNL A   1      40.395  23.273  26.721  1.00  0.00     0.338 C 
ATOM     29  O   UNL A   1      41.571  22.933  26.627  1.00  0.00    -0.246 OA
BRANCH  28  30
ATOM     30  C   UNL A   1      39.938  24.680  26.882  1.00  0.00     0.060 A 
ATOM     31  C   UNL A   1      40.529  25.677  26.085  1.00  0.00     0.016 A 
ATOM     32  C   UNL A   1      39.240  25.025  28.038  1.00  0.00     0.016 A 
ATOM     33  C   UNL A   1      40.596  26.992  26.555  1.00  0.00     0.010 A 
ATOM     34  C   UNL A   1      39.428  26.290  28.556  1.00  0.00     0.010 A 
ATOM     35  C   UNL A   1      40.141  27.269  27.842  1.00  0.00    -0.014 A 
BRANCH  35  36
ATOM     36  C   UNL A   1      40.453  28.478  28.606  1.00  0.00     0.031 A 
ATOM     37  C   UNL A   1      39.446  29.554  28.698  1.00  0.00     0.074 A 
ATOM     38  C   UNL A   1      41.527  28.523  29.427  1.00  0.00     0.049 A 
ATOM     39  N   UNL A   1      39.646  30.650  29.338  1.00  0.00    -0.248 NA
ATOM     40  C   UNL A   1      38.150  29.530  28.024  1.00  0.00     0.031 C 
ATOM     41  C   UNL A   1      41.693  29.297  30.662  1.00  0.00     0.029 A 
ATOM     42  N   UNL A   1      42.722  27.839  29.345  1.00  0.00    -0.354 N 
ATOM     43  C   UNL A   1      38.443  31.285  29.467  1.00  0.00     0.074 A 
ATOM     44  C   UNL A   1      37.577  30.632  28.520  1.00  0.00     0.031 C 
ATOM     45  C   UNL A   1      42.963  29.198  31.092  1.00  0.00     0.029 A 
ATOM     46  C   UNL A   1      43.713  28.505  30.064  1.00  0.00     0.049 A 
ATOM     47  H   UNL A   1      42.855  27.000  28.849  1.00  0.00     0.167 HD
ATOM     48  C   UNL A   1      38.326  32.215  30.454  1.00  0.00     0.037 A 
ATOM     49  C   UNL A   1      44.844  28.962  29.452  1.00  0.00     0.037 A 
ATOM     50  C   UNL A   1      39.648  32.560  31.006  1.00  0.00     0.049 A 
ATOM     51  C   UNL A   1      44.773  30.475  29.302  1.00  0.00     0.074 A 
ATOM     52  C   UNL A   1      40.316  32.355  32.201  1.00  0.00     0.029 A 
ATOM     53  N   UNL A   1      40.618  32.997  30.113  1.00  0.00    -0.354 N 
ATOM     54  N   UNL A   1      43.816  31.196  29.821  1.00  0.00    -0.248 NA
ATOM     55  C   UNL A   1      45.703  31.294  28.531  1.00  0.00     0.031 C 
ATOM     56  C   UNL A   1      41.711  32.622  31.976  1.00  0.00     0.029 A 
ATOM     57  C   UNL A   1      41.883  33.037  30.664  1.00  0.00     0.049 A 
ATOM     58  H   UNL A   1      40.424  33.254  29.183  1.00  0.00     0.167 HD
ATOM     59  C   UNL A   1      43.921  32.495  29.440  1.00  0.00     0.074 A 
ATOM     60  C   UNL A   1      45.121  32.507  28.612  1.00  0.00     0.031 C 
ATOM     61  C   UNL A   1      43.008  33.441  29.819  1.00  0.00     0.037 A 
BRANCH  48  62
ATOM     62  C   UNL A   1      37.020  32.753  30.986  1.00  0.00     0.064 A 
ATOM     63  C   UNL A   1      36.227  33.593  30.177  1.00  0.00     0.173 A 
ATOM     64  C   UNL A   1      36.533  32.568  32.300  1.00  0.00     0.173 A 
ATOM     65  F   UNL A   1      36.578  33.869  28.914  1.00  0.00    -0.203 F 
ATOM     66  C   UNL A   1      35.050  34.192  30.644  1.00  0.00     0.198 A 
ATOM     67  C   UNL A   1      35.329  33.121  32.746  1.00  0.00     0.198 A 
ATOM     68  F   UNL A   1      37.222  31.898  33.229  1.00  0.00    -0.203 F 
ATOM     69  F   UNL A   1      34.366  35.021  29.845  1.00  0.00    -0.200 F 
ATOM     70  C   UNL A   1      34.594  33.944  31.924  1.00  0.00     0.200 A 
ATOM     71  F   UNL A   1      34.906  32.869  33.994  1.00  0.00    -0.200 F 
ATOM     72  F   UNL A   1      33.465  34.511  32.368  1.00  0.00    -0.200 F 
ENDBRANCH  48  62
BRANCH  49  73
ATOM     73  C   UNL A   1      45.352  27.933  28.492  1.00  0.00     0.064 A 
ATOM     74  C   UNL A   1      45.925  26.786  29.093  1.00  0.00     0.173 A 
ATOM     75  C   UNL A   1      44.754  27.770  27.234  1.00  0.00     0.173 A 
ATOM     76  F   UNL A   1      46.501  26.883  30.302  1.00  0.00    -0.203 F 
ATOM     77  C   UNL A   1      45.694  25.511  28.578  1.00  0.00     0.198 A 
ATOM     78  C   UNL A   1      44.555  26.488  26.708  1.00  0.00     0.198 A 
ATOM     79  F   UNL A   1      44.169  28.812  26.626  1.00  0.00    -0.203 F 
ATOM     80  F   UNL A   1      46.025  24.431  29.302  1.00  0.00    -0.200 F 
ATOM     81  C   UNL A   1      44.970  25.363  27.409  1.00  0.00     0.200 A 
ATOM     82  F   UNL A   1      43.812  26.334  25.602  1.00  0.00    -0.200 F 
ATOM     83  F   UNL A   1      44.584  24.142  27.012  1.00  0.00    -0.200 F 
ENDBRANCH  49  73
BRANCH  61  84
ATOM     84  C   UNL A   1      43.120  34.864  29.358  1.00  0.00     0.064 A 
ATOM     85  C   UNL A   1      43.376  35.911  30.255  1.00  0.00     0.173 A 
ATOM     86  C   UNL A   1      42.929  35.235  28.010  1.00  0.00     0.173 A 
ATOM     87  F   UNL A   1      43.446  35.683  31.575  1.00  0.00    -0.203 F 
ATOM     88  C   UNL A   1      43.568  37.218  29.813  1.00  0.00     0.198 A 
ATOM     89  C   UNL A   1      43.043  36.553  27.583  1.00  0.00     0.198 A 
ATOM     90  F   UNL A   1      42.670  34.332  27.054  1.00  0.00    -0.203 F 
ATOM     91  F   UNL A   1      43.932  38.166  30.689  1.00  0.00    -0.200 F 
ATOM     92  C   UNL A   1      43.403  37.539  28.478  1.00  0.00     0.200 A 
ATOM     93  F   UNL A   1      42.831  36.854  26.294  1.00  0.00    -0.200 F 
ATOM     94  F   UNL A   1      43.595  38.794  28.053  1.00  0.00    -0.200 F 
ENDBRANCH  61  84
ENDBRANCH  35  36
ENDBRANCH  28  30
ENDBRANCH  27  28
ENDBRANCH  26  27
ENDBRANCH  25  26
ENDBRANCH  24  25
ENDBRANCH   1  24
TORSDOF 17
ENDMDL
MODEL 3
REMARK VINA RESULT:     -11.7      5.738     11.400
REMARK SMILES Cc1ccc(Nc2c(C)cccc2Cl)c(CC(=O)OCCOCCOC(=O)c2ccc(-c3c4nc(c(-c5c(F)c(F)c(F)c(F)c5F)c5ccc([nH]5)c(-c5c(F)c(F)c(F)c(F)c5F)c5nc(c(-c6c(F)c(F)c(F)c(F)c6F)c6ccc3[nH]6)C=C5)C=C4)cc2)c1
REMARK SMILES IDX 21 1 20 2 19 3 17 4 18 5 16 6 15 7 1 8 2 9 3 10 91 11 4 12
REMARK SMILES IDX 5 13 6 14 7 16 8 17 13 18 9 19 10 20 12 21 14 22 11 23 22 24
REMARK SMILES IDX 23 25 24 26 25 27 26 28 27 29 28 30 29 31 90 32 30 33 89 34
REMARK SMILES IDX 31 35 32 36 33 37 83 38 34 39 88 40 82 41 84 42 35 43 87 44
REMARK SMILES IDX 81 45 80 46 36 48 68 49 48 50 67 51 49 52 52 53 66 54 85 55
REMARK SMILES IDX 50 56 51 57 65 59 86 60 53 61 37 62 38 63 46 64 39 65 40 66
REMARK SMILES IDX 44 67 47 68 41 69 42 70 45 71 43 72 69 73 70 74 78 75 71 76
REMARK SMILES IDX 72 77 76 78 79 79 73 80 74 81 77 82 75 83 54 84 55 85 63 86
REMARK SMILES IDX 56 87 57 88 61 89 64 90 58 91 59 92 62 93 60 94
REMARK H PARENT 6 15 84 47 52 58
REMARK Flexibility Score: inf
ROOT
ATOM      1  C   UNL A   1      43.936  18.787  24.834  1.00  0.00     0.202 C 
ENDROOT
BRANCH   1   2
ATOM      2  C   UNL A   1      42.797  18.746  25.838  1.00  0.00     0.261 C 
BRANCH   2   3
ATOM      3  O   UNL A   1      41.837  19.764  25.623  1.00  0.00    -0.463 OA
BRANCH   3   4
ATOM      4  C   UNL A   1      40.796  19.902  26.499  1.00  0.00     0.310 C 
ATOM      5  O   UNL A   1      40.838  19.765  27.714  1.00  0.00    -0.252 OA
BRANCH   4   6
ATOM      6  C   UNL A   1      39.521  20.230  25.738  1.00  0.00     0.160 C 
BRANCH   6   7
ATOM      7  C   UNL A   1      39.258  21.722  25.824  1.00  0.00    -0.013 A 
ATOM      8  C   UNL A   1      40.379  24.254  28.462  1.00  0.00     0.044 C 
ATOM      9  C   UNL A   1      39.640  23.636  27.312  1.00  0.00    -0.051 A 
ATOM     10  C   UNL A   1      38.479  24.215  26.813  1.00  0.00     0.005 A 
ATOM     11  C   UNL A   1      40.062  22.428  26.760  1.00  0.00     0.009 A 
ATOM     12  C   UNL A   1      37.723  23.563  25.826  1.00  0.00     0.026 A 
ATOM     13  C   UNL A   1      38.066  22.289  25.331  1.00  0.00     0.042 A 
BRANCH  13  14
ATOM     14  N   UNL A   1      37.228  21.604  24.403  1.00  0.00    -0.354 N 
ATOM     15  H   UNL A   1      37.675  21.232  23.610  1.00  0.00     0.167 HD
BRANCH  14  16
ATOM     16  C   UNL A   1      35.823  21.392  24.484  1.00  0.00     0.060 A 
ATOM     17  C   UNL A   1      34.921  22.439  24.219  1.00  0.00    -0.026 A 
ATOM     18  C   UNL A   1      35.287  20.193  25.001  1.00  0.00     0.064 A 
ATOM     19  C   UNL A   1      35.298  23.588  23.321  1.00  0.00     0.046 C 
ATOM     20  C   UNL A   1      33.610  22.379  24.720  1.00  0.00     0.005 A 
ATOM     21  C   UNL A   1      33.990  20.147  25.520  1.00  0.00     0.023 A 
ATOM     22  Cl  UNL A   1      36.162  18.705  24.913  1.00  0.00    -0.082 Cl
ATOM     23  C   UNL A   1      33.167  21.263  25.425  1.00  0.00     0.002 A 
ENDBRANCH  14  16
ENDBRANCH  13  14
ENDBRANCH   6   7
ENDBRANCH   4   6
ENDBRANCH   3   4
ENDBRANCH   2   3
ENDBRANCH   1   2
BRANCH   1  24
ATOM     24  O   UNL A   1      45.080  18.193  25.413  1.00  0.00    -0.374 OA
BRANCH  24  25
ATOM     25  C   UNL A   1      46.108  19.106  25.757  1.00  0.00     0.202 C 
BRANCH  25  26
ATOM     26  C   UNL A   1      46.191  20.215  24.709  1.00  0.00     0.261 C 
BRANCH  26  27
ATOM     27  O   UNL A   1      45.652  21.454  25.220  1.00  0.00    -0.460 OA
BRANCH  27  28
ATOM     28  C   UNL A   1      44.625  21.964  24.488  1.00  0.00     0.338 C 
ATOM     29  O   UNL A   1      44.485  21.803  23.280  1.00  0.00    -0.246 OA
BRANCH  28  30
ATOM     30  C   UNL A   1      43.821  22.910  25.309  1.00  0.00     0.060 A 
ATOM     31  C   UNL A   1      43.196  23.995  24.669  1.00  0.00     0.016 A 
ATOM     32  C   UNL A   1      44.012  22.920  26.689  1.00  0.00     0.016 A 
ATOM     33  C   UNL A   1      42.952  25.173  25.382  1.00  0.00     0.010 A 
ATOM     34  C   UNL A   1      43.894  24.126  27.350  1.00  0.00     0.010 A 
ATOM     35  C   UNL A   1      43.405  25.270  26.695  1.00  0.00    -0.014 A 
BRANCH  35  36
ATOM     36  C   UNL A   1      43.550  26.516  27.449  1.00  0.00     0.031 A 
ATOM     37  C   UNL A   1      42.354  27.337  27.723  1.00  0.00     0.074 A 
ATOM     38  C   UNL A   1      44.697  26.800  28.107  1.00  0.00     0.049 A 
ATOM     39  N   UNL A   1      42.399  28.449  28.366  1.00  0.00    -0.248 NA
ATOM     40  C   UNL A   1      41.011  27.024  27.242  1.00  0.00     0.031 C 
ATOM     41  C   UNL A   1      44.869  27.589  29.332  1.00  0.00     0.029 A 
ATOM     42  N   UNL A   1      45.989  26.403  27.829  1.00  0.00    -0.354 N 
ATOM     43  C   UNL A   1      41.117  28.796  28.690  1.00  0.00     0.074 A 
ATOM     44  C   UNL A   1      40.288  27.967  27.855  1.00  0.00     0.031 C 
ATOM     45  C   UNL A   1      46.178  27.778  29.570  1.00  0.00     0.029 A 
ATOM     46  C   UNL A   1      46.902  27.274  28.421  1.00  0.00     0.049 A 
ATOM     47  H   UNL A   1      46.231  25.617  27.289  1.00  0.00     0.167 HD
ATOM     48  C   UNL A   1      40.944  29.674  29.716  1.00  0.00     0.037 A 
ATOM     49  C   UNL A   1      47.799  27.976  27.669  1.00  0.00     0.037 A 
ATOM     50  C   UNL A   1      42.223  30.306  30.083  1.00  0.00     0.049 A 
ATOM     51  C   UNL A   1      47.372  29.434  27.585  1.00  0.00     0.074 A 
ATOM     52  C   UNL A   1      43.090  30.254  31.161  1.00  0.00     0.029 A 
ATOM     53  N   UNL A   1      42.928  30.953  29.076  1.00  0.00    -0.354 N 
ATOM     54  N   UNL A   1      46.366  29.920  28.262  1.00  0.00    -0.248 NA
ATOM     55  C   UNL A   1      47.971  30.443  26.717  1.00  0.00     0.031 C 
ATOM     56  C   UNL A   1      44.341  30.830  30.747  1.00  0.00     0.029 A 
ATOM     57  C   UNL A   1      44.220  31.275  29.440  1.00  0.00     0.049 A 
ATOM     58  H   UNL A   1      42.546  31.161  28.194  1.00  0.00     0.167 HD
ATOM     59  C   UNL A   1      46.122  31.209  27.916  1.00  0.00     0.074 A 
ATOM     60  C   UNL A   1      47.153  31.494  26.925  1.00  0.00     0.031 C 
ATOM     61  C   UNL A   1      45.088  31.925  28.456  1.00  0.00     0.037 A 
BRANCH  48  62
ATOM     62  C   UNL A   1      39.645  29.902  30.450  1.00  0.00     0.064 A 
ATOM     63  C   UNL A   1      38.952  31.120  30.285  1.00  0.00     0.173 A 
ATOM     64  C   UNL A   1      39.073  29.021  31.395  1.00  0.00     0.173 A 
ATOM     65  F   UNL A   1      39.391  32.055  29.432  1.00  0.00    -0.203 F 
ATOM     66  C   UNL A   1      37.789  31.425  31.003  1.00  0.00     0.198 A 
ATOM     67  C   UNL A   1      37.882  29.304  32.070  1.00  0.00     0.198 A 
ATOM     68  F   UNL A   1      39.666  27.879  31.757  1.00  0.00    -0.203 F 
ATOM     69  F   UNL A   1      37.203  32.618  30.841  1.00  0.00    -0.200 F 
ATOM     70  C   UNL A   1      37.247  30.511  31.885  1.00  0.00     0.200 A 
ATOM     71  F   UNL A   1      37.374  28.403  32.924  1.00  0.00    -0.200 F 
ATOM     72  F   UNL A   1      36.130  30.799  32.566  1.00  0.00    -0.200 F 
ENDBRANCH  48  62
BRANCH  49  73
ATOM     73  C   UNL A   1      48.376  27.090  26.609  1.00  0.00     0.064 A 
ATOM     74  C   UNL A   1      47.864  27.307  25.306  1.00  0.00     0.173 A 
ATOM     75  C   UNL A   1      49.689  26.610  26.714  1.00  0.00     0.173 A 
ATOM     76  F   UNL A   1      46.617  27.778  25.148  1.00  0.00    -0.203 F 
ATOM     77  C   UNL A   1      48.700  27.279  24.191  1.00  0.00     0.198 A 
ATOM     78  C   UNL A   1      50.512  26.553  25.583  1.00  0.00     0.198 A 
ATOM     79  F   UNL A   1      50.239  26.411  27.920  1.00  0.00    -0.203 F 
ATOM     80  F   UNL A   1      48.252  27.738  23.012  1.00  0.00    -0.200 F 
ATOM     81  C   UNL A   1      50.034  26.945  24.340  1.00  0.00     0.200 A 
ATOM     82  F   UNL A   1      51.817  26.278  25.727  1.00  0.00    -0.200 F 
ATOM     83  F   UNL A   1      50.881  27.099  23.311  1.00  0.00    -0.200 F 
ENDBRANCH  49  73
BRANCH  61  84
ATOM     84  C   UNL A   1      44.811  33.337  28.035  1.00  0.00     0.064 A 
ATOM     85  C   UNL A   1      44.134  33.631  26.843  1.00  0.00     0.173 A 
ATOM     86  C   UNL A   1      45.252  34.447  28.787  1.00  0.00     0.173 A 
ATOM     87  F   UNL A   1      43.785  32.655  25.992  1.00  0.00    -0.203 F 
ATOM     88  C   UNL A   1      43.799  34.939  26.498  1.00  0.00     0.198 A 
ATOM     89  C   UNL A   1      44.986  35.755  28.400  1.00  0.00     0.198 A 
ATOM     90  F   UNL A   1      45.917  34.304  29.942  1.00  0.00    -0.203 F 
ATOM     91  F   UNL A   1      43.046  35.165  25.413  1.00  0.00    -0.200 F 
ATOM     92  C   UNL A   1      44.224  36.000  27.277  1.00  0.00     0.200 A 
ATOM     93  F   UNL A   1      45.447  36.773  29.140  1.00  0.00    -0.200 F 
ATOM     94  F   UNL A   1      43.894  37.257  26.950  1.00  0.00    -0.200 F 
ENDBRANCH  61  84
ENDBRANCH  35  36
ENDBRANCH  28  30
ENDBRANCH  27  28
ENDBRANCH  26  27
ENDBRANCH  25  26
ENDBRANCH  24  25
ENDBRANCH   1  24
TORSDOF 17
ENDMDL
