MODEL 1
REMARK VINA RESULT:     -12.8      0.000      0.000
REMARK SMILES O=C(OCCOCCOC(=O)c1ccc(-c2c3nc(c(-c4c(F)c(F)c(F)c(F)c4F)c4ccc([nH]4)c(-c4c(F)c(F)c(F)c(F)c4F)c4nc(c(-c5c(F)c(F)c(F)c(F)c5F)c5ccc2[nH]5)C=C4)C=C3)cc1)c1ccc(/C=C/c2ccc3cccc(O)c3n2)cc1
REMARK SMILES IDX 5 1 4 2 3 3 2 4 1 5 75 6 76 7 93 8 77 9 92 10 78 11 79 12
REMARK SMILES IDX 80 13 81 14 82 15 91 16 83 17 90 18 84 19 88 20 85 21 87 22
REMARK SMILES IDX 86 23 89 24 6 26 7 27 8 28 9 29 10 30 11 31 12 32 13 33
REMARK SMILES IDX 74 34 14 35 73 36 15 37 16 38 17 39 67 40 18 41 72 42 66 43
REMARK SMILES IDX 68 44 19 45 71 46 65 47 64 48 20 50 52 51 32 52 51 53 33 54
REMARK SMILES IDX 36 55 50 56 69 57 34 58 35 59 49 61 70 62 37 63 21 64 22 65
REMARK SMILES IDX 30 66 23 67 24 68 28 69 31 70 25 71 26 72 29 73 27 74 53 75
REMARK SMILES IDX 54 76 62 77 55 78 56 79 60 80 63 81 57 82 58 83 61 84 59 85
REMARK SMILES IDX 38 86 39 87 47 88 40 89 41 90 45 91 48 92 42 93 43 94 46 95
REMARK SMILES IDX 44 96
REMARK H PARENT 89 25 68 49 36 60
REMARK Flexibility Score: inf
ROOT
ATOM      1  C   UNL A   1      40.401  20.658  26.895  1.00  0.00     0.202 C 
ENDROOT
BRANCH   1   2
ATOM      2  C   UNL A   1      39.455  21.596  26.151  1.00  0.00     0.261 C 
BRANCH   2   3
ATOM      3  O   UNL A   1      38.750  20.880  25.130  1.00  0.00    -0.460 OA
BRANCH   3   4
ATOM      4  C   UNL A   1      37.410  20.894  24.948  1.00  0.00     0.338 C 
ATOM      5  O   UNL A   1      36.787  19.836  24.911  1.00  0.00    -0.246 OA
BRANCH   4   6
ATOM      6  C   UNL A   1      36.635  22.157  24.840  1.00  0.00     0.060 A 
ATOM      7  C   UNL A   1      36.087  22.648  23.647  1.00  0.00     0.016 A 
ATOM      8  C   UNL A   1      36.279  22.766  26.041  1.00  0.00     0.016 A 
ATOM      9  C   UNL A   1      35.188  23.721  23.641  1.00  0.00     0.009 A 
ATOM     10  C   UNL A   1      35.371  23.826  26.039  1.00  0.00     0.009 A 
ATOM     11  C   UNL A   1      34.802  24.299  24.841  1.00  0.00    -0.026 A 
BRANCH  11  12
ATOM     12  C   UNL A   1      33.825  25.383  24.945  1.00  0.00     0.010 C 
ATOM     13  C   UNL A   1      33.864  26.469  25.748  1.00  0.00     0.029 C 
BRANCH  13  14
ATOM     14  C   UNL A   1      32.520  26.933  26.226  1.00  0.00     0.064 A 
ATOM     15  C   UNL A   1      31.624  25.874  26.131  1.00  0.00     0.029 A 
ATOM     16  N   UNL A   1      32.176  28.194  25.865  1.00  0.00    -0.245 NA
ATOM     17  C   UNL A   1      30.660  25.976  25.135  1.00  0.00     0.013 A 
ATOM     18  C   UNL A   1      31.162  28.317  24.981  1.00  0.00     0.113 A 
ATOM     19  C   UNL A   1      30.489  27.195  24.467  1.00  0.00     0.004 A 
ATOM     20  C   UNL A   1      30.816  29.563  24.468  1.00  0.00     0.141 A 
ATOM     21  C   UNL A   1      29.707  27.313  23.306  1.00  0.00     0.010 A 
ATOM     22  C   UNL A   1      29.980  29.705  23.363  1.00  0.00     0.048 A 
ATOM     23  C   UNL A   1      29.479  28.566  22.741  1.00  0.00     0.005 A 
BRANCH  20  24
ATOM     24  O   UNL A   1      31.323  30.699  25.048  1.00  0.00    -0.506 OA
ATOM     25  H   UNL A   1      30.893  31.080  25.788  1.00  0.00     0.293 HD
ENDBRANCH  20  24
ENDBRANCH  13  14
ENDBRANCH  11  12
ENDBRANCH   4   6
ENDBRANCH   3   4
ENDBRANCH   2   3
ENDBRANCH   1   2
BRANCH   1  26
ATOM     26  O   UNL A   1      41.739  21.133  26.979  1.00  0.00    -0.374 OA
BRANCH  26  27
ATOM     27  C   UNL A   1      42.695  20.501  26.116  1.00  0.00     0.202 C 
BRANCH  27  28
ATOM     28  C   UNL A   1      43.527  21.587  25.430  1.00  0.00     0.261 C 
BRANCH  28  29
ATOM     29  O   UNL A   1      42.751  22.791  25.408  1.00  0.00    -0.460 OA
BRANCH  29  30
ATOM     30  C   UNL A   1      43.478  23.926  25.225  1.00  0.00     0.338 C 
ATOM     31  O   UNL A   1      44.285  24.159  24.353  1.00  0.00    -0.246 OA
BRANCH  30  32
ATOM     32  C   UNL A   1      42.935  24.941  26.158  1.00  0.00     0.060 A 
ATOM     33  C   UNL A   1      43.345  26.275  26.013  1.00  0.00     0.016 A 
ATOM     34  C   UNL A   1      41.982  24.595  27.121  1.00  0.00     0.016 A 
ATOM     35  C   UNL A   1      42.825  27.261  26.851  1.00  0.00     0.010 A 
ATOM     36  C   UNL A   1      41.461  25.576  27.955  1.00  0.00     0.010 A 
ATOM     37  C   UNL A   1      41.907  26.903  27.846  1.00  0.00    -0.014 A 
BRANCH  37  38
ATOM     38  C   UNL A   1      41.540  27.844  28.922  1.00  0.00     0.031 A 
ATOM     39  C   UNL A   1      42.305  27.756  30.209  1.00  0.00     0.074 A 
ATOM     40  C   UNL A   1      40.498  28.680  28.782  1.00  0.00     0.049 A 
ATOM     41  N   UNL A   1      42.070  28.331  31.359  1.00  0.00    -0.248 NA
ATOM     42  C   UNL A   1      43.487  26.874  30.205  1.00  0.00     0.031 C 
ATOM     43  C   UNL A   1      39.700  28.841  27.569  1.00  0.00     0.029 A 
ATOM     44  N   UNL A   1      39.910  29.523  29.690  1.00  0.00    -0.354 N 
ATOM     45  C   UNL A   1      43.057  27.863  32.216  1.00  0.00     0.074 A 
ATOM     46  C   UNL A   1      43.878  26.938  31.468  1.00  0.00     0.031 C 
ATOM     47  C   UNL A   1      38.704  29.709  27.816  1.00  0.00     0.029 A 
ATOM     48  C   UNL A   1      38.774  30.129  29.215  1.00  0.00     0.049 A 
ATOM     49  H   UNL A   1      40.268  29.678  30.594  1.00  0.00     0.167 HD
ATOM     50  C   UNL A   1      43.255  28.184  33.515  1.00  0.00     0.037 A 
ATOM     51  C   UNL A   1      37.876  30.901  29.857  1.00  0.00     0.037 A 
ATOM     52  C   UNL A   1      42.429  29.110  34.239  1.00  0.00     0.049 A 
ATOM     53  C   UNL A   1      38.094  31.205  31.319  1.00  0.00     0.074 A 
ATOM     54  C   UNL A   1      42.569  29.557  35.540  1.00  0.00     0.029 A 
ATOM     55  N   UNL A   1      41.295  29.720  33.722  1.00  0.00    -0.354 N 
ATOM     56  N   UNL A   1      39.063  30.815  32.112  1.00  0.00    -0.248 NA
ATOM     57  C   UNL A   1      37.092  32.057  31.977  1.00  0.00     0.031 C 
ATOM     58  C   UNL A   1      41.484  30.387  35.831  1.00  0.00     0.029 A 
ATOM     59  C   UNL A   1      40.704  30.510  34.691  1.00  0.00     0.049 A 
ATOM     60  H   UNL A   1      40.962  29.609  32.803  1.00  0.00     0.167 HD
ATOM     61  C   UNL A   1      38.805  31.391  33.349  1.00  0.00     0.074 A 
ATOM     62  C   UNL A   1      37.595  32.171  33.198  1.00  0.00     0.031 C 
ATOM     63  C   UNL A   1      39.502  31.285  34.507  1.00  0.00     0.037 A 
BRANCH  50  64
ATOM     64  C   UNL A   1      44.385  27.511  34.238  1.00  0.00     0.064 A 
ATOM     65  C   UNL A   1      45.679  28.052  34.258  1.00  0.00     0.173 A 
ATOM     66  C   UNL A   1      44.158  26.325  34.954  1.00  0.00     0.173 A 
ATOM     67  F   UNL A   1      45.954  29.173  33.575  1.00  0.00    -0.203 F 
ATOM     68  C   UNL A   1      46.710  27.418  34.949  1.00  0.00     0.198 A 
ATOM     69  C   UNL A   1      45.183  25.712  35.670  1.00  0.00     0.198 A 
ATOM     70  F   UNL A   1      42.939  25.766  34.967  1.00  0.00    -0.203 F 
ATOM     71  F   UNL A   1      47.949  27.927  34.915  1.00  0.00    -0.200 F 
ATOM     72  C   UNL A   1      46.458  26.254  35.662  1.00  0.00     0.200 A 
ATOM     73  F   UNL A   1      44.934  24.596  36.367  1.00  0.00    -0.200 F 
ATOM     74  F   UNL A   1      47.448  25.654  36.337  1.00  0.00    -0.200 F 
ENDBRANCH  50  64
BRANCH  51  75
ATOM     75  C   UNL A   1      36.682  31.421  29.137  1.00  0.00     0.064 A 
ATOM     76  C   UNL A   1      36.587  32.772  28.779  1.00  0.00     0.173 A 
ATOM     77  C   UNL A   1      35.604  30.584  28.812  1.00  0.00     0.173 A 
ATOM     78  F   UNL A   1      37.581  33.618  29.086  1.00  0.00    -0.203 F 
ATOM     79  C   UNL A   1      35.450  33.272  28.146  1.00  0.00     0.198 A 
ATOM     80  C   UNL A   1      34.481  31.079  28.149  1.00  0.00     0.198 A 
ATOM     81  F   UNL A   1      35.643  29.282  29.130  1.00  0.00    -0.203 F 
ATOM     82  F   UNL A   1      35.364  34.579  27.863  1.00  0.00    -0.200 F 
ATOM     83  C   UNL A   1      34.400  32.424  27.826  1.00  0.00     0.200 A 
ATOM     84  F   UNL A   1      33.476  30.251  27.830  1.00  0.00    -0.200 F 
ATOM     85  F   UNL A   1      33.309  32.904  27.216  1.00  0.00    -0.200 F 
ENDBRANCH  51  75
BRANCH  63  86
ATOM     86  C   UNL A   1      38.996  32.056  35.693  1.00  0.00     0.064 A 
ATOM     87  C   UNL A   1      38.211  31.451  36.684  1.00  0.00     0.173 A 
ATOM     88  C   UNL A   1      39.364  33.399  35.872  1.00  0.00     0.173 A 
ATOM     89  F   UNL A   1      37.823  30.174  36.550  1.00  0.00    -0.203 F 
ATOM     90  C   UNL A   1      37.798  32.167  37.803  1.00  0.00     0.198 A 
ATOM     91  C   UNL A   1      38.978  34.101  37.009  1.00  0.00     0.198 A 
ATOM     92  F   UNL A   1      40.122  34.021  34.957  1.00  0.00    -0.203 F 
ATOM     93  F   UNL A   1      37.013  31.581  38.718  1.00  0.00    -0.200 F 
ATOM     94  C   UNL A   1      38.189  33.487  37.970  1.00  0.00     0.200 A 
ATOM     95  F   UNL A   1      39.374  35.371  37.177  1.00  0.00    -0.200 F 
ATOM     96  F   UNL A   1      37.806  34.169  39.058  1.00  0.00    -0.200 F 
ENDBRANCH  63  86
ENDBRANCH  37  38
ENDBRANCH  30  32
ENDBRANCH  29  30
ENDBRANCH  28  29
ENDBRANCH  27  28
ENDBRANCH  26  27
ENDBRANCH   1  26
TORSDOF 17
ENDMDL
MODEL 2
REMARK VINA RESULT:     -12.6      4.912     11.644
REMARK SMILES O=C(OCCOCCOC(=O)c1ccc(-c2c3nc(c(-c4c(F)c(F)c(F)c(F)c4F)c4ccc([nH]4)c(-c4c(F)c(F)c(F)c(F)c4F)c4nc(c(-c5c(F)c(F)c(F)c(F)c5F)c5ccc2[nH]5)C=C4)C=C3)cc1)c1ccc(/C=C/c2ccc3cccc(O)c3n2)cc1
REMARK SMILES IDX 5 1 4 2 3 3 2 4 1 5 75 6 76 7 93 8 77 9 92 10 78 11 79 12
REMARK SMILES IDX 80 13 81 14 82 15 91 16 83 17 90 18 84 19 88 20 85 21 87 22
REMARK SMILES IDX 86 23 89 24 6 26 7 27 8 28 9 29 10 30 11 31 12 32 13 33
REMARK SMILES IDX 74 34 14 35 73 36 15 37 16 38 17 39 67 40 18 41 72 42 66 43
REMARK SMILES IDX 68 44 19 45 71 46 65 47 64 48 20 50 52 51 32 52 51 53 33 54
REMARK SMILES IDX 36 55 50 56 69 57 34 58 35 59 49 61 70 62 37 63 21 64 22 65
REMARK SMILES IDX 30 66 23 67 24 68 28 69 31 70 25 71 26 72 29 73 27 74 53 75
REMARK SMILES IDX 54 76 62 77 55 78 56 79 60 80 63 81 57 82 58 83 61 84 59 85
REMARK SMILES IDX 38 86 39 87 47 88 40 89 41 90 45 91 48 92 42 93 43 94 46 95
REMARK SMILES IDX 44 96
REMARK H PARENT 89 25 68 49 36 60
REMARK Flexibility Score: inf
ROOT
ATOM      1  C   UNL A   1      34.594  34.661  31.669  1.00  0.00     0.202 C 
ENDROOT
BRANCH   1   2
ATOM      2  C   UNL A   1      35.851  34.466  32.512  1.00  0.00     0.261 C 
BRANCH   2   3
ATOM      3  O   UNL A   1      35.868  33.149  33.078  1.00  0.00    -0.460 OA
BRANCH   3   4
ATOM      4  C   UNL A   1      36.549  32.784  34.186  1.00  0.00     0.338 C 
ATOM      5  O   UNL A   1      36.297  33.319  35.263  1.00  0.00    -0.246 OA
BRANCH   4   6
ATOM      6  C   UNL A   1      37.575  31.709  34.171  1.00  0.00     0.060 A 
ATOM      7  C   UNL A   1      37.494  30.551  33.387  1.00  0.00     0.016 A 
ATOM      8  C   UNL A   1      38.769  31.989  34.831  1.00  0.00     0.016 A 
ATOM      9  C   UNL A   1      38.583  29.683  33.247  1.00  0.00     0.009 A 
ATOM     10  C   UNL A   1      39.862  31.133  34.680  1.00  0.00     0.009 A 
ATOM     11  C   UNL A   1      39.784  29.984  33.870  1.00  0.00    -0.026 A 
BRANCH  11  12
ATOM     12  C   UNL A   1      40.996  29.174  33.738  1.00  0.00     0.010 C 
ATOM     13  C   UNL A   1      41.154  27.858  34.000  1.00  0.00     0.029 C 
BRANCH  13  14
ATOM     14  C   UNL A   1      42.507  27.491  34.532  1.00  0.00     0.064 A 
ATOM     15  C   UNL A   1      43.475  27.977  33.660  1.00  0.00     0.029 A 
ATOM     16  N   UNL A   1      42.601  26.257  35.088  1.00  0.00    -0.245 NA
ATOM     17  C   UNL A   1      44.153  27.026  32.908  1.00  0.00     0.013 A 
ATOM     18  C   UNL A   1      43.352  25.350  34.426  1.00  0.00     0.113 A 
ATOM     19  C   UNL A   1      44.013  25.670  33.226  1.00  0.00     0.004 A 
ATOM     20  C   UNL A   1      43.413  24.029  34.860  1.00  0.00     0.141 A 
ATOM     21  C   UNL A   1      44.474  24.646  32.382  1.00  0.00     0.010 A 
ATOM     22  C   UNL A   1      43.937  23.012  34.067  1.00  0.00     0.048 A 
ATOM     23  C   UNL A   1      44.408  23.316  32.794  1.00  0.00     0.005 A 
BRANCH  20  24
ATOM     24  O   UNL A   1      42.927  23.700  36.100  1.00  0.00    -0.506 OA
ATOM     25  H   UNL A   1      43.518  23.568  36.816  1.00  0.00     0.293 HD
ENDBRANCH  20  24
ENDBRANCH  13  14
ENDBRANCH  11  12
ENDBRANCH   4   6
ENDBRANCH   3   4
ENDBRANCH   2   3
ENDBRANCH   1   2
BRANCH   1  26
ATOM     26  O   UNL A   1      34.487  33.761  30.573  1.00  0.00    -0.374 OA
BRANCH  26  27
ATOM     27  C   UNL A   1      34.492  34.348  29.264  1.00  0.00     0.202 C 
BRANCH  27  28
ATOM     28  C   UNL A   1      34.056  33.287  28.250  1.00  0.00     0.261 C 
BRANCH  28  29
ATOM     29  O   UNL A   1      34.209  32.001  28.863  1.00  0.00    -0.460 OA
BRANCH  29  30
ATOM     30  C   UNL A   1      34.394  30.978  27.986  1.00  0.00     0.338 C 
ATOM     31  O   UNL A   1      33.718  30.695  27.021  1.00  0.00    -0.246 OA
BRANCH  30  32
ATOM     32  C   UNL A   1      35.721  30.390  28.282  1.00  0.00     0.060 A 
ATOM     33  C   UNL A   1      35.933  29.806  29.540  1.00  0.00     0.016 A 
ATOM     34  C   UNL A   1      36.724  30.353  27.308  1.00  0.00     0.016 A 
ATOM     35  C   UNL A   1      37.159  29.212  29.838  1.00  0.00     0.010 A 
ATOM     36  C   UNL A   1      37.945  29.759  27.601  1.00  0.00     0.010 A 
ATOM     37  C   UNL A   1      38.177  29.219  28.877  1.00  0.00    -0.014 A 
BRANCH  37  38
ATOM     38  C   UNL A   1      39.563  28.855  29.229  1.00  0.00     0.031 A 
ATOM     39  C   UNL A   1      40.401  29.898  29.908  1.00  0.00     0.074 A 
ATOM     40  C   UNL A   1      40.078  27.669  28.868  1.00  0.00     0.049 A 
ATOM     41  N   UNL A   1      41.683  29.902  30.159  1.00  0.00    -0.248 NA
ATOM     42  C   UNL A   1      39.697  31.117  30.343  1.00  0.00     0.031 C 
ATOM     43  C   UNL A   1      39.341  26.591  28.211  1.00  0.00     0.029 A 
ATOM     44  N   UNL A   1      41.359  27.190  28.970  1.00  0.00    -0.354 N 
ATOM     45  C   UNL A   1      41.941  31.129  30.756  1.00  0.00     0.074 A 
ATOM     46  C   UNL A   1      40.693  31.855  30.808  1.00  0.00     0.031 C 
ATOM     47  C   UNL A   1      40.190  25.585  27.940  1.00  0.00     0.029 A 
ATOM     48  C   UNL A   1      41.535  25.969  28.367  1.00  0.00     0.049 A 
ATOM     49  H   UNL A   1      42.082  27.675  29.430  1.00  0.00     0.167 HD
ATOM     50  C   UNL A   1      43.121  31.601  31.219  1.00  0.00     0.037 A 
ATOM     51  C   UNL A   1      42.666  25.268  28.155  1.00  0.00     0.037 A 
ATOM     52  C   UNL A   1      44.350  30.859  31.161  1.00  0.00     0.049 A 
ATOM     53  C   UNL A   1      43.976  25.839  28.638  1.00  0.00     0.074 A 
ATOM     54  C   UNL A   1      45.593  31.211  31.652  1.00  0.00     0.029 A 
ATOM     55  N   UNL A   1      44.490  29.616  30.560  1.00  0.00    -0.354 N 
ATOM     56  N   UNL A   1      44.208  26.969  29.261  1.00  0.00    -0.248 NA
ATOM     57  C   UNL A   1      45.182  25.036  28.390  1.00  0.00     0.031 C 
ATOM     58  C   UNL A   1      46.500  30.210  31.291  1.00  0.00     0.029 A 
ATOM     59  C   UNL A   1      45.808  29.204  30.633  1.00  0.00     0.049 A 
ATOM     60  H   UNL A   1      43.759  29.104  30.144  1.00  0.00     0.167 HD
ATOM     61  C   UNL A   1      45.576  27.003  29.501  1.00  0.00     0.074 A 
ATOM     62  C   UNL A   1      46.120  25.771  28.971  1.00  0.00     0.031 C 
ATOM     63  C   UNL A   1      46.318  27.964  30.103  1.00  0.00     0.037 A 
BRANCH  50  64
ATOM     64  C   UNL A   1      43.142  32.985  31.799  1.00  0.00     0.064 A 
ATOM     65  C   UNL A   1      43.282  34.124  30.994  1.00  0.00     0.173 A 
ATOM     66  C   UNL A   1      42.984  33.172  33.181  1.00  0.00     0.173 A 
ATOM     67  F   UNL A   1      43.456  33.999  29.669  1.00  0.00    -0.203 F 
ATOM     68  C   UNL A   1      43.284  35.400  31.553  1.00  0.00     0.198 A 
ATOM     69  C   UNL A   1      42.954  34.451  33.732  1.00  0.00     0.198 A 
ATOM     70  F   UNL A   1      42.847  32.116  33.996  1.00  0.00    -0.203 F 
ATOM     71  F   UNL A   1      43.466  36.472  30.770  1.00  0.00    -0.200 F 
ATOM     72  C   UNL A   1      43.111  35.563  32.920  1.00  0.00     0.200 A 
ATOM     73  F   UNL A   1      42.774  34.605  35.051  1.00  0.00    -0.200 F 
ATOM     74  F   UNL A   1      43.100  36.791  33.454  1.00  0.00    -0.200 F 
ENDBRANCH  50  64
BRANCH  51  75
ATOM     75  C   UNL A   1      42.617  23.967  27.434  1.00  0.00     0.064 A 
ATOM     76  C   UNL A   1      42.265  22.785  28.099  1.00  0.00     0.173 A 
ATOM     77  C   UNL A   1      42.943  23.875  26.072  1.00  0.00     0.173 A 
ATOM     78  F   UNL A   1      41.966  22.817  29.407  1.00  0.00    -0.203 F 
ATOM     79  C   UNL A   1      42.263  21.558  27.439  1.00  0.00     0.198 A 
ATOM     80  C   UNL A   1      42.909  22.651  25.404  1.00  0.00     0.198 A 
ATOM     81  F   UNL A   1      43.285  24.974  25.385  1.00  0.00    -0.203 F 
ATOM     82  F   UNL A   1      41.974  20.437  28.114  1.00  0.00    -0.200 F 
ATOM     83  C   UNL A   1      42.580  21.492  26.090  1.00  0.00     0.200 A 
ATOM     84  F   UNL A   1      43.201  22.595  24.097  1.00  0.00    -0.200 F 
ATOM     85  F   UNL A   1      42.576  20.313  25.455  1.00  0.00    -0.200 F 
ENDBRANCH  51  75
BRANCH  63  86
ATOM     86  C   UNL A   1      47.791  27.710  30.254  1.00  0.00     0.064 A 
ATOM     87  C   UNL A   1      48.302  26.955  31.319  1.00  0.00     0.173 A 
ATOM     88  C   UNL A   1      48.691  28.169  29.280  1.00  0.00     0.173 A 
ATOM     89  F   UNL A   1      47.483  26.506  32.282  1.00  0.00    -0.203 F 
ATOM     90  C   UNL A   1      49.664  26.684  31.411  1.00  0.00     0.198 A 
ATOM     91  C   UNL A   1      50.046  27.867  29.357  1.00  0.00     0.198 A 
ATOM     92  F   UNL A   1      48.250  28.888  28.236  1.00  0.00    -0.203 F 
ATOM     93  F   UNL A   1      50.137  25.995  32.459  1.00  0.00    -0.200 F 
ATOM     94  C   UNL A   1      50.533  27.130  30.426  1.00  0.00     0.200 A 
ATOM     95  F   UNL A   1      50.881  28.282  28.394  1.00  0.00    -0.200 F 
ATOM     96  F   UNL A   1      51.841  26.852  30.508  1.00  0.00    -0.200 F 
ENDBRANCH  63  86
ENDBRANCH  37  38
ENDBRANCH  30  32
ENDBRANCH  29  30
ENDBRANCH  28  29
ENDBRANCH  27  28
ENDBRANCH  26  27
ENDBRANCH   1  26
TORSDOF 17
ENDMDL
MODEL 3
REMARK VINA RESULT:     -12.5      0.504      1.638
REMARK SMILES O=C(OCCOCCOC(=O)c1ccc(-c2c3nc(c(-c4c(F)c(F)c(F)c(F)c4F)c4ccc([nH]4)c(-c4c(F)c(F)c(F)c(F)c4F)c4nc(c(-c5c(F)c(F)c(F)c(F)c5F)c5ccc2[nH]5)C=C4)C=C3)cc1)c1ccc(/C=C/c2ccc3cccc(O)c3n2)cc1
REMARK SMILES IDX 5 1 4 2 3 3 2 4 1 5 75 6 76 7 93 8 77 9 92 10 78 11 79 12
REMARK SMILES IDX 80 13 81 14 82 15 91 16 83 17 90 18 84 19 88 20 85 21 87 22
REMARK SMILES IDX 86 23 89 24 6 26 7 27 8 28 9 29 10 30 11 31 12 32 13 33
REMARK SMILES IDX 74 34 14 35 73 36 15 37 16 38 17 39 67 40 18 41 72 42 66 43
REMARK SMILES IDX 68 44 19 45 71 46 65 47 64 48 20 50 52 51 32 52 51 53 33 54
REMARK SMILES IDX 36 55 50 56 69 57 34 58 35 59 49 61 70 62 37 63 21 64 22 65
REMARK SMILES IDX 30 66 23 67 24 68 28 69 31 70 25 71 26 72 29 73 27 74 53 75
REMARK SMILES IDX 54 76 62 77 55 78 56 79 60 80 63 81 57 82 58 83 61 84 59 85
REMARK SMILES IDX 38 86 39 87 47 88 40 89 41 90 45 91 48 92 42 93 43 94 46 95
REMARK SMILES IDX 44 96
REMARK H PARENT 89 25 68 49 36 60
REMARK Flexibility Score: inf
ROOT
ATOM      1  C   UNL A   1      40.734  19.953  26.376  1.00  0.00     0.202 C 
ENDROOT
BRANCH   1   2
ATOM      2  C   UNL A   1      39.522  20.820  26.046  1.00  0.00     0.261 C 
BRANCH   2   3
ATOM      3  O   UNL A   1      38.706  20.174  25.060  1.00  0.00    -0.460 OA
BRANCH   3   4
ATOM      4  C   UNL A   1      37.357  20.232  25.002  1.00  0.00     0.338 C 
ATOM      5  O   UNL A   1      36.704  19.196  24.904  1.00  0.00    -0.246 OA
BRANCH   4   6
ATOM      6  C   UNL A   1      36.612  21.514  25.102  1.00  0.00     0.060 A 
ATOM      7  C   UNL A   1      36.822  22.618  24.265  1.00  0.00     0.016 A 
ATOM      8  C   UNL A   1      35.511  21.520  25.955  1.00  0.00     0.016 A 
ATOM      9  C   UNL A   1      35.949  23.711  24.262  1.00  0.00     0.009 A 
ATOM     10  C   UNL A   1      34.630  22.603  25.942  1.00  0.00     0.009 A 
ATOM     11  C   UNL A   1      34.831  23.698  25.081  1.00  0.00    -0.026 A 
BRANCH  11  12
ATOM     12  C   UNL A   1      33.828  24.764  25.107  1.00  0.00     0.010 C 
ATOM     13  C   UNL A   1      33.980  26.045  25.508  1.00  0.00     0.029 C 
BRANCH  13  14
ATOM     14  C   UNL A   1      32.767  26.638  26.159  1.00  0.00     0.064 A 
ATOM     15  C   UNL A   1      31.784  25.657  26.246  1.00  0.00     0.029 A 
ATOM     16  N   UNL A   1      32.473  27.912  25.796  1.00  0.00    -0.245 NA
ATOM     17  C   UNL A   1      30.692  25.809  25.402  1.00  0.00     0.013 A 
ATOM     18  C   UNL A   1      31.349  28.092  25.068  1.00  0.00     0.113 A 
ATOM     19  C   UNL A   1      30.519  27.015  24.712  1.00  0.00     0.004 A 
ATOM     20  C   UNL A   1      31.030  29.346  24.556  1.00  0.00     0.141 A 
ATOM     21  C   UNL A   1      29.581  27.161  23.676  1.00  0.00     0.010 A 
ATOM     22  C   UNL A   1      30.050  29.521  23.582  1.00  0.00     0.048 A 
ATOM     23  C   UNL A   1      29.371  28.410  23.094  1.00  0.00     0.005 A 
BRANCH  20  24
ATOM     24  O   UNL A   1      31.708  30.452  25.002  1.00  0.00    -0.506 OA
ATOM     25  H   UNL A   1      32.636  30.413  25.131  1.00  0.00     0.293 HD
ENDBRANCH  20  24
ENDBRANCH  13  14
ENDBRANCH  11  12
ENDBRANCH   4   6
ENDBRANCH   3   4
ENDBRANCH   2   3
ENDBRANCH   1   2
BRANCH   1  26
ATOM     26  O   UNL A   1      41.752  19.981  25.383  1.00  0.00    -0.374 OA
BRANCH  26  27
ATOM     27  C   UNL A   1      43.100  19.827  25.848  1.00  0.00     0.202 C 
BRANCH  27  28
ATOM     28  C   UNL A   1      43.846  21.146  25.636  1.00  0.00     0.261 C 
BRANCH  28  29
ATOM     29  O   UNL A   1      42.975  22.214  26.029  1.00  0.00    -0.460 OA
BRANCH  29  30
ATOM     30  C   UNL A   1      43.210  23.395  25.398  1.00  0.00     0.338 C 
ATOM     31  O   UNL A   1      43.561  23.567  24.251  1.00  0.00    -0.246 OA
BRANCH  30  32
ATOM     32  C   UNL A   1      42.733  24.470  26.299  1.00  0.00     0.060 A 
ATOM     33  C   UNL A   1      43.270  25.757  26.153  1.00  0.00     0.016 A 
ATOM     34  C   UNL A   1      41.720  24.228  27.232  1.00  0.00     0.016 A 
ATOM     35  C   UNL A   1      42.816  26.799  26.961  1.00  0.00     0.010 A 
ATOM     36  C   UNL A   1      41.265  25.264  28.036  1.00  0.00     0.010 A 
ATOM     37  C   UNL A   1      41.836  26.542  27.927  1.00  0.00    -0.014 A 
BRANCH  37  38
ATOM     38  C   UNL A   1      41.521  27.530  28.979  1.00  0.00     0.031 A 
ATOM     39  C   UNL A   1      42.305  27.453  30.255  1.00  0.00     0.074 A 
ATOM     40  C   UNL A   1      40.509  28.398  28.829  1.00  0.00     0.049 A 
ATOM     41  N   UNL A   1      42.111  28.072  31.390  1.00  0.00    -0.248 NA
ATOM     42  C   UNL A   1      43.454  26.530  30.260  1.00  0.00     0.031 C 
ATOM     43  C   UNL A   1      39.696  28.551  27.624  1.00  0.00     0.029 A 
ATOM     44  N   UNL A   1      39.967  29.291  29.719  1.00  0.00    -0.354 N 
ATOM     45  C   UNL A   1      43.096  27.595  32.245  1.00  0.00     0.074 A 
ATOM     46  C   UNL A   1      43.869  26.618  31.514  1.00  0.00     0.031 C 
ATOM     47  C   UNL A   1      38.736  29.462  27.860  1.00  0.00     0.029 A 
ATOM     48  C   UNL A   1      38.845  29.923  29.243  1.00  0.00     0.049 A 
ATOM     49  H   UNL A   1      40.346  29.461  30.612  1.00  0.00     0.167 HD
ATOM     50  C   UNL A   1      43.328  27.948  33.530  1.00  0.00     0.037 A 
ATOM     51  C   UNL A   1      37.987  30.747  29.876  1.00  0.00     0.037 A 
ATOM     52  C   UNL A   1      42.548  28.927  34.238  1.00  0.00     0.049 A 
ATOM     53  C   UNL A   1      38.241  31.088  31.323  1.00  0.00     0.074 A 
ATOM     54  C   UNL A   1      42.727  29.408  35.521  1.00  0.00     0.029 A 
ATOM     55  N   UNL A   1      41.428  29.562  33.720  1.00  0.00    -0.354 N 
ATOM     56  N   UNL A   1      39.210  30.687  32.112  1.00  0.00    -0.248 NA
ATOM     57  C   UNL A   1      37.283  31.996  31.970  1.00  0.00     0.031 C 
ATOM     58  C   UNL A   1      41.677  30.287  35.804  1.00  0.00     0.029 A 
ATOM     59  C   UNL A   1      40.882  30.403  34.673  1.00  0.00     0.049 A 
ATOM     60  H   UNL A   1      41.075  29.434  32.810  1.00  0.00     0.167 HD
ATOM     61  C   UNL A   1      38.994  31.311  33.334  1.00  0.00     0.074 A 
ATOM     62  C   UNL A   1      37.810  32.130  33.179  1.00  0.00     0.031 C 
ATOM     63  C   UNL A   1      39.706  31.215  34.484  1.00  0.00     0.037 A 
BRANCH  50  64
ATOM     64  C   UNL A   1      44.445  27.258  34.256  1.00  0.00     0.064 A 
ATOM     65  C   UNL A   1      44.265  26.017  34.884  1.00  0.00     0.173 A 
ATOM     66  C   UNL A   1      45.724  27.833  34.291  1.00  0.00     0.173 A 
ATOM     67  F   UNL A   1      43.057  25.433  34.896  1.00  0.00    -0.203 F 
ATOM     68  C   UNL A   1      45.321  25.386  35.539  1.00  0.00     0.198 A 
ATOM     69  C   UNL A   1      46.785  27.185  34.919  1.00  0.00     0.198 A 
ATOM     70  F   UNL A   1      45.950  29.019  33.708  1.00  0.00    -0.203 F 
ATOM     71  F   UNL A   1      45.116  24.223  36.171  1.00  0.00    -0.200 F 
ATOM     72  C   UNL A   1      46.582  25.966  35.547  1.00  0.00     0.200 A 
ATOM     73  F   UNL A   1      48.003  27.741  34.915  1.00  0.00    -0.200 F 
ATOM     74  F   UNL A   1      47.599  25.352  36.167  1.00  0.00    -0.200 F 
ENDBRANCH  50  64
BRANCH  51  75
ATOM     75  C   UNL A   1      36.801  31.288  29.159  1.00  0.00     0.064 A 
ATOM     76  C   UNL A   1      36.746  32.631  28.764  1.00  0.00     0.173 A 
ATOM     77  C   UNL A   1      35.689  30.480  28.874  1.00  0.00     0.173 A 
ATOM     78  F   UNL A   1      37.774  33.450  29.032  1.00  0.00    -0.203 F 
ATOM     79  C   UNL A   1      35.618  33.152  28.134  1.00  0.00     0.198 A 
ATOM     80  C   UNL A   1      34.574  30.995  28.214  1.00  0.00     0.198 A 
ATOM     81  F   UNL A   1      35.689  29.187  29.228  1.00  0.00    -0.203 F 
ATOM     82  F   UNL A   1      35.572  34.453  27.815  1.00  0.00    -0.200 F 
ATOM     83  C   UNL A   1      34.535  32.333  27.854  1.00  0.00     0.200 A 
ATOM     84  F   UNL A   1      33.536  30.194  27.933  1.00  0.00    -0.200 F 
ATOM     85  F   UNL A   1      33.451  32.833  27.246  1.00  0.00    -0.200 F 
ENDBRANCH  51  75
BRANCH  63  86
ATOM     86  C   UNL A   1      39.250  32.041  35.653  1.00  0.00     0.064 A 
ATOM     87  C   UNL A   1      39.646  33.376  35.810  1.00  0.00     0.173 A 
ATOM     88  C   UNL A   1      38.347  31.507  36.585  1.00  0.00     0.173 A 
ATOM     89  F   UNL A   1      40.518  33.926  34.953  1.00  0.00    -0.203 F 
ATOM     90  C   UNL A   1      39.169  34.142  36.870  1.00  0.00     0.198 A 
ATOM     91  C   UNL A   1      37.845  32.285  37.623  1.00  0.00     0.198 A 
ATOM     92  F   UNL A   1      37.929  30.237  36.473  1.00  0.00    -0.203 F 
ATOM     93  F   UNL A   1      39.593  35.403  37.025  1.00  0.00    -0.200 F 
ATOM     94  C   UNL A   1      38.261  33.600  37.769  1.00  0.00     0.200 A 
ATOM     95  F   UNL A   1      36.953  31.766  38.478  1.00  0.00    -0.200 F 
ATOM     96  F   UNL A   1      37.789  34.345  38.777  1.00  0.00    -0.200 F 
ENDBRANCH  63  86
ENDBRANCH  37  38
ENDBRANCH  30  32
ENDBRANCH  29  30
ENDBRANCH  28  29
ENDBRANCH  27  28
ENDBRANCH  26  27
ENDBRANCH   1  26
TORSDOF 17
ENDMDL
