MODEL 1
REMARK VINA RESULT:     -12.1      0.000      0.000
REMARK SMILES COc1ccc(-c2nc(SCC(=O)OCCOCCOC(=O)c3ccc(-c4c5nc(c(-c6c(F)c(F)c(F)c(F)c6F)c6ccc([nH]6)c(-c6c(F)c(F)c(F)c(F)c6F)c6nc(c(-c7c(F)c(F)c(F)c(F)c7F)c7ccc4[nH]7)C=C6)C=C5)cc3)cc(-c3ccncc3)n2)cc1
REMARK SMILES IDX 16 1 15 2 14 3 12 4 13 5 11 6 10 7 9 8 7 9 8 10 94 11 87 12
REMARK SMILES IDX 86 13 6 14 3 15 4 16 96 17 5 18 95 19 2 20 1 21 88 22 89 23
REMARK SMILES IDX 93 24 90 25 92 26 91 27 17 28 18 29 19 30 20 31 21 32 22 33
REMARK SMILES IDX 23 34 24 35 85 36 25 37 84 38 26 39 27 40 28 41 78 42 29 43
REMARK SMILES IDX 83 44 77 45 79 46 30 47 82 48 76 49 75 50 31 52 63 53 43 54
REMARK SMILES IDX 62 55 44 56 47 57 61 58 80 59 45 60 46 61 60 63 81 64 48 65
REMARK SMILES IDX 32 66 33 67 41 68 34 69 35 70 39 71 42 72 36 73 37 74 40 75
REMARK SMILES IDX 38 76 64 77 65 78 73 79 66 80 67 81 71 82 74 83 68 84 69 85
REMARK SMILES IDX 72 86 70 87 49 88 50 89 58 90 51 91 52 92 56 93 59 94 53 95
REMARK SMILES IDX 54 96 57 97 55 98
REMARK H PARENT 79 51 47 62
REMARK Flexibility Score: inf
ROOT
ATOM      1  C   UNL A   1      31.862  28.887  23.462  1.00  0.00     0.202 C 
ENDROOT
BRANCH   1   2
ATOM      2  C   UNL A   1      32.123  27.381  23.313  1.00  0.00     0.261 C 
BRANCH   2   3
ATOM      3  O   UNL A   1      32.459  26.746  24.568  1.00  0.00    -0.463 OA
BRANCH   3   4
ATOM      4  C   UNL A   1      31.493  25.961  25.119  1.00  0.00     0.316 C 
ATOM      5  O   UNL A   1      30.363  26.360  25.388  1.00  0.00    -0.251 OA
BRANCH   4   6
ATOM      6  C   UNL A   1      31.869  24.510  25.359  1.00  0.00     0.199 C 
BRANCH   6   7
ATOM      7  S   UNL A   1      32.171  23.477  23.902  1.00  0.00    -0.094 SA
BRANCH   7   8
ATOM      8  C   UNL A   1      33.665  22.540  24.194  1.00  0.00     0.101 A 
ATOM      9  C   UNL A   1      34.378  20.397  24.665  1.00  0.00     0.161 A 
ATOM     10  N   UNL A   1      33.408  21.218  24.236  1.00  0.00    -0.222 NA
ATOM     11  N   UNL A   1      35.592  20.798  25.071  1.00  0.00    -0.228 NA
ATOM     12  C   UNL A   1      35.858  22.113  24.965  1.00  0.00     0.076 A 
ATOM     13  C   UNL A   1      34.921  23.032  24.494  1.00  0.00     0.064 A 
BRANCH   9  14
ATOM     14  C   UNL A   1      34.058  18.970  24.745  1.00  0.00     0.019 A 
ATOM     15  C   UNL A   1      33.420  16.218  24.914  1.00  0.00     0.118 A 
ATOM     16  C   UNL A   1      32.532  17.181  25.392  1.00  0.00     0.047 A 
ATOM     17  C   UNL A   1      34.625  16.624  24.341  1.00  0.00     0.047 A 
ATOM     18  C   UNL A   1      32.855  18.540  25.327  1.00  0.00     0.016 A 
ATOM     19  C   UNL A   1      34.935  17.990  24.252  1.00  0.00     0.016 A 
BRANCH  15  20
ATOM     20  O   UNL A   1      32.983  14.927  25.001  1.00  0.00    -0.497 OA
ATOM     21  C   UNL A   1      31.934  14.694  25.934  1.00  0.00     0.278 C 
ENDBRANCH  15  20
ENDBRANCH   9  14
BRANCH  12  22
ATOM     22  C   UNL A   1      37.152  22.523  25.535  1.00  0.00     0.003 A 
ATOM     23  C   UNL A   1      37.351  23.824  26.014  1.00  0.00     0.030 A 
ATOM     24  C   UNL A   1      38.216  21.631  25.665  1.00  0.00     0.030 A 
ATOM     25  C   UNL A   1      38.589  24.206  26.503  1.00  0.00     0.111 A 
ATOM     26  C   UNL A   1      39.415  22.092  26.199  1.00  0.00     0.111 A 
ATOM     27  N   UNL A   1      39.632  23.366  26.593  1.00  0.00    -0.265 NA
ENDBRANCH  12  22
ENDBRANCH   7   8
ENDBRANCH   6   7
ENDBRANCH   4   6
ENDBRANCH   3   4
ENDBRANCH   2   3
ENDBRANCH   1   2
BRANCH   1  28
ATOM     28  O   UNL A   1      32.447  29.526  24.597  1.00  0.00    -0.374 OA
BRANCH  28  29
ATOM     29  C   UNL A   1      31.567  29.930  25.635  1.00  0.00     0.202 C 
BRANCH  29  30
ATOM     30  C   UNL A   1      32.200  30.584  26.863  1.00  0.00     0.261 C 
BRANCH  30  31
ATOM     31  O   UNL A   1      33.612  30.645  26.816  1.00  0.00    -0.460 OA
BRANCH  31  32
ATOM     32  C   UNL A   1      34.117  31.566  27.654  1.00  0.00     0.338 C 
ATOM     33  O   UNL A   1      33.559  32.525  28.173  1.00  0.00    -0.246 OA
BRANCH  32  34
ATOM     34  C   UNL A   1      35.462  31.152  28.000  1.00  0.00     0.060 A 
ATOM     35  C   UNL A   1      35.655  29.792  28.247  1.00  0.00     0.016 A 
ATOM     36  C   UNL A   1      36.486  32.093  28.129  1.00  0.00     0.016 A 
ATOM     37  C   UNL A   1      36.881  29.372  28.719  1.00  0.00     0.010 A 
ATOM     38  C   UNL A   1      37.720  31.669  28.595  1.00  0.00     0.010 A 
ATOM     39  C   UNL A   1      37.892  30.318  28.940  1.00  0.00    -0.014 A 
BRANCH  39  40
ATOM     40  C   UNL A   1      39.063  29.894  29.716  1.00  0.00     0.031 A 
ATOM     41  C   UNL A   1      39.194  30.387  31.124  1.00  0.00     0.074 A 
ATOM     42  C   UNL A   1      39.913  29.006  29.182  1.00  0.00     0.049 A 
ATOM     43  N   UNL A   1      40.058  30.048  32.042  1.00  0.00    -0.248 NA
ATOM     44  C   UNL A   1      38.215  31.397  31.560  1.00  0.00     0.031 C 
ATOM     45  C   UNL A   1      39.821  28.467  27.825  1.00  0.00     0.029 A 
ATOM     46  N   UNL A   1      40.999  28.382  29.726  1.00  0.00    -0.354 N 
ATOM     47  C   UNL A   1      39.724  30.796  33.162  1.00  0.00     0.074 A 
ATOM     48  C   UNL A   1      38.608  31.640  32.800  1.00  0.00     0.031 C 
ATOM     49  C   UNL A   1      40.803  27.570  27.648  1.00  0.00     0.029 A 
ATOM     50  C   UNL A   1      41.594  27.489  28.874  1.00  0.00     0.049 A 
ATOM     51  H   UNL A   1      41.322  28.557  30.639  1.00  0.00     0.167 HD
ATOM     52  C   UNL A   1      40.296  30.761  34.388  1.00  0.00     0.037 A 
ATOM     53  C   UNL A   1      42.656  26.693  29.081  1.00  0.00     0.037 A 
ATOM     54  C   UNL A   1      41.410  29.914  34.712  1.00  0.00     0.049 A 
ATOM     55  C   UNL A   1      43.297  26.702  30.441  1.00  0.00     0.074 A 
ATOM     56  C   UNL A   1      42.081  29.784  35.913  1.00  0.00     0.029 A 
ATOM     57  N   UNL A   1      42.024  29.051  33.811  1.00  0.00    -0.354 N 
ATOM     58  N   UNL A   1      42.961  27.385  31.510  1.00  0.00    -0.248 NA
ATOM     59  C   UNL A   1      44.455  25.821  30.626  1.00  0.00     0.031 C 
ATOM     60  C   UNL A   1      43.129  28.875  35.726  1.00  0.00     0.029 A 
ATOM     61  C   UNL A   1      43.081  28.400  34.423  1.00  0.00     0.049 A 
ATOM     62  H   UNL A   1      41.748  28.923  32.875  1.00  0.00     0.167 HD
ATOM     63  C   UNL A   1      43.849  27.002  32.504  1.00  0.00     0.074 A 
ATOM     64  C   UNL A   1      44.728  26.013  31.910  1.00  0.00     0.031 C 
ATOM     65  C   UNL A   1      43.933  27.423  33.791  1.00  0.00     0.037 A 
BRANCH  52  66
ATOM     66  C   UNL A   1      39.741  31.689  35.427  1.00  0.00     0.064 A 
ATOM     67  C   UNL A   1      38.692  31.305  36.279  1.00  0.00     0.173 A 
ATOM     68  C   UNL A   1      40.247  32.991  35.559  1.00  0.00     0.173 A 
ATOM     69  F   UNL A   1      38.155  30.079  36.178  1.00  0.00    -0.203 F 
ATOM     70  C   UNL A   1      38.147  32.202  37.195  1.00  0.00     0.198 A 
ATOM     71  C   UNL A   1      39.718  33.875  36.496  1.00  0.00     0.198 A 
ATOM     72  F   UNL A   1      41.244  33.411  34.767  1.00  0.00    -0.203 F 
ATOM     73  F   UNL A   1      37.104  31.833  37.953  1.00  0.00    -0.200 F 
ATOM     74  C   UNL A   1      38.664  33.484  37.306  1.00  0.00     0.200 A 
ATOM     75  F   UNL A   1      40.221  35.112  36.605  1.00  0.00    -0.200 F 
ATOM     76  F   UNL A   1      38.133  34.348  38.183  1.00  0.00    -0.200 F 
ENDBRANCH  52  66
BRANCH  53  77
ATOM     77  C   UNL A   1      43.133  25.809  27.990  1.00  0.00     0.064 A 
ATOM     78  C   UNL A   1      42.709  24.477  27.902  1.00  0.00     0.173 A 
ATOM     79  C   UNL A   1      43.989  26.291  26.989  1.00  0.00     0.173 A 
ATOM     80  F   UNL A   1      41.899  23.968  28.840  1.00  0.00    -0.203 F 
ATOM     81  C   UNL A   1      43.134  23.655  26.859  1.00  0.00     0.198 A 
ATOM     82  C   UNL A   1      44.393  25.478  25.934  1.00  0.00     0.198 A 
ATOM     83  F   UNL A   1      44.413  27.563  27.023  1.00  0.00    -0.203 F 
ATOM     84  F   UNL A   1      42.737  22.376  26.813  1.00  0.00    -0.200 F 
ATOM     85  C   UNL A   1      43.969  24.158  25.872  1.00  0.00     0.200 A 
ATOM     86  F   UNL A   1      45.186  25.972  24.973  1.00  0.00    -0.200 F 
ATOM     87  F   UNL A   1      44.367  23.372  24.863  1.00  0.00    -0.200 F 
ENDBRANCH  53  77
BRANCH  65  88
ATOM     88  C   UNL A   1      44.998  26.792  34.637  1.00  0.00     0.064 A 
ATOM     89  C   UNL A   1      46.272  27.365  34.761  1.00  0.00     0.173 A 
ATOM     90  C   UNL A   1      44.727  25.618  35.356  1.00  0.00     0.173 A 
ATOM     91  F   UNL A   1      46.580  28.480  34.082  1.00  0.00    -0.203 F 
ATOM     92  C   UNL A   1      47.248  26.766  35.551  1.00  0.00     0.198 A 
ATOM     93  C   UNL A   1      45.696  25.040  36.168  1.00  0.00     0.198 A 
ATOM     94  F   UNL A   1      43.520  25.039  35.274  1.00  0.00    -0.203 F 
ATOM     95  F   UNL A   1      48.475  27.299  35.614  1.00  0.00    -0.200 F 
ATOM     96  C   UNL A   1      46.957  25.608  36.258  1.00  0.00     0.200 A 
ATOM     97  F   UNL A   1      45.411  23.929  36.861  1.00  0.00    -0.200 F 
ATOM     98  F   UNL A   1      47.899  25.034  37.020  1.00  0.00    -0.200 F 
ENDBRANCH  65  88
ENDBRANCH  39  40
ENDBRANCH  32  34
ENDBRANCH  31  32
ENDBRANCH  30  31
ENDBRANCH  29  30
ENDBRANCH  28  29
ENDBRANCH   1  28
TORSDOF 19
ENDMDL
MODEL 2
REMARK VINA RESULT:     -11.3      1.119      7.199
REMARK SMILES COc1ccc(-c2nc(SCC(=O)OCCOCCOC(=O)c3ccc(-c4c5nc(c(-c6c(F)c(F)c(F)c(F)c6F)c6ccc([nH]6)c(-c6c(F)c(F)c(F)c(F)c6F)c6nc(c(-c7c(F)c(F)c(F)c(F)c7F)c7ccc4[nH]7)C=C6)C=C5)cc3)cc(-c3ccncc3)n2)cc1
REMARK SMILES IDX 16 1 15 2 14 3 12 4 13 5 11 6 10 7 9 8 7 9 8 10 94 11 87 12
REMARK SMILES IDX 86 13 6 14 3 15 4 16 96 17 5 18 95 19 2 20 1 21 88 22 89 23
REMARK SMILES IDX 93 24 90 25 92 26 91 27 17 28 18 29 19 30 20 31 21 32 22 33
REMARK SMILES IDX 23 34 24 35 85 36 25 37 84 38 26 39 27 40 28 41 78 42 29 43
REMARK SMILES IDX 83 44 77 45 79 46 30 47 82 48 76 49 75 50 31 52 63 53 43 54
REMARK SMILES IDX 62 55 44 56 47 57 61 58 80 59 45 60 46 61 60 63 81 64 48 65
REMARK SMILES IDX 32 66 33 67 41 68 34 69 35 70 39 71 42 72 36 73 37 74 40 75
REMARK SMILES IDX 38 76 64 77 65 78 73 79 66 80 67 81 71 82 74 83 68 84 69 85
REMARK SMILES IDX 72 86 70 87 49 88 50 89 58 90 51 91 52 92 56 93 59 94 53 95
REMARK SMILES IDX 54 96 57 97 55 98
REMARK H PARENT 79 51 47 62
REMARK Flexibility Score: inf
ROOT
ATOM      1  C   UNL A   1      32.246  27.674  26.672  1.00  0.00     0.202 C 
ENDROOT
BRANCH   1   2
ATOM      2  C   UNL A   1      31.144  26.629  26.445  1.00  0.00     0.261 C 
BRANCH   2   3
ATOM      3  O   UNL A   1      31.592  25.513  25.641  1.00  0.00    -0.463 OA
BRANCH   3   4
ATOM      4  C   UNL A   1      31.329  24.274  26.140  1.00  0.00     0.316 C 
ATOM      5  O   UNL A   1      31.304  24.015  27.341  1.00  0.00    -0.251 OA
BRANCH   4   6
ATOM      6  C   UNL A   1      31.017  23.196  25.118  1.00  0.00     0.199 C 
BRANCH   6   7
ATOM      7  S   UNL A   1      32.046  23.141  23.627  1.00  0.00    -0.094 SA
BRANCH   7   8
ATOM      8  C   UNL A   1      33.567  22.299  24.043  1.00  0.00     0.101 A 
ATOM      9  C   UNL A   1      34.359  20.228  24.681  1.00  0.00     0.161 A 
ATOM     10  N   UNL A   1      33.372  20.971  24.159  1.00  0.00    -0.222 NA
ATOM     11  N   UNL A   1      35.532  20.714  25.111  1.00  0.00    -0.228 NA
ATOM     12  C   UNL A   1      35.741  22.031  24.931  1.00  0.00     0.076 A 
ATOM     13  C   UNL A   1      34.785  22.871  24.363  1.00  0.00     0.064 A 
BRANCH   9  14
ATOM     14  C   UNL A   1      34.102  18.795  24.840  1.00  0.00     0.019 A 
ATOM     15  C   UNL A   1      33.624  16.022  25.136  1.00  0.00     0.118 A 
ATOM     16  C   UNL A   1      34.837  16.480  24.625  1.00  0.00     0.047 A 
ATOM     17  C   UNL A   1      32.648  16.944  25.511  1.00  0.00     0.047 A 
ATOM     18  C   UNL A   1      35.067  17.849  24.459  1.00  0.00     0.016 A 
ATOM     19  C   UNL A   1      32.891  18.320  25.370  1.00  0.00     0.016 A 
BRANCH  15  20
ATOM     20  O   UNL A   1      33.527  14.667  25.282  1.00  0.00    -0.497 OA
ATOM     21  C   UNL A   1      32.254  14.180  25.690  1.00  0.00     0.278 C 
ENDBRANCH  15  20
ENDBRANCH   9  14
BRANCH  12  22
ATOM     22  C   UNL A   1      36.987  22.539  25.527  1.00  0.00     0.003 A 
ATOM     23  C   UNL A   1      38.128  21.731  25.617  1.00  0.00     0.030 A 
ATOM     24  C   UNL A   1      37.104  23.850  25.987  1.00  0.00     0.030 A 
ATOM     25  C   UNL A   1      39.276  22.210  26.225  1.00  0.00     0.111 A 
ATOM     26  C   UNL A   1      38.307  24.257  26.553  1.00  0.00     0.111 A 
ATOM     27  N   UNL A   1      39.384  23.457  26.707  1.00  0.00    -0.265 NA
ENDBRANCH  12  22
ENDBRANCH   7   8
ENDBRANCH   6   7
ENDBRANCH   4   6
ENDBRANCH   3   4
ENDBRANCH   2   3
ENDBRANCH   1   2
BRANCH   1  28
ATOM     28  O   UNL A   1      31.815  29.018  26.890  1.00  0.00    -0.374 OA
BRANCH  28  29
ATOM     29  C   UNL A   1      32.653  30.053  26.396  1.00  0.00     0.202 C 
BRANCH  29  30
ATOM     30  C   UNL A   1      32.508  31.430  27.043  1.00  0.00     0.261 C 
BRANCH  30  31
ATOM     31  O   UNL A   1      33.597  32.296  26.794  1.00  0.00    -0.460 OA
BRANCH  31  32
ATOM     32  C   UNL A   1      34.016  32.930  27.904  1.00  0.00     0.338 C 
ATOM     33  O   UNL A   1      33.456  33.807  28.548  1.00  0.00    -0.246 OA
BRANCH  32  34
ATOM     34  C   UNL A   1      35.235  32.280  28.344  1.00  0.00     0.060 A 
ATOM     35  C   UNL A   1      35.122  30.952  28.758  1.00  0.00     0.016 A 
ATOM     36  C   UNL A   1      36.440  32.985  28.395  1.00  0.00     0.016 A 
ATOM     37  C   UNL A   1      36.223  30.338  29.320  1.00  0.00     0.010 A 
ATOM     38  C   UNL A   1      37.547  32.365  28.953  1.00  0.00     0.010 A 
ATOM     39  C   UNL A   1      37.415  31.063  29.462  1.00  0.00    -0.014 A 
BRANCH  39  40
ATOM     40  C   UNL A   1      38.458  30.495  30.325  1.00  0.00     0.031 A 
ATOM     41  C   UNL A   1      39.472  29.586  29.702  1.00  0.00     0.074 A 
ATOM     42  C   UNL A   1      38.529  30.886  31.604  1.00  0.00     0.049 A 
ATOM     43  N   UNL A   1      40.554  29.075  30.224  1.00  0.00    -0.248 NA
ATOM     44  C   UNL A   1      39.239  29.204  28.299  1.00  0.00     0.031 C 
ATOM     45  C   UNL A   1      37.587  31.792  32.260  1.00  0.00     0.029 A 
ATOM     46  N   UNL A   1      39.451  30.593  32.568  1.00  0.00    -0.354 N 
ATOM     47  C   UNL A   1      41.132  28.319  29.214  1.00  0.00     0.074 A 
ATOM     48  C   UNL A   1      40.262  28.399  28.062  1.00  0.00     0.031 C 
ATOM     49  C   UNL A   1      37.993  32.000  33.522  1.00  0.00     0.029 A 
ATOM     50  C   UNL A   1      39.211  31.230  33.758  1.00  0.00     0.049 A 
ATOM     51  H   UNL A   1      40.210  29.984  32.424  1.00  0.00     0.167 HD
ATOM     52  C   UNL A   1      42.298  27.633  29.249  1.00  0.00     0.037 A 
ATOM     53  C   UNL A   1      39.917  31.193  34.901  1.00  0.00     0.037 A 
ATOM     54  C   UNL A   1      43.136  27.568  30.414  1.00  0.00     0.049 A 
ATOM     55  C   UNL A   1      41.189  30.392  34.926  1.00  0.00     0.074 A 
ATOM     56  C   UNL A   1      44.340  26.910  30.582  1.00  0.00     0.029 A 
ATOM     57  N   UNL A   1      42.843  28.188  31.624  1.00  0.00    -0.354 N 
ATOM     58  N   UNL A   1      41.753  29.704  33.961  1.00  0.00    -0.248 NA
ATOM     59  C   UNL A   1      41.929  30.374  36.191  1.00  0.00     0.031 C 
ATOM     60  C   UNL A   1      44.752  27.095  31.907  1.00  0.00     0.029 A 
ATOM     61  C   UNL A   1      43.832  27.910  32.551  1.00  0.00     0.049 A 
ATOM     62  H   UNL A   1      42.048  28.742  31.795  1.00  0.00     0.167 HD
ATOM     63  C   UNL A   1      42.925  29.188  34.492  1.00  0.00     0.074 A 
ATOM     64  C   UNL A   1      42.997  29.660  35.862  1.00  0.00     0.031 C 
ATOM     65  C   UNL A   1      43.862  28.400  33.907  1.00  0.00     0.037 A 
BRANCH  52  66
ATOM     66  C   UNL A   1      42.690  26.886  28.010  1.00  0.00     0.064 A 
ATOM     67  C   UNL A   1      42.360  25.534  27.824  1.00  0.00     0.173 A 
ATOM     68  C   UNL A   1      43.430  27.522  27.002  1.00  0.00     0.173 A 
ATOM     69  F   UNL A   1      41.674  24.871  28.769  1.00  0.00    -0.203 F 
ATOM     70  C   UNL A   1      42.787  24.838  26.695  1.00  0.00     0.198 A 
ATOM     71  C   UNL A   1      43.830  26.831  25.861  1.00  0.00     0.198 A 
ATOM     72  F   UNL A   1      43.777  28.811  27.130  1.00  0.00    -0.203 F 
ATOM     73  F   UNL A   1      42.514  23.531  26.571  1.00  0.00    -0.200 F 
ATOM     74  C   UNL A   1      43.518  25.489  25.713  1.00  0.00     0.200 A 
ATOM     75  F   UNL A   1      44.534  27.462  24.911  1.00  0.00    -0.200 F 
ATOM     76  F   UNL A   1      43.935  24.817  24.630  1.00  0.00    -0.200 F 
ENDBRANCH  52  66
BRANCH  53  77
ATOM     77  C   UNL A   1      39.448  31.966  36.076  1.00  0.00     0.064 A 
ATOM     78  C   UNL A   1      39.970  33.234  36.362  1.00  0.00     0.173 A 
ATOM     79  C   UNL A   1      38.438  31.470  36.914  1.00  0.00     0.173 A 
ATOM     80  F   UNL A   1      40.944  33.746  35.596  1.00  0.00    -0.203 F 
ATOM     81  C   UNL A   1      39.508  33.973  37.450  1.00  0.00     0.198 A 
ATOM     82  C   UNL A   1      37.959  32.219  37.986  1.00  0.00     0.198 A 
ATOM     83  F   UNL A   1      37.898  30.266  36.675  1.00  0.00    -0.203 F 
ATOM     84  F   UNL A   1      40.043  35.171  37.719  1.00  0.00    -0.200 F 
ATOM     85  C   UNL A   1      38.498  33.468  38.256  1.00  0.00     0.200 A 
ATOM     86  F   UNL A   1      36.971  31.735  38.751  1.00  0.00    -0.200 F 
ATOM     87  F   UNL A   1      38.045  34.184  39.294  1.00  0.00    -0.200 F 
ENDBRANCH  53  77
BRANCH  65  88
ATOM     88  C   UNL A   1      45.046  28.026  34.746  1.00  0.00     0.064 A 
ATOM     89  C   UNL A   1      46.206  28.813  34.770  1.00  0.00     0.173 A 
ATOM     90  C   UNL A   1      45.004  26.883  35.559  1.00  0.00     0.173 A 
ATOM     91  F   UNL A   1      46.297  29.906  34.000  1.00  0.00    -0.203 F 
ATOM     92  C   UNL A   1      47.296  28.450  35.557  1.00  0.00     0.198 A 
ATOM     93  C   UNL A   1      46.083  26.541  36.366  1.00  0.00     0.198 A 
ATOM     94  F   UNL A   1      43.912  26.104  35.574  1.00  0.00    -0.203 F 
ATOM     95  F   UNL A   1      48.415  29.185  35.525  1.00  0.00    -0.200 F 
ATOM     96  C   UNL A   1      47.231  27.319  36.357  1.00  0.00     0.200 A 
ATOM     97  F   UNL A   1      46.015  25.456  37.149  1.00  0.00    -0.200 F 
ATOM     98  F   UNL A   1      48.281  26.974  37.115  1.00  0.00    -0.200 F 
ENDBRANCH  65  88
ENDBRANCH  39  40
ENDBRANCH  32  34
ENDBRANCH  31  32
ENDBRANCH  30  31
ENDBRANCH  29  30
ENDBRANCH  28  29
ENDBRANCH   1  28
TORSDOF 19
ENDMDL
MODEL 3
REMARK VINA RESULT:     -11.0      3.112      4.163
REMARK SMILES COc1ccc(-c2nc(SCC(=O)OCCOCCOC(=O)c3ccc(-c4c5nc(c(-c6c(F)c(F)c(F)c(F)c6F)c6ccc([nH]6)c(-c6c(F)c(F)c(F)c(F)c6F)c6nc(c(-c7c(F)c(F)c(F)c(F)c7F)c7ccc4[nH]7)C=C6)C=C5)cc3)cc(-c3ccncc3)n2)cc1
REMARK SMILES IDX 16 1 15 2 14 3 12 4 13 5 11 6 10 7 9 8 7 9 8 10 94 11 87 12
REMARK SMILES IDX 86 13 6 14 3 15 4 16 96 17 5 18 95 19 2 20 1 21 88 22 89 23
REMARK SMILES IDX 93 24 90 25 92 26 91 27 17 28 18 29 19 30 20 31 21 32 22 33
REMARK SMILES IDX 23 34 24 35 85 36 25 37 84 38 26 39 27 40 28 41 78 42 29 43
REMARK SMILES IDX 83 44 77 45 79 46 30 47 82 48 76 49 75 50 31 52 63 53 43 54
REMARK SMILES IDX 62 55 44 56 47 57 61 58 80 59 45 60 46 61 60 63 81 64 48 65
REMARK SMILES IDX 32 66 33 67 41 68 34 69 35 70 39 71 42 72 36 73 37 74 40 75
REMARK SMILES IDX 38 76 64 77 65 78 73 79 66 80 67 81 71 82 74 83 68 84 69 85
REMARK SMILES IDX 72 86 70 87 49 88 50 89 58 90 51 91 52 92 56 93 59 94 53 95
REMARK SMILES IDX 54 96 57 97 55 98
REMARK H PARENT 79 51 47 62
REMARK Flexibility Score: inf
ROOT
ATOM      1  C   UNL A   1      32.883  27.632  26.493  1.00  0.00     0.202 C 
ENDROOT
BRANCH   1   2
ATOM      2  C   UNL A   1      31.571  26.862  26.287  1.00  0.00     0.261 C 
BRANCH   2   3
ATOM      3  O   UNL A   1      31.743  25.670  25.486  1.00  0.00    -0.463 OA
BRANCH   3   4
ATOM      4  C   UNL A   1      31.375  24.498  26.072  1.00  0.00     0.316 C 
ATOM      5  O   UNL A   1      31.371  24.316  27.287  1.00  0.00    -0.251 OA
BRANCH   4   6
ATOM      6  C   UNL A   1      30.916  23.397  25.133  1.00  0.00     0.199 C 
BRANCH   6   7
ATOM      7  S   UNL A   1      31.837  23.185  23.587  1.00  0.00    -0.094 SA
BRANCH   7   8
ATOM      8  C   UNL A   1      33.337  22.287  23.962  1.00  0.00     0.101 A 
ATOM      9  C   UNL A   1      34.070  20.177  24.540  1.00  0.00     0.161 A 
ATOM     10  N   UNL A   1      33.100  20.963  24.049  1.00  0.00    -0.222 NA
ATOM     11  N   UNL A   1      35.264  20.616  24.965  1.00  0.00    -0.228 NA
ATOM     12  C   UNL A   1      35.512  21.929  24.813  1.00  0.00     0.076 A 
ATOM     13  C   UNL A   1      34.576  22.812  24.279  1.00  0.00     0.064 A 
BRANCH   9  14
ATOM     14  C   UNL A   1      33.770  18.750  24.669  1.00  0.00     0.019 A 
ATOM     15  C   UNL A   1      33.179  15.995  24.937  1.00  0.00     0.118 A 
ATOM     16  C   UNL A   1      32.549  16.936  25.750  1.00  0.00     0.047 A 
ATOM     17  C   UNL A   1      34.098  16.424  23.980  1.00  0.00     0.047 A 
ATOM     18  C   UNL A   1      32.855  18.296  25.633  1.00  0.00     0.016 A 
ATOM     19  C   UNL A   1      34.384  17.792  23.844  1.00  0.00     0.016 A 
BRANCH  15  20
ATOM     20  O   UNL A   1      32.775  14.703  25.121  1.00  0.00    -0.497 OA
ATOM     21  C   UNL A   1      31.775  14.506  26.114  1.00  0.00     0.278 C 
ENDBRANCH  15  20
ENDBRANCH   9  14
BRANCH  12  22
ATOM     22  C   UNL A   1      36.781  22.384  25.405  1.00  0.00     0.003 A 
ATOM     23  C   UNL A   1      36.921  23.686  25.903  1.00  0.00     0.030 A 
ATOM     24  C   UNL A   1      37.880  21.535  25.535  1.00  0.00     0.030 A 
ATOM     25  C   UNL A   1      38.137  24.111  26.412  1.00  0.00     0.111 A 
ATOM     26  C   UNL A   1      39.052  22.038  26.090  1.00  0.00     0.111 A 
ATOM     27  N   UNL A   1      39.212  23.313  26.504  1.00  0.00    -0.265 NA
ENDBRANCH  12  22
ENDBRANCH   7   8
ENDBRANCH   6   7
ENDBRANCH   4   6
ENDBRANCH   3   4
ENDBRANCH   2   3
ENDBRANCH   1   2
BRANCH   1  28
ATOM     28  O   UNL A   1      32.772  28.948  27.036  1.00  0.00    -0.374 OA
BRANCH  28  29
ATOM     29  C   UNL A   1      33.894  29.804  26.886  1.00  0.00     0.202 C 
BRANCH  29  30
ATOM     30  C   UNL A   1      33.877  31.113  27.676  1.00  0.00     0.261 C 
BRANCH  30  31
ATOM     31  O   UNL A   1      35.162  31.648  27.926  1.00  0.00    -0.460 OA
BRANCH  31  32
ATOM     32  C   UNL A   1      35.574  31.430  29.187  1.00  0.00     0.338 C 
ATOM     33  O   UNL A   1      35.000  31.678  30.240  1.00  0.00    -0.246 OA
BRANCH  32  34
ATOM     34  C   UNL A   1      36.809  30.673  29.118  1.00  0.00     0.060 A 
ATOM     35  C   UNL A   1      37.337  30.225  30.329  1.00  0.00     0.016 A 
ATOM     36  C   UNL A   1      37.449  30.465  27.894  1.00  0.00     0.016 A 
ATOM     37  C   UNL A   1      38.580  29.627  30.328  1.00  0.00     0.010 A 
ATOM     38  C   UNL A   1      38.694  29.857  27.893  1.00  0.00     0.010 A 
ATOM     39  C   UNL A   1      39.276  29.493  29.118  1.00  0.00    -0.014 A 
BRANCH  39  40
ATOM     40  C   UNL A   1      40.699  29.138  29.187  1.00  0.00     0.031 A 
ATOM     41  C   UNL A   1      41.623  30.063  29.919  1.00  0.00     0.074 A 
ATOM     42  C   UNL A   1      41.102  27.961  28.690  1.00  0.00     0.049 A 
ATOM     43  N   UNL A   1      42.880  29.901  30.227  1.00  0.00    -0.248 NA
ATOM     44  C   UNL A   1      41.050  31.343  30.368  1.00  0.00     0.031 C 
ATOM     45  C   UNL A   1      40.243  27.005  27.993  1.00  0.00     0.029 A 
ATOM     46  N   UNL A   1      42.328  27.360  28.723  1.00  0.00    -0.354 N 
ATOM     47  C   UNL A   1      43.247  31.051  30.910  1.00  0.00     0.074 A 
ATOM     48  C   UNL A   1      42.095  31.924  30.935  1.00  0.00     0.031 C 
ATOM     49  C   UNL A   1      40.967  25.920  27.680  1.00  0.00     0.029 A 
ATOM     50  C   UNL A   1      42.338  26.118  28.144  1.00  0.00     0.049 A 
ATOM     51  H   UNL A   1      43.125  27.778  29.123  1.00  0.00     0.167 HD
ATOM     52  C   UNL A   1      44.440  31.338  31.479  1.00  0.00     0.037 A 
ATOM     53  C   UNL A   1      43.351  25.245  28.020  1.00  0.00     0.037 A 
ATOM     54  C   UNL A   1      45.568  30.450  31.430  1.00  0.00     0.049 A 
ATOM     55  C   UNL A   1      44.679  25.605  28.628  1.00  0.00     0.074 A 
ATOM     56  C   UNL A   1      46.832  30.620  31.965  1.00  0.00     0.029 A 
ATOM     57  N   UNL A   1      45.563  29.214  30.793  1.00  0.00    -0.354 N 
ATOM     58  N   UNL A   1      45.017  26.679  29.302  1.00  0.00    -0.248 NA
ATOM     59  C   UNL A   1      45.760  24.627  28.469  1.00  0.00     0.031 C 
ATOM     60  C   UNL A   1      47.603  29.506  31.613  1.00  0.00     0.029 A 
ATOM     61  C   UNL A   1      46.807  28.618  30.902  1.00  0.00     0.049 A 
ATOM     62  H   UNL A   1      44.787  28.821  30.332  1.00  0.00     0.167 HD
ATOM     63  C   UNL A   1      46.341  26.499  29.670  1.00  0.00     0.074 A 
ATOM     64  C   UNL A   1      46.738  25.202  29.155  1.00  0.00     0.031 C 
ATOM     65  C   UNL A   1      47.159  27.325  30.371  1.00  0.00     0.037 A 
BRANCH  52  66
ATOM     66  C   UNL A   1      44.573  32.670  32.155  1.00  0.00     0.064 A 
ATOM     67  C   UNL A   1      45.003  33.813  31.462  1.00  0.00     0.173 A 
ATOM     68  C   UNL A   1      44.293  32.803  33.523  1.00  0.00     0.173 A 
ATOM     69  F   UNL A   1      45.308  33.736  30.157  1.00  0.00    -0.203 F 
ATOM     70  C   UNL A   1      45.182  35.028  32.121  1.00  0.00     0.198 A 
ATOM     71  C   UNL A   1      44.445  34.026  34.172  1.00  0.00     0.198 A 
ATOM     72  F   UNL A   1      43.885  31.742  34.235  1.00  0.00    -0.203 F 
ATOM     73  F   UNL A   1      45.654  36.089  31.451  1.00  0.00    -0.200 F 
ATOM     74  C   UNL A   1      44.898  35.134  33.474  1.00  0.00     0.200 A 
ATOM     75  F   UNL A   1      44.167  34.128  35.479  1.00  0.00    -0.200 F 
ATOM     76  F   UNL A   1      45.078  36.301  34.108  1.00  0.00    -0.200 F 
ENDBRANCH  52  66
BRANCH  53  77
ATOM     77  C   UNL A   1      43.123  23.951  27.333  1.00  0.00     0.064 A 
ATOM     78  C   UNL A   1      42.567  22.860  28.013  1.00  0.00     0.173 A 
ATOM     79  C   UNL A   1      43.418  23.792  25.971  1.00  0.00     0.173 A 
ATOM     80  F   UNL A   1      42.277  22.961  29.318  1.00  0.00    -0.203 F 
ATOM     81  C   UNL A   1      42.325  21.653  27.359  1.00  0.00     0.198 A 
ATOM     82  C   UNL A   1      43.153  22.594  25.312  1.00  0.00     0.198 A 
ATOM     83  F   UNL A   1      43.941  24.811  25.273  1.00  0.00    -0.203 F 
ATOM     84  F   UNL A   1      41.818  20.616  28.038  1.00  0.00    -0.200 F 
ATOM     85  C   UNL A   1      42.611  21.524  26.007  1.00  0.00     0.200 A 
ATOM     86  F   UNL A   1      43.414  22.479  24.003  1.00  0.00    -0.200 F 
ATOM     87  F   UNL A   1      42.366  20.367  25.376  1.00  0.00    -0.200 F 
ENDBRANCH  53  77
BRANCH  65  88
ATOM     88  C   UNL A   1      48.550  26.830  30.634  1.00  0.00     0.064 A 
ATOM     89  C   UNL A   1      48.835  25.985  31.716  1.00  0.00     0.173 A 
ATOM     90  C   UNL A   1      49.600  27.182  29.773  1.00  0.00     0.173 A 
ATOM     91  F   UNL A   1      47.866  25.633  32.573  1.00  0.00    -0.203 F 
ATOM     92  C   UNL A   1      50.132  25.535  31.944  1.00  0.00     0.198 A 
ATOM     93  C   UNL A   1      50.888  26.705  29.988  1.00  0.00     0.198 A 
ATOM     94  F   UNL A   1      49.372  27.982  28.721  1.00  0.00    -0.203 F 
ATOM     95  F   UNL A   1      50.395  24.772  33.013  1.00  0.00    -0.200 F 
ATOM     96  C   UNL A   1      51.155  25.890  31.077  1.00  0.00     0.200 A 
ATOM     97  F   UNL A   1      51.873  27.038  29.142  1.00  0.00    -0.200 F 
ATOM     98  F   UNL A   1      52.403  25.452  31.298  1.00  0.00    -0.200 F 
ENDBRANCH  65  88
ENDBRANCH  39  40
ENDBRANCH  32  34
ENDBRANCH  31  32
ENDBRANCH  30  31
ENDBRANCH  29  30
ENDBRANCH  28  29
ENDBRANCH   1  28
TORSDOF 19
ENDMDL
