MODEL 1
REMARK VINA RESULT:     -12.6      0.000      0.000
REMARK SMILES O=C(OCCOCCOC(=O)[C@H]1CC2=c3ccccc3=N[C@H]2[C@H](c2ccccc2F)[NH2+]1)c1ccc(-c2c3nc(c(-c4c(F)c(F)c(F)c(F)c4F)c4ccc([nH]4)c(-c4c(F)c(F)c(F)c(F)c4F)c4nc(c(-c5c(F)c(F)c(F)c(F)c5F)c5ccc2[nH]5)C=C4)C=C3)cc1
REMARK SMILES IDX 5 1 4 2 3 3 2 4 1 5 32 6 33 7 94 8 34 9 93 10 35 11 36 12
REMARK SMILES IDX 37 13 87 14 38 15 92 16 86 17 88 18 39 19 91 20 85 21 84 22
REMARK SMILES IDX 40 24 72 25 52 26 71 27 53 28 56 29 70 30 89 31 54 32 55 33
REMARK SMILES IDX 69 35 90 36 57 37 41 38 42 39 50 40 43 41 44 42 48 43 51 44
REMARK SMILES IDX 45 45 46 46 49 47 47 48 73 49 74 50 82 51 75 52 76 53 80 54
REMARK SMILES IDX 83 55 77 56 78 57 81 58 79 59 58 60 59 61 67 62 60 63 61 64
REMARK SMILES IDX 65 65 68 66 62 67 63 68 66 69 64 70 6 71 7 72 8 73 9 74
REMARK SMILES IDX 10 75 11 76 12 77 13 78 31 79 14 80 23 81 15 84 22 85 16 86
REMARK SMILES IDX 20 87 21 88 17 89 19 90 18 91 24 92 25 93 29 94 26 95 28 96
REMARK SMILES IDX 30 97 27 98
REMARK H PARENT 88 23 56 34 31 82 31 83
REMARK Flexibility Score: inf
ROOT
ATOM      1  C   UNL A   1      35.837  20.939  25.370  1.00  0.00     0.202 C 
ENDROOT
BRANCH   1   2
ATOM      2  C   UNL A   1      37.203  21.452  24.890  1.00  0.00     0.261 C 
BRANCH   2   3
ATOM      3  O   UNL A   1      37.660  22.574  25.661  1.00  0.00    -0.460 OA
BRANCH   3   4
ATOM      4  C   UNL A   1      38.862  22.792  26.238  1.00  0.00     0.338 C 
ATOM      5  O   UNL A   1      39.600  21.820  26.403  1.00  0.00    -0.246 OA
BRANCH   4   6
ATOM      6  C   UNL A   1      39.353  24.125  26.722  1.00  0.00     0.060 A 
ATOM      7  C   UNL A   1      39.055  24.449  28.061  1.00  0.00     0.016 A 
ATOM      8  C   UNL A   1      40.026  25.087  25.966  1.00  0.00     0.016 A 
ATOM      9  C   UNL A   1      39.410  25.685  28.609  1.00  0.00     0.010 A 
ATOM     10  C   UNL A   1      40.418  26.303  26.511  1.00  0.00     0.010 A 
ATOM     11  C   UNL A   1      40.101  26.614  27.829  1.00  0.00    -0.014 A 
BRANCH  11  12
ATOM     12  C   UNL A   1      40.586  27.892  28.370  1.00  0.00     0.031 A 
ATOM     13  C   UNL A   1      42.022  28.054  28.762  1.00  0.00     0.074 A 
ATOM     14  C   UNL A   1      39.671  28.840  28.633  1.00  0.00     0.049 A 
ATOM     15  N   UNL A   1      42.617  29.089  29.295  1.00  0.00    -0.248 NA
ATOM     16  C   UNL A   1      42.902  26.893  28.555  1.00  0.00     0.031 C 
ATOM     17  C   UNL A   1      38.236  28.709  28.375  1.00  0.00     0.029 A 
ATOM     18  N   UNL A   1      39.800  30.078  29.199  1.00  0.00    -0.354 N 
ATOM     19  C   UNL A   1      43.941  28.712  29.472  1.00  0.00     0.074 A 
ATOM     20  C   UNL A   1      44.052  27.333  29.050  1.00  0.00     0.031 C 
ATOM     21  C   UNL A   1      37.616  29.830  28.770  1.00  0.00     0.029 A 
ATOM     22  C   UNL A   1      38.609  30.745  29.322  1.00  0.00     0.049 A 
ATOM     23  H   UNL A   1      40.664  30.453  29.488  1.00  0.00     0.167 HD
ATOM     24  C   UNL A   1      44.967  29.470  29.922  1.00  0.00     0.037 A 
ATOM     25  C   UNL A   1      38.354  31.968  29.820  1.00  0.00     0.037 A 
ATOM     26  C   UNL A   1      44.814  30.837  30.352  1.00  0.00     0.049 A 
ATOM     27  C   UNL A   1      39.511  32.792  30.306  1.00  0.00     0.074 A 
ATOM     28  C   UNL A   1      45.786  31.729  30.764  1.00  0.00     0.029 A 
ATOM     29  N   UNL A   1      43.597  31.502  30.438  1.00  0.00    -0.354 N 
ATOM     30  N   UNL A   1      40.782  32.474  30.362  1.00  0.00    -0.248 NA
ATOM     31  C   UNL A   1      39.205  34.146  30.779  1.00  0.00     0.031 C 
ATOM     32  C   UNL A   1      45.153  32.916  31.146  1.00  0.00     0.029 A 
ATOM     33  C   UNL A   1      43.791  32.785  30.923  1.00  0.00     0.049 A 
ATOM     34  H   UNL A   1      42.724  31.118  30.190  1.00  0.00     0.167 HD
ATOM     35  C   UNL A   1      41.433  33.589  30.865  1.00  0.00     0.074 A 
ATOM     36  C   UNL A   1      40.414  34.602  31.072  1.00  0.00     0.031 C 
ATOM     37  C   UNL A   1      42.751  33.761  31.136  1.00  0.00     0.037 A 
BRANCH  24  38
ATOM     38  C   UNL A   1      46.340  28.859  29.950  1.00  0.00     0.064 A 
ATOM     39  C   UNL A   1      46.812  28.176  31.083  1.00  0.00     0.173 A 
ATOM     40  C   UNL A   1      47.165  28.882  28.814  1.00  0.00     0.173 A 
ATOM     41  F   UNL A   1      46.069  28.127  32.199  1.00  0.00    -0.203 F 
ATOM     42  C   UNL A   1      48.058  27.555  31.084  1.00  0.00     0.198 A 
ATOM     43  C   UNL A   1      48.399  28.236  28.808  1.00  0.00     0.198 A 
ATOM     44  F   UNL A   1      46.765  29.515  27.701  1.00  0.00    -0.203 F 
ATOM     45  F   UNL A   1      48.496  26.936  32.189  1.00  0.00    -0.200 F 
ATOM     46  C   UNL A   1      48.846  27.575  29.942  1.00  0.00     0.200 A 
ATOM     47  F   UNL A   1      49.152  28.242  27.699  1.00  0.00    -0.200 F 
ATOM     48  F   UNL A   1      50.035  26.958  29.936  1.00  0.00    -0.200 F 
ENDBRANCH  24  38
BRANCH  25  49
ATOM     49  C   UNL A   1      36.965  32.486  29.787  1.00  0.00     0.064 A 
ATOM     50  C   UNL A   1      36.120  32.321  30.892  1.00  0.00     0.173 A 
ATOM     51  C   UNL A   1      36.485  33.234  28.702  1.00  0.00     0.173 A 
ATOM     52  F   UNL A   1      36.534  31.608  31.950  1.00  0.00    -0.203 F 
ATOM     53  C   UNL A   1      34.847  32.886  30.914  1.00  0.00     0.198 A 
ATOM     54  C   UNL A   1      35.221  33.819  28.735  1.00  0.00     0.198 A 
ATOM     55  F   UNL A   1      37.263  33.435  27.628  1.00  0.00    -0.203 F 
ATOM     56  F   UNL A   1      34.055  32.702  31.979  1.00  0.00    -0.200 F 
ATOM     57  C   UNL A   1      34.403  33.644  29.841  1.00  0.00     0.200 A 
ATOM     58  F   UNL A   1      34.804  34.571  27.707  1.00  0.00    -0.200 F 
ATOM     59  F   UNL A   1      33.189  34.209  29.876  1.00  0.00    -0.200 F 
ENDBRANCH  25  49
BRANCH  37  60
ATOM     60  C   UNL A   1      43.158  35.090  31.698  1.00  0.00     0.064 A 
ATOM     61  C   UNL A   1      43.114  35.341  33.078  1.00  0.00     0.173 A 
ATOM     62  C   UNL A   1      43.643  36.103  30.858  1.00  0.00     0.173 A 
ATOM     63  F   UNL A   1      42.644  34.407  33.918  1.00  0.00    -0.203 F 
ATOM     64  C   UNL A   1      43.521  36.568  33.593  1.00  0.00     0.198 A 
ATOM     65  C   UNL A   1      44.078  37.316  31.380  1.00  0.00     0.198 A 
ATOM     66  F   UNL A   1      43.712  35.908  29.532  1.00  0.00    -0.203 F 
ATOM     67  F   UNL A   1      43.427  36.802  34.910  1.00  0.00    -0.200 F 
ATOM     68  C   UNL A   1      44.011  37.550  32.746  1.00  0.00     0.200 A 
ATOM     69  F   UNL A   1      44.567  38.260  30.563  1.00  0.00    -0.200 F 
ATOM     70  F   UNL A   1      44.413  38.726  33.246  1.00  0.00    -0.200 F 
ENDBRANCH  37  60
ENDBRANCH  11  12
ENDBRANCH   4   6
ENDBRANCH   3   4
ENDBRANCH   2   3
ENDBRANCH   1   2
BRANCH   1  71
ATOM     71  O   UNL A   1      34.685  21.430  24.679  1.00  0.00    -0.374 OA
BRANCH  71  72
ATOM     72  C   UNL A   1      33.438  21.325  25.387  1.00  0.00     0.202 C 
BRANCH  72  73
ATOM     73  C   UNL A   1      32.494  22.511  25.137  1.00  0.00     0.261 C 
BRANCH  73  74
ATOM     74  O   UNL A   1      32.275  23.182  26.392  1.00  0.00    -0.459 OA
BRANCH  74  75
ATOM     75  C   UNL A   1      31.034  23.739  26.554  1.00  0.00     0.365 C 
ATOM     76  O   UNL A   1      30.146  23.284  27.252  1.00  0.00    -0.245 OA
BRANCH  75  77
ATOM     77  C   UNL A   1      31.050  25.110  25.875  1.00  0.00     0.298 C 
ATOM     78  C   UNL A   1      29.881  25.497  24.919  1.00  0.00     0.111 C 
ATOM     79  N   UNL A   1      31.516  26.184  26.804  1.00  0.00    -0.326 N 
ATOM     80  C   UNL A   1      30.278  26.763  24.165  1.00  0.00    -0.024 C 
ATOM     81  C   UNL A   1      31.486  27.491  26.103  1.00  0.00     0.246 C 
ATOM     82  H   UNL A   1      32.468  25.982  27.106  1.00  0.00     0.347 HD
ATOM     83  H   UNL A   1      30.901  26.220  27.617  1.00  0.00     0.347 HD
ATOM     84  C   UNL A   1      29.620  27.714  23.496  1.00  0.00     0.002 A 
ATOM     85  C   UNL A   1      31.642  27.306  24.552  1.00  0.00     0.196 C 
ATOM     86  C   UNL A   1      28.266  28.003  23.150  1.00  0.00     0.010 A 
ATOM     87  C   UNL A   1      30.670  28.733  23.256  1.00  0.00     0.066 A 
ATOM     88  N   UNL A   1      31.826  28.562  23.805  1.00  0.00    -0.270 NA
ATOM     89  C   UNL A   1      27.993  29.169  22.532  1.00  0.00     0.001 A 
ATOM     90  C   UNL A   1      30.326  29.908  22.446  1.00  0.00     0.028 A 
ATOM     91  C   UNL A   1      29.040  30.096  22.127  1.00  0.00     0.002 A 
BRANCH  81  92
ATOM     92  C   UNL A   1      32.380  28.576  26.634  1.00  0.00     0.048 A 
ATOM     93  C   UNL A   1      31.779  29.821  26.928  1.00  0.00     0.013 A 
ATOM     94  C   UNL A   1      33.765  28.483  26.674  1.00  0.00     0.132 A 
ATOM     95  C   UNL A   1      32.551  30.941  27.219  1.00  0.00     0.001 A 
ATOM     96  C   UNL A   1      34.542  29.595  26.994  1.00  0.00     0.040 A 
ATOM     97  F   UNL A   1      34.385  27.338  26.351  1.00  0.00    -0.206 F 
ATOM     98  C   UNL A   1      33.937  30.827  27.251  1.00  0.00     0.003 A 
ENDBRANCH  81  92
ENDBRANCH  75  77
ENDBRANCH  74  75
ENDBRANCH  73  74
ENDBRANCH  72  73
ENDBRANCH  71  72
ENDBRANCH   1  71
TORSDOF 15
ENDMDL
MODEL 2
REMARK VINA RESULT:     -12.5      3.410      8.919
REMARK SMILES O=C(OCCOCCOC(=O)[C@H]1CC2=c3ccccc3=N[C@H]2[C@H](c2ccccc2F)[NH2+]1)c1ccc(-c2c3nc(c(-c4c(F)c(F)c(F)c(F)c4F)c4ccc([nH]4)c(-c4c(F)c(F)c(F)c(F)c4F)c4nc(c(-c5c(F)c(F)c(F)c(F)c5F)c5ccc2[nH]5)C=C4)C=C3)cc1
REMARK SMILES IDX 5 1 4 2 3 3 2 4 1 5 32 6 33 7 94 8 34 9 93 10 35 11 36 12
REMARK SMILES IDX 37 13 87 14 38 15 92 16 86 17 88 18 39 19 91 20 85 21 84 22
REMARK SMILES IDX 40 24 72 25 52 26 71 27 53 28 56 29 70 30 89 31 54 32 55 33
REMARK SMILES IDX 69 35 90 36 57 37 41 38 42 39 50 40 43 41 44 42 48 43 51 44
REMARK SMILES IDX 45 45 46 46 49 47 47 48 73 49 74 50 82 51 75 52 76 53 80 54
REMARK SMILES IDX 83 55 77 56 78 57 81 58 79 59 58 60 59 61 67 62 60 63 61 64
REMARK SMILES IDX 65 65 68 66 62 67 63 68 66 69 64 70 6 71 7 72 8 73 9 74
REMARK SMILES IDX 10 75 11 76 12 77 13 78 31 79 14 80 23 81 15 84 22 85 16 86
REMARK SMILES IDX 20 87 21 88 17 89 19 90 18 91 24 92 25 93 29 94 26 95 28 96
REMARK SMILES IDX 30 97 27 98
REMARK H PARENT 88 23 56 34 31 82 31 83
REMARK Flexibility Score: inf
ROOT
ATOM      1  C   UNL A   1      32.065  29.708  25.340  1.00  0.00     0.202 C 
ENDROOT
BRANCH   1   2
ATOM      2  C   UNL A   1      33.488  29.390  25.825  1.00  0.00     0.261 C 
BRANCH   2   3
ATOM      3  O   UNL A   1      33.637  29.602  27.237  1.00  0.00    -0.460 OA
BRANCH   3   4
ATOM      4  C   UNL A   1      34.500  30.401  27.902  1.00  0.00     0.338 C 
ATOM      5  O   UNL A   1      34.136  31.551  28.152  1.00  0.00    -0.246 OA
BRANCH   4   6
ATOM      6  C   UNL A   1      35.880  30.002  28.335  1.00  0.00     0.060 A 
ATOM      7  C   UNL A   1      36.901  30.153  27.374  1.00  0.00     0.016 A 
ATOM      8  C   UNL A   1      36.238  29.454  29.569  1.00  0.00     0.016 A 
ATOM      9  C   UNL A   1      38.217  29.762  27.641  1.00  0.00     0.010 A 
ATOM     10  C   UNL A   1      37.550  29.098  29.858  1.00  0.00     0.010 A 
ATOM     11  C   UNL A   1      38.542  29.238  28.893  1.00  0.00    -0.014 A 
BRANCH  11  12
ATOM     12  C   UNL A   1      39.921  28.895  29.270  1.00  0.00     0.031 A 
ATOM     13  C   UNL A   1      40.764  29.870  30.031  1.00  0.00     0.074 A 
ATOM     14  C   UNL A   1      40.431  27.753  28.779  1.00  0.00     0.049 A 
ATOM     15  N   UNL A   1      42.010  29.760  30.409  1.00  0.00    -0.248 NA
ATOM     16  C   UNL A   1      40.135  31.152  30.392  1.00  0.00     0.031 C 
ATOM     17  C   UNL A   1      39.698  26.804  27.939  1.00  0.00     0.029 A 
ATOM     18  N   UNL A   1      41.682  27.211  28.887  1.00  0.00    -0.354 N 
ATOM     19  C   UNL A   1      42.310  30.945  31.066  1.00  0.00     0.074 A 
ATOM     20  C   UNL A   1      41.139  31.789  30.981  1.00  0.00     0.031 C 
ATOM     21  C   UNL A   1      40.511  25.787  27.616  1.00  0.00     0.029 A 
ATOM     22  C   UNL A   1      41.819  26.025  28.213  1.00  0.00     0.049 A 
ATOM     23  H   UNL A   1      42.412  27.632  29.398  1.00  0.00     0.167 HD
ATOM     24  C   UNL A   1      43.458  31.274  31.703  1.00  0.00     0.037 A 
ATOM     25  C   UNL A   1      42.889  25.217  28.101  1.00  0.00     0.037 A 
ATOM     26  C   UNL A   1      44.613  30.413  31.751  1.00  0.00     0.049 A 
ATOM     27  C   UNL A   1      44.148  25.601  28.824  1.00  0.00     0.074 A 
ATOM     28  C   UNL A   1      45.808  30.604  32.419  1.00  0.00     0.029 A 
ATOM     29  N   UNL A   1      44.716  29.199  31.084  1.00  0.00    -0.354 N 
ATOM     30  N   UNL A   1      44.391  26.670  29.543  1.00  0.00    -0.248 NA
ATOM     31  C   UNL A   1      45.272  24.663  28.735  1.00  0.00     0.031 C 
ATOM     32  C   UNL A   1      46.651  29.530  32.117  1.00  0.00     0.029 A 
ATOM     33  C   UNL A   1      45.965  28.641  31.304  1.00  0.00     0.049 A 
ATOM     34  H   UNL A   1      44.005  28.792  30.537  1.00  0.00     0.167 HD
ATOM     35  C   UNL A   1      45.690  26.532  30.005  1.00  0.00     0.074 A 
ATOM     36  C   UNL A   1      46.173  25.259  29.503  1.00  0.00     0.031 C 
ATOM     37  C   UNL A   1      46.420  27.380  30.771  1.00  0.00     0.037 A 
BRANCH  24  38
ATOM     38  C   UNL A   1      43.518  32.596  32.417  1.00  0.00     0.064 A 
ATOM     39  C   UNL A   1      43.143  32.713  33.765  1.00  0.00     0.173 A 
ATOM     40  C   UNL A   1      44.029  33.738  31.781  1.00  0.00     0.173 A 
ATOM     41  F   UNL A   1      42.643  31.655  34.422  1.00  0.00    -0.203 F 
ATOM     42  C   UNL A   1      43.261  33.924  34.443  1.00  0.00     0.198 A 
ATOM     43  C   UNL A   1      44.172  34.940  32.471  1.00  0.00     0.198 A 
ATOM     44  F   UNL A   1      44.408  33.685  30.496  1.00  0.00    -0.203 F 
ATOM     45  F   UNL A   1      42.867  34.015  35.721  1.00  0.00    -0.200 F 
ATOM     46  C   UNL A   1      43.787  35.033  33.799  1.00  0.00     0.200 A 
ATOM     47  F   UNL A   1      44.696  36.008  31.852  1.00  0.00    -0.200 F 
ATOM     48  F   UNL A   1      43.921  36.192  34.459  1.00  0.00    -0.200 F 
ENDBRANCH  24  38
BRANCH  25  49
ATOM     49  C   UNL A   1      42.757  23.945  27.350  1.00  0.00     0.064 A 
ATOM     50  C   UNL A   1      43.148  23.871  26.007  1.00  0.00     0.173 A 
ATOM     51  C   UNL A   1      42.333  22.763  27.975  1.00  0.00     0.173 A 
ATOM     52  F   UNL A   1      43.554  24.977  25.367  1.00  0.00    -0.203 F 
ATOM     53  C   UNL A   1      43.122  22.661  25.317  1.00  0.00     0.198 A 
ATOM     54  C   UNL A   1      42.331  21.549  27.291  1.00  0.00     0.198 A 
ATOM     55  F   UNL A   1      41.966  22.780  29.266  1.00  0.00    -0.203 F 
ATOM     56  F   UNL A   1      43.490  22.621  24.030  1.00  0.00    -0.200 F 
ATOM     57  C   UNL A   1      42.724  21.500  25.962  1.00  0.00     0.200 A 
ATOM     58  F   UNL A   1      41.969  20.425  27.924  1.00  0.00    -0.200 F 
ATOM     59  F   UNL A   1      42.726  20.332  25.304  1.00  0.00    -0.200 F 
ENDBRANCH  25  49
BRANCH  37  60
ATOM     60  C   UNL A   1      47.822  26.960  31.098  1.00  0.00     0.064 A 
ATOM     61  C   UNL A   1      48.091  26.098  32.171  1.00  0.00     0.173 A 
ATOM     62  C   UNL A   1      48.898  27.381  30.302  1.00  0.00     0.173 A 
ATOM     63  F   UNL A   1      47.097  25.682  32.968  1.00  0.00    -0.203 F 
ATOM     64  C   UNL A   1      49.393  25.691  32.449  1.00  0.00     0.198 A 
ATOM     65  C   UNL A   1      50.192  26.947  30.564  1.00  0.00     0.198 A 
ATOM     66  F   UNL A   1      48.689  28.199  29.259  1.00  0.00    -0.203 F 
ATOM     67  F   UNL A   1      49.634  24.905  33.507  1.00  0.00    -0.200 F 
ATOM     68  C   UNL A   1      50.440  26.108  31.641  1.00  0.00     0.200 A 
ATOM     69  F   UNL A   1      51.202  27.336  29.773  1.00  0.00    -0.200 F 
ATOM     70  F   UNL A   1      51.690  25.705  31.904  1.00  0.00    -0.200 F 
ENDBRANCH  37  60
ENDBRANCH  11  12
ENDBRANCH   4   6
ENDBRANCH   3   4
ENDBRANCH   2   3
ENDBRANCH   1   2
BRANCH   1  71
ATOM     71  O   UNL A   1      31.690  29.191  24.060  1.00  0.00    -0.374 OA
BRANCH  71  72
ATOM     72  C   UNL A   1      31.564  27.762  23.974  1.00  0.00     0.202 C 
BRANCH  72  73
ATOM     73  C   UNL A   1      31.477  27.244  22.530  1.00  0.00     0.261 C 
BRANCH  73  74
ATOM     74  O   UNL A   1      31.696  25.821  22.550  1.00  0.00    -0.459 OA
BRANCH  74  75
ATOM     75  C   UNL A   1      32.967  25.416  22.236  1.00  0.00     0.365 C 
ATOM     76  O   UNL A   1      33.768  26.060  21.585  1.00  0.00    -0.245 OA
BRANCH  75  77
ATOM     77  C   UNL A   1      33.247  24.129  23.015  1.00  0.00     0.298 C 
ATOM     78  C   UNL A   1      32.489  22.824  22.623  1.00  0.00     0.111 C 
ATOM     79  N   UNL A   1      34.701  23.971  23.322  1.00  0.00    -0.326 N 
ATOM     80  C   UNL A   1      32.726  21.786  23.715  1.00  0.00    -0.024 C 
ATOM     81  C   UNL A   1      34.917  22.698  24.052  1.00  0.00     0.246 C 
ATOM     82  H   UNL A   1      35.013  24.751  23.899  1.00  0.00     0.347 HD
ATOM     83  H   UNL A   1      35.232  23.957  22.451  1.00  0.00     0.347 HD
ATOM     84  C   UNL A   1      32.628  20.456  23.797  1.00  0.00     0.002 A 
ATOM     85  C   UNL A   1      33.627  22.269  24.838  1.00  0.00     0.196 C 
ATOM     86  C   UNL A   1      32.251  19.381  22.938  1.00  0.00     0.010 A 
ATOM     87  C   UNL A   1      33.255  20.160  25.107  1.00  0.00     0.066 A 
ATOM     88  N   UNL A   1      33.820  21.128  25.749  1.00  0.00    -0.270 NA
ATOM     89  C   UNL A   1      32.399  18.117  23.383  1.00  0.00     0.001 A 
ATOM     90  C   UNL A   1      33.243  18.773  25.587  1.00  0.00     0.028 A 
ATOM     91  C   UNL A   1      32.841  17.819  24.737  1.00  0.00     0.002 A 
BRANCH  81  92
ATOM     92  C   UNL A   1      36.153  22.592  24.899  1.00  0.00     0.048 A 
ATOM     93  C   UNL A   1      36.610  23.774  25.525  1.00  0.00     0.013 A 
ATOM     94  C   UNL A   1      36.959  21.461  24.949  1.00  0.00     0.132 A 
ATOM     95  C   UNL A   1      37.852  23.823  26.149  1.00  0.00     0.001 A 
ATOM     96  C   UNL A   1      38.191  21.497  25.599  1.00  0.00     0.040 A 
ATOM     97  F   UNL A   1      36.595  20.332  24.326  1.00  0.00    -0.206 F 
ATOM     98  C   UNL A   1      38.644  22.681  26.186  1.00  0.00     0.003 A 
ENDBRANCH  81  92
ENDBRANCH  75  77
ENDBRANCH  74  75
ENDBRANCH  73  74
ENDBRANCH  72  73
ENDBRANCH  71  72
ENDBRANCH   1  71
TORSDOF 15
ENDMDL
MODEL 3
REMARK VINA RESULT:     -12.5      2.087      7.263
REMARK SMILES O=C(OCCOCCOC(=O)[C@H]1CC2=c3ccccc3=N[C@H]2[C@H](c2ccccc2F)[NH2+]1)c1ccc(-c2c3nc(c(-c4c(F)c(F)c(F)c(F)c4F)c4ccc([nH]4)c(-c4c(F)c(F)c(F)c(F)c4F)c4nc(c(-c5c(F)c(F)c(F)c(F)c5F)c5ccc2[nH]5)C=C4)C=C3)cc1
REMARK SMILES IDX 5 1 4 2 3 3 2 4 1 5 32 6 33 7 94 8 34 9 93 10 35 11 36 12
REMARK SMILES IDX 37 13 87 14 38 15 92 16 86 17 88 18 39 19 91 20 85 21 84 22
REMARK SMILES IDX 40 24 72 25 52 26 71 27 53 28 56 29 70 30 89 31 54 32 55 33
REMARK SMILES IDX 69 35 90 36 57 37 41 38 42 39 50 40 43 41 44 42 48 43 51 44
REMARK SMILES IDX 45 45 46 46 49 47 47 48 73 49 74 50 82 51 75 52 76 53 80 54
REMARK SMILES IDX 83 55 77 56 78 57 81 58 79 59 58 60 59 61 67 62 60 63 61 64
REMARK SMILES IDX 65 65 68 66 62 67 63 68 66 69 64 70 6 71 7 72 8 73 9 74
REMARK SMILES IDX 10 75 11 76 12 77 13 78 31 79 14 80 23 81 15 84 22 85 16 86
REMARK SMILES IDX 20 87 21 88 17 89 19 90 18 91 24 92 25 93 29 94 26 95 28 96
REMARK SMILES IDX 30 97 27 98
REMARK H PARENT 88 23 56 34 31 82 31 83
REMARK Flexibility Score: inf
ROOT
ATOM      1  C   UNL A   1      35.402  21.802  24.750  1.00  0.00     0.202 C 
ENDROOT
BRANCH   1   2
ATOM      2  C   UNL A   1      36.885  21.447  24.563  1.00  0.00     0.261 C 
BRANCH   2   3
ATOM      3  O   UNL A   1      37.563  21.279  25.818  1.00  0.00    -0.460 OA
BRANCH   3   4
ATOM      4  C   UNL A   1      38.865  21.465  26.127  1.00  0.00     0.338 C 
ATOM      5  O   UNL A   1      39.599  20.476  26.126  1.00  0.00    -0.246 OA
BRANCH   4   6
ATOM      6  C   UNL A   1      39.479  22.783  26.501  1.00  0.00     0.060 A 
ATOM      7  C   UNL A   1      40.471  22.744  27.502  1.00  0.00     0.016 A 
ATOM      8  C   UNL A   1      39.129  24.036  25.994  1.00  0.00     0.016 A 
ATOM      9  C   UNL A   1      41.075  23.913  27.975  1.00  0.00     0.010 A 
ATOM     10  C   UNL A   1      39.750  25.200  26.429  1.00  0.00     0.010 A 
ATOM     11  C   UNL A   1      40.715  25.147  27.429  1.00  0.00    -0.014 A 
BRANCH  11  12
ATOM     12  C   UNL A   1      41.377  26.402  27.814  1.00  0.00     0.031 A 
ATOM     13  C   UNL A   1      40.595  27.506  28.455  1.00  0.00     0.074 A 
ATOM     14  C   UNL A   1      42.655  26.569  27.435  1.00  0.00     0.049 A 
ATOM     15  N   UNL A   1      40.998  28.695  28.820  1.00  0.00    -0.248 NA
ATOM     16  C   UNL A   1      39.164  27.256  28.692  1.00  0.00     0.031 C 
ATOM     17  C   UNL A   1      43.448  25.574  26.711  1.00  0.00     0.029 A 
ATOM     18  N   UNL A   1      43.499  27.636  27.575  1.00  0.00    -0.354 N 
ATOM     19  C   UNL A   1      39.880  29.327  29.345  1.00  0.00     0.074 A 
ATOM     20  C   UNL A   1      38.765  28.418  29.194  1.00  0.00     0.031 C 
ATOM     21  C   UNL A   1      44.671  26.073  26.480  1.00  0.00     0.029 A 
ATOM     22  C   UNL A   1      44.737  27.424  27.025  1.00  0.00     0.049 A 
ATOM     23  H   UNL A   1      43.242  28.473  28.026  1.00  0.00     0.167 HD
ATOM     24  C   UNL A   1      39.811  30.548  29.922  1.00  0.00     0.037 A 
ATOM     25  C   UNL A   1      45.808  28.236  26.978  1.00  0.00     0.037 A 
ATOM     26  C   UNL A   1      40.941  31.435  30.038  1.00  0.00     0.049 A 
ATOM     27  C   UNL A   1      45.709  29.583  27.634  1.00  0.00     0.074 A 
ATOM     28  C   UNL A   1      41.014  32.668  30.661  1.00  0.00     0.029 A 
ATOM     29  N   UNL A   1      42.197  31.183  29.499  1.00  0.00    -0.354 N 
ATOM     30  N   UNL A   1      44.681  30.132  28.234  1.00  0.00    -0.248 NA
ATOM     31  C   UNL A   1      46.917  30.414  27.621  1.00  0.00     0.031 C 
ATOM     32  C   UNL A   1      42.299  33.182  30.456  1.00  0.00     0.029 A 
ATOM     33  C   UNL A   1      43.044  32.250  29.752  1.00  0.00     0.049 A 
ATOM     34  H   UNL A   1      42.448  30.366  29.009  1.00  0.00     0.167 HD
ATOM     35  C   UNL A   1      45.116  31.368  28.684  1.00  0.00     0.074 A 
ATOM     36  C   UNL A   1      46.514  31.474  28.307  1.00  0.00     0.031 C 
ATOM     37  C   UNL A   1      44.426  32.330  29.344  1.00  0.00     0.037 A 
BRANCH  24  38
ATOM     38  C   UNL A   1      38.493  30.988  30.495  1.00  0.00     0.064 A 
ATOM     39  C   UNL A   1      38.212  30.855  31.865  1.00  0.00     0.173 A 
ATOM     40  C   UNL A   1      37.531  31.620  29.692  1.00  0.00     0.173 A 
ATOM     41  F   UNL A   1      39.093  30.253  32.679  1.00  0.00    -0.203 F 
ATOM     42  C   UNL A   1      37.016  31.322  32.404  1.00  0.00     0.198 A 
ATOM     43  C   UNL A   1      36.348  32.112  30.240  1.00  0.00     0.198 A 
ATOM     44  F   UNL A   1      37.746  31.781  28.378  1.00  0.00    -0.203 F 
ATOM     45  F   UNL A   1      36.761  31.155  33.709  1.00  0.00    -0.200 F 
ATOM     46  C   UNL A   1      36.090  31.961  31.594  1.00  0.00     0.200 A 
ATOM     47  F   UNL A   1      35.461  32.745  29.459  1.00  0.00    -0.200 F 
ATOM     48  F   UNL A   1      34.950  32.431  32.118  1.00  0.00    -0.200 F 
ENDBRANCH  24  38
BRANCH  25  49
ATOM     49  C   UNL A   1      47.064  27.738  26.365  1.00  0.00     0.064 A 
ATOM     50  C   UNL A   1      48.017  27.071  27.145  1.00  0.00     0.173 A 
ATOM     51  C   UNL A   1      47.294  27.828  24.984  1.00  0.00     0.173 A 
ATOM     52  F   UNL A   1      47.842  26.967  28.470  1.00  0.00    -0.203 F 
ATOM     53  C   UNL A   1      49.155  26.513  26.567  1.00  0.00     0.198 A 
ATOM     54  C   UNL A   1      48.419  27.247  24.404  1.00  0.00     0.198 A 
ATOM     55  F   UNL A   1      46.401  28.441  24.193  1.00  0.00    -0.203 F 
ATOM     56  F   UNL A   1      50.057  25.891  27.339  1.00  0.00    -0.200 F 
ATOM     57  C   UNL A   1      49.349  26.590  25.196  1.00  0.00     0.200 A 
ATOM     58  F   UNL A   1      48.593  27.303  23.077  1.00  0.00    -0.200 F 
ATOM     59  F   UNL A   1      50.430  26.028  24.639  1.00  0.00    -0.200 F 
ENDBRANCH  25  49
BRANCH  37  60
ATOM     60  C   UNL A   1      45.172  33.585  29.687  1.00  0.00     0.064 A 
ATOM     61  C   UNL A   1      45.872  33.707  30.896  1.00  0.00     0.173 A 
ATOM     62  C   UNL A   1      45.232  34.652  28.778  1.00  0.00     0.173 A 
ATOM     63  F   UNL A   1      45.832  32.719  31.802  1.00  0.00    -0.203 F 
ATOM     64  C   UNL A   1      46.586  34.865  31.193  1.00  0.00     0.198 A 
ATOM     65  C   UNL A   1      45.973  35.793  29.065  1.00  0.00     0.198 A 
ATOM     66  F   UNL A   1      44.586  34.578  27.604  1.00  0.00    -0.203 F 
ATOM     67  F   UNL A   1      47.209  34.980  32.374  1.00  0.00    -0.200 F 
ATOM     68  C   UNL A   1      46.643  35.902  30.274  1.00  0.00     0.200 A 
ATOM     69  F   UNL A   1      46.041  36.788  28.170  1.00  0.00    -0.200 F 
ATOM     70  F   UNL A   1      47.341  37.010  30.557  1.00  0.00    -0.200 F 
ENDBRANCH  37  60
ENDBRANCH  11  12
ENDBRANCH   4   6
ENDBRANCH   3   4
ENDBRANCH   2   3
ENDBRANCH   1   2
BRANCH   1  71
ATOM     71  O   UNL A   1      35.078  22.654  25.852  1.00  0.00    -0.374 OA
BRANCH  71  72
ATOM     72  C   UNL A   1      34.246  23.786  25.545  1.00  0.00     0.202 C 
BRANCH  72  73
ATOM     73  C   UNL A   1      32.776  23.410  25.295  1.00  0.00     0.261 C 
BRANCH  73  74
ATOM     74  O   UNL A   1      32.104  23.361  26.567  1.00  0.00    -0.459 OA
BRANCH  74  75
ATOM     75  C   UNL A   1      30.861  23.936  26.599  1.00  0.00     0.365 C 
ATOM     76  O   UNL A   1      29.917  23.531  27.252  1.00  0.00    -0.245 OA
BRANCH  75  77
ATOM     77  C   UNL A   1      30.946  25.263  25.843  1.00  0.00     0.298 C 
ATOM     78  C   UNL A   1      29.754  25.699  24.937  1.00  0.00     0.111 C 
ATOM     79  N   UNL A   1      31.556  26.341  26.680  1.00  0.00    -0.326 N 
ATOM     80  C   UNL A   1      30.204  26.885  24.090  1.00  0.00    -0.024 C 
ATOM     81  C   UNL A   1      31.588  27.608  25.908  1.00  0.00     0.246 C 
ATOM     82  H   UNL A   1      32.506  26.075  26.936  1.00  0.00     0.347 HD
ATOM     83  H   UNL A   1      30.999  26.472  27.524  1.00  0.00     0.347 HD
ATOM     84  C   UNL A   1      29.585  27.852  23.407  1.00  0.00     0.002 A 
ATOM     85  C   UNL A   1      31.630  27.330  24.364  1.00  0.00     0.196 C 
ATOM     86  C   UNL A   1      28.240  28.237  23.126  1.00  0.00     0.010 A 
ATOM     87  C   UNL A   1      30.697  28.764  23.048  1.00  0.00     0.066 A 
ATOM     88  N   UNL A   1      31.868  28.525  23.536  1.00  0.00    -0.270 NA
ATOM     89  C   UNL A   1      28.024  29.388  22.460  1.00  0.00     0.001 A 
ATOM     90  C   UNL A   1      30.400  29.920  22.193  1.00  0.00     0.028 A 
ATOM     91  C   UNL A   1      29.115  30.200  21.941  1.00  0.00     0.002 A 
BRANCH  81  92
ATOM     92  C   UNL A   1      32.600  28.639  26.322  1.00  0.00     0.048 A 
ATOM     93  C   UNL A   1      33.915  28.188  26.576  1.00  0.00     0.013 A 
ATOM     94  C   UNL A   1      32.276  29.952  26.641  1.00  0.00     0.132 A 
ATOM     95  C   UNL A   1      34.860  29.022  27.164  1.00  0.00     0.001 A 
ATOM     96  C   UNL A   1      33.228  30.800  27.203  1.00  0.00     0.040 A 
ATOM     97  F   UNL A   1      31.028  30.411  26.469  1.00  0.00    -0.206 F 
ATOM     98  C   UNL A   1      34.514  30.332  27.479  1.00  0.00     0.003 A 
ENDBRANCH  81  92
ENDBRANCH  75  77
ENDBRANCH  74  75
ENDBRANCH  73  74
ENDBRANCH  72  73
ENDBRANCH  71  72
ENDBRANCH   1  71
TORSDOF 15
ENDMDL
