MODEL 1
REMARK VINA RESULT:     -10.9      0.000      0.000
REMARK SMILES C[C@@H]1CN(S(=O)(=O)N[C@H](C(=O)OCCOCCOC(=O)c2ccc(-c3c4nc(c(-c5c(F)c(F)c(F)c(F)c5F)c5ccc([nH]5)c(-c5c(F)c(F)c(F)c(F)c5F)c5nc(c(-c6c(F)c(F)c(F)c(F)c6F)c6ccc3[nH]6)C=C5)C=C4)cc2)[C@@H](C)O)C[C@@H](C)O1
REMARK SMILES IDX 14 1 13 2 12 3 10 4 11 5 9 6 8 7 5 9 6 10 7 11 4 12 1 13
REMARK SMILES IDX 2 14 3 15 90 16 88 17 87 18 89 19 84 20 85 21 86 22 15 24
REMARK SMILES IDX 16 25 17 26 18 27 19 28 20 29 21 30 22 31 83 32 23 33 82 34
REMARK SMILES IDX 24 35 25 36 26 37 76 38 27 39 81 40 75 41 77 42 28 43 80 44
REMARK SMILES IDX 74 45 73 46 29 48 61 49 41 50 60 51 42 52 45 53 59 54 78 55
REMARK SMILES IDX 43 56 44 57 58 59 79 60 46 61 30 62 31 63 39 64 32 65 33 66
REMARK SMILES IDX 37 67 40 68 34 69 35 70 38 71 36 72 62 73 63 74 71 75 64 76
REMARK SMILES IDX 65 77 69 78 72 79 66 80 67 81 70 82 68 83 47 84 48 85 56 86
REMARK SMILES IDX 49 87 50 88 54 89 57 90 51 91 52 92 55 93 53 94
REMARK H PARENT 8 8 86 23 77 47 45 58
REMARK Flexibility Score: inf
ROOT
ATOM      1  C   UNL A   1      34.619  22.888  26.692  1.00  0.00     0.202 C 
ENDROOT
BRANCH   1   2
ATOM      2  C   UNL A   1      33.466  23.521  25.920  1.00  0.00     0.261 C 
BRANCH   2   3
ATOM      3  O   UNL A   1      33.197  24.909  26.167  1.00  0.00    -0.462 OA
BRANCH   3   4
ATOM      4  C   UNL A   1      33.172  25.766  25.120  1.00  0.00     0.326 C 
ATOM      5  O   UNL A   1      33.635  25.582  24.004  1.00  0.00    -0.250 OA
BRANCH   4   6
ATOM      6  C   UNL A   1      32.485  27.042  25.450  1.00  0.00     0.208 C 
BRANCH   6   7
ATOM      7  N   UNL A   1      31.555  27.310  24.280  1.00  0.00    -0.185 NA
ATOM      8  H   UNL A   1      31.762  26.612  23.565  1.00  0.00     0.143 HD
BRANCH   7   9
ATOM      9  S   UNL A   1      31.621  28.822  23.534  1.00  0.00     0.280 S 
ATOM     10  O   UNL A   1      32.481  28.706  22.381  1.00  0.00    -0.195 OA
ATOM     11  O   UNL A   1      31.947  29.723  24.617  1.00  0.00    -0.195 OA
BRANCH   9  12
ATOM     12  N   UNL A   1      30.046  29.251  22.985  1.00  0.00    -0.184 NA
ATOM     13  C   UNL A   1      28.075  31.156  21.400  1.00  0.00     0.040 C 
ATOM     14  C   UNL A   1      28.155  30.943  22.912  1.00  0.00     0.130 C 
ATOM     15  C   UNL A   1      29.536  30.574  23.457  1.00  0.00     0.135 C 
ATOM     16  O   UNL A   1      27.208  29.992  23.382  1.00  0.00    -0.373 OA
ATOM     17  C   UNL A   1      27.558  28.646  23.031  1.00  0.00     0.130 C 
ATOM     18  C   UNL A   1      29.005  28.240  23.430  1.00  0.00     0.135 C 
ATOM     19  C   UNL A   1      26.538  27.800  23.782  1.00  0.00     0.040 C 
ENDBRANCH   9  12
ENDBRANCH   7   9
ENDBRANCH   6   7
BRANCH   6  20
ATOM     20  C   UNL A   1      31.719  26.755  26.768  1.00  0.00     0.140 C 
ATOM     21  C   UNL A   1      31.394  28.022  27.588  1.00  0.00     0.040 C 
BRANCH  20  22
ATOM     22  O   UNL A   1      30.490  26.089  26.449  1.00  0.00    -0.391 OA
ATOM     23  H   UNL A   1      29.795  26.749  26.298  1.00  0.00     0.211 HD
ENDBRANCH  20  22
ENDBRANCH   6  20
ENDBRANCH   4   6
ENDBRANCH   3   4
ENDBRANCH   2   3
ENDBRANCH   1   2
BRANCH   1  24
ATOM     24  O   UNL A   1      34.992  21.543  26.398  1.00  0.00    -0.374 OA
BRANCH  24  25
ATOM     25  C   UNL A   1      35.519  21.337  25.073  1.00  0.00     0.202 C 
BRANCH  25  26
ATOM     26  C   UNL A   1      36.900  20.692  25.016  1.00  0.00     0.261 C 
BRANCH  26  27
ATOM     27  O   UNL A   1      37.904  21.701  25.161  1.00  0.00    -0.460 OA
BRANCH  27  28
ATOM     28  C   UNL A   1      38.931  21.332  25.966  1.00  0.00     0.338 C 
ATOM     29  O   UNL A   1      39.420  20.219  26.071  1.00  0.00    -0.246 OA
BRANCH  28  30
ATOM     30  C   UNL A   1      39.550  22.549  26.540  1.00  0.00     0.060 A 
ATOM     31  C   UNL A   1      38.998  23.783  26.163  1.00  0.00     0.016 A 
ATOM     32  C   UNL A   1      40.559  22.493  27.509  1.00  0.00     0.016 A 
ATOM     33  C   UNL A   1      39.487  24.965  26.708  1.00  0.00     0.010 A 
ATOM     34  C   UNL A   1      41.062  23.679  28.044  1.00  0.00     0.010 A 
ATOM     35  C   UNL A   1      40.560  24.915  27.602  1.00  0.00    -0.014 A 
BRANCH  35  36
ATOM     36  C   UNL A   1      41.350  26.142  27.835  1.00  0.00     0.031 A 
ATOM     37  C   UNL A   1      40.671  27.256  28.582  1.00  0.00     0.074 A 
ATOM     38  C   UNL A   1      42.625  26.254  27.430  1.00  0.00     0.049 A 
ATOM     39  N   UNL A   1      41.106  28.454  28.869  1.00  0.00    -0.248 NA
ATOM     40  C   UNL A   1      39.306  26.979  29.065  1.00  0.00     0.031 C 
ATOM     41  C   UNL A   1      43.393  25.216  26.750  1.00  0.00     0.029 A 
ATOM     42  N   UNL A   1      43.494  27.309  27.534  1.00  0.00    -0.354 N 
ATOM     43  C   UNL A   1      40.068  29.071  29.555  1.00  0.00     0.074 A 
ATOM     44  C   UNL A   1      38.969  28.135  29.611  1.00  0.00     0.031 C 
ATOM     45  C   UNL A   1      44.622  25.692  26.481  1.00  0.00     0.029 A 
ATOM     46  C   UNL A   1      44.710  27.078  26.942  1.00  0.00     0.049 A 
ATOM     47  H   UNL A   1      43.267  28.152  27.989  1.00  0.00     0.167 HD
ATOM     48  C   UNL A   1      40.040  30.307  30.101  1.00  0.00     0.037 A 
ATOM     49  C   UNL A   1      45.758  27.908  26.774  1.00  0.00     0.037 A 
ATOM     50  C   UNL A   1      41.140  31.229  30.040  1.00  0.00     0.049 A 
ATOM     51  C   UNL A   1      45.670  29.314  27.315  1.00  0.00     0.074 A 
ATOM     52  C   UNL A   1      41.228  32.502  30.573  1.00  0.00     0.029 A 
ATOM     53  N   UNL A   1      42.343  30.975  29.398  1.00  0.00    -0.354 N 
ATOM     54  N   UNL A   1      44.697  29.887  27.984  1.00  0.00    -0.248 NA
ATOM     55  C   UNL A   1      46.826  30.189  27.076  1.00  0.00     0.031 C 
ATOM     56  C   UNL A   1      42.463  33.041  30.201  1.00  0.00     0.029 A 
ATOM     57  C   UNL A   1      43.168  32.082  29.491  1.00  0.00     0.049 A 
ATOM     58  H   UNL A   1      42.574  30.133  28.943  1.00  0.00     0.167 HD
ATOM     59  C   UNL A   1      45.133  31.175  28.270  1.00  0.00     0.074 A 
ATOM     60  C   UNL A   1      46.465  31.295  27.713  1.00  0.00     0.031 C 
ATOM     61  C   UNL A   1      44.494  32.171  28.933  1.00  0.00     0.037 A 
BRANCH  48  62
ATOM     62  C   UNL A   1      38.771  30.739  30.773  1.00  0.00     0.064 A 
ATOM     63  C   UNL A   1      37.679  31.237  30.046  1.00  0.00     0.173 A 
ATOM     64  C   UNL A   1      38.642  30.641  32.167  1.00  0.00     0.173 A 
ATOM     65  F   UNL A   1      37.762  31.375  28.714  1.00  0.00    -0.203 F 
ATOM     66  C   UNL A   1      36.514  31.642  30.692  1.00  0.00     0.198 A 
ATOM     67  C   UNL A   1      37.465  31.017  32.806  1.00  0.00     0.198 A 
ATOM     68  F   UNL A   1      39.659  30.177  32.910  1.00  0.00    -0.203 F 
ATOM     69  F   UNL A   1      35.504  32.164  29.982  1.00  0.00    -0.200 F 
ATOM     70  C   UNL A   1      36.404  31.523  32.070  1.00  0.00     0.200 A 
ATOM     71  F   UNL A   1      37.357  30.894  34.136  1.00  0.00    -0.200 F 
ATOM     72  F   UNL A   1      35.280  31.908  32.689  1.00  0.00    -0.200 F 
ENDBRANCH  48  62
BRANCH  49  73
ATOM     73  C   UNL A   1      46.970  27.444  26.051  1.00  0.00     0.064 A 
ATOM     74  C   UNL A   1      48.047  26.863  26.737  1.00  0.00     0.173 A 
ATOM     75  C   UNL A   1      47.091  27.594  24.661  1.00  0.00     0.173 A 
ATOM     76  F   UNL A   1      47.992  26.722  28.070  1.00  0.00    -0.203 F 
ATOM     77  C   UNL A   1      49.202  26.469  26.065  1.00  0.00     0.198 A 
ATOM     78  C   UNL A   1      48.234  27.171  23.985  1.00  0.00     0.198 A 
ATOM     79  F   UNL A   1      46.093  28.146  23.956  1.00  0.00    -0.203 F 
ATOM     80  F   UNL A   1      50.235  25.963  26.752  1.00  0.00    -0.200 F 
ATOM     81  C   UNL A   1      49.292  26.617  24.689  1.00  0.00     0.200 A 
ATOM     82  F   UNL A   1      48.312  27.307  22.654  1.00  0.00    -0.200 F 
ATOM     83  F   UNL A   1      50.403  26.237  24.043  1.00  0.00    -0.200 F 
ENDBRANCH  49  73
BRANCH  61  84
ATOM     84  C   UNL A   1      45.234  33.464  29.123  1.00  0.00     0.064 A 
ATOM     85  C   UNL A   1      46.088  33.669  30.217  1.00  0.00     0.173 A 
ATOM     86  C   UNL A   1      45.135  34.484  28.165  1.00  0.00     0.173 A 
ATOM     87  F   UNL A   1      46.208  32.728  31.166  1.00  0.00    -0.203 F 
ATOM     88  C   UNL A   1      46.797  34.858  30.355  1.00  0.00     0.198 A 
ATOM     89  C   UNL A   1      45.872  35.658  28.290  1.00  0.00     0.198 A 
ATOM     90  F   UNL A   1      44.341  34.332  27.094  1.00  0.00    -0.203 F 
ATOM     91  F   UNL A   1      47.572  35.053  31.432  1.00  0.00    -0.200 F 
ATOM     92  C   UNL A   1      46.695  35.848  29.388  1.00  0.00     0.200 A 
ATOM     93  F   UNL A   1      45.786  36.604  27.344  1.00  0.00    -0.200 F 
ATOM     94  F   UNL A   1      47.390  36.987  29.518  1.00  0.00    -0.200 F 
ENDBRANCH  61  84
ENDBRANCH  35  36
ENDBRANCH  28  30
ENDBRANCH  27  28
ENDBRANCH  26  27
ENDBRANCH  25  26
ENDBRANCH  24  25
ENDBRANCH   1  24
TORSDOF 19
ENDMDL
MODEL 2
REMARK VINA RESULT:     -10.9      4.226      7.886
REMARK SMILES C[C@@H]1CN(S(=O)(=O)N[C@H](C(=O)OCCOCCOC(=O)c2ccc(-c3c4nc(c(-c5c(F)c(F)c(F)c(F)c5F)c5ccc([nH]5)c(-c5c(F)c(F)c(F)c(F)c5F)c5nc(c(-c6c(F)c(F)c(F)c(F)c6F)c6ccc3[nH]6)C=C5)C=C4)cc2)[C@@H](C)O)C[C@@H](C)O1
REMARK SMILES IDX 14 1 13 2 12 3 10 4 11 5 9 6 8 7 5 9 6 10 7 11 4 12 1 13
REMARK SMILES IDX 2 14 3 15 90 16 88 17 87 18 89 19 84 20 85 21 86 22 15 24
REMARK SMILES IDX 16 25 17 26 18 27 19 28 20 29 21 30 22 31 83 32 23 33 82 34
REMARK SMILES IDX 24 35 25 36 26 37 76 38 27 39 81 40 75 41 77 42 28 43 80 44
REMARK SMILES IDX 74 45 73 46 29 48 61 49 41 50 60 51 42 52 45 53 59 54 78 55
REMARK SMILES IDX 43 56 44 57 58 59 79 60 46 61 30 62 31 63 39 64 32 65 33 66
REMARK SMILES IDX 37 67 40 68 34 69 35 70 38 71 36 72 62 73 63 74 71 75 64 76
REMARK SMILES IDX 65 77 69 78 72 79 66 80 67 81 70 82 68 83 47 84 48 85 56 86
REMARK SMILES IDX 49 87 50 88 54 89 57 90 51 91 52 92 55 93 53 94
REMARK H PARENT 8 8 86 23 77 47 45 58
REMARK Flexibility Score: inf
ROOT
ATOM      1  C   UNL A   1      31.933  29.309  26.973  1.00  0.00     0.202 C 
ENDROOT
BRANCH   1   2
ATOM      2  C   UNL A   1      31.406  28.649  25.703  1.00  0.00     0.261 C 
BRANCH   2   3
ATOM      3  O   UNL A   1      31.511  27.220  25.616  1.00  0.00    -0.462 OA
BRANCH   3   4
ATOM      4  C   UNL A   1      30.695  26.555  24.766  1.00  0.00     0.326 C 
ATOM      5  O   UNL A   1      29.702  26.993  24.201  1.00  0.00    -0.250 OA
BRANCH   4   6
ATOM      6  C   UNL A   1      31.126  25.150  24.549  1.00  0.00     0.208 C 
BRANCH   6   7
ATOM      7  N   UNL A   1      32.640  25.206  24.456  1.00  0.00    -0.185 NA
ATOM      8  H   UNL A   1      32.890  26.157  24.184  1.00  0.00     0.143 HD
BRANCH   7   9
ATOM      9  S   UNL A   1      33.416  24.161  23.384  1.00  0.00     0.280 S 
ATOM     10  O   UNL A   1      34.075  24.967  22.383  1.00  0.00    -0.195 OA
ATOM     11  O   UNL A   1      32.383  23.219  23.016  1.00  0.00    -0.195 OA
BRANCH   9  12
ATOM     12  N   UNL A   1      34.623  23.273  24.232  1.00  0.00    -0.184 NA
ATOM     13  C   UNL A   1      37.418  23.087  25.710  1.00  0.00     0.040 C 
ATOM     14  C   UNL A   1      37.021  22.454  24.376  1.00  0.00     0.130 C 
ATOM     15  C   UNL A   1      35.962  23.210  23.572  1.00  0.00     0.135 C 
ATOM     16  O   UNL A   1      36.612  21.099  24.513  1.00  0.00    -0.373 OA
ATOM     17  C   UNL A   1      35.318  20.974  25.119  1.00  0.00     0.130 C 
ATOM     18  C   UNL A   1      34.211  21.827  24.438  1.00  0.00     0.135 C 
ATOM     19  C   UNL A   1      35.003  19.489  24.993  1.00  0.00     0.040 C 
ENDBRANCH   9  12
ENDBRANCH   7   9
ENDBRANCH   6   7
BRANCH   6  20
ATOM     20  C   UNL A   1      30.633  24.383  25.805  1.00  0.00     0.140 C 
ATOM     21  C   UNL A   1      31.764  23.994  26.780  1.00  0.00     0.040 C 
BRANCH  20  22
ATOM     22  O   UNL A   1      29.689  25.204  26.504  1.00  0.00    -0.391 OA
ATOM     23  H   UNL A   1      29.680  24.959  27.443  1.00  0.00     0.211 HD
ENDBRANCH  20  22
ENDBRANCH   6  20
ENDBRANCH   4   6
ENDBRANCH   3   4
ENDBRANCH   2   3
ENDBRANCH   1   2
BRANCH   1  24
ATOM     24  O   UNL A   1      32.570  30.582  26.877  1.00  0.00    -0.374 OA
BRANCH  24  25
ATOM     25  C   UNL A   1      31.700  31.667  26.502  1.00  0.00     0.202 C 
BRANCH  25  26
ATOM     26  C   UNL A   1      32.049  33.020  27.111  1.00  0.00     0.261 C 
BRANCH  26  27
ATOM     27  O   UNL A   1      33.025  32.843  28.142  1.00  0.00    -0.460 OA
BRANCH  27  28
ATOM     28  C   UNL A   1      34.112  33.640  28.002  1.00  0.00     0.338 C 
ATOM     29  O   UNL A   1      34.121  34.842  27.786  1.00  0.00    -0.246 OA
BRANCH  28  30
ATOM     30  C   UNL A   1      35.320  32.877  28.393  1.00  0.00     0.060 A 
ATOM     31  C   UNL A   1      35.172  31.491  28.554  1.00  0.00     0.016 A 
ATOM     32  C   UNL A   1      36.586  33.468  28.483  1.00  0.00     0.016 A 
ATOM     33  C   UNL A   1      36.273  30.700  28.861  1.00  0.00     0.010 A 
ATOM     34  C   UNL A   1      37.689  32.679  28.808  1.00  0.00     0.010 A 
ATOM     35  C   UNL A   1      37.521  31.304  29.048  1.00  0.00    -0.014 A 
BRANCH  35  36
ATOM     36  C   UNL A   1      38.567  30.564  29.784  1.00  0.00     0.031 A 
ATOM     37  C   UNL A   1      38.755  30.916  31.234  1.00  0.00     0.074 A 
ATOM     38  C   UNL A   1      39.298  29.600  29.203  1.00  0.00     0.049 A 
ATOM     39  N   UNL A   1      39.632  30.470  32.093  1.00  0.00    -0.248 NA
ATOM     40  C   UNL A   1      37.826  31.917  31.788  1.00  0.00     0.031 C 
ATOM     41  C   UNL A   1      39.157  29.144  27.824  1.00  0.00     0.029 A 
ATOM     42  N   UNL A   1      40.314  28.836  29.714  1.00  0.00    -0.354 N 
ATOM     43  C   UNL A   1      39.365  31.141  33.278  1.00  0.00     0.074 A 
ATOM     44  C   UNL A   1      38.272  32.050  33.024  1.00  0.00     0.031 C 
ATOM     45  C   UNL A   1      40.070  28.183  27.590  1.00  0.00     0.029 A 
ATOM     46  C   UNL A   1      40.876  27.985  28.795  1.00  0.00     0.049 A 
ATOM     47  H   UNL A   1      40.613  28.891  30.651  1.00  0.00     0.167 HD
ATOM     48  C   UNL A   1      39.972  31.002  34.478  1.00  0.00     0.037 A 
ATOM     49  C   UNL A   1      41.937  27.164  28.917  1.00  0.00     0.037 A 
ATOM     50  C   UNL A   1      41.058  30.093  34.720  1.00  0.00     0.049 A 
ATOM     51  C   UNL A   1      42.656  27.090  30.242  1.00  0.00     0.074 A 
ATOM     52  C   UNL A   1      41.738  29.857  35.900  1.00  0.00     0.029 A 
ATOM     53  N   UNL A   1      41.627  29.276  33.754  1.00  0.00    -0.354 N 
ATOM     54  N   UNL A   1      42.386  27.709  31.367  1.00  0.00    -0.248 NA
ATOM     55  C   UNL A   1      43.827  26.206  30.312  1.00  0.00     0.031 C 
ATOM     56  C   UNL A   1      42.759  28.939  35.634  1.00  0.00     0.029 A 
ATOM     57  C   UNL A   1      42.674  28.558  34.304  1.00  0.00     0.049 A 
ATOM     58  H   UNL A   1      41.330  29.216  32.818  1.00  0.00     0.167 HD
ATOM     59  C   UNL A   1      43.332  27.268  32.285  1.00  0.00     0.074 A 
ATOM     60  C   UNL A   1      44.176  26.318  31.587  1.00  0.00     0.031 C 
ATOM     61  C   UNL A   1      43.493  27.613  33.587  1.00  0.00     0.037 A 
BRANCH  48  62
ATOM     62  C   UNL A   1      39.498  31.876  35.600  1.00  0.00     0.064 A 
ATOM     63  C   UNL A   1      38.475  31.474  36.473  1.00  0.00     0.173 A 
ATOM     64  C   UNL A   1      40.085  33.133  35.812  1.00  0.00     0.173 A 
ATOM     65  F   UNL A   1      37.864  30.293  36.297  1.00  0.00    -0.203 F 
ATOM     66  C   UNL A   1      38.043  32.307  37.501  1.00  0.00     0.198 A 
ATOM     67  C   UNL A   1      39.673  33.950  36.860  1.00  0.00     0.198 A 
ATOM     68  F   UNL A   1      41.063  33.568  35.002  1.00  0.00    -0.203 F 
ATOM     69  F   UNL A   1      37.029  31.924  38.289  1.00  0.00    -0.200 F 
ATOM     70  C   UNL A   1      38.648  33.540  37.700  1.00  0.00     0.200 A 
ATOM     71  F   UNL A   1      40.264  35.137  37.055  1.00  0.00    -0.200 F 
ATOM     72  F   UNL A   1      38.235  34.338  38.693  1.00  0.00    -0.200 F 
ENDBRANCH  48  62
BRANCH  49  73
ATOM     73  C   UNL A   1      42.398  26.361  27.755  1.00  0.00     0.064 A 
ATOM     74  C   UNL A   1      41.862  25.092  27.492  1.00  0.00     0.173 A 
ATOM     75  C   UNL A   1      43.402  26.833  26.895  1.00  0.00     0.173 A 
ATOM     76  F   UNL A   1      40.919  24.584  28.299  1.00  0.00    -0.203 F 
ATOM     77  C   UNL A   1      42.326  24.320  26.428  1.00  0.00     0.198 A 
ATOM     78  C   UNL A   1      43.843  26.073  25.814  1.00  0.00     0.198 A 
ATOM     79  F   UNL A   1      43.951  28.039  27.102  1.00  0.00    -0.203 F 
ATOM     80  F   UNL A   1      41.831  23.090  26.231  1.00  0.00    -0.200 F 
ATOM     81  C   UNL A   1      43.310  24.813  25.587  1.00  0.00     0.200 A 
ATOM     82  F   UNL A   1      44.788  26.559  24.997  1.00  0.00    -0.200 F 
ATOM     83  F   UNL A   1      43.755  24.071  24.563  1.00  0.00    -0.200 F 
ENDBRANCH  49  73
BRANCH  61  84
ATOM     84  C   UNL A   1      44.597  26.940  34.351  1.00  0.00     0.064 A 
ATOM     85  C   UNL A   1      45.873  27.511  34.459  1.00  0.00     0.173 A 
ATOM     86  C   UNL A   1      44.353  25.739  35.035  1.00  0.00     0.173 A 
ATOM     87  F   UNL A   1      46.158  28.652  33.814  1.00  0.00    -0.203 F 
ATOM     88  C   UNL A   1      46.871  26.892  35.205  1.00  0.00     0.198 A 
ATOM     89  C   UNL A   1      45.344  25.141  35.808  1.00  0.00     0.198 A 
ATOM     90  F   UNL A   1      43.145  25.158  34.974  1.00  0.00    -0.203 F 
ATOM     91  F   UNL A   1      48.097  27.431  35.257  1.00  0.00    -0.200 F 
ATOM     92  C   UNL A   1      46.604  25.713  35.885  1.00  0.00     0.200 A 
ATOM     93  F   UNL A   1      45.078  24.012  36.479  1.00  0.00    -0.200 F 
ATOM     94  F   UNL A   1      47.564  25.126  36.614  1.00  0.00    -0.200 F 
ENDBRANCH  61  84
ENDBRANCH  35  36
ENDBRANCH  28  30
ENDBRANCH  27  28
ENDBRANCH  26  27
ENDBRANCH  25  26
ENDBRANCH  24  25
ENDBRANCH   1  24
TORSDOF 19
ENDMDL
MODEL 3
REMARK VINA RESULT:     -10.8      1.465      7.650
REMARK SMILES C[C@@H]1CN(S(=O)(=O)N[C@H](C(=O)OCCOCCOC(=O)c2ccc(-c3c4nc(c(-c5c(F)c(F)c(F)c(F)c5F)c5ccc([nH]5)c(-c5c(F)c(F)c(F)c(F)c5F)c5nc(c(-c6c(F)c(F)c(F)c(F)c6F)c6ccc3[nH]6)C=C5)C=C4)cc2)[C@@H](C)O)C[C@@H](C)O1
REMARK SMILES IDX 14 1 13 2 12 3 10 4 11 5 9 6 8 7 5 9 6 10 7 11 4 12 1 13
REMARK SMILES IDX 2 14 3 15 90 16 88 17 87 18 89 19 84 20 85 21 86 22 15 24
REMARK SMILES IDX 16 25 17 26 18 27 19 28 20 29 21 30 22 31 83 32 23 33 82 34
REMARK SMILES IDX 24 35 25 36 26 37 76 38 27 39 81 40 75 41 77 42 28 43 80 44
REMARK SMILES IDX 74 45 73 46 29 48 61 49 41 50 60 51 42 52 45 53 59 54 78 55
REMARK SMILES IDX 43 56 44 57 58 59 79 60 46 61 30 62 31 63 39 64 32 65 33 66
REMARK SMILES IDX 37 67 40 68 34 69 35 70 38 71 36 72 62 73 63 74 71 75 64 76
REMARK SMILES IDX 65 77 69 78 72 79 66 80 67 81 70 82 68 83 47 84 48 85 56 86
REMARK SMILES IDX 49 87 50 88 54 89 57 90 51 91 52 92 55 93 53 94
REMARK H PARENT 8 8 86 23 77 47 45 58
REMARK Flexibility Score: inf
ROOT
ATOM      1  C   UNL A   1      36.891  21.532  24.571  1.00  0.00     0.202 C 
ENDROOT
BRANCH   1   2
ATOM      2  C   UNL A   1      35.494  21.717  25.155  1.00  0.00     0.261 C 
BRANCH   2   3
ATOM      3  O   UNL A   1      34.469  20.825  24.694  1.00  0.00    -0.462 OA
BRANCH   3   4
ATOM      4  C   UNL A   1      33.356  21.345  24.125  1.00  0.00     0.326 C 
ATOM      5  O   UNL A   1      32.659  20.832  23.263  1.00  0.00    -0.250 OA
BRANCH   4   6
ATOM      6  C   UNL A   1      33.017  22.686  24.669  1.00  0.00     0.208 C 
BRANCH   6   7
ATOM      7  N   UNL A   1      32.412  23.449  23.504  1.00  0.00    -0.185 NA
ATOM      8  H   UNL A   1      32.520  22.865  22.674  1.00  0.00     0.143 HD
BRANCH   7   9
ATOM      9  S   UNL A   1      33.039  24.969  23.130  1.00  0.00     0.280 S 
ATOM     10  O   UNL A   1      33.248  25.020  21.702  1.00  0.00    -0.195 OA
ATOM     11  O   UNL A   1      34.146  25.118  24.048  1.00  0.00    -0.195 OA
BRANCH   9  12
ATOM     12  N   UNL A   1      31.882  26.176  23.543  1.00  0.00    -0.184 NA
ATOM     13  C   UNL A   1      28.970  27.409  23.383  1.00  0.00     0.040 C 
ATOM     14  C   UNL A   1      30.261  27.980  22.794  1.00  0.00     0.130 C 
ATOM     15  C   UNL A   1      31.319  26.950  22.395  1.00  0.00     0.135 C 
ATOM     16  O   UNL A   1      30.863  28.953  23.638  1.00  0.00    -0.373 OA
ATOM     17  C   UNL A   1      31.480  28.372  24.796  1.00  0.00     0.130 C 
ATOM     18  C   UNL A   1      32.471  27.217  24.477  1.00  0.00     0.135 C 
ATOM     19  C   UNL A   1      32.212  29.543  25.440  1.00  0.00     0.040 C 
ENDBRANCH   9  12
ENDBRANCH   7   9
ENDBRANCH   6   7
BRANCH   6  20
ATOM     20  C   UNL A   1      31.991  22.410  25.800  1.00  0.00     0.140 C 
ATOM     21  C   UNL A   1      30.711  23.268  25.701  1.00  0.00     0.040 C 
BRANCH  20  22
ATOM     22  O   UNL A   1      31.619  21.027  25.755  1.00  0.00    -0.391 OA
ATOM     23  H   UNL A   1      31.020  20.877  25.007  1.00  0.00     0.211 HD
ENDBRANCH  20  22
ENDBRANCH   6  20
ENDBRANCH   4   6
ENDBRANCH   3   4
ENDBRANCH   2   3
ENDBRANCH   1   2
BRANCH   1  24
ATOM     24  O   UNL A   1      37.924  21.007  25.402  1.00  0.00    -0.374 OA
BRANCH  24  25
ATOM     25  C   UNL A   1      38.343  19.668  25.075  1.00  0.00     0.202 C 
BRANCH  25  26
ATOM     26  C   UNL A   1      39.656  19.224  25.711  1.00  0.00     0.261 C 
BRANCH  26  27
ATOM     27  O   UNL A   1      40.012  20.132  26.757  1.00  0.00    -0.460 OA
BRANCH  27  28
ATOM     28  C   UNL A   1      41.330  20.446  26.778  1.00  0.00     0.338 C 
ATOM     29  O   UNL A   1      42.252  19.779  26.337  1.00  0.00    -0.246 OA
BRANCH  28  30
ATOM     30  C   UNL A   1      41.481  21.856  27.206  1.00  0.00     0.060 A 
ATOM     31  C   UNL A   1      40.756  22.819  26.489  1.00  0.00     0.016 A 
ATOM     32  C   UNL A   1      42.208  22.221  28.345  1.00  0.00     0.016 A 
ATOM     33  C   UNL A   1      40.799  24.156  26.870  1.00  0.00     0.010 A 
ATOM     34  C   UNL A   1      42.266  23.564  28.719  1.00  0.00     0.010 A 
ATOM     35  C   UNL A   1      41.604  24.536  27.949  1.00  0.00    -0.014 A 
BRANCH  35  36
ATOM     36  C   UNL A   1      41.994  25.954  28.080  1.00  0.00     0.031 A 
ATOM     37  C   UNL A   1      43.316  26.353  27.484  1.00  0.00     0.074 A 
ATOM     38  C   UNL A   1      41.200  26.858  28.674  1.00  0.00     0.049 A 
ATOM     39  N   UNL A   1      43.927  27.508  27.508  1.00  0.00    -0.248 NA
ATOM     40  C   UNL A   1      44.054  25.297  26.768  1.00  0.00     0.031 C 
ATOM     41  C   UNL A   1      39.879  26.589  29.233  1.00  0.00     0.029 A 
ATOM     42  N   UNL A   1      41.404  28.193  28.908  1.00  0.00    -0.354 N 
ATOM     43  C   UNL A   1      45.117  27.311  26.821  1.00  0.00     0.074 A 
ATOM     44  C   UNL A   1      45.165  25.924  26.424  1.00  0.00     0.031 C 
ATOM     45  C   UNL A   1      39.392  27.726  29.763  1.00  0.00     0.029 A 
ATOM     46  C   UNL A   1      40.384  28.790  29.606  1.00  0.00     0.049 A 
ATOM     47  H   UNL A   1      42.205  28.678  28.604  1.00  0.00     0.167 HD
ATOM     48  C   UNL A   1      46.082  28.215  26.536  1.00  0.00     0.037 A 
ATOM     49  C   UNL A   1      40.286  30.046  30.083  1.00  0.00     0.037 A 
ATOM     50  C   UNL A   1      46.023  29.594  26.935  1.00  0.00     0.049 A 
ATOM     51  C   UNL A   1      41.416  31.014  29.828  1.00  0.00     0.074 A 
ATOM     52  C   UNL A   1      46.935  30.602  26.686  1.00  0.00     0.029 A 
ATOM     53  N   UNL A   1      44.993  30.154  27.675  1.00  0.00    -0.354 N 
ATOM     54  N   UNL A   1      42.529  30.833  29.159  1.00  0.00    -0.248 NA
ATOM     55  C   UNL A   1      41.275  32.361  30.398  1.00  0.00     0.031 C 
ATOM     56  C   UNL A   1      46.485  31.760  27.328  1.00  0.00     0.029 A 
ATOM     57  C   UNL A   1      45.263  31.487  27.924  1.00  0.00     0.049 A 
ATOM     58  H   UNL A   1      44.189  29.673  27.980  1.00  0.00     0.167 HD
ATOM     59  C   UNL A   1      43.206  32.046  29.202  1.00  0.00     0.074 A 
ATOM     60  C   UNL A   1      42.371  32.960  29.953  1.00  0.00     0.031 C 
ATOM     61  C   UNL A   1      44.409  32.378  28.669  1.00  0.00     0.037 A 
BRANCH  48  62
ATOM     62  C   UNL A   1      47.289  27.728  25.793  1.00  0.00     0.064 A 
ATOM     63  C   UNL A   1      47.343  27.717  24.390  1.00  0.00     0.173 A 
ATOM     64  C   UNL A   1      48.416  27.276  26.496  1.00  0.00     0.173 A 
ATOM     65  F   UNL A   1      46.282  28.115  23.671  1.00  0.00    -0.203 F 
ATOM     66  C   UNL A   1      48.470  27.250  23.721  1.00  0.00     0.198 A 
ATOM     67  C   UNL A   1      49.553  26.839  25.824  1.00  0.00     0.198 A 
ATOM     68  F   UNL A   1      48.414  27.259  27.838  1.00  0.00    -0.203 F 
ATOM     69  F   UNL A   1      48.478  27.199  22.382  1.00  0.00    -0.200 F 
ATOM     70  C   UNL A   1      49.578  26.820  24.437  1.00  0.00     0.200 A 
ATOM     71  F   UNL A   1      50.625  26.432  26.518  1.00  0.00    -0.200 F 
ATOM     72  F   UNL A   1      50.664  26.377  23.792  1.00  0.00    -0.200 F 
ENDBRANCH  48  62
BRANCH  49  73
ATOM     73  C   UNL A   1      39.090  30.459  30.861  1.00  0.00     0.064 A 
ATOM     74  C   UNL A   1      39.047  30.316  32.256  1.00  0.00     0.173 A 
ATOM     75  C   UNL A   1      37.953  30.983  30.227  1.00  0.00     0.173 A 
ATOM     76  F   UNL A   1      40.098  29.796  32.907  1.00  0.00    -0.203 F 
ATOM     77  C   UNL A   1      37.908  30.662  32.981  1.00  0.00     0.198 A 
ATOM     78  C   UNL A   1      36.826  31.357  30.957  1.00  0.00     0.198 A 
ATOM     79  F   UNL A   1      37.939  31.138  28.895  1.00  0.00    -0.203 F 
ATOM     80  F   UNL A   1      37.877  30.467  34.307  1.00  0.00    -0.200 F 
ATOM     81  C   UNL A   1      36.802  31.187  32.333  1.00  0.00     0.200 A 
ATOM     82  F   UNL A   1      35.763  31.875  30.326  1.00  0.00    -0.200 F 
ATOM     83  F   UNL A   1      35.708  31.521  33.031  1.00  0.00    -0.200 F 
ENDBRANCH  49  73
BRANCH  61  84
ATOM     84  C   UNL A   1      44.879  33.793  28.848  1.00  0.00     0.064 A 
ATOM     85  C   UNL A   1      44.649  34.774  27.873  1.00  0.00     0.173 A 
ATOM     86  C   UNL A   1      45.513  34.182  30.038  1.00  0.00     0.173 A 
ATOM     87  F   UNL A   1      44.057  34.449  26.714  1.00  0.00    -0.203 F 
ATOM     88  C   UNL A   1      45.056  36.090  28.074  1.00  0.00     0.198 A 
ATOM     89  C   UNL A   1      45.889  35.506  30.249  1.00  0.00     0.198 A 
ATOM     90  F   UNL A   1      45.746  33.284  31.006  1.00  0.00    -0.203 F 
ATOM     91  F   UNL A   1      44.867  37.003  27.111  1.00  0.00    -0.200 F 
ATOM     92  C   UNL A   1      45.668  36.456  29.264  1.00  0.00     0.200 A 
ATOM     93  F   UNL A   1      46.462  35.861  31.407  1.00  0.00    -0.200 F 
ATOM     94  F   UNL A   1      46.048  37.726  29.461  1.00  0.00    -0.200 F 
ENDBRANCH  61  84
ENDBRANCH  35  36
ENDBRANCH  28  30
ENDBRANCH  27  28
ENDBRANCH  26  27
ENDBRANCH  25  26
ENDBRANCH  24  25
ENDBRANCH   1  24
TORSDOF 19
ENDMDL
