MODEL 1
REMARK VINA RESULT:     -13.1      0.000      0.000
REMARK SMILES COc1cccc([C@@H]2[NH2+][C@@](C)(C(=O)OCCOCCOC(=O)c3ccc(-c4c5nc(c(-c6c(F)c(F)c(F)c(F)c6F)c6ccc([nH]6)c(-c6c(F)c(F)c(F)c(F)c6F)c6nc(c(-c7c(F)c(F)c(F)c(F)c7F)c7ccc4[nH]7)C=C6)C=C5)cc3)[C@@H]3C(=O)N(C)C(=O)[C@@H]32)c1O
REMARK SMILES IDX 17 1 16 2 15 3 14 4 12 5 13 6 10 7 8 8 9 9 93 10 86 13 91 14
REMARK SMILES IDX 11 15 87 16 89 17 92 18 88 19 90 20 7 21 3 22 4 23 94 24
REMARK SMILES IDX 5 25 6 26 2 27 1 28 95 29 18 31 19 32 20 33 21 34 22 35
REMARK SMILES IDX 23 36 24 37 85 38 25 39 84 40 26 41 27 42 28 43 78 44 29 45
REMARK SMILES IDX 83 46 77 47 79 48 30 49 82 50 76 51 75 52 31 54 63 55 43 56
REMARK SMILES IDX 62 57 44 58 47 59 61 60 80 61 45 62 46 63 60 65 81 66 48 67
REMARK SMILES IDX 32 68 33 69 41 70 34 71 35 72 39 73 42 74 36 75 37 76 40 77
REMARK SMILES IDX 38 78 64 79 65 80 73 81 66 82 67 83 71 84 74 85 68 86 69 87
REMARK SMILES IDX 72 88 70 89 49 90 50 91 58 92 51 93 52 94 56 95 59 96 53 97
REMARK SMILES IDX 54 98 57 99 55 100
REMARK H PARENT 9 11 9 12 95 30 79 53 47 64
REMARK Flexibility Score: inf
ROOT
ATOM      1  O   UNL A   1      35.744  21.375  25.945  1.00  0.00    -0.374 OA
ENDROOT
BRANCH   1   2
ATOM      2  C   UNL A   1      34.585  22.124  25.586  1.00  0.00     0.202 C 
BRANCH   2   3
ATOM      3  C   UNL A   1      34.549  22.724  24.180  1.00  0.00     0.261 C 
BRANCH   3   4
ATOM      4  O   UNL A   1      33.215  22.804  23.652  1.00  0.00    -0.459 OA
BRANCH   4   5
ATOM      5  C   UNL A   1      32.992  23.862  22.825  1.00  0.00     0.368 C 
ATOM      6  O   UNL A   1      33.652  24.082  21.811  1.00  0.00    -0.245 OA
BRANCH   5   7
ATOM      7  C   UNL A   1      31.858  24.818  23.290  1.00  0.00     0.204 C 
ATOM      8  C   UNL A   1      31.580  27.065  22.379  1.00  0.00     0.232 C 
ATOM      9  N   UNL A   1      31.270  25.627  22.168  1.00  0.00    -0.325 N 
ATOM     10  C   UNL A   1      32.687  27.103  23.425  1.00  0.00     0.161 C 
ATOM     11  H   UNL A   1      31.671  25.320  21.282  1.00  0.00     0.347 HD
ATOM     12  H   UNL A   1      30.259  25.497  22.149  1.00  0.00     0.347 HD
ATOM     13  C   UNL A   1      32.534  25.821  24.227  1.00  0.00     0.170 C 
ATOM     14  C   UNL A   1      32.595  28.175  24.469  1.00  0.00     0.239 C 
ATOM     15  C   UNL A   1      30.831  23.843  23.878  1.00  0.00     0.093 C 
ATOM     16  C   UNL A   1      31.856  26.271  25.491  1.00  0.00     0.240 C 
ATOM     17  N   UNL A   1      32.075  27.621  25.606  1.00  0.00    -0.285 N 
ATOM     18  O   UNL A   1      32.917  29.341  24.297  1.00  0.00    -0.274 OA
ATOM     19  O   UNL A   1      31.308  25.549  26.307  1.00  0.00    -0.274 OA
ATOM     20  C   UNL A   1      31.773  28.399  26.780  1.00  0.00     0.156 C 
BRANCH   8  21
ATOM     21  C   UNL A   1      30.388  27.985  22.640  1.00  0.00     0.056 A 
ATOM     22  C   UNL A   1      29.100  30.043  22.267  1.00  0.00     0.161 A 
ATOM     23  C   UNL A   1      28.003  29.487  22.917  1.00  0.00     0.050 A 
ATOM     24  C   UNL A   1      30.288  29.304  22.170  1.00  0.00     0.166 A 
ATOM     25  C   UNL A   1      28.085  28.197  23.440  1.00  0.00     0.005 A 
ATOM     26  C   UNL A   1      29.260  27.453  23.296  1.00  0.00     0.014 A 
BRANCH  22  27
ATOM     27  O   UNL A   1      28.969  31.340  21.846  1.00  0.00    -0.493 OA
ATOM     28  C   UNL A   1      28.028  31.557  20.794  1.00  0.00     0.278 C 
ENDBRANCH  22  27
BRANCH  24  29
ATOM     29  O   UNL A   1      31.399  29.865  21.624  1.00  0.00    -0.504 OA
ATOM     30  H   UNL A   1      31.487  30.798  21.597  1.00  0.00     0.293 HD
ENDBRANCH  24  29
ENDBRANCH   8  21
ENDBRANCH   5   7
ENDBRANCH   4   5
ENDBRANCH   3   4
ENDBRANCH   2   3
ENDBRANCH   1   2
BRANCH   1  31
ATOM     31  C   UNL A   1      36.233  20.430  24.994  1.00  0.00     0.202 C 
BRANCH  31  32
ATOM     32  C   UNL A   1      37.732  20.118  25.017  1.00  0.00     0.261 C 
BRANCH  32  33
ATOM     33  O   UNL A   1      38.522  21.288  25.292  1.00  0.00    -0.460 OA
BRANCH  33  34
ATOM     34  C   UNL A   1      39.576  21.073  26.107  1.00  0.00     0.338 C 
ATOM     35  O   UNL A   1      40.291  20.076  26.150  1.00  0.00    -0.246 OA
BRANCH  34  36
ATOM     36  C   UNL A   1      39.908  22.295  26.857  1.00  0.00     0.060 A 
ATOM     37  C   UNL A   1      39.217  23.462  26.505  1.00  0.00     0.016 A 
ATOM     38  C   UNL A   1      40.930  22.333  27.809  1.00  0.00     0.016 A 
ATOM     39  C   UNL A   1      39.601  24.686  27.039  1.00  0.00     0.010 A 
ATOM     40  C   UNL A   1      41.320  23.568  28.340  1.00  0.00     0.010 A 
ATOM     41  C   UNL A   1      40.692  24.752  27.915  1.00  0.00    -0.014 A 
BRANCH  41  42
ATOM     42  C   UNL A   1      41.281  26.082  28.207  1.00  0.00     0.031 A 
ATOM     43  C   UNL A   1      42.676  26.373  27.723  1.00  0.00     0.074 A 
ATOM     44  C   UNL A   1      40.556  27.041  28.807  1.00  0.00     0.049 A 
ATOM     45  N   UNL A   1      43.377  27.474  27.813  1.00  0.00    -0.248 NA
ATOM     46  C   UNL A   1      43.374  25.273  27.037  1.00  0.00     0.031 C 
ATOM     47  C   UNL A   1      39.182  26.888  29.280  1.00  0.00     0.029 A 
ATOM     48  N   UNL A   1      40.878  28.340  29.112  1.00  0.00    -0.354 N 
ATOM     49  C   UNL A   1      44.588  27.203  27.190  1.00  0.00     0.074 A 
ATOM     50  C   UNL A   1      44.548  25.821  26.764  1.00  0.00     0.031 C 
ATOM     51  C   UNL A   1      38.777  28.051  29.821  1.00  0.00     0.029 A 
ATOM     52  C   UNL A   1      39.870  29.019  29.750  1.00  0.00     0.049 A 
ATOM     53  H   UNL A   1      41.747  28.745  28.895  1.00  0.00     0.167 HD
ATOM     54  C   UNL A   1      45.634  28.036  26.975  1.00  0.00     0.037 A 
ATOM     55  C   UNL A   1      39.842  30.278  30.229  1.00  0.00     0.037 A 
ATOM     56  C   UNL A   1      45.677  29.408  27.406  1.00  0.00     0.049 A 
ATOM     57  C   UNL A   1      41.044  31.166  30.032  1.00  0.00     0.074 A 
ATOM     58  C   UNL A   1      46.697  30.331  27.259  1.00  0.00     0.029 A 
ATOM     59  N   UNL A   1      44.645  30.054  28.074  1.00  0.00    -0.354 N 
ATOM     60  N   UNL A   1      42.180  30.904  29.431  1.00  0.00    -0.248 NA
ATOM     61  C   UNL A   1      40.953  32.530  30.571  1.00  0.00     0.031 C 
ATOM     62  C   UNL A   1      46.298  31.524  27.872  1.00  0.00     0.029 A 
ATOM     63  C   UNL A   1      45.010  31.360  28.355  1.00  0.00     0.049 A 
ATOM     64  H   UNL A   1      43.783  29.643  28.313  1.00  0.00     0.167 HD
ATOM     65  C   UNL A   1      42.923  32.076  29.490  1.00  0.00     0.074 A 
ATOM     66  C   UNL A   1      42.103  33.055  30.173  1.00  0.00     0.031 C 
ATOM     67  C   UNL A   1      44.172  32.322  29.023  1.00  0.00     0.037 A 
BRANCH  54  68
ATOM     68  C   UNL A   1      46.824  27.477  26.252  1.00  0.00     0.064 A 
ATOM     69  C   UNL A   1      46.955  27.588  24.859  1.00  0.00     0.173 A 
ATOM     70  C   UNL A   1      47.858  26.846  26.959  1.00  0.00     0.173 A 
ATOM     71  F   UNL A   1      45.986  28.168  24.134  1.00  0.00    -0.203 F 
ATOM     72  C   UNL A   1      48.066  27.067  24.199  1.00  0.00     0.198 A 
ATOM     73  C   UNL A   1      48.980  26.350  26.300  1.00  0.00     0.198 A 
ATOM     74  F   UNL A   1      47.783  26.714  28.292  1.00  0.00    -0.203 F 
ATOM     75  F   UNL A   1      48.147  27.145  22.864  1.00  0.00    -0.200 F 
ATOM     76  C   UNL A   1      49.079  26.455  24.920  1.00  0.00     0.200 A 
ATOM     77  F   UNL A   1      49.964  25.768  26.998  1.00  0.00    -0.200 F 
ATOM     78  F   UNL A   1      50.150  25.960  24.285  1.00  0.00    -0.200 F 
ENDBRANCH  54  68
BRANCH  55  79
ATOM     79  C   UNL A   1      38.638  30.776  30.944  1.00  0.00     0.064 A 
ATOM     80  C   UNL A   1      37.549  31.320  30.247  1.00  0.00     0.173 A 
ATOM     81  C   UNL A   1      38.568  30.749  32.345  1.00  0.00     0.173 A 
ATOM     82  F   UNL A   1      37.580  31.391  28.909  1.00  0.00    -0.203 F 
ATOM     83  C   UNL A   1      36.449  31.839  30.926  1.00  0.00     0.198 A 
ATOM     84  C   UNL A   1      37.453  31.241  33.020  1.00  0.00     0.198 A 
ATOM     85  F   UNL A   1      39.583  30.240  33.059  1.00  0.00    -0.203 F 
ATOM     86  F   UNL A   1      35.446  32.402  30.238  1.00  0.00    -0.200 F 
ATOM     87  C   UNL A   1      36.399  31.795  32.311  1.00  0.00     0.200 A 
ATOM     88  F   UNL A   1      37.406  31.186  34.358  1.00  0.00    -0.200 F 
ATOM     89  F   UNL A   1      35.341  32.296  32.963  1.00  0.00    -0.200 F 
ENDBRANCH  55  79
BRANCH  67  90
ATOM     90  C   UNL A   1      44.707  33.715  29.192  1.00  0.00     0.064 A 
ATOM     91  C   UNL A   1      45.462  34.084  30.316  1.00  0.00     0.173 A 
ATOM     92  C   UNL A   1      44.481  34.685  28.203  1.00  0.00     0.173 A 
ATOM     93  F   UNL A   1      45.694  33.198  31.294  1.00  0.00    -0.203 F 
ATOM     94  C   UNL A   1      45.942  35.384  30.458  1.00  0.00     0.198 A 
ATOM     95  C   UNL A   1      44.989  35.974  28.335  1.00  0.00     0.198 A 
ATOM     96  F   UNL A   1      43.773  34.379  27.106  1.00  0.00    -0.203 F 
ATOM     97  F   UNL A   1      46.614  35.730  31.564  1.00  0.00    -0.200 F 
ATOM     98  C   UNL A   1      45.710  36.326  29.466  1.00  0.00     0.200 A 
ATOM     99  F   UNL A   1      44.775  36.879  27.369  1.00  0.00    -0.200 F 
ATOM    100  F   UNL A   1      46.174  37.575  29.605  1.00  0.00    -0.200 F 
ENDBRANCH  67  90
ENDBRANCH  41  42
ENDBRANCH  34  36
ENDBRANCH  33  34
ENDBRANCH  32  33
ENDBRANCH  31  32
ENDBRANCH   1  31
TORSDOF 17
ENDMDL
MODEL 2
REMARK VINA RESULT:     -12.9      4.153     10.197
REMARK SMILES COc1cccc([C@@H]2[NH2+][C@@](C)(C(=O)OCCOCCOC(=O)c3ccc(-c4c5nc(c(-c6c(F)c(F)c(F)c(F)c6F)c6ccc([nH]6)c(-c6c(F)c(F)c(F)c(F)c6F)c6nc(c(-c7c(F)c(F)c(F)c(F)c7F)c7ccc4[nH]7)C=C6)C=C5)cc3)[C@@H]3C(=O)N(C)C(=O)[C@@H]32)c1O
REMARK SMILES IDX 17 1 16 2 15 3 14 4 12 5 13 6 10 7 8 8 9 9 93 10 86 13 91 14
REMARK SMILES IDX 11 15 87 16 89 17 92 18 88 19 90 20 7 21 3 22 4 23 94 24
REMARK SMILES IDX 5 25 6 26 2 27 1 28 95 29 18 31 19 32 20 33 21 34 22 35
REMARK SMILES IDX 23 36 24 37 85 38 25 39 84 40 26 41 27 42 28 43 78 44 29 45
REMARK SMILES IDX 83 46 77 47 79 48 30 49 82 50 76 51 75 52 31 54 63 55 43 56
REMARK SMILES IDX 62 57 44 58 47 59 61 60 80 61 45 62 46 63 60 65 81 66 48 67
REMARK SMILES IDX 32 68 33 69 41 70 34 71 35 72 39 73 42 74 36 75 37 76 40 77
REMARK SMILES IDX 38 78 64 79 65 80 73 81 66 82 67 83 71 84 74 85 68 86 69 87
REMARK SMILES IDX 72 88 70 89 49 90 50 91 58 92 51 93 52 94 56 95 59 96 53 97
REMARK SMILES IDX 54 98 57 99 55 100
REMARK H PARENT 9 11 9 12 95 30 79 53 47 64
REMARK Flexibility Score: inf
ROOT
ATOM      1  O   UNL A   1      31.921  30.137  26.978  1.00  0.00    -0.374 OA
ENDROOT
BRANCH   1   2
ATOM      2  C   UNL A   1      31.872  28.919  26.238  1.00  0.00     0.202 C 
BRANCH   2   3
ATOM      3  C   UNL A   1      31.835  27.616  27.038  1.00  0.00     0.261 C 
BRANCH   3   4
ATOM      4  O   UNL A   1      32.257  26.483  26.261  1.00  0.00    -0.459 OA
BRANCH   4   5
ATOM      5  C   UNL A   1      31.263  25.610  25.942  1.00  0.00     0.368 C 
ATOM      6  O   UNL A   1      30.127  25.675  26.407  1.00  0.00    -0.245 OA
BRANCH   5   7
ATOM      7  C   UNL A   1      31.689  24.474  24.969  1.00  0.00     0.204 C 
ATOM      8  C   UNL A   1      32.172  22.207  25.731  1.00  0.00     0.232 C 
ATOM      9  N   UNL A   1      31.091  23.141  25.321  1.00  0.00    -0.325 N 
ATOM     10  C   UNL A   1      33.392  23.077  26.003  1.00  0.00     0.161 C 
ATOM     11  H   UNL A   1      30.432  23.257  26.090  1.00  0.00     0.347 HD
ATOM     12  H   UNL A   1      30.605  22.762  24.508  1.00  0.00     0.347 HD
ATOM     13  C   UNL A   1      33.199  24.326  25.159  1.00  0.00     0.170 C 
ATOM     14  C   UNL A   1      34.717  22.549  25.538  1.00  0.00     0.239 C 
ATOM     15  C   UNL A   1      31.165  24.986  23.622  1.00  0.00     0.093 C 
ATOM     16  C   UNL A   1      34.104  24.100  23.979  1.00  0.00     0.240 C 
ATOM     17  N   UNL A   1      35.030  23.160  24.356  1.00  0.00    -0.285 N 
ATOM     18  O   UNL A   1      35.370  21.701  26.127  1.00  0.00    -0.274 OA
ATOM     19  O   UNL A   1      34.078  24.718  22.927  1.00  0.00    -0.274 OA
ATOM     20  C   UNL A   1      36.201  22.816  23.591  1.00  0.00     0.156 C 
BRANCH   8  21
ATOM     21  C   UNL A   1      32.406  20.999  24.825  1.00  0.00     0.056 A 
ATOM     22  C   UNL A   1      32.757  18.599  24.439  1.00  0.00     0.161 A 
ATOM     23  C   UNL A   1      32.506  18.770  23.081  1.00  0.00     0.050 A 
ATOM     24  C   UNL A   1      32.742  19.717  25.285  1.00  0.00     0.166 A 
ATOM     25  C   UNL A   1      32.217  20.039  22.581  1.00  0.00     0.005 A 
ATOM     26  C   UNL A   1      32.160  21.138  23.444  1.00  0.00     0.014 A 
BRANCH  22  27
ATOM     27  O   UNL A   1      33.106  17.337  24.842  1.00  0.00    -0.493 OA
ATOM     28  C   UNL A   1      33.780  16.540  23.869  1.00  0.00     0.278 C 
ENDBRANCH  22  27
BRANCH  24  29
ATOM     29  O   UNL A   1      33.078  19.585  26.596  1.00  0.00    -0.504 OA
ATOM     30  H   UNL A   1      33.904  19.906  26.902  1.00  0.00     0.293 HD
ENDBRANCH  24  29
ENDBRANCH   8  21
ENDBRANCH   5   7
ENDBRANCH   4   5
ENDBRANCH   3   4
ENDBRANCH   2   3
ENDBRANCH   1   2
BRANCH   1  31
ATOM     31  C   UNL A   1      31.403  31.307  26.348  1.00  0.00     0.202 C 
BRANCH  31  32
ATOM     32  C   UNL A   1      31.876  32.663  26.881  1.00  0.00     0.261 C 
BRANCH  32  33
ATOM     33  O   UNL A   1      32.782  32.519  27.988  1.00  0.00    -0.460 OA
BRANCH  33  34
ATOM     34  C   UNL A   1      33.778  33.431  28.019  1.00  0.00     0.338 C 
ATOM     35  O   UNL A   1      33.666  34.653  28.024  1.00  0.00    -0.246 OA
BRANCH  34  36
ATOM     36  C   UNL A   1      35.076  32.773  28.237  1.00  0.00     0.060 A 
ATOM     37  C   UNL A   1      35.054  31.395  28.488  1.00  0.00     0.016 A 
ATOM     38  C   UNL A   1      36.276  33.486  28.292  1.00  0.00     0.016 A 
ATOM     39  C   UNL A   1      36.215  30.740  28.880  1.00  0.00     0.010 A 
ATOM     40  C   UNL A   1      37.443  32.827  28.694  1.00  0.00     0.010 A 
ATOM     41  C   UNL A   1      37.403  31.464  29.042  1.00  0.00    -0.014 A 
BRANCH  41  42
ATOM     42  C   UNL A   1      38.526  30.823  29.766  1.00  0.00     0.031 A 
ATOM     43  C   UNL A   1      38.738  31.166  31.215  1.00  0.00     0.074 A 
ATOM     44  C   UNL A   1      39.284  29.884  29.172  1.00  0.00     0.049 A 
ATOM     45  N   UNL A   1      39.617  30.696  32.064  1.00  0.00    -0.248 NA
ATOM     46  C   UNL A   1      37.830  32.174  31.789  1.00  0.00     0.031 C 
ATOM     47  C   UNL A   1      39.144  29.440  27.787  1.00  0.00     0.029 A 
ATOM     48  N   UNL A   1      40.318  29.131  29.668  1.00  0.00    -0.354 N 
ATOM     49  C   UNL A   1      39.361  31.340  33.268  1.00  0.00     0.074 A 
ATOM     50  C   UNL A   1      38.276  32.267  33.032  1.00  0.00     0.031 C 
ATOM     51  C   UNL A   1      40.064  28.490  27.541  1.00  0.00     0.029 A 
ATOM     52  C   UNL A   1      40.867  28.277  28.744  1.00  0.00     0.049 A 
ATOM     53  H   UNL A   1      40.636  29.197  30.597  1.00  0.00     0.167 HD
ATOM     54  C   UNL A   1      39.965  31.163  34.467  1.00  0.00     0.037 A 
ATOM     55  C   UNL A   1      41.907  27.429  28.860  1.00  0.00     0.037 A 
ATOM     56  C   UNL A   1      41.050  30.247  34.698  1.00  0.00     0.049 A 
ATOM     57  C   UNL A   1      42.603  27.296  30.190  1.00  0.00     0.074 A 
ATOM     58  C   UNL A   1      41.747  30.008  35.869  1.00  0.00     0.029 A 
ATOM     59  N   UNL A   1      41.597  29.417  33.729  1.00  0.00    -0.354 N 
ATOM     60  N   UNL A   1      42.346  27.900  31.325  1.00  0.00    -0.248 NA
ATOM     61  C   UNL A   1      43.727  26.351  30.256  1.00  0.00     0.031 C 
ATOM     62  C   UNL A   1      42.740  29.060  35.600  1.00  0.00     0.029 A 
ATOM     63  C   UNL A   1      42.630  28.673  34.274  1.00  0.00     0.049 A 
ATOM     64  H   UNL A   1      41.295  29.366  32.794  1.00  0.00     0.167 HD
ATOM     65  C   UNL A   1      43.251  27.387  32.245  1.00  0.00     0.074 A 
ATOM     66  C   UNL A   1      44.054  26.410  31.539  1.00  0.00     0.031 C 
ATOM     67  C   UNL A   1      43.406  27.695  33.557  1.00  0.00     0.037 A 
BRANCH  54  68
ATOM     68  C   UNL A   1      39.470  31.990  35.617  1.00  0.00     0.064 A 
ATOM     69  C   UNL A   1      38.498  31.503  36.506  1.00  0.00     0.173 A 
ATOM     70  C   UNL A   1      39.989  33.272  35.851  1.00  0.00     0.173 A 
ATOM     71  F   UNL A   1      37.958  30.290  36.318  1.00  0.00    -0.203 F 
ATOM     72  C   UNL A   1      38.049  32.280  37.572  1.00  0.00     0.198 A 
ATOM     73  C   UNL A   1      39.557  34.034  36.933  1.00  0.00     0.198 A 
ATOM     74  F   UNL A   1      40.920  33.783  35.032  1.00  0.00    -0.203 F 
ATOM     75  F   UNL A   1      37.089  31.812  38.381  1.00  0.00    -0.200 F 
ATOM     76  C   UNL A   1      38.584  33.540  37.788  1.00  0.00     0.200 A 
ATOM     77  F   UNL A   1      40.081  35.249  37.147  1.00  0.00    -0.200 F 
ATOM     78  F   UNL A   1      38.154  34.284  38.817  1.00  0.00    -0.200 F 
ENDBRANCH  54  68
BRANCH  55  79
ATOM     79  C   UNL A   1      42.358  26.640  27.684  1.00  0.00     0.064 A 
ATOM     80  C   UNL A   1      41.849  25.359  27.426  1.00  0.00     0.173 A 
ATOM     81  C   UNL A   1      43.336  27.141  26.810  1.00  0.00     0.173 A 
ATOM     82  F   UNL A   1      40.932  24.827  28.245  1.00  0.00    -0.203 F 
ATOM     83  C   UNL A   1      42.319  24.601  26.355  1.00  0.00     0.198 A 
ATOM     84  C   UNL A   1      43.783  26.393  25.724  1.00  0.00     0.198 A 
ATOM     85  F   UNL A   1      43.857  28.360  27.013  1.00  0.00    -0.203 F 
ATOM     86  F   UNL A   1      41.855  23.358  26.163  1.00  0.00    -0.200 F 
ATOM     87  C   UNL A   1      43.281  25.119  25.502  1.00  0.00     0.200 A 
ATOM     88  F   UNL A   1      44.705  26.904  24.896  1.00  0.00    -0.200 F 
ATOM     89  F   UNL A   1      43.734  24.388  24.474  1.00  0.00    -0.200 F 
ENDBRANCH  55  79
BRANCH  67  90
ATOM     90  C   UNL A   1      44.451  26.935  34.322  1.00  0.00     0.064 A 
ATOM     91  C   UNL A   1      44.166  25.709  34.942  1.00  0.00     0.173 A 
ATOM     92  C   UNL A   1      45.762  27.429  34.413  1.00  0.00     0.173 A 
ATOM     93  F   UNL A   1      42.926  25.201  34.896  1.00  0.00    -0.203 F 
ATOM     94  C   UNL A   1      45.147  25.024  35.654  1.00  0.00     0.198 A 
ATOM     95  C   UNL A   1      46.746  26.725  35.099  1.00  0.00     0.198 A 
ATOM     96  F   UNL A   1      46.087  28.592  33.830  1.00  0.00    -0.203 F 
ATOM     97  F   UNL A   1      44.839  23.882  36.285  1.00  0.00    -0.200 F 
ATOM     98  C   UNL A   1      46.437  25.528  35.727  1.00  0.00     0.200 A 
ATOM     99  F   UNL A   1      47.995  27.208  35.158  1.00  0.00    -0.200 F 
ATOM    100  F   UNL A   1      47.379  24.866  36.412  1.00  0.00    -0.200 F 
ENDBRANCH  67  90
ENDBRANCH  41  42
ENDBRANCH  34  36
ENDBRANCH  33  34
ENDBRANCH  32  33
ENDBRANCH  31  32
ENDBRANCH   1  31
TORSDOF 17
ENDMDL
MODEL 3
REMARK VINA RESULT:     -12.6      4.223     10.209
REMARK SMILES COc1cccc([C@@H]2[NH2+][C@@](C)(C(=O)OCCOCCOC(=O)c3ccc(-c4c5nc(c(-c6c(F)c(F)c(F)c(F)c6F)c6ccc([nH]6)c(-c6c(F)c(F)c(F)c(F)c6F)c6nc(c(-c7c(F)c(F)c(F)c(F)c7F)c7ccc4[nH]7)C=C6)C=C5)cc3)[C@@H]3C(=O)N(C)C(=O)[C@@H]32)c1O
REMARK SMILES IDX 17 1 16 2 15 3 14 4 12 5 13 6 10 7 8 8 9 9 93 10 86 13 91 14
REMARK SMILES IDX 11 15 87 16 89 17 92 18 88 19 90 20 7 21 3 22 4 23 94 24
REMARK SMILES IDX 5 25 6 26 2 27 1 28 95 29 18 31 19 32 20 33 21 34 22 35
REMARK SMILES IDX 23 36 24 37 85 38 25 39 84 40 26 41 27 42 28 43 78 44 29 45
REMARK SMILES IDX 83 46 77 47 79 48 30 49 82 50 76 51 75 52 31 54 63 55 43 56
REMARK SMILES IDX 62 57 44 58 47 59 61 60 80 61 45 62 46 63 60 65 81 66 48 67
REMARK SMILES IDX 32 68 33 69 41 70 34 71 35 72 39 73 42 74 36 75 37 76 40 77
REMARK SMILES IDX 38 78 64 79 65 80 73 81 66 82 67 83 71 84 74 85 68 86 69 87
REMARK SMILES IDX 72 88 70 89 49 90 50 91 58 92 51 93 52 94 56 95 59 96 53 97
REMARK SMILES IDX 54 98 57 99 55 100
REMARK H PARENT 9 11 9 12 95 30 79 53 47 64
REMARK Flexibility Score: inf
ROOT
ATOM      1  O   UNL A   1      31.407  29.661  27.456  1.00  0.00    -0.374 OA
ENDROOT
BRANCH   1   2
ATOM      2  C   UNL A   1      31.860  28.312  27.378  1.00  0.00     0.202 C 
BRANCH   2   3
ATOM      3  C   UNL A   1      31.833  27.645  26.002  1.00  0.00     0.261 C 
BRANCH   3   4
ATOM      4  O   UNL A   1      32.196  26.255  26.059  1.00  0.00    -0.459 OA
BRANCH   4   5
ATOM      5  C   UNL A   1      31.202  25.393  25.710  1.00  0.00     0.368 C 
ATOM      6  O   UNL A   1      30.051  25.478  26.131  1.00  0.00    -0.245 OA
BRANCH   5   7
ATOM      7  C   UNL A   1      31.649  24.241  24.766  1.00  0.00     0.204 C 
ATOM      8  C   UNL A   1      32.129  21.990  25.577  1.00  0.00     0.232 C 
ATOM      9  N   UNL A   1      31.051  22.912  25.132  1.00  0.00    -0.325 N 
ATOM     10  C   UNL A   1      33.341  22.870  25.854  1.00  0.00     0.161 C 
ATOM     11  H   UNL A   1      30.379  23.039  25.888  1.00  0.00     0.347 HD
ATOM     12  H   UNL A   1      30.580  22.516  24.319  1.00  0.00     0.347 HD
ATOM     13  C   UNL A   1      33.157  24.103  24.983  1.00  0.00     0.170 C 
ATOM     14  C   UNL A   1      34.675  22.340  25.420  1.00  0.00     0.239 C 
ATOM     15  C   UNL A   1      31.146  24.726  23.401  1.00  0.00     0.093 C 
ATOM     16  C   UNL A   1      34.082  23.860  23.823  1.00  0.00     0.240 C 
ATOM     17  N   UNL A   1      35.005  22.930  24.232  1.00  0.00    -0.285 N 
ATOM     18  O   UNL A   1      35.322  21.505  26.035  1.00  0.00    -0.274 OA
ATOM     19  O   UNL A   1      34.072  24.458  22.760  1.00  0.00    -0.274 OA
ATOM     20  C   UNL A   1      36.191  22.578  23.493  1.00  0.00     0.156 C 
BRANCH   8  21
ATOM     21  C   UNL A   1      32.383  20.767  24.697  1.00  0.00     0.056 A 
ATOM     22  C   UNL A   1      32.756  18.363  24.361  1.00  0.00     0.161 A 
ATOM     23  C   UNL A   1      32.520  18.506  22.998  1.00  0.00     0.050 A 
ATOM     24  C   UNL A   1      32.723  19.496  25.186  1.00  0.00     0.166 A 
ATOM     25  C   UNL A   1      32.229  19.763  22.470  1.00  0.00     0.005 A 
ATOM     26  C   UNL A   1      32.153  20.878  23.311  1.00  0.00     0.014 A 
BRANCH  22  27
ATOM     27  O   UNL A   1      33.109  17.112  24.793  1.00  0.00    -0.493 OA
ATOM     28  C   UNL A   1      33.944  16.364  23.908  1.00  0.00     0.278 C 
ENDBRANCH  22  27
BRANCH  24  29
ATOM     29  O   UNL A   1      33.044  19.392  26.503  1.00  0.00    -0.504 OA
ATOM     30  H   UNL A   1      33.024  18.555  26.925  1.00  0.00     0.293 HD
ENDBRANCH  24  29
ENDBRANCH   8  21
ENDBRANCH   5   7
ENDBRANCH   4   5
ENDBRANCH   3   4
ENDBRANCH   2   3
ENDBRANCH   1   2
BRANCH   1  31
ATOM     31  C   UNL A   1      32.063  30.621  26.630  1.00  0.00     0.202 C 
BRANCH  31  32
ATOM     32  C   UNL A   1      31.911  32.098  27.008  1.00  0.00     0.261 C 
BRANCH  32  33
ATOM     33  O   UNL A   1      33.149  32.818  26.876  1.00  0.00    -0.460 OA
BRANCH  33  34
ATOM     34  C   UNL A   1      33.681  33.234  28.045  1.00  0.00     0.338 C 
ATOM     35  O   UNL A   1      33.140  33.923  28.904  1.00  0.00    -0.246 OA
BRANCH  34  36
ATOM     36  C   UNL A   1      34.986  32.593  28.277  1.00  0.00     0.060 A 
ATOM     37  C   UNL A   1      34.977  31.221  28.559  1.00  0.00     0.016 A 
ATOM     38  C   UNL A   1      36.179  33.320  28.316  1.00  0.00     0.016 A 
ATOM     39  C   UNL A   1      36.145  30.586  28.965  1.00  0.00     0.010 A 
ATOM     40  C   UNL A   1      37.352  32.681  28.732  1.00  0.00     0.010 A 
ATOM     41  C   UNL A   1      37.325  31.326  29.110  1.00  0.00    -0.014 A 
BRANCH  41  42
ATOM     42  C   UNL A   1      38.455  30.711  29.848  1.00  0.00     0.031 A 
ATOM     43  C   UNL A   1      38.648  31.068  31.296  1.00  0.00     0.074 A 
ATOM     44  C   UNL A   1      39.236  29.784  29.266  1.00  0.00     0.049 A 
ATOM     45  N   UNL A   1      39.528  30.621  32.156  1.00  0.00    -0.248 NA
ATOM     46  C   UNL A   1      37.715  32.061  31.856  1.00  0.00     0.031 C 
ATOM     47  C   UNL A   1      39.117  29.328  27.884  1.00  0.00     0.029 A 
ATOM     48  N   UNL A   1      40.281  29.055  29.776  1.00  0.00    -0.354 N 
ATOM     49  C   UNL A   1      39.250  31.267  33.353  1.00  0.00     0.074 A 
ATOM     50  C   UNL A   1      38.148  32.171  33.103  1.00  0.00     0.031 C 
ATOM     51  C   UNL A   1      40.057  28.395  27.651  1.00  0.00     0.029 A 
ATOM     52  C   UNL A   1      40.854  28.206  28.862  1.00  0.00     0.049 A 
ATOM     53  H   UNL A   1      40.589  29.133  30.707  1.00  0.00     0.167 HD
ATOM     54  C   UNL A   1      39.846  31.110  34.558  1.00  0.00     0.037 A 
ATOM     55  C   UNL A   1      41.910  27.380  28.992  1.00  0.00     0.037 A 
ATOM     56  C   UNL A   1      40.947  30.217  34.804  1.00  0.00     0.049 A 
ATOM     57  C   UNL A   1      42.597  27.269  30.329  1.00  0.00     0.074 A 
ATOM     58  C   UNL A   1      41.639  29.999  35.983  1.00  0.00     0.029 A 
ATOM     59  N   UNL A   1      41.519  29.392  33.846  1.00  0.00    -0.354 N 
ATOM     60  N   UNL A   1      42.319  27.875  31.458  1.00  0.00    -0.248 NA
ATOM     61  C   UNL A   1      43.739  26.347  30.411  1.00  0.00     0.031 C 
ATOM     62  C   UNL A   1      42.653  29.070  35.728  1.00  0.00     0.029 A 
ATOM     63  C   UNL A   1      42.562  28.672  34.405  1.00  0.00     0.049 A 
ATOM     64  H   UNL A   1      41.226  29.329  32.908  1.00  0.00     0.167 HD
ATOM     65  C   UNL A   1      43.226  27.386  32.389  1.00  0.00     0.074 A 
ATOM     66  C   UNL A   1      44.054  26.421  31.696  1.00  0.00     0.031 C 
ATOM     67  C   UNL A   1      43.363  27.705  33.700  1.00  0.00     0.037 A 
BRANCH  54  68
ATOM     68  C   UNL A   1      39.326  31.934  35.699  1.00  0.00     0.064 A 
ATOM     69  C   UNL A   1      39.759  33.252  35.911  1.00  0.00     0.173 A 
ATOM     70  C   UNL A   1      38.365  31.410  36.578  1.00  0.00     0.173 A 
ATOM     71  F   UNL A   1      40.688  33.794  35.109  1.00  0.00    -0.203 F 
ATOM     72  C   UNL A   1      39.266  34.007  36.973  1.00  0.00     0.198 A 
ATOM     73  C   UNL A   1      37.855  32.177  37.622  1.00  0.00     0.198 A 
ATOM     74  F   UNL A   1      37.917  30.156  36.420  1.00  0.00    -0.203 F 
ATOM     75  F   UNL A   1      39.728  35.248  37.181  1.00  0.00    -0.200 F 
ATOM     76  C   UNL A   1      38.311  33.472  37.822  1.00  0.00     0.200 A 
ATOM     77  F   UNL A   1      36.924  31.663  38.438  1.00  0.00    -0.200 F 
ATOM     78  F   UNL A   1      37.834  34.202  38.840  1.00  0.00    -0.200 F 
ENDBRANCH  54  68
BRANCH  55  79
ATOM     79  C   UNL A   1      42.387  26.593  27.825  1.00  0.00     0.064 A 
ATOM     80  C   UNL A   1      43.373  27.092  26.962  1.00  0.00     0.173 A 
ATOM     81  C   UNL A   1      41.840  25.334  27.530  1.00  0.00     0.173 A 
ATOM     82  F   UNL A   1      43.908  28.301  27.187  1.00  0.00    -0.203 F 
ATOM     83  C   UNL A   1      43.774  26.375  25.837  1.00  0.00     0.198 A 
ATOM     84  C   UNL A   1      42.264  24.605  26.422  1.00  0.00     0.198 A 
ATOM     85  F   UNL A   1      40.893  24.811  28.323  1.00  0.00    -0.203 F 
ATOM     86  F   UNL A   1      44.679  26.900  24.999  1.00  0.00    -0.200 F 
ATOM     87  C   UNL A   1      43.224  25.131  25.570  1.00  0.00     0.200 A 
ATOM     88  F   UNL A   1      41.737  23.399  26.175  1.00  0.00    -0.200 F 
ATOM     89  F   UNL A   1      43.609  24.443  24.487  1.00  0.00    -0.200 F 
ENDBRANCH  55  79
BRANCH  67  90
ATOM     90  C   UNL A   1      44.417  26.971  34.479  1.00  0.00     0.064 A 
ATOM     91  C   UNL A   1      45.718  27.476  34.619  1.00  0.00     0.173 A 
ATOM     92  C   UNL A   1      44.109  25.758  35.114  1.00  0.00     0.173 A 
ATOM     93  F   UNL A   1      46.065  28.624  34.020  1.00  0.00    -0.203 F 
ATOM     94  C   UNL A   1      46.682  26.775  35.339  1.00  0.00     0.198 A 
ATOM     95  C   UNL A   1      45.068  25.076  35.858  1.00  0.00     0.198 A 
ATOM     96  F   UNL A   1      42.877  25.237  35.018  1.00  0.00    -0.203 F 
ATOM     97  F   UNL A   1      47.934  27.248  35.413  1.00  0.00    -0.200 F 
ATOM     98  C   UNL A   1      46.356  25.580  35.962  1.00  0.00     0.200 A 
ATOM     99  F   UNL A   1      44.747  23.928  36.471  1.00  0.00    -0.200 F 
ATOM    100  F   UNL A   1      47.286  24.908  36.654  1.00  0.00    -0.200 F 
ENDBRANCH  67  90
ENDBRANCH  41  42
ENDBRANCH  34  36
ENDBRANCH  33  34
ENDBRANCH  32  33
ENDBRANCH  31  32
ENDBRANCH   1  31
TORSDOF 17
ENDMDL
