MODEL 1
REMARK VINA RESULT:     -10.8      0.000      0.000
REMARK SMILES O=C(OCCOCCOC(=O)c1ccn(CC(F)(F)F)c1)c1ccc(-c2c3nc(c(-c4c(F)c(F)c(F)c(F)c4F)c4ccc([nH]4)c(-c4c(F)c(F)c(F)c(F)c4F)c4nc(c(-c5c(F)c(F)c(F)c(F)c5F)c5ccc2[nH]5)C=C4)C=C3)cc1
REMARK SMILES IDX 6 1 5 2 4 3 3 4 2 5 1 6 22 7 23 8 84 9 24 10 83 11 25 12
REMARK SMILES IDX 26 13 27 14 77 15 28 16 82 17 76 18 78 19 29 20 81 21 75 22
REMARK SMILES IDX 74 23 30 25 62 26 42 27 61 28 43 29 46 30 60 31 79 32 44 33
REMARK SMILES IDX 45 34 59 36 80 37 47 38 31 39 32 40 40 41 33 42 34 43 38 44
REMARK SMILES IDX 41 45 35 46 36 47 39 48 37 49 63 50 64 51 72 52 65 53 66 54
REMARK SMILES IDX 70 55 73 56 67 57 68 58 71 59 69 60 48 61 49 62 57 63 50 64
REMARK SMILES IDX 51 65 55 66 58 67 52 68 53 69 56 70 54 71 7 72 8 73 9 74
REMARK SMILES IDX 10 75 11 76 12 77 13 78 21 79 14 80 15 81 16 82 17 83 18 84
REMARK SMILES IDX 19 85 20 86
REMARK H PARENT 78 24 46 35
REMARK Flexibility Score: inf
ROOT
ATOM      1  O   UNL A   1      35.519  24.407  25.538  1.00  0.00    -0.374 OA
ENDROOT
BRANCH   1   2
ATOM      2  C   UNL A   1      36.324  23.312  25.100  1.00  0.00     0.202 C 
BRANCH   2   3
ATOM      3  C   UNL A   1      37.627  23.111  25.873  1.00  0.00     0.261 C 
BRANCH   3   4
ATOM      4  O   UNL A   1      38.041  24.331  26.521  1.00  0.00    -0.460 OA
BRANCH   4   5
ATOM      5  C   UNL A   1      39.312  24.588  26.922  1.00  0.00     0.338 C 
ATOM      6  O   UNL A   1      40.277  24.041  26.402  1.00  0.00    -0.246 OA
BRANCH   5   7
ATOM      7  C   UNL A   1      39.522  25.780  27.763  1.00  0.00     0.060 A 
ATOM      8  C   UNL A   1      39.161  25.841  29.106  1.00  0.00     0.016 A 
ATOM      9  C   UNL A   1      40.124  26.885  27.141  1.00  0.00     0.016 A 
ATOM     10  C   UNL A   1      39.197  27.057  29.762  1.00  0.00     0.010 A 
ATOM     11  C   UNL A   1      40.251  28.086  27.825  1.00  0.00     0.010 A 
ATOM     12  C   UNL A   1      39.733  28.179  29.119  1.00  0.00    -0.014 A 
BRANCH  12  13
ATOM     13  C   UNL A   1      39.854  29.401  29.936  1.00  0.00     0.031 A 
ATOM     14  C   UNL A   1      38.677  30.343  29.693  1.00  0.00     0.074 A 
ATOM     15  C   UNL A   1      41.008  29.555  30.644  1.00  0.00     0.049 A 
ATOM     16  N   UNL A   1      38.646  31.637  29.611  1.00  0.00    -0.248 NA
ATOM     17  C   UNL A   1      37.357  29.738  29.375  1.00  0.00     0.031 C 
ATOM     18  C   UNL A   1      42.036  28.509  30.795  1.00  0.00     0.029 A 
ATOM     19  N   UNL A   1      41.567  30.601  31.349  1.00  0.00    -0.354 N 
ATOM     20  C   UNL A   1      37.297  32.004  29.432  1.00  0.00     0.074 A 
ATOM     21  C   UNL A   1      36.585  30.798  29.133  1.00  0.00     0.031 C 
ATOM     22  C   UNL A   1      43.103  28.980  31.470  1.00  0.00     0.029 A 
ATOM     23  C   UNL A   1      42.883  30.368  31.824  1.00  0.00     0.049 A 
ATOM     24  H   UNL A   1      41.088  31.447  31.511  1.00  0.00     0.167 HD
ATOM     25  C   UNL A   1      36.820  33.254  29.703  1.00  0.00     0.037 A 
ATOM     26  C   UNL A   1      43.761  31.239  32.411  1.00  0.00     0.037 A 
ATOM     27  C   UNL A   1      37.884  34.117  30.098  1.00  0.00     0.049 A 
ATOM     28  C   UNL A   1      43.035  32.514  32.526  1.00  0.00     0.074 A 
ATOM     29  C   UNL A   1      38.886  34.760  29.422  1.00  0.00     0.029 A 
ATOM     30  N   UNL A   1      38.146  34.191  31.443  1.00  0.00    -0.354 N 
ATOM     31  N   UNL A   1      42.108  32.760  33.403  1.00  0.00    -0.248 NA
ATOM     32  C   UNL A   1      43.288  33.568  31.534  1.00  0.00     0.031 C 
ATOM     33  C   UNL A   1      39.928  34.890  30.369  1.00  0.00     0.029 A 
ATOM     34  C   UNL A   1      39.498  34.382  31.599  1.00  0.00     0.049 A 
ATOM     35  H   UNL A   1      37.484  34.119  32.167  1.00  0.00     0.167 HD
ATOM     36  C   UNL A   1      41.466  33.850  32.861  1.00  0.00     0.074 A 
ATOM     37  C   UNL A   1      42.393  34.464  31.943  1.00  0.00     0.031 C 
ATOM     38  C   UNL A   1      40.110  33.869  32.805  1.00  0.00     0.037 A 
BRANCH  25  39
ATOM     39  C   UNL A   1      35.412  33.750  29.918  1.00  0.00     0.064 A 
ATOM     40  C   UNL A   1      34.800  34.496  28.878  1.00  0.00     0.173 A 
ATOM     41  C   UNL A   1      34.786  33.824  31.171  1.00  0.00     0.173 A 
ATOM     42  F   UNL A   1      35.286  34.459  27.627  1.00  0.00    -0.203 F 
ATOM     43  C   UNL A   1      33.734  35.362  29.113  1.00  0.00     0.198 A 
ATOM     44  C   UNL A   1      33.680  34.651  31.389  1.00  0.00     0.198 A 
ATOM     45  F   UNL A   1      35.279  33.187  32.239  1.00  0.00    -0.203 F 
ATOM     46  F   UNL A   1      33.288  36.155  28.129  1.00  0.00    -0.200 F 
ATOM     47  C   UNL A   1      33.184  35.452  30.376  1.00  0.00     0.200 A 
ATOM     48  F   UNL A   1      33.143  34.724  32.615  1.00  0.00    -0.200 F 
ATOM     49  F   UNL A   1      32.205  36.331  30.626  1.00  0.00    -0.200 F 
ENDBRANCH  25  39
BRANCH  26  50
ATOM     50  C   UNL A   1      45.208  31.231  32.857  1.00  0.00     0.064 A 
ATOM     51  C   UNL A   1      46.326  31.107  32.020  1.00  0.00     0.173 A 
ATOM     52  C   UNL A   1      45.536  31.365  34.236  1.00  0.00     0.173 A 
ATOM     53  F   UNL A   1      46.193  30.827  30.721  1.00  0.00    -0.203 F 
ATOM     54  C   UNL A   1      47.644  31.225  32.502  1.00  0.00     0.198 A 
ATOM     55  C   UNL A   1      46.841  31.502  34.715  1.00  0.00     0.198 A 
ATOM     56  F   UNL A   1      44.597  31.363  35.190  1.00  0.00    -0.203 F 
ATOM     57  F   UNL A   1      48.673  31.120  31.650  1.00  0.00    -0.200 F 
ATOM     58  C   UNL A   1      47.899  31.450  33.841  1.00  0.00     0.200 A 
ATOM     59  F   UNL A   1      47.051  31.691  36.025  1.00  0.00    -0.200 F 
ATOM     60  F   UNL A   1      49.153  31.596  34.291  1.00  0.00    -0.200 F 
ENDBRANCH  26  50
BRANCH  38  61
ATOM     61  C   UNL A   1      39.467  32.921  33.801  1.00  0.00     0.064 A 
ATOM     62  C   UNL A   1      39.541  33.180  35.177  1.00  0.00     0.173 A 
ATOM     63  C   UNL A   1      38.929  31.676  33.437  1.00  0.00     0.173 A 
ATOM     64  F   UNL A   1      40.033  34.349  35.611  1.00  0.00    -0.203 F 
ATOM     65  C   UNL A   1      39.127  32.234  36.122  1.00  0.00     0.198 A 
ATOM     66  C   UNL A   1      38.508  30.734  34.373  1.00  0.00     0.198 A 
ATOM     67  F   UNL A   1      38.806  31.347  32.155  1.00  0.00    -0.203 F 
ATOM     68  F   UNL A   1      39.228  32.511  37.429  1.00  0.00    -0.200 F 
ATOM     69  C   UNL A   1      38.616  31.010  35.720  1.00  0.00     0.200 A 
ATOM     70  F   UNL A   1      37.998  29.562  33.963  1.00  0.00    -0.200 F 
ATOM     71  F   UNL A   1      38.220  30.107  36.627  1.00  0.00    -0.200 F 
ENDBRANCH  38  61
ENDBRANCH  12  13
ENDBRANCH   5   7
ENDBRANCH   4   5
ENDBRANCH   3   4
ENDBRANCH   2   3
ENDBRANCH   1   2
BRANCH   1  72
ATOM     72  C   UNL A   1      34.438  24.749  24.653  1.00  0.00     0.202 C 
BRANCH  72  73
ATOM     73  C   UNL A   1      33.952  23.628  23.720  1.00  0.00     0.261 C 
BRANCH  73  74
ATOM     74  O   UNL A   1      32.676  23.113  24.144  1.00  0.00    -0.460 OA
BRANCH  74  75
ATOM     75  C   UNL A   1      32.722  22.210  25.173  1.00  0.00     0.339 C 
ATOM     76  O   UNL A   1      32.587  22.485  26.343  1.00  0.00    -0.246 OA
BRANCH  75  77
ATOM     77  C   UNL A   1      32.725  20.833  24.671  1.00  0.00     0.077 A 
ATOM     78  C   UNL A   1      32.292  20.300  23.428  1.00  0.00     0.035 A 
ATOM     79  C   UNL A   1      33.118  19.748  25.439  1.00  0.00     0.101 A 
ATOM     80  C   UNL A   1      32.468  18.931  23.470  1.00  0.00     0.087 A 
ATOM     81  N   UNL A   1      32.921  18.600  24.718  1.00  0.00    -0.344 N 
BRANCH  81  82
ATOM     82  C   UNL A   1      33.229  17.270  25.216  1.00  0.00     0.236 C 
BRANCH  82  83
ATOM     83  C   UNL A   1      34.396  16.574  24.551  1.00  0.00     0.406 C 
ATOM     84  F   UNL A   1      34.108  16.171  23.296  1.00  0.00    -0.169 F 
ATOM     85  F   UNL A   1      35.445  17.430  24.459  1.00  0.00    -0.169 F 
ATOM     86  F   UNL A   1      34.820  15.503  25.255  1.00  0.00    -0.169 F 
ENDBRANCH  82  83
ENDBRANCH  81  82
ENDBRANCH  75  77
ENDBRANCH  74  75
ENDBRANCH  73  74
ENDBRANCH  72  73
ENDBRANCH   1  72
TORSDOF 16
ENDMDL
MODEL 2
REMARK VINA RESULT:     -10.8      5.022      9.623
REMARK SMILES O=C(OCCOCCOC(=O)c1ccn(CC(F)(F)F)c1)c1ccc(-c2c3nc(c(-c4c(F)c(F)c(F)c(F)c4F)c4ccc([nH]4)c(-c4c(F)c(F)c(F)c(F)c4F)c4nc(c(-c5c(F)c(F)c(F)c(F)c5F)c5ccc2[nH]5)C=C4)C=C3)cc1
REMARK SMILES IDX 6 1 5 2 4 3 3 4 2 5 1 6 22 7 23 8 84 9 24 10 83 11 25 12
REMARK SMILES IDX 26 13 27 14 77 15 28 16 82 17 76 18 78 19 29 20 81 21 75 22
REMARK SMILES IDX 74 23 30 25 62 26 42 27 61 28 43 29 46 30 60 31 79 32 44 33
REMARK SMILES IDX 45 34 59 36 80 37 47 38 31 39 32 40 40 41 33 42 34 43 38 44
REMARK SMILES IDX 41 45 35 46 36 47 39 48 37 49 63 50 64 51 72 52 65 53 66 54
REMARK SMILES IDX 70 55 73 56 67 57 68 58 71 59 69 60 48 61 49 62 57 63 50 64
REMARK SMILES IDX 51 65 55 66 58 67 52 68 53 69 56 70 54 71 7 72 8 73 9 74
REMARK SMILES IDX 10 75 11 76 12 77 13 78 21 79 14 80 15 81 16 82 17 83 18 84
REMARK SMILES IDX 19 85 20 86
REMARK H PARENT 78 24 46 35
REMARK Flexibility Score: inf
ROOT
ATOM      1  O   UNL A   1      32.195  28.189  25.319  1.00  0.00    -0.374 OA
ENDROOT
BRANCH   1   2
ATOM      2  C   UNL A   1      33.171  28.004  26.346  1.00  0.00     0.202 C 
BRANCH   2   3
ATOM      3  C   UNL A   1      33.858  29.280  26.828  1.00  0.00     0.261 C 
BRANCH   3   4
ATOM      4  O   UNL A   1      35.128  28.987  27.445  1.00  0.00    -0.460 OA
BRANCH   4   5
ATOM      5  C   UNL A   1      36.063  29.923  27.748  1.00  0.00     0.338 C 
ATOM      6  O   UNL A   1      35.754  31.057  28.096  1.00  0.00    -0.246 OA
BRANCH   5   7
ATOM      7  C   UNL A   1      37.441  29.449  27.972  1.00  0.00     0.060 A 
ATOM      8  C   UNL A   1      38.487  29.699  27.088  1.00  0.00     0.016 A 
ATOM      9  C   UNL A   1      37.666  28.716  29.148  1.00  0.00     0.016 A 
ATOM     10  C   UNL A   1      39.691  29.044  27.262  1.00  0.00     0.010 A 
ATOM     11  C   UNL A   1      38.904  28.133  29.377  1.00  0.00     0.010 A 
ATOM     12  C   UNL A   1      39.895  28.255  28.401  1.00  0.00    -0.014 A 
BRANCH  12  13
ATOM     13  C   UNL A   1      41.251  27.700  28.572  1.00  0.00     0.031 A 
ATOM     14  C   UNL A   1      41.320  26.256  28.084  1.00  0.00     0.074 A 
ATOM     15  C   UNL A   1      42.154  28.478  29.233  1.00  0.00     0.049 A 
ATOM     16  N   UNL A   1      41.955  25.236  28.575  1.00  0.00    -0.248 NA
ATOM     17  C   UNL A   1      40.450  25.865  26.943  1.00  0.00     0.031 C 
ATOM     18  C   UNL A   1      41.922  29.886  29.606  1.00  0.00     0.029 A 
ATOM     19  N   UNL A   1      43.416  28.257  29.745  1.00  0.00    -0.354 N 
ATOM     20  C   UNL A   1      41.724  24.152  27.706  1.00  0.00     0.074 A 
ATOM     21  C   UNL A   1      40.670  24.556  26.824  1.00  0.00     0.031 C 
ATOM     22  C   UNL A   1      42.954  30.366  30.328  1.00  0.00     0.029 A 
ATOM     23  C   UNL A   1      43.953  29.330  30.500  1.00  0.00     0.049 A 
ATOM     24  H   UNL A   1      43.908  27.416  29.597  1.00  0.00     0.167 HD
ATOM     25  C   UNL A   1      42.526  23.048  27.658  1.00  0.00     0.037 A 
ATOM     26  C   UNL A   1      45.092  29.374  31.259  1.00  0.00     0.037 A 
ATOM     27  C   UNL A   1      43.544  23.130  28.653  1.00  0.00     0.049 A 
ATOM     28  C   UNL A   1      45.728  28.057  31.092  1.00  0.00     0.074 A 
ATOM     29  C   UNL A   1      43.562  22.956  30.011  1.00  0.00     0.029 A 
ATOM     30  N   UNL A   1      44.729  23.708  28.271  1.00  0.00    -0.354 N 
ATOM     31  N   UNL A   1      46.375  27.679  30.031  1.00  0.00    -0.248 NA
ATOM     32  C   UNL A   1      45.556  27.046  32.144  1.00  0.00     0.031 C 
ATOM     33  C   UNL A   1      44.621  23.776  30.462  1.00  0.00     0.029 A 
ATOM     34  C   UNL A   1      45.247  24.366  29.359  1.00  0.00     0.049 A 
ATOM     35  H   UNL A   1      45.135  23.659  27.376  1.00  0.00     0.167 HD
ATOM     36  C   UNL A   1      46.397  26.310  30.166  1.00  0.00     0.074 A 
ATOM     37  C   UNL A   1      46.187  26.028  31.565  1.00  0.00     0.031 C 
ATOM     38  C   UNL A   1      46.073  25.527  29.106  1.00  0.00     0.037 A 
BRANCH  25  39
ATOM     39  C   UNL A   1      42.672  21.976  26.608  1.00  0.00     0.064 A 
ATOM     40  C   UNL A   1      42.123  20.696  26.878  1.00  0.00     0.173 A 
ATOM     41  C   UNL A   1      43.582  22.037  25.542  1.00  0.00     0.173 A 
ATOM     42  F   UNL A   1      41.205  20.530  27.843  1.00  0.00    -0.203 F 
ATOM     43  C   UNL A   1      42.565  19.546  26.226  1.00  0.00     0.198 A 
ATOM     44  C   UNL A   1      43.981  20.888  24.853  1.00  0.00     0.198 A 
ATOM     45  F   UNL A   1      44.188  23.181  25.204  1.00  0.00    -0.203 F 
ATOM     46  F   UNL A   1      42.124  18.344  26.620  1.00  0.00    -0.200 F 
ATOM     47  C   UNL A   1      43.509  19.641  25.224  1.00  0.00     0.200 A 
ATOM     48  F   UNL A   1      44.888  20.989  23.872  1.00  0.00    -0.200 F 
ATOM     49  F   UNL A   1      43.989  18.535  24.641  1.00  0.00    -0.200 F 
ENDBRANCH  25  39
BRANCH  26  50
ATOM     50  C   UNL A   1      45.756  30.340  32.217  1.00  0.00     0.064 A 
ATOM     51  C   UNL A   1      45.270  30.714  33.478  1.00  0.00     0.173 A 
ATOM     52  C   UNL A   1      46.993  30.957  31.874  1.00  0.00     0.173 A 
ATOM     53  F   UNL A   1      44.055  30.343  33.892  1.00  0.00    -0.203 F 
ATOM     54  C   UNL A   1      46.006  31.531  34.357  1.00  0.00     0.198 A 
ATOM     55  C   UNL A   1      47.735  31.752  32.751  1.00  0.00     0.198 A 
ATOM     56  F   UNL A   1      47.538  30.820  30.659  1.00  0.00    -0.203 F 
ATOM     57  F   UNL A   1      45.499  31.836  35.560  1.00  0.00    -0.200 F 
ATOM     58  C   UNL A   1      47.248  32.025  34.005  1.00  0.00     0.200 A 
ATOM     59  F   UNL A   1      48.924  32.235  32.363  1.00  0.00    -0.200 F 
ATOM     60  F   UNL A   1      47.961  32.773  34.857  1.00  0.00    -0.200 F 
ENDBRANCH  26  50
BRANCH  38  61
ATOM     61  C   UNL A   1      46.224  26.245  27.777  1.00  0.00     0.064 A 
ATOM     62  C   UNL A   1      45.091  26.621  27.041  1.00  0.00     0.173 A 
ATOM     63  C   UNL A   1      47.461  26.415  27.134  1.00  0.00     0.173 A 
ATOM     64  F   UNL A   1      43.872  26.501  27.585  1.00  0.00    -0.203 F 
ATOM     65  C   UNL A   1      45.198  27.109  25.734  1.00  0.00     0.198 A 
ATOM     66  C   UNL A   1      47.574  26.908  25.835  1.00  0.00     0.198 A 
ATOM     67  F   UNL A   1      48.592  26.098  27.758  1.00  0.00    -0.203 F 
ATOM     68  F   UNL A   1      44.092  27.444  25.057  1.00  0.00    -0.200 F 
ATOM     69  C   UNL A   1      46.438  27.247  25.130  1.00  0.00     0.200 A 
ATOM     70  F   UNL A   1      48.785  27.051  25.275  1.00  0.00    -0.200 F 
ATOM     71  F   UNL A   1      46.537  27.715  23.879  1.00  0.00    -0.200 F 
ENDBRANCH  38  61
ENDBRANCH  12  13
ENDBRANCH   5   7
ENDBRANCH   4   5
ENDBRANCH   3   4
ENDBRANCH   2   3
ENDBRANCH   1   2
BRANCH   1  72
ATOM     72  C   UNL A   1      31.478  26.998  24.950  1.00  0.00     0.202 C 
BRANCH  72  73
ATOM     73  C   UNL A   1      31.196  26.004  26.089  1.00  0.00     0.261 C 
BRANCH  73  74
ATOM     74  O   UNL A   1      31.251  24.643  25.620  1.00  0.00    -0.460 OA
BRANCH  74  75
ATOM     75  C   UNL A   1      31.431  23.695  26.593  1.00  0.00     0.339 C 
ATOM     76  O   UNL A   1      30.577  23.321  27.363  1.00  0.00    -0.246 OA
BRANCH  75  77
ATOM     77  C   UNL A   1      32.722  23.020  26.443  1.00  0.00     0.077 A 
ATOM     78  C   UNL A   1      33.648  22.564  27.419  1.00  0.00     0.035 A 
ATOM     79  C   UNL A   1      33.310  22.774  25.211  1.00  0.00     0.101 A 
ATOM     80  C   UNL A   1      34.736  22.033  26.755  1.00  0.00     0.087 A 
ATOM     81  N   UNL A   1      34.544  22.214  25.412  1.00  0.00    -0.344 N 
BRANCH  81  82
ATOM     82  C   UNL A   1      35.440  21.824  24.337  1.00  0.00     0.236 C 
BRANCH  82  83
ATOM     83  C   UNL A   1      36.598  22.761  24.075  1.00  0.00     0.406 C 
ATOM     84  F   UNL A   1      36.821  22.948  22.757  1.00  0.00    -0.169 F 
ATOM     85  F   UNL A   1      36.329  23.980  24.606  1.00  0.00    -0.169 F 
ATOM     86  F   UNL A   1      37.744  22.328  24.643  1.00  0.00    -0.169 F 
ENDBRANCH  82  83
ENDBRANCH  81  82
ENDBRANCH  75  77
ENDBRANCH  74  75
ENDBRANCH  73  74
ENDBRANCH  72  73
ENDBRANCH   1  72
TORSDOF 16
ENDMDL
MODEL 3
REMARK VINA RESULT:     -10.8      2.972      4.084
REMARK SMILES O=C(OCCOCCOC(=O)c1ccn(CC(F)(F)F)c1)c1ccc(-c2c3nc(c(-c4c(F)c(F)c(F)c(F)c4F)c4ccc([nH]4)c(-c4c(F)c(F)c(F)c(F)c4F)c4nc(c(-c5c(F)c(F)c(F)c(F)c5F)c5ccc2[nH]5)C=C4)C=C3)cc1
REMARK SMILES IDX 6 1 5 2 4 3 3 4 2 5 1 6 22 7 23 8 84 9 24 10 83 11 25 12
REMARK SMILES IDX 26 13 27 14 77 15 28 16 82 17 76 18 78 19 29 20 81 21 75 22
REMARK SMILES IDX 74 23 30 25 62 26 42 27 61 28 43 29 46 30 60 31 79 32 44 33
REMARK SMILES IDX 45 34 59 36 80 37 47 38 31 39 32 40 40 41 33 42 34 43 38 44
REMARK SMILES IDX 41 45 35 46 36 47 39 48 37 49 63 50 64 51 72 52 65 53 66 54
REMARK SMILES IDX 70 55 73 56 67 57 68 58 71 59 69 60 48 61 49 62 57 63 50 64
REMARK SMILES IDX 51 65 55 66 58 67 52 68 53 69 56 70 54 71 7 72 8 73 9 74
REMARK SMILES IDX 10 75 11 76 12 77 13 78 21 79 14 80 15 81 16 82 17 83 18 84
REMARK SMILES IDX 19 85 20 86
REMARK H PARENT 78 24 46 35
REMARK Flexibility Score: inf
ROOT
ATOM      1  O   UNL A   1      34.957  23.713  24.973  1.00  0.00    -0.374 OA
ENDROOT
BRANCH   1   2
ATOM      2  C   UNL A   1      35.772  22.986  25.895  1.00  0.00     0.202 C 
BRANCH   2   3
ATOM      3  C   UNL A   1      37.275  23.066  25.637  1.00  0.00     0.261 C 
BRANCH   3   4
ATOM      4  O   UNL A   1      37.842  24.255  26.223  1.00  0.00    -0.460 OA
BRANCH   4   5
ATOM      5  C   UNL A   1      39.040  24.295  26.860  1.00  0.00     0.338 C 
ATOM      6  O   UNL A   1      39.948  23.522  26.579  1.00  0.00    -0.246 OA
BRANCH   5   7
ATOM      7  C   UNL A   1      39.335  25.497  27.661  1.00  0.00     0.060 A 
ATOM      8  C   UNL A   1      39.069  25.592  29.023  1.00  0.00     0.016 A 
ATOM      9  C   UNL A   1      39.917  26.576  26.976  1.00  0.00     0.016 A 
ATOM     10  C   UNL A   1      39.178  26.818  29.651  1.00  0.00     0.010 A 
ATOM     11  C   UNL A   1      40.118  27.785  27.626  1.00  0.00     0.010 A 
ATOM     12  C   UNL A   1      39.693  27.915  28.950  1.00  0.00    -0.014 A 
BRANCH  12  13
ATOM     13  C   UNL A   1      39.897  29.149  29.732  1.00  0.00     0.031 A 
ATOM     14  C   UNL A   1      38.711  30.097  29.582  1.00  0.00     0.074 A 
ATOM     15  C   UNL A   1      41.112  29.304  30.329  1.00  0.00     0.049 A 
ATOM     16  N   UNL A   1      38.682  31.391  29.481  1.00  0.00    -0.248 NA
ATOM     17  C   UNL A   1      37.362  29.500  29.396  1.00  0.00     0.031 C 
ATOM     18  C   UNL A   1      42.142  28.251  30.402  1.00  0.00     0.029 A 
ATOM     19  N   UNL A   1      41.742  30.356  30.962  1.00  0.00    -0.354 N 
ATOM     20  C   UNL A   1      37.325  31.767  29.420  1.00  0.00     0.074 A 
ATOM     21  C   UNL A   1      36.579  30.563  29.208  1.00  0.00     0.031 C 
ATOM     22  C   UNL A   1      43.270  28.723  30.970  1.00  0.00     0.029 A 
ATOM     23  C   UNL A   1      43.094  30.118  31.319  1.00  0.00     0.049 A 
ATOM     24  H   UNL A   1      41.286  31.208  31.153  1.00  0.00     0.167 HD
ATOM     25  C   UNL A   1      36.885  33.025  29.713  1.00  0.00     0.037 A 
ATOM     26  C   UNL A   1      44.028  30.991  31.809  1.00  0.00     0.037 A 
ATOM     27  C   UNL A   1      37.987  33.885  29.994  1.00  0.00     0.049 A 
ATOM     28  C   UNL A   1      43.326  32.274  31.968  1.00  0.00     0.074 A 
ATOM     29  C   UNL A   1      38.928  34.507  29.219  1.00  0.00     0.029 A 
ATOM     30  N   UNL A   1      38.372  33.978  31.308  1.00  0.00    -0.354 N 
ATOM     31  N   UNL A   1      42.485  32.542  32.921  1.00  0.00    -0.248 NA
ATOM     32  C   UNL A   1      43.495  33.309  30.940  1.00  0.00     0.031 C 
ATOM     33  C   UNL A   1      40.053  34.643  30.064  1.00  0.00     0.029 A 
ATOM     34  C   UNL A   1      39.733  34.159  31.336  1.00  0.00     0.049 A 
ATOM     35  H   UNL A   1      37.779  33.924  32.091  1.00  0.00     0.167 HD
ATOM     36  C   UNL A   1      41.804  33.629  32.422  1.00  0.00     0.074 A 
ATOM     37  C   UNL A   1      42.649  34.220  31.413  1.00  0.00     0.031 C 
ATOM     38  C   UNL A   1      40.449  33.660  32.490  1.00  0.00     0.037 A 
BRANCH  25  39
ATOM     39  C   UNL A   1      35.506  33.538  30.046  1.00  0.00     0.064 A 
ATOM     40  C   UNL A   1      34.820  34.298  29.066  1.00  0.00     0.173 A 
ATOM     41  C   UNL A   1      34.988  33.611  31.348  1.00  0.00     0.173 A 
ATOM     42  F   UNL A   1      35.199  34.264  27.778  1.00  0.00    -0.203 F 
ATOM     43  C   UNL A   1      33.788  35.176  29.394  1.00  0.00     0.198 A 
ATOM     44  C   UNL A   1      33.915  34.451  31.662  1.00  0.00     0.198 A 
ATOM     45  F   UNL A   1      35.560  32.961  32.367  1.00  0.00    -0.203 F 
ATOM     46  F   UNL A   1      33.272  35.981  28.455  1.00  0.00    -0.200 F 
ATOM     47  C   UNL A   1      33.347  35.264  30.698  1.00  0.00     0.200 A 
ATOM     48  F   UNL A   1      33.483  34.523  32.929  1.00  0.00    -0.200 F 
ATOM     49  F   UNL A   1      32.404  36.154  31.034  1.00  0.00    -0.200 F 
ENDBRANCH  25  39
BRANCH  26  50
ATOM     50  C   UNL A   1      45.510  30.976  32.120  1.00  0.00     0.064 A 
ATOM     51  C   UNL A   1      46.549  31.017  31.180  1.00  0.00     0.173 A 
ATOM     52  C   UNL A   1      45.961  30.925  33.470  1.00  0.00     0.173 A 
ATOM     53  F   UNL A   1      46.305  30.921  29.870  1.00  0.00    -0.203 F 
ATOM     54  C   UNL A   1      47.902  31.117  31.557  1.00  0.00     0.198 A 
ATOM     55  C   UNL A   1      47.300  31.043  33.848  1.00  0.00     0.198 A 
ATOM     56  F   UNL A   1      45.113  30.749  34.492  1.00  0.00    -0.203 F 
ATOM     57  F   UNL A   1      48.851  31.175  30.612  1.00  0.00    -0.200 F 
ATOM     58  C   UNL A   1      48.274  31.158  32.887  1.00  0.00     0.200 A 
ATOM     59  F   UNL A   1      47.624  31.052  35.149  1.00  0.00    -0.200 F 
ATOM     60  F   UNL A   1      49.559  31.288  33.242  1.00  0.00    -0.200 F 
ENDBRANCH  26  50
BRANCH  38  61
ATOM     61  C   UNL A   1      39.893  32.734  33.556  1.00  0.00     0.064 A 
ATOM     62  C   UNL A   1      39.213  31.563  33.195  1.00  0.00     0.173 A 
ATOM     63  C   UNL A   1      39.865  33.066  34.921  1.00  0.00     0.173 A 
ATOM     64  F   UNL A   1      39.198  31.167  31.913  1.00  0.00    -0.203 F 
ATOM     65  C   UNL A   1      38.528  30.793  34.141  1.00  0.00     0.198 A 
ATOM     66  C   UNL A   1      39.191  32.298  35.870  1.00  0.00     0.198 A 
ATOM     67  F   UNL A   1      40.493  34.151  35.361  1.00  0.00    -0.203 F 
ATOM     68  F   UNL A   1      37.877  29.687  33.756  1.00  0.00    -0.200 F 
ATOM     69  C   UNL A   1      38.512  31.164  35.477  1.00  0.00     0.200 A 
ATOM     70  F   UNL A   1      39.204  32.665  37.161  1.00  0.00    -0.200 F 
ATOM     71  F   UNL A   1      37.856  30.425  36.381  1.00  0.00    -0.200 F 
ENDBRANCH  38  61
ENDBRANCH  12  13
ENDBRANCH   5   7
ENDBRANCH   4   5
ENDBRANCH   3   4
ENDBRANCH   2   3
ENDBRANCH   1   2
BRANCH   1  72
ATOM     72  C   UNL A   1      34.076  22.900  24.179  1.00  0.00     0.202 C 
BRANCH  72  73
ATOM     73  C   UNL A   1      33.730  23.447  22.784  1.00  0.00     0.261 C 
BRANCH  73  74
ATOM     74  O   UNL A   1      32.884  24.609  22.875  1.00  0.00    -0.460 OA
BRANCH  74  75
ATOM     75  C   UNL A   1      33.202  25.631  22.020  1.00  0.00     0.339 C 
ATOM     76  O   UNL A   1      33.259  25.537  20.816  1.00  0.00    -0.246 OA
BRANCH  75  77
ATOM     77  C   UNL A   1      33.243  26.916  22.723  1.00  0.00     0.077 A 
ATOM     78  C   UNL A   1      33.786  28.169  22.331  1.00  0.00     0.035 A 
ATOM     79  C   UNL A   1      32.779  27.086  24.018  1.00  0.00     0.101 A 
ATOM     80  C   UNL A   1      33.605  29.054  23.376  1.00  0.00     0.087 A 
ATOM     81  N   UNL A   1      33.040  28.371  24.418  1.00  0.00    -0.344 N 
BRANCH  81  82
ATOM     82  C   UNL A   1      32.686  28.898  25.724  1.00  0.00     0.236 C 
BRANCH  82  83
ATOM     83  C   UNL A   1      33.846  29.230  26.635  1.00  0.00     0.406 C 
ATOM     84  F   UNL A   1      35.032  28.837  26.123  1.00  0.00    -0.169 F 
ATOM     85  F   UNL A   1      33.919  30.574  26.811  1.00  0.00    -0.169 F 
ATOM     86  F   UNL A   1      33.708  28.679  27.860  1.00  0.00    -0.169 F 
ENDBRANCH  82  83
ENDBRANCH  81  82
ENDBRANCH  75  77
ENDBRANCH  74  75
ENDBRANCH  73  74
ENDBRANCH  72  73
ENDBRANCH   1  72
TORSDOF 16
ENDMDL
