MODEL 1
REMARK VINA RESULT:     -10.8      0.000      0.000
REMARK SMILES CC[C@](C)(NC(=O)N(C)Cc1cccc(C)c1)C(=O)OCCOCCOC(=O)c1ccc(-c2c3nc(c(-c4c(F)c(F)c(F)c(F)c4F)c4ccc([nH]4)c(-c4c(F)c(F)c(F)c(F)c4F)c4nc(c(-c5c(F)c(F)c(F)c(F)c5F)c5ccc2[nH]5)C=C4)C=C3)cc1
REMARK SMILES IDX 22 1 21 2 20 3 18 4 19 5 3 6 4 7 2 8 1 9 5 10 6 11 7 13 8 14
REMARK SMILES IDX 9 15 10 16 11 17 12 18 17 19 13 20 15 21 14 22 16 23 23 24
REMARK SMILES IDX 24 25 25 26 26 27 27 28 28 29 29 30 30 31 91 32 31 33 90 34
REMARK SMILES IDX 32 35 33 36 34 37 84 38 35 39 89 40 83 41 85 42 36 43 88 44
REMARK SMILES IDX 82 45 81 46 37 48 69 49 49 50 68 51 50 52 53 53 67 54 86 55
REMARK SMILES IDX 51 56 52 57 66 59 87 60 54 61 38 62 39 63 47 64 40 65 41 66
REMARK SMILES IDX 45 67 48 68 42 69 43 70 46 71 44 72 70 73 71 74 79 75 72 76
REMARK SMILES IDX 73 77 77 78 80 79 74 80 75 81 78 82 76 83 55 84 56 85 64 86
REMARK SMILES IDX 57 87 58 88 62 89 65 90 59 91 60 92 63 93 61 94
REMARK H PARENT 5 12 85 47 53 58
REMARK Flexibility Score: inf
ROOT
ATOM      1  C   UNL A   1      34.001  33.588  28.618  1.00  0.00     0.202 C 
ENDROOT
BRANCH   1   2
ATOM      2  C   UNL A   1      32.985  32.765  27.823  1.00  0.00     0.261 C 
BRANCH   2   3
ATOM      3  O   UNL A   1      33.359  31.482  27.320  1.00  0.00    -0.462 OA
BRANCH   3   4
ATOM      4  C   UNL A   1      32.388  30.839  26.637  1.00  0.00     0.331 C 
ATOM      5  O   UNL A   1      31.366  31.409  26.265  1.00  0.00    -0.249 OA
BRANCH   4   6
ATOM      6  C   UNL A   1      32.632  29.301  26.577  1.00  0.00     0.136 C 
ATOM      7  C   UNL A   1      31.436  28.645  27.287  1.00  0.00     0.047 C 
BRANCH   6   8
ATOM      8  C   UNL A   1      33.935  29.118  27.456  1.00  0.00     0.037 C 
ATOM      9  C   UNL A   1      35.125  28.393  26.800  1.00  0.00     0.007 C 
ENDBRANCH   6   8
BRANCH   6  10
ATOM     10  N   UNL A   1      32.907  28.684  25.172  1.00  0.00    -0.322 N 
ATOM     11  C   UNL A   1      32.391  27.523  24.567  1.00  0.00     0.318 C 
ATOM     12  H   UNL A   1      33.544  29.190  24.617  1.00  0.00     0.166 HD
ATOM     13  O   UNL A   1      31.987  26.564  25.215  1.00  0.00    -0.249 OA
BRANCH  11  14
ATOM     14  N   UNL A   1      32.242  27.571  23.145  1.00  0.00    -0.324 N 
ATOM     15  C   UNL A   1      33.435  27.480  22.307  1.00  0.00     0.149 C 
BRANCH  14  16
ATOM     16  C   UNL A   1      30.845  27.687  22.434  1.00  0.00     0.156 C 
BRANCH  16  17
ATOM     17  C   UNL A   1      29.637  28.601  22.945  1.00  0.00    -0.028 A 
ATOM     18  C   UNL A   1      28.313  28.122  22.963  1.00  0.00     0.005 A 
ATOM     19  C   UNL A   1      29.789  29.960  23.372  1.00  0.00     0.009 A 
ATOM     20  C   UNL A   1      27.213  28.973  23.227  1.00  0.00     0.001 A 
ATOM     21  C   UNL A   1      28.685  30.862  23.433  1.00  0.00    -0.051 A 
ATOM     22  C   UNL A   1      27.393  30.343  23.406  1.00  0.00     0.003 A 
ATOM     23  C   UNL A   1      28.848  32.365  23.358  1.00  0.00     0.044 C 
ENDBRANCH  16  17
ENDBRANCH  14  16
ENDBRANCH  11  14
ENDBRANCH   6  10
ENDBRANCH   4   6
ENDBRANCH   3   4
ENDBRANCH   2   3
ENDBRANCH   1   2
BRANCH   1  24
ATOM     24  O   UNL A   1      33.703  33.707  29.982  1.00  0.00    -0.374 OA
BRANCH  24  25
ATOM     25  C   UNL A   1      34.466  34.676  30.669  1.00  0.00     0.202 C 
BRANCH  25  26
ATOM     26  C   UNL A   1      35.471  34.202  31.727  1.00  0.00     0.261 C 
BRANCH  26  27
ATOM     27  O   UNL A   1      35.880  32.830  31.695  1.00  0.00    -0.460 OA
BRANCH  27  28
ATOM     28  C   UNL A   1      36.886  32.540  30.802  1.00  0.00     0.338 C 
ATOM     29  O   UNL A   1      37.757  33.275  30.390  1.00  0.00    -0.246 OA
BRANCH  28  30
ATOM     30  C   UNL A   1      36.561  31.305  30.054  1.00  0.00     0.060 A 
ATOM     31  C   UNL A   1      36.551  30.150  30.840  1.00  0.00     0.016 A 
ATOM     32  C   UNL A   1      36.925  31.225  28.723  1.00  0.00     0.016 A 
ATOM     33  C   UNL A   1      37.400  29.119  30.467  1.00  0.00     0.010 A 
ATOM     34  C   UNL A   1      37.714  30.151  28.352  1.00  0.00     0.010 A 
ATOM     35  C   UNL A   1      38.215  29.319  29.360  1.00  0.00    -0.014 A 
BRANCH  35  36
ATOM     36  C   UNL A   1      39.701  29.145  29.491  1.00  0.00     0.031 A 
ATOM     37  C   UNL A   1      40.404  28.011  28.834  1.00  0.00     0.074 A 
ATOM     38  C   UNL A   1      40.530  30.137  29.937  1.00  0.00     0.049 A 
ATOM     39  N   UNL A   1      41.269  27.253  29.423  1.00  0.00    -0.248 NA
ATOM     40  C   UNL A   1      40.238  27.695  27.412  1.00  0.00     0.031 C 
ATOM     41  C   UNL A   1      41.995  30.186  29.815  1.00  0.00     0.029 A 
ATOM     42  N   UNL A   1      40.228  31.390  30.502  1.00  0.00    -0.354 N 
ATOM     43  C   UNL A   1      41.897  26.537  28.420  1.00  0.00     0.074 A 
ATOM     44  C   UNL A   1      41.094  26.692  27.235  1.00  0.00     0.031 C 
ATOM     45  C   UNL A   1      42.469  31.272  30.442  1.00  0.00     0.029 A 
ATOM     46  C   UNL A   1      41.377  31.878  31.167  1.00  0.00     0.049 A 
ATOM     47  H   UNL A   1      39.360  31.851  30.445  1.00  0.00     0.167 HD
ATOM     48  C   UNL A   1      43.204  26.155  28.494  1.00  0.00     0.037 A 
ATOM     49  C   UNL A   1      41.344  32.040  32.525  1.00  0.00     0.037 A 
ATOM     50  C   UNL A   1      43.922  26.926  29.506  1.00  0.00     0.049 A 
ATOM     51  C   UNL A   1      42.041  30.895  33.241  1.00  0.00     0.074 A 
ATOM     52  C   UNL A   1      44.888  27.921  29.473  1.00  0.00     0.029 A 
ATOM     53  N   UNL A   1      43.438  26.943  30.793  1.00  0.00    -0.354 N 
ATOM     54  N   UNL A   1      42.912  30.102  32.674  1.00  0.00    -0.248 NA
ATOM     55  C   UNL A   1      41.747  30.482  34.614  1.00  0.00     0.031 C 
ATOM     56  C   UNL A   1      45.005  28.475  30.788  1.00  0.00     0.029 A 
ATOM     57  C   UNL A   1      44.114  27.813  31.614  1.00  0.00     0.049 A 
ATOM     58  H   UNL A   1      42.683  26.388  31.094  1.00  0.00     0.167 HD
ATOM     59  C   UNL A   1      43.099  28.997  33.457  1.00  0.00     0.074 A 
ATOM     60  C   UNL A   1      42.413  29.317  34.697  1.00  0.00     0.031 C 
ATOM     61  C   UNL A   1      43.707  27.858  33.009  1.00  0.00     0.037 A 
BRANCH  48  62
ATOM     62  C   UNL A   1      43.866  25.274  27.457  1.00  0.00     0.064 A 
ATOM     63  C   UNL A   1      43.580  23.899  27.369  1.00  0.00     0.173 A 
ATOM     64  C   UNL A   1      44.725  25.765  26.446  1.00  0.00     0.173 A 
ATOM     65  F   UNL A   1      42.679  23.321  28.172  1.00  0.00    -0.203 F 
ATOM     66  C   UNL A   1      44.185  23.068  26.423  1.00  0.00     0.198 A 
ATOM     67  C   UNL A   1      45.372  24.925  25.534  1.00  0.00     0.198 A 
ATOM     68  F   UNL A   1      44.929  27.082  26.280  1.00  0.00    -0.203 F 
ATOM     69  F   UNL A   1      43.858  21.769  26.379  1.00  0.00    -0.200 F 
ATOM     70  C   UNL A   1      45.105  23.573  25.527  1.00  0.00     0.200 A 
ATOM     71  F   UNL A   1      46.242  25.441  24.653  1.00  0.00    -0.200 F 
ATOM     72  F   UNL A   1      45.698  22.768  24.636  1.00  0.00    -0.200 F 
ENDBRANCH  48  62
BRANCH  49  73
ATOM     73  C   UNL A   1      40.109  32.780  32.920  1.00  0.00     0.064 A 
ATOM     74  C   UNL A   1      39.048  31.987  33.412  1.00  0.00     0.173 A 
ATOM     75  C   UNL A   1      40.147  34.120  33.321  1.00  0.00     0.173 A 
ATOM     76  F   UNL A   1      38.949  30.700  33.042  1.00  0.00    -0.203 F 
ATOM     77  C   UNL A   1      38.198  32.453  34.413  1.00  0.00     0.198 A 
ATOM     78  C   UNL A   1      39.279  34.588  34.314  1.00  0.00     0.198 A 
ATOM     79  F   UNL A   1      41.137  34.924  32.905  1.00  0.00    -0.203 F 
ATOM     80  F   UNL A   1      37.320  31.618  34.987  1.00  0.00    -0.200 F 
ATOM     81  C   UNL A   1      38.345  33.740  34.895  1.00  0.00     0.200 A 
ATOM     82  F   UNL A   1      39.443  35.823  34.812  1.00  0.00    -0.200 F 
ATOM     83  F   UNL A   1      37.639  34.145  35.961  1.00  0.00    -0.200 F 
ENDBRANCH  49  73
BRANCH  61  84
ATOM     84  C   UNL A   1      43.892  26.635  33.867  1.00  0.00     0.064 A 
ATOM     85  C   UNL A   1      42.791  25.971  34.424  1.00  0.00     0.173 A 
ATOM     86  C   UNL A   1      45.164  26.153  34.258  1.00  0.00     0.173 A 
ATOM     87  F   UNL A   1      41.543  26.393  34.179  1.00  0.00    -0.203 F 
ATOM     88  C   UNL A   1      42.951  24.861  35.257  1.00  0.00     0.198 A 
ATOM     89  C   UNL A   1      45.321  25.091  35.143  1.00  0.00     0.198 A 
ATOM     90  F   UNL A   1      46.303  26.662  33.771  1.00  0.00    -0.203 F 
ATOM     91  F   UNL A   1      41.870  24.208  35.703  1.00  0.00    -0.200 F 
ATOM     92  C   UNL A   1      44.214  24.428  35.624  1.00  0.00     0.200 A 
ATOM     93  F   UNL A   1      46.553  24.711  35.510  1.00  0.00    -0.200 F 
ATOM     94  F   UNL A   1      44.364  23.370  36.430  1.00  0.00    -0.200 F 
ENDBRANCH  61  84
ENDBRANCH  35  36
ENDBRANCH  28  30
ENDBRANCH  27  28
ENDBRANCH  26  27
ENDBRANCH  25  26
ENDBRANCH  24  25
ENDBRANCH   1  24
TORSDOF 19
ENDMDL
MODEL 2
REMARK VINA RESULT:     -10.8      1.160      2.359
REMARK SMILES CC[C@](C)(NC(=O)N(C)Cc1cccc(C)c1)C(=O)OCCOCCOC(=O)c1ccc(-c2c3nc(c(-c4c(F)c(F)c(F)c(F)c4F)c4ccc([nH]4)c(-c4c(F)c(F)c(F)c(F)c4F)c4nc(c(-c5c(F)c(F)c(F)c(F)c5F)c5ccc2[nH]5)C=C4)C=C3)cc1
REMARK SMILES IDX 22 1 21 2 20 3 18 4 19 5 3 6 4 7 2 8 1 9 5 10 6 11 7 13 8 14
REMARK SMILES IDX 9 15 10 16 11 17 12 18 17 19 13 20 15 21 14 22 16 23 23 24
REMARK SMILES IDX 24 25 25 26 26 27 27 28 28 29 29 30 30 31 91 32 31 33 90 34
REMARK SMILES IDX 32 35 33 36 34 37 84 38 35 39 89 40 83 41 85 42 36 43 88 44
REMARK SMILES IDX 82 45 81 46 37 48 69 49 49 50 68 51 50 52 53 53 67 54 86 55
REMARK SMILES IDX 51 56 52 57 66 59 87 60 54 61 38 62 39 63 47 64 40 65 41 66
REMARK SMILES IDX 45 67 48 68 42 69 43 70 46 71 44 72 70 73 71 74 79 75 72 76
REMARK SMILES IDX 73 77 77 78 80 79 74 80 75 81 78 82 76 83 55 84 56 85 64 86
REMARK SMILES IDX 57 87 58 88 62 89 65 90 59 91 60 92 63 93 61 94
REMARK H PARENT 5 12 85 47 53 58
REMARK Flexibility Score: inf
ROOT
ATOM      1  C   UNL A   1      33.709  31.381  27.944  1.00  0.00     0.202 C 
ENDROOT
BRANCH   1   2
ATOM      2  C   UNL A   1      32.766  30.743  26.923  1.00  0.00     0.261 C 
BRANCH   2   3
ATOM      3  O   UNL A   1      33.311  30.057  25.795  1.00  0.00    -0.462 OA
BRANCH   3   4
ATOM      4  C   UNL A   1      33.137  28.719  25.812  1.00  0.00     0.331 C 
ATOM      5  O   UNL A   1      33.560  28.017  26.726  1.00  0.00    -0.249 OA
BRANCH   4   6
ATOM      6  C   UNL A   1      32.545  28.186  24.471  1.00  0.00     0.136 C 
ATOM      7  C   UNL A   1      32.960  26.709  24.371  1.00  0.00     0.047 C 
BRANCH   6   8
ATOM      8  C   UNL A   1      33.326  29.030  23.384  1.00  0.00     0.037 C 
ATOM      9  C   UNL A   1      34.075  28.243  22.293  1.00  0.00     0.007 C 
ENDBRANCH   6   8
BRANCH   6  10
ATOM     10  N   UNL A   1      31.017  28.398  24.242  1.00  0.00    -0.322 N 
ATOM     11  C   UNL A   1      30.205  28.065  23.142  1.00  0.00     0.318 C 
ATOM     12  H   UNL A   1      30.544  28.834  24.987  1.00  0.00     0.166 HD
ATOM     13  O   UNL A   1      30.644  27.963  22.002  1.00  0.00    -0.249 OA
BRANCH  11  14
ATOM     14  N   UNL A   1      28.850  27.722  23.446  1.00  0.00    -0.324 N 
ATOM     15  C   UNL A   1      28.569  26.418  24.043  1.00  0.00     0.149 C 
BRANCH  14  16
ATOM     16  C   UNL A   1      27.642  28.696  23.195  1.00  0.00     0.156 C 
BRANCH  16  17
ATOM     17  C   UNL A   1      27.766  30.150  22.543  1.00  0.00    -0.028 A 
ATOM     18  C   UNL A   1      27.735  30.330  21.146  1.00  0.00     0.005 A 
ATOM     19  C   UNL A   1      27.959  31.351  23.298  1.00  0.00     0.009 A 
ATOM     20  C   UNL A   1      28.036  31.577  20.547  1.00  0.00     0.001 A 
ATOM     21  C   UNL A   1      28.461  32.547  22.704  1.00  0.00    -0.051 A 
ATOM     22  C   UNL A   1      28.449  32.662  21.316  1.00  0.00     0.003 A 
ATOM     23  C   UNL A   1      29.161  33.628  23.500  1.00  0.00     0.044 C 
ENDBRANCH  16  17
ENDBRANCH  14  16
ENDBRANCH  11  14
ENDBRANCH   6  10
ENDBRANCH   4   6
ENDBRANCH   3   4
ENDBRANCH   2   3
ENDBRANCH   1   2
BRANCH   1  24
ATOM     24  O   UNL A   1      33.708  32.782  27.930  1.00  0.00    -0.374 OA
BRANCH  24  25
ATOM     25  C   UNL A   1      34.989  33.373  28.011  1.00  0.00     0.202 C 
BRANCH  25  26
ATOM     26  C   UNL A   1      35.521  33.785  29.390  1.00  0.00     0.261 C 
BRANCH  26  27
ATOM     27  O   UNL A   1      36.031  32.756  30.245  1.00  0.00    -0.460 OA
BRANCH  27  28
ATOM     28  C   UNL A   1      37.174  32.135  29.796  1.00  0.00     0.338 C 
ATOM     29  O   UNL A   1      38.245  32.637  29.531  1.00  0.00    -0.246 OA
BRANCH  28  30
ATOM     30  C   UNL A   1      36.848  30.792  29.266  1.00  0.00     0.060 A 
ATOM     31  C   UNL A   1      36.826  29.787  30.237  1.00  0.00     0.016 A 
ATOM     32  C   UNL A   1      37.221  30.486  27.970  1.00  0.00     0.016 A 
ATOM     33  C   UNL A   1      37.672  28.705  30.051  1.00  0.00     0.010 A 
ATOM     34  C   UNL A   1      38.008  29.362  27.794  1.00  0.00     0.010 A 
ATOM     35  C   UNL A   1      38.496  28.710  28.933  1.00  0.00    -0.014 A 
BRANCH  35  36
ATOM     36  C   UNL A   1      39.980  28.555  29.104  1.00  0.00     0.031 A 
ATOM     37  C   UNL A   1      40.710  27.415  28.489  1.00  0.00     0.074 A 
ATOM     38  C   UNL A   1      40.788  29.565  29.549  1.00  0.00     0.049 A 
ATOM     39  N   UNL A   1      41.569  26.678  29.114  1.00  0.00    -0.248 NA
ATOM     40  C   UNL A   1      40.583  27.068  27.070  1.00  0.00     0.031 C 
ATOM     41  C   UNL A   1      42.255  29.627  29.462  1.00  0.00     0.029 A 
ATOM     42  N   UNL A   1      40.459  30.826  30.080  1.00  0.00    -0.354 N 
ATOM     43  C   UNL A   1      42.229  25.948  28.143  1.00  0.00     0.074 A 
ATOM     44  C   UNL A   1      41.454  26.070  26.936  1.00  0.00     0.031 C 
ATOM     45  C   UNL A   1      42.703  30.731  30.078  1.00  0.00     0.029 A 
ATOM     46  C   UNL A   1      41.587  31.340  30.763  1.00  0.00     0.049 A 
ATOM     47  H   UNL A   1      39.588  31.277  29.992  1.00  0.00     0.167 HD
ATOM     48  C   UNL A   1      43.537  25.582  28.258  1.00  0.00     0.037 A 
ATOM     49  C   UNL A   1      41.518  31.530  32.116  1.00  0.00     0.037 A 
ATOM     50  C   UNL A   1      44.222  26.382  29.270  1.00  0.00     0.049 A 
ATOM     51  C   UNL A   1      42.209  30.407  32.873  1.00  0.00     0.074 A 
ATOM     52  C   UNL A   1      45.178  27.386  29.240  1.00  0.00     0.029 A 
ATOM     53  N   UNL A   1      43.706  26.420  30.544  1.00  0.00    -0.354 N 
ATOM     54  N   UNL A   1      43.102  29.612  32.345  1.00  0.00    -0.248 NA
ATOM     55  C   UNL A   1      41.885  30.021  34.247  1.00  0.00     0.031 C 
ATOM     56  C   UNL A   1      45.257  27.968  30.545  1.00  0.00     0.029 A 
ATOM     57  C   UNL A   1      44.353  27.314  31.363  1.00  0.00     0.049 A 
ATOM     58  H   UNL A   1      42.949  25.864  30.838  1.00  0.00     0.167 HD
ATOM     59  C   UNL A   1      43.280  28.526  33.155  1.00  0.00     0.074 A 
ATOM     60  C   UNL A   1      42.560  28.864  34.370  1.00  0.00     0.031 C 
ATOM     61  C   UNL A   1      43.911  27.385  32.746  1.00  0.00     0.037 A 
BRANCH  48  62
ATOM     62  C   UNL A   1      44.233  24.687  27.256  1.00  0.00     0.064 A 
ATOM     63  C   UNL A   1      45.230  25.183  26.394  1.00  0.00     0.173 A 
ATOM     64  C   UNL A   1      44.023  23.290  27.174  1.00  0.00     0.173 A 
ATOM     65  F   UNL A   1      45.634  26.457  26.455  1.00  0.00    -0.203 F 
ATOM     66  C   UNL A   1      45.879  24.374  25.458  1.00  0.00     0.198 A 
ATOM     67  C   UNL A   1      44.633  22.492  26.202  1.00  0.00     0.198 A 
ATOM     68  F   UNL A   1      43.254  22.645  28.066  1.00  0.00    -0.203 F 
ATOM     69  F   UNL A   1      46.833  24.902  24.677  1.00  0.00    -0.200 F 
ATOM     70  C   UNL A   1      45.560  23.037  25.338  1.00  0.00     0.200 A 
ATOM     71  F   UNL A   1      44.328  21.189  26.120  1.00  0.00    -0.200 F 
ATOM     72  F   UNL A   1      46.169  22.271  24.425  1.00  0.00    -0.200 F 
ENDBRANCH  48  62
BRANCH  49  73
ATOM     73  C   UNL A   1      40.266  32.265  32.464  1.00  0.00     0.064 A 
ATOM     74  C   UNL A   1      39.200  31.471  32.941  1.00  0.00     0.173 A 
ATOM     75  C   UNL A   1      40.282  33.612  32.844  1.00  0.00     0.173 A 
ATOM     76  F   UNL A   1      39.122  30.177  32.590  1.00  0.00    -0.203 F 
ATOM     77  C   UNL A   1      38.319  31.945  33.910  1.00  0.00     0.198 A 
ATOM     78  C   UNL A   1      39.382  34.089  33.805  1.00  0.00     0.198 A 
ATOM     79  F   UNL A   1      41.275  34.418  32.441  1.00  0.00    -0.203 F 
ATOM     80  F   UNL A   1      37.433  31.112  34.475  1.00  0.00    -0.200 F 
ATOM     81  C   UNL A   1      38.441  33.242  34.374  1.00  0.00     0.200 A 
ATOM     82  F   UNL A   1      39.522  35.333  34.285  1.00  0.00    -0.200 F 
ATOM     83  F   UNL A   1      37.702  33.657  35.414  1.00  0.00    -0.200 F 
ENDBRANCH  49  73
BRANCH  61  84
ATOM     84  C   UNL A   1      44.086  26.181  33.635  1.00  0.00     0.064 A 
ATOM     85  C   UNL A   1      45.346  25.595  33.815  1.00  0.00     0.173 A 
ATOM     86  C   UNL A   1      43.000  25.505  34.239  1.00  0.00     0.173 A 
ATOM     87  F   UNL A   1      46.431  26.113  33.223  1.00  0.00    -0.203 F 
ATOM     88  C   UNL A   1      45.515  24.453  34.601  1.00  0.00     0.198 A 
ATOM     89  C   UNL A   1      43.163  24.329  34.964  1.00  0.00     0.198 A 
ATOM     90  F   UNL A   1      41.747  25.974  34.188  1.00  0.00    -0.203 F 
ATOM     91  F   UNL A   1      46.748  23.972  34.811  1.00  0.00    -0.200 F 
ATOM     92  C   UNL A   1      44.424  23.816  35.166  1.00  0.00     0.200 A 
ATOM     93  F   UNL A   1      42.088  23.711  35.474  1.00  0.00    -0.200 F 
ATOM     94  F   UNL A   1      44.588  22.715  35.912  1.00  0.00    -0.200 F 
ENDBRANCH  61  84
ENDBRANCH  35  36
ENDBRANCH  28  30
ENDBRANCH  27  28
ENDBRANCH  26  27
ENDBRANCH  25  26
ENDBRANCH  24  25
ENDBRANCH   1  24
TORSDOF 19
ENDMDL
MODEL 3
REMARK VINA RESULT:     -10.7      3.766      9.848
REMARK SMILES CC[C@](C)(NC(=O)N(C)Cc1cccc(C)c1)C(=O)OCCOCCOC(=O)c1ccc(-c2c3nc(c(-c4c(F)c(F)c(F)c(F)c4F)c4ccc([nH]4)c(-c4c(F)c(F)c(F)c(F)c4F)c4nc(c(-c5c(F)c(F)c(F)c(F)c5F)c5ccc2[nH]5)C=C4)C=C3)cc1
REMARK SMILES IDX 22 1 21 2 20 3 18 4 19 5 3 6 4 7 2 8 1 9 5 10 6 11 7 13 8 14
REMARK SMILES IDX 9 15 10 16 11 17 12 18 17 19 13 20 15 21 14 22 16 23 23 24
REMARK SMILES IDX 24 25 25 26 26 27 27 28 28 29 29 30 30 31 91 32 31 33 90 34
REMARK SMILES IDX 32 35 33 36 34 37 84 38 35 39 89 40 83 41 85 42 36 43 88 44
REMARK SMILES IDX 82 45 81 46 37 48 69 49 49 50 68 51 50 52 53 53 67 54 86 55
REMARK SMILES IDX 51 56 52 57 66 59 87 60 54 61 38 62 39 63 47 64 40 65 41 66
REMARK SMILES IDX 45 67 48 68 42 69 43 70 46 71 44 72 70 73 71 74 79 75 72 76
REMARK SMILES IDX 73 77 77 78 80 79 74 80 75 81 78 82 76 83 55 84 56 85 64 86
REMARK SMILES IDX 57 87 58 88 62 89 65 90 59 91 60 92 63 93 61 94
REMARK H PARENT 5 12 85 47 53 58
REMARK Flexibility Score: inf
ROOT
ATOM      1  C   UNL A   1      38.933  21.734  26.145  1.00  0.00     0.202 C 
ENDROOT
BRANCH   1   2
ATOM      2  C   UNL A   1      37.927  21.843  24.998  1.00  0.00     0.261 C 
BRANCH   2   3
ATOM      3  O   UNL A   1      37.000  22.930  24.976  1.00  0.00    -0.462 OA
BRANCH   3   4
ATOM      4  C   UNL A   1      36.223  22.986  23.875  1.00  0.00     0.331 C 
ATOM      5  O   UNL A   1      36.694  22.951  22.741  1.00  0.00    -0.249 OA
BRANCH   4   6
ATOM      6  C   UNL A   1      34.736  23.304  24.220  1.00  0.00     0.136 C 
ATOM      7  C   UNL A   1      34.739  23.912  25.631  1.00  0.00     0.047 C 
BRANCH   6   8
ATOM      8  C   UNL A   1      34.073  21.868  24.263  1.00  0.00     0.037 C 
ATOM      9  C   UNL A   1      34.001  21.172  25.635  1.00  0.00     0.007 C 
ENDBRANCH   6   8
BRANCH   6  10
ATOM     10  N   UNL A   1      33.944  24.171  23.194  1.00  0.00    -0.322 N 
ATOM     11  C   UNL A   1      32.655  24.730  23.274  1.00  0.00     0.318 C 
ATOM     12  H   UNL A   1      34.423  24.359  22.354  1.00  0.00     0.166 HD
ATOM     13  O   UNL A   1      31.770  24.252  23.974  1.00  0.00    -0.249 OA
BRANCH  11  14
ATOM     14  N   UNL A   1      32.467  25.972  22.589  1.00  0.00    -0.324 N 
ATOM     15  C   UNL A   1      32.097  25.949  21.176  1.00  0.00     0.149 C 
BRANCH  14  16
ATOM     16  C   UNL A   1      32.611  27.369  23.294  1.00  0.00     0.156 C 
BRANCH  16  17
ATOM     17  C   UNL A   1      32.627  27.592  24.877  1.00  0.00    -0.028 A 
ATOM     18  C   UNL A   1      31.449  27.489  25.642  1.00  0.00     0.005 A 
ATOM     19  C   UNL A   1      33.796  27.948  25.622  1.00  0.00     0.009 A 
ATOM     20  C   UNL A   1      31.407  27.870  27.005  1.00  0.00     0.001 A 
ATOM     21  C   UNL A   1      33.718  28.525  26.925  1.00  0.00    -0.051 A 
ATOM     22  C   UNL A   1      32.518  28.435  27.626  1.00  0.00     0.003 A 
ATOM     23  C   UNL A   1      34.822  29.376  27.514  1.00  0.00     0.044 C 
ENDBRANCH  16  17
ENDBRANCH  14  16
ENDBRANCH  11  14
ENDBRANCH   6  10
ENDBRANCH   4   6
ENDBRANCH   3   4
ENDBRANCH   2   3
ENDBRANCH   1   2
BRANCH   1  24
ATOM     24  O   UNL A   1      40.251  21.495  25.733  1.00  0.00    -0.374 OA
BRANCH  24  25
ATOM     25  C   UNL A   1      41.160  21.245  26.784  1.00  0.00     0.202 C 
BRANCH  25  26
ATOM     26  C   UNL A   1      42.559  21.870  26.708  1.00  0.00     0.261 C 
BRANCH  26  27
ATOM     27  O   UNL A   1      42.657  23.250  26.339  1.00  0.00    -0.460 OA
BRANCH  27  28
ATOM     28  C   UNL A   1      42.238  24.143  27.298  1.00  0.00     0.338 C 
ATOM     29  O   UNL A   1      42.594  24.223  28.454  1.00  0.00    -0.246 OA
BRANCH  28  30
ATOM     30  C   UNL A   1      40.968  24.779  26.882  1.00  0.00     0.060 A 
ATOM     31  C   UNL A   1      41.133  25.881  26.038  1.00  0.00     0.016 A 
ATOM     32  C   UNL A   1      39.893  24.734  27.750  1.00  0.00     0.016 A 
ATOM     33  C   UNL A   1      40.595  27.088  26.457  1.00  0.00     0.010 A 
ATOM     34  C   UNL A   1      39.323  25.944  28.103  1.00  0.00     0.010 A 
ATOM     35  C   UNL A   1      39.958  27.121  27.691  1.00  0.00    -0.014 A 
BRANCH  35  36
ATOM     36  C   UNL A   1      40.402  28.112  28.729  1.00  0.00     0.031 A 
ATOM     37  C   UNL A   1      39.474  29.152  29.247  1.00  0.00     0.074 A 
ATOM     38  C   UNL A   1      41.537  27.951  29.476  1.00  0.00     0.049 A 
ATOM     39  N   UNL A   1      39.777  30.404  29.364  1.00  0.00    -0.248 NA
ATOM     40  C   UNL A   1      38.137  28.836  29.757  1.00  0.00     0.031 C 
ATOM     41  C   UNL A   1      41.897  28.674  30.704  1.00  0.00     0.029 A 
ATOM     42  N   UNL A   1      42.576  27.007  29.360  1.00  0.00    -0.354 N 
ATOM     43  C   UNL A   1      38.783  30.968  30.142  1.00  0.00     0.074 A 
ATOM     44  C   UNL A   1      37.702  30.018  30.186  1.00  0.00     0.031 C 
ATOM     45  C   UNL A   1      43.121  28.306  31.109  1.00  0.00     0.029 A 
ATOM     46  C   UNL A   1      43.700  27.481  30.075  1.00  0.00     0.049 A 
ATOM     47  H   UNL A   1      42.527  26.159  28.864  1.00  0.00     0.167 HD
ATOM     48  C   UNL A   1      39.017  32.002  31.000  1.00  0.00     0.037 A 
ATOM     49  C   UNL A   1      44.845  27.786  29.391  1.00  0.00     0.037 A 
ATOM     50  C   UNL A   1      40.442  32.135  31.290  1.00  0.00     0.049 A 
ATOM     51  C   UNL A   1      44.988  29.285  29.180  1.00  0.00     0.074 A 
ATOM     52  C   UNL A   1      41.242  31.888  32.395  1.00  0.00     0.029 A 
ATOM     53  N   UNL A   1      41.319  32.281  30.241  1.00  0.00    -0.354 N 
ATOM     54  N   UNL A   1      44.366  30.184  29.896  1.00  0.00    -0.248 NA
ATOM     55  C   UNL A   1      45.754  29.893  28.092  1.00  0.00     0.031 C 
ATOM     56  C   UNL A   1      42.611  31.960  31.982  1.00  0.00     0.029 A 
ATOM     57  C   UNL A   1      42.637  32.253  30.631  1.00  0.00     0.049 A 
ATOM     58  H   UNL A   1      41.032  32.394  29.307  1.00  0.00     0.167 HD
ATOM     59  C   UNL A   1      44.432  31.394  29.263  1.00  0.00     0.074 A 
ATOM     60  C   UNL A   1      45.379  31.181  28.182  1.00  0.00     0.031 C 
ATOM     61  C   UNL A   1      43.638  32.455  29.596  1.00  0.00     0.037 A 
BRANCH  48  62
ATOM     62  C   UNL A   1      37.916  32.699  31.769  1.00  0.00     0.064 A 
ATOM     63  C   UNL A   1      36.966  33.511  31.121  1.00  0.00     0.173 A 
ATOM     64  C   UNL A   1      37.690  32.515  33.154  1.00  0.00     0.173 A 
ATOM     65  F   UNL A   1      36.971  33.666  29.792  1.00  0.00    -0.203 F 
ATOM     66  C   UNL A   1      35.947  34.169  31.814  1.00  0.00     0.198 A 
ATOM     67  C   UNL A   1      36.703  33.215  33.855  1.00  0.00     0.198 A 
ATOM     68  F   UNL A   1      38.388  31.614  33.863  1.00  0.00    -0.203 F 
ATOM     69  F   UNL A   1      35.062  34.914  31.137  1.00  0.00    -0.200 F 
ATOM     70  C   UNL A   1      35.833  34.048  33.184  1.00  0.00     0.200 A 
ATOM     71  F   UNL A   1      36.593  33.063  35.183  1.00  0.00    -0.200 F 
ATOM     72  F   UNL A   1      34.868  34.698  33.846  1.00  0.00    -0.200 F 
ENDBRANCH  48  62
BRANCH  49  73
ATOM     73  C   UNL A   1      45.197  26.670  28.463  1.00  0.00     0.064 A 
ATOM     74  C   UNL A   1      44.835  26.859  27.110  1.00  0.00     0.173 A 
ATOM     75  C   UNL A   1      46.258  25.796  28.726  1.00  0.00     0.173 A 
ATOM     76  F   UNL A   1      43.810  27.669  26.800  1.00  0.00    -0.203 F 
ATOM     77  C   UNL A   1      45.623  26.366  26.073  1.00  0.00     0.198 A 
ATOM     78  C   UNL A   1      47.036  25.289  27.679  1.00  0.00     0.198 A 
ATOM     79  F   UNL A   1      46.664  25.585  29.987  1.00  0.00    -0.203 F 
ATOM     80  F   UNL A   1      45.356  26.715  24.806  1.00  0.00    -0.200 F 
ATOM     81  C   UNL A   1      46.750  25.619  26.361  1.00  0.00     0.200 A 
ATOM     82  F   UNL A   1      48.151  24.596  27.956  1.00  0.00    -0.200 F 
ATOM     83  F   UNL A   1      47.598  25.274  25.381  1.00  0.00    -0.200 F 
ENDBRANCH  49  73
BRANCH  61  84
ATOM     84  C   UNL A   1      43.699  33.781  28.883  1.00  0.00     0.064 A 
ATOM     85  C   UNL A   1      43.845  34.978  29.596  1.00  0.00     0.173 A 
ATOM     86  C   UNL A   1      43.499  33.915  27.488  1.00  0.00     0.173 A 
ATOM     87  F   UNL A   1      43.966  34.967  30.930  1.00  0.00    -0.203 F 
ATOM     88  C   UNL A   1      43.859  36.216  28.950  1.00  0.00     0.198 A 
ATOM     89  C   UNL A   1      43.443  35.153  26.858  1.00  0.00     0.198 A 
ATOM     90  F   UNL A   1      43.387  32.856  26.675  1.00  0.00    -0.203 F 
ATOM     91  F   UNL A   1      44.081  37.330  29.661  1.00  0.00    -0.200 F 
ATOM     92  C   UNL A   1      43.649  36.304  27.585  1.00  0.00     0.200 A 
ATOM     93  F   UNL A   1      43.205  35.216  25.539  1.00  0.00    -0.200 F 
ATOM     94  F   UNL A   1      43.653  37.494  26.970  1.00  0.00    -0.200 F 
ENDBRANCH  61  84
ENDBRANCH  35  36
ENDBRANCH  28  30
ENDBRANCH  27  28
ENDBRANCH  26  27
ENDBRANCH  25  26
ENDBRANCH  24  25
ENDBRANCH   1  24
TORSDOF 19
ENDMDL
