MODEL 1
REMARK VINA RESULT:     -12.9      0.000      0.000
REMARK SMILES C[NH+]1CCC([NH+]2CCC(Oc3ccc4ccccc4c3)(C(=O)OCCOCCOC(=O)c3ccc(-c4c5nc(c(-c6c(F)c(F)c(F)c(F)c6F)c6ccc([nH]6)c(-c6c(F)c(F)c(F)c(F)c6F)c6nc(c(-c7c(F)c(F)c(F)c(F)c7F)c7ccc4[nH]7)C=C6)C=C5)cc3)CC2)CC1
REMARK SMILES IDX 26 1 25 2 24 3 23 4 21 5 22 6 9 7 6 8 7 9 96 10 8 12 95 13
REMARK SMILES IDX 5 14 1 15 2 16 3 17 98 18 4 20 97 21 10 22 11 23 12 24 20 25
REMARK SMILES IDX 13 26 19 27 14 28 18 29 15 30 17 31 16 32 27 33 28 34 29 35
REMARK SMILES IDX 30 36 31 37 32 38 33 39 94 40 34 41 93 42 35 43 36 44 37 45
REMARK SMILES IDX 87 46 38 47 92 48 86 49 88 50 39 51 91 52 85 53 84 54 40 56
REMARK SMILES IDX 72 57 52 58 71 59 53 60 56 61 70 62 89 63 54 64 55 65 69 67
REMARK SMILES IDX 90 68 57 69 41 70 42 71 50 72 43 73 44 74 48 75 51 76 45 77
REMARK SMILES IDX 46 78 49 79 47 80 73 81 74 82 82 83 75 84 76 85 80 86 83 87
REMARK SMILES IDX 77 88 78 89 81 90 79 91 58 92 59 93 67 94 60 95 61 96 65 97
REMARK SMILES IDX 68 98 62 99 63 100 66 101 64 102
REMARK H PARENT 6 11 2 19 88 55 56 66
REMARK Flexibility Score: inf
ROOT
ATOM      1  O   UNL A   1      35.914  21.459  26.000  1.00  0.00    -0.374 OA
ENDROOT
BRANCH   1   2
ATOM      2  C   UNL A   1      36.106  22.872  25.971  1.00  0.00     0.202 C 
BRANCH   2   3
ATOM      3  C   UNL A   1      35.838  23.618  24.656  1.00  0.00     0.261 C 
BRANCH   3   4
ATOM      4  O   UNL A   1      35.059  24.829  24.808  1.00  0.00    -0.460 OA
BRANCH   4   5
ATOM      5  C   UNL A   1      33.999  24.967  23.955  1.00  0.00     0.351 C 
ATOM      6  O   UNL A   1      34.128  25.331  22.788  1.00  0.00    -0.247 OA
BRANCH   5   7
ATOM      7  C   UNL A   1      32.617  24.705  24.606  1.00  0.00     0.216 C 
ATOM      8  N   UNL A   1      31.815  21.823  24.572  1.00  0.00    -0.332 N 
ATOM      9  C   UNL A   1      32.375  22.372  25.805  1.00  0.00     0.267 C 
ATOM     10  C   UNL A   1      32.133  22.572  23.363  1.00  0.00     0.267 C 
ATOM     11  H   UNL A   1      30.814  21.970  24.700  1.00  0.00     0.348 HD
ATOM     12  C   UNL A   1      32.657  23.881  25.902  1.00  0.00     0.122 C 
ATOM     13  C   UNL A   1      31.727  24.035  23.543  1.00  0.00     0.122 C 
BRANCH   8  14
ATOM     14  C   UNL A   1      31.946  20.343  24.421  1.00  0.00     0.195 C 
ATOM     15  C   UNL A   1      33.963  16.586  23.615  1.00  0.00     0.332 C 
ATOM     16  N   UNL A   1      33.569  17.977  23.816  1.00  0.00    -0.337 N 
ATOM     17  C   UNL A   1      33.171  18.238  25.203  1.00  0.00     0.268 C 
ATOM     18  C   UNL A   1      32.491  18.360  22.902  1.00  0.00     0.268 C 
ATOM     19  H   UNL A   1      34.388  18.548  23.610  1.00  0.00     0.347 HD
ATOM     20  C   UNL A   1      32.958  19.739  25.419  1.00  0.00     0.126 C 
ATOM     21  C   UNL A   1      32.280  19.868  22.994  1.00  0.00     0.126 C 
ENDBRANCH   8  14
BRANCH   7  22
ATOM     22  O   UNL A   1      32.291  26.099  24.914  1.00  0.00    -0.475 OA
BRANCH  22  23
ATOM     23  C   UNL A   1      31.183  26.640  24.329  1.00  0.00     0.121 A 
ATOM     24  C   UNL A   1      29.910  26.163  24.623  1.00  0.00     0.047 A 
ATOM     25  C   UNL A   1      31.334  27.788  23.550  1.00  0.00     0.055 A 
ATOM     26  C   UNL A   1      28.787  26.781  24.074  1.00  0.00     0.012 A 
ATOM     27  C   UNL A   1      30.210  28.440  23.011  1.00  0.00    -0.015 A 
ATOM     28  C   UNL A   1      28.920  27.917  23.267  1.00  0.00    -0.018 A 
ATOM     29  C   UNL A   1      30.328  29.606  22.238  1.00  0.00     0.009 A 
ATOM     30  C   UNL A   1      27.793  28.558  22.729  1.00  0.00     0.009 A 
ATOM     31  C   UNL A   1      29.196  30.240  21.720  1.00  0.00     0.001 A 
ATOM     32  C   UNL A   1      27.930  29.712  21.960  1.00  0.00     0.001 A 
ENDBRANCH  22  23
ENDBRANCH   7  22
ENDBRANCH   5   7
ENDBRANCH   4   5
ENDBRANCH   3   4
ENDBRANCH   2   3
ENDBRANCH   1   2
BRANCH   1  33
ATOM     33  C   UNL A   1      36.547  20.690  24.993  1.00  0.00     0.202 C 
BRANCH  33  34
ATOM     34  C   UNL A   1      37.960  20.177  25.273  1.00  0.00     0.261 C 
BRANCH  34  35
ATOM     35  O   UNL A   1      38.975  21.172  25.377  1.00  0.00    -0.460 OA
BRANCH  35  36
ATOM     36  C   UNL A   1      39.875  20.964  26.362  1.00  0.00     0.338 C 
ATOM     37  O   UNL A   1      40.400  19.922  26.703  1.00  0.00    -0.246 OA
BRANCH  36  38
ATOM     38  C   UNL A   1      40.236  22.267  26.929  1.00  0.00     0.060 A 
ATOM     39  C   UNL A   1      39.662  23.405  26.356  1.00  0.00     0.016 A 
ATOM     40  C   UNL A   1      41.180  22.365  27.954  1.00  0.00     0.016 A 
ATOM     41  C   UNL A   1      40.069  24.663  26.783  1.00  0.00     0.010 A 
ATOM     42  C   UNL A   1      41.586  23.631  28.381  1.00  0.00     0.010 A 
ATOM     43  C   UNL A   1      41.058  24.783  27.771  1.00  0.00    -0.014 A 
BRANCH  43  44
ATOM     44  C   UNL A   1      41.627  26.118  28.055  1.00  0.00     0.031 A 
ATOM     45  C   UNL A   1      42.998  26.450  27.539  1.00  0.00     0.074 A 
ATOM     46  C   UNL A   1      40.899  27.038  28.712  1.00  0.00     0.049 A 
ATOM     47  N   UNL A   1      43.667  27.571  27.622  1.00  0.00    -0.248 NA
ATOM     48  C   UNL A   1      43.711  25.374  26.834  1.00  0.00     0.031 C 
ATOM     49  C   UNL A   1      39.551  26.828  29.234  1.00  0.00     0.029 A 
ATOM     50  N   UNL A   1      41.194  28.335  29.044  1.00  0.00    -0.354 N 
ATOM     51  C   UNL A   1      44.873  27.338  26.976  1.00  0.00     0.074 A 
ATOM     52  C   UNL A   1      44.862  25.959  26.538  1.00  0.00     0.031 C 
ATOM     53  C   UNL A   1      39.130  27.961  29.820  1.00  0.00     0.029 A 
ATOM     54  C   UNL A   1      40.187  28.966  29.731  1.00  0.00     0.049 A 
ATOM     55  H   UNL A   1      42.044  28.772  28.811  1.00  0.00     0.167 HD
ATOM     56  C   UNL A   1      45.891  28.203  26.755  1.00  0.00     0.037 A 
ATOM     57  C   UNL A   1      40.134  30.213  30.235  1.00  0.00     0.037 A 
ATOM     58  C   UNL A   1      45.895  29.572  27.196  1.00  0.00     0.049 A 
ATOM     59  C   UNL A   1      41.301  31.140  30.021  1.00  0.00     0.074 A 
ATOM     60  C   UNL A   1      46.869  30.537  27.012  1.00  0.00     0.029 A 
ATOM     61  N   UNL A   1      44.871  30.168  27.920  1.00  0.00    -0.354 N 
ATOM     62  N   UNL A   1      42.422  30.924  29.375  1.00  0.00    -0.248 NA
ATOM     63  C   UNL A   1      41.194  32.486  30.600  1.00  0.00     0.031 C 
ATOM     64  C   UNL A   1      46.454  31.704  27.662  1.00  0.00     0.029 A 
ATOM     65  C   UNL A   1      45.201  31.481  28.211  1.00  0.00     0.049 A 
ATOM     66  H   UNL A   1      44.035  29.723  28.186  1.00  0.00     0.167 HD
ATOM     67  C   UNL A   1      43.142  32.109  29.448  1.00  0.00     0.074 A 
ATOM     68  C   UNL A   1      42.324  33.047  30.190  1.00  0.00     0.031 C 
ATOM     69  C   UNL A   1      44.369  32.396  28.949  1.00  0.00     0.037 A 
BRANCH  56  70
ATOM     70  C   UNL A   1      47.092  27.685  26.021  1.00  0.00     0.064 A 
ATOM     71  C   UNL A   1      47.160  27.697  24.619  1.00  0.00     0.173 A 
ATOM     72  C   UNL A   1      48.198  27.192  26.728  1.00  0.00     0.173 A 
ATOM     73  F   UNL A   1      46.121  28.143  23.898  1.00  0.00    -0.203 F 
ATOM     74  C   UNL A   1      48.283  27.214  23.953  1.00  0.00     0.198 A 
ATOM     75  C   UNL A   1      49.330  26.733  26.059  1.00  0.00     0.198 A 
ATOM     76  F   UNL A   1      48.185  27.159  28.069  1.00  0.00    -0.203 F 
ATOM     77  F   UNL A   1      48.309  27.196  22.613  1.00  0.00    -0.200 F 
ATOM     78  C   UNL A   1      49.369  26.739  24.672  1.00  0.00     0.200 A 
ATOM     79  F   UNL A   1      50.383  26.282  26.755  1.00  0.00    -0.200 F 
ATOM     80  F   UNL A   1      50.451  26.279  24.029  1.00  0.00    -0.200 F 
ENDBRANCH  56  70
BRANCH  57  81
ATOM     81  C   UNL A   1      38.931  30.659  30.985  1.00  0.00     0.064 A 
ATOM     82  C   UNL A   1      38.857  30.531  32.378  1.00  0.00     0.173 A 
ATOM     83  C   UNL A   1      37.830  31.220  30.320  1.00  0.00     0.173 A 
ATOM     84  F   UNL A   1      39.874  29.980  33.056  1.00  0.00    -0.203 F 
ATOM     85  C   UNL A   1      37.720  30.934  33.078  1.00  0.00     0.198 A 
ATOM     86  C   UNL A   1      36.706  31.647  31.023  1.00  0.00     0.198 A 
ATOM     87  F   UNL A   1      37.853  31.363  28.987  1.00  0.00    -0.203 F 
ATOM     88  F   UNL A   1      37.657  30.763  34.405  1.00  0.00    -0.200 F 
ATOM     89  C   UNL A   1      36.649  31.497  32.400  1.00  0.00     0.200 A 
ATOM     90  F   UNL A   1      35.678  32.200  30.365  1.00  0.00    -0.200 F 
ATOM     91  F   UNL A   1      35.558  31.888  33.073  1.00  0.00    -0.200 F 
ENDBRANCH  57  81
BRANCH  69  92
ATOM     92  C   UNL A   1      44.888  33.787  29.165  1.00  0.00     0.064 A 
ATOM     93  C   UNL A   1      45.685  34.108  30.274  1.00  0.00     0.173 A 
ATOM     94  C   UNL A   1      44.621  34.798  28.231  1.00  0.00     0.173 A 
ATOM     95  F   UNL A   1      45.956  33.178  31.202  1.00  0.00    -0.203 F 
ATOM     96  C   UNL A   1      46.176  35.399  30.451  1.00  0.00     0.198 A 
ATOM     97  C   UNL A   1      45.136  36.081  28.398  1.00  0.00     0.198 A 
ATOM     98  F   UNL A   1      43.869  34.540  27.150  1.00  0.00    -0.203 F 
ATOM     99  F   UNL A   1      46.899  35.695  31.540  1.00  0.00    -0.200 F 
ATOM    100  C   UNL A   1      45.907  36.381  29.510  1.00  0.00     0.200 A 
ATOM    101  F   UNL A   1      44.885  37.027  27.481  1.00  0.00    -0.200 F 
ATOM    102  F   UNL A   1      46.386  37.622  29.679  1.00  0.00    -0.200 F 
ENDBRANCH  69  92
ENDBRANCH  43  44
ENDBRANCH  36  38
ENDBRANCH  35  36
ENDBRANCH  34  35
ENDBRANCH  33  34
ENDBRANCH   1  33
TORSDOF 17
ENDMDL
MODEL 2
REMARK VINA RESULT:     -12.5      4.499     10.513
REMARK SMILES C[NH+]1CCC([NH+]2CCC(Oc3ccc4ccccc4c3)(C(=O)OCCOCCOC(=O)c3ccc(-c4c5nc(c(-c6c(F)c(F)c(F)c(F)c6F)c6ccc([nH]6)c(-c6c(F)c(F)c(F)c(F)c6F)c6nc(c(-c7c(F)c(F)c(F)c(F)c7F)c7ccc4[nH]7)C=C6)C=C5)cc3)CC2)CC1
REMARK SMILES IDX 26 1 25 2 24 3 23 4 21 5 22 6 9 7 6 8 7 9 96 10 8 12 95 13
REMARK SMILES IDX 5 14 1 15 2 16 3 17 98 18 4 20 97 21 10 22 11 23 12 24 20 25
REMARK SMILES IDX 13 26 19 27 14 28 18 29 15 30 17 31 16 32 27 33 28 34 29 35
REMARK SMILES IDX 30 36 31 37 32 38 33 39 94 40 34 41 93 42 35 43 36 44 37 45
REMARK SMILES IDX 87 46 38 47 92 48 86 49 88 50 39 51 91 52 85 53 84 54 40 56
REMARK SMILES IDX 72 57 52 58 71 59 53 60 56 61 70 62 89 63 54 64 55 65 69 67
REMARK SMILES IDX 90 68 57 69 41 70 42 71 50 72 43 73 44 74 48 75 51 76 45 77
REMARK SMILES IDX 46 78 49 79 47 80 73 81 74 82 82 83 75 84 76 85 80 86 83 87
REMARK SMILES IDX 77 88 78 89 81 90 79 91 58 92 59 93 67 94 60 95 61 96 65 97
REMARK SMILES IDX 68 98 62 99 63 100 66 101 64 102
REMARK H PARENT 6 11 2 19 88 55 56 66
REMARK Flexibility Score: inf
ROOT
ATOM      1  O   UNL A   1      32.656  30.746  26.722  1.00  0.00    -0.374 OA
ENDROOT
BRANCH   1   2
ATOM      2  C   UNL A   1      32.423  29.338  26.742  1.00  0.00     0.202 C 
BRANCH   2   3
ATOM      3  C   UNL A   1      33.578  28.413  27.150  1.00  0.00     0.261 C 
BRANCH   3   4
ATOM      4  O   UNL A   1      34.028  27.525  26.100  1.00  0.00    -0.460 OA
BRANCH   4   5
ATOM      5  C   UNL A   1      33.208  26.468  25.819  1.00  0.00     0.351 C 
ATOM      6  O   UNL A   1      32.746  25.735  26.692  1.00  0.00    -0.247 OA
BRANCH   5   7
ATOM      7  C   UNL A   1      32.977  26.222  24.306  1.00  0.00     0.216 C 
ATOM      8  N   UNL A   1      30.818  27.936  23.142  1.00  0.00    -0.332 N 
ATOM      9  C   UNL A   1      32.207  28.339  22.940  1.00  0.00     0.267 C 
ATOM     10  C   UNL A   1      30.594  27.032  24.263  1.00  0.00     0.267 C 
ATOM     11  H   UNL A   1      30.632  27.362  22.319  1.00  0.00     0.348 HD
ATOM     12  C   UNL A   1      33.341  27.404  23.395  1.00  0.00     0.122 C 
ATOM     13  C   UNL A   1      31.504  25.810  24.127  1.00  0.00     0.122 C 
BRANCH   8  14
ATOM     14  C   UNL A   1      29.817  29.040  23.045  1.00  0.00     0.195 C 
ATOM     15  C   UNL A   1      28.403  33.083  22.349  1.00  0.00     0.332 C 
ATOM     16  N   UNL A   1      29.165  31.850  22.520  1.00  0.00    -0.337 N 
ATOM     17  C   UNL A   1      28.782  30.830  21.538  1.00  0.00     0.268 C 
ATOM     18  C   UNL A   1      29.020  31.322  23.878  1.00  0.00     0.268 C 
ATOM     19  H   UNL A   1      30.145  32.085  22.365  1.00  0.00     0.347 HD
ATOM     20  C   UNL A   1      29.734  29.632  21.621  1.00  0.00     0.126 C 
ATOM     21  C   UNL A   1      30.008  30.175  24.068  1.00  0.00     0.126 C 
ENDBRANCH   8  14
BRANCH   7  22
ATOM     22  O   UNL A   1      33.957  25.148  24.141  1.00  0.00    -0.475 OA
BRANCH  22  23
ATOM     23  C   UNL A   1      33.489  23.887  23.906  1.00  0.00     0.121 A 
ATOM     24  C   UNL A   1      33.006  23.523  22.654  1.00  0.00     0.047 A 
ATOM     25  C   UNL A   1      33.653  22.920  24.898  1.00  0.00     0.055 A 
ATOM     26  C   UNL A   1      32.606  22.208  22.414  1.00  0.00     0.012 A 
ATOM     27  C   UNL A   1      33.280  21.584  24.664  1.00  0.00    -0.015 A 
ATOM     28  C   UNL A   1      32.735  21.230  23.407  1.00  0.00    -0.018 A 
ATOM     29  C   UNL A   1      33.448  20.585  25.636  1.00  0.00     0.009 A 
ATOM     30  C   UNL A   1      32.356  19.900  23.165  1.00  0.00     0.009 A 
ATOM     31  C   UNL A   1      33.077  19.263  25.376  1.00  0.00     0.001 A 
ATOM     32  C   UNL A   1      32.526  18.923  24.144  1.00  0.00     0.001 A 
ENDBRANCH  22  23
ENDBRANCH   7  22
ENDBRANCH   5   7
ENDBRANCH   4   5
ENDBRANCH   3   4
ENDBRANCH   2   3
ENDBRANCH   1   2
BRANCH   1  33
ATOM     33  C   UNL A   1      31.527  31.598  26.786  1.00  0.00     0.202 C 
BRANCH  33  34
ATOM     34  C   UNL A   1      31.778  33.101  26.925  1.00  0.00     0.261 C 
BRANCH  34  35
ATOM     35  O   UNL A   1      33.115  33.481  27.238  1.00  0.00    -0.460 OA
BRANCH  35  36
ATOM     36  C   UNL A   1      33.235  34.314  28.295  1.00  0.00     0.338 C 
ATOM     37  O   UNL A   1      32.528  35.253  28.606  1.00  0.00    -0.246 OA
BRANCH  36  38
ATOM     38  C   UNL A   1      34.341  33.832  29.128  1.00  0.00     0.060 A 
ATOM     39  C   UNL A   1      35.622  34.313  28.846  1.00  0.00     0.016 A 
ATOM     40  C   UNL A   1      34.127  32.868  30.115  1.00  0.00     0.016 A 
ATOM     41  C   UNL A   1      36.713  33.792  29.532  1.00  0.00     0.010 A 
ATOM     42  C   UNL A   1      35.225  32.347  30.802  1.00  0.00     0.010 A 
ATOM     43  C   UNL A   1      36.524  32.782  30.486  1.00  0.00    -0.014 A 
BRANCH  43  44
ATOM     44  C   UNL A   1      37.709  32.095  31.044  1.00  0.00     0.031 A 
ATOM     45  C   UNL A   1      38.171  32.450  32.428  1.00  0.00     0.074 A 
ATOM     46  C   UNL A   1      38.322  31.126  30.343  1.00  0.00     0.049 A 
ATOM     47  N   UNL A   1      39.148  31.939  33.134  1.00  0.00    -0.248 NA
ATOM     48  C   UNL A   1      37.434  33.524  33.111  1.00  0.00     0.031 C 
ATOM     49  C   UNL A   1      37.941  30.688  29.002  1.00  0.00     0.029 A 
ATOM     50  N   UNL A   1      39.391  30.332  30.668  1.00  0.00    -0.354 N 
ATOM     51  C   UNL A   1      39.137  32.623  34.342  1.00  0.00     0.074 A 
ATOM     52  C   UNL A   1      38.083  33.611  34.263  1.00  0.00     0.031 C 
ATOM     53  C   UNL A   1      38.764  29.698  28.618  1.00  0.00     0.029 A 
ATOM     54  C   UNL A   1      39.739  29.449  29.677  1.00  0.00     0.049 A 
ATOM     55  H   UNL A   1      39.863  30.388  31.530  1.00  0.00     0.167 HD
ATOM     56  C   UNL A   1      39.926  32.432  35.425  1.00  0.00     0.037 A 
ATOM     57  C   UNL A   1      40.738  28.548  29.633  1.00  0.00     0.037 A 
ATOM     58  C   UNL A   1      40.974  31.449  35.495  1.00  0.00     0.049 A 
ATOM     59  C   UNL A   1      41.636  28.390  30.831  1.00  0.00     0.074 A 
ATOM     60  C   UNL A   1      41.823  31.162  36.549  1.00  0.00     0.029 A 
ATOM     61  N   UNL A   1      41.320  30.593  34.458  1.00  0.00    -0.354 N 
ATOM     62  N   UNL A   1      41.594  29.014  31.984  1.00  0.00    -0.248 NA
ATOM     63  C   UNL A   1      42.716  27.400  30.725  1.00  0.00     0.031 C 
ATOM     64  C   UNL A   1      42.712  30.165  36.135  1.00  0.00     0.029 A 
ATOM     65  C   UNL A   1      42.386  29.796  34.839  1.00  0.00     0.049 A 
ATOM     66  H   UNL A   1      40.874  30.560  33.581  1.00  0.00     0.167 HD
ATOM     67  C   UNL A   1      42.622  28.477  32.748  1.00  0.00     0.074 A 
ATOM     68  C   UNL A   1      43.262  27.466  31.932  1.00  0.00     0.031 C 
ATOM     69  C   UNL A   1      43.004  28.793  34.010  1.00  0.00     0.037 A 
BRANCH  56  70
ATOM     70  C   UNL A   1      39.698  33.319  36.612  1.00  0.00     0.064 A 
ATOM     71  C   UNL A   1      40.388  34.531  36.769  1.00  0.00     0.173 A 
ATOM     72  C   UNL A   1      38.761  32.966  37.594  1.00  0.00     0.173 A 
ATOM     73  F   UNL A   1      41.307  34.905  35.865  1.00  0.00    -0.203 F 
ATOM     74  C   UNL A   1      40.164  35.345  37.876  1.00  0.00     0.198 A 
ATOM     75  C   UNL A   1      38.520  33.794  38.687  1.00  0.00     0.198 A 
ATOM     76  F   UNL A   1      38.073  31.818  37.491  1.00  0.00    -0.203 F 
ATOM     77  F   UNL A   1      40.865  36.477  38.026  1.00  0.00    -0.200 F 
ATOM     78  C   UNL A   1      39.226  34.980  38.830  1.00  0.00     0.200 A 
ATOM     79  F   UNL A   1      37.607  33.445  39.604  1.00  0.00    -0.200 F 
ATOM     80  F   UNL A   1      39.008  35.767  39.893  1.00  0.00    -0.200 F 
ENDBRANCH  56  70
BRANCH  57  81
ATOM     81  C   UNL A   1      40.938  27.722  28.414  1.00  0.00     0.064 A 
ATOM     82  C   UNL A   1      41.780  28.148  27.379  1.00  0.00     0.173 A 
ATOM     83  C   UNL A   1      40.285  26.489  28.260  1.00  0.00     0.173 A 
ATOM     84  F   UNL A   1      42.408  29.329  27.469  1.00  0.00    -0.203 F 
ATOM     85  C   UNL A   1      41.952  27.378  26.229  1.00  0.00     0.198 A 
ATOM     86  C   UNL A   1      40.479  25.709  27.123  1.00  0.00     0.198 A 
ATOM     87  F   UNL A   1      39.468  26.037  29.223  1.00  0.00    -0.203 F 
ATOM     88  F   UNL A   1      42.731  27.827  25.235  1.00  0.00    -0.200 F 
ATOM     89  C   UNL A   1      41.306  26.157  26.105  1.00  0.00     0.200 A 
ATOM     90  F   UNL A   1      39.862  24.525  27.012  1.00  0.00    -0.200 F 
ATOM     91  F   UNL A   1      41.475  25.416  25.001  1.00  0.00    -0.200 F 
ENDBRANCH  57  81
BRANCH  69  92
ATOM     92  C   UNL A   1      44.149  28.019  34.593  1.00  0.00     0.064 A 
ATOM     93  C   UNL A   1      43.947  26.802  35.260  1.00  0.00     0.173 A 
ATOM     94  C   UNL A   1      45.466  28.479  34.446  1.00  0.00     0.173 A 
ATOM     95  F   UNL A   1      42.705  26.328  35.438  1.00  0.00    -0.203 F 
ATOM     96  C   UNL A   1      45.021  26.085  35.780  1.00  0.00     0.198 A 
ATOM     97  C   UNL A   1      46.539  27.746  34.943  1.00  0.00     0.198 A 
ATOM     98  F   UNL A   1      45.712  29.634  33.810  1.00  0.00    -0.203 F 
ATOM     99  F   UNL A   1      44.802  24.946  36.451  1.00  0.00    -0.200 F 
ATOM    100  C   UNL A   1      46.316  26.553  35.614  1.00  0.00     0.200 A 
ATOM    101  F   UNL A   1      47.792  28.194  34.773  1.00  0.00    -0.200 F 
ATOM    102  F   UNL A   1      47.350  25.859  36.110  1.00  0.00    -0.200 F 
ENDBRANCH  69  92
ENDBRANCH  43  44
ENDBRANCH  36  38
ENDBRANCH  35  36
ENDBRANCH  34  35
ENDBRANCH  33  34
ENDBRANCH   1  33
TORSDOF 17
ENDMDL
MODEL 3
REMARK VINA RESULT:     -12.4      4.019      9.117
REMARK SMILES C[NH+]1CCC([NH+]2CCC(Oc3ccc4ccccc4c3)(C(=O)OCCOCCOC(=O)c3ccc(-c4c5nc(c(-c6c(F)c(F)c(F)c(F)c6F)c6ccc([nH]6)c(-c6c(F)c(F)c(F)c(F)c6F)c6nc(c(-c7c(F)c(F)c(F)c(F)c7F)c7ccc4[nH]7)C=C6)C=C5)cc3)CC2)CC1
REMARK SMILES IDX 26 1 25 2 24 3 23 4 21 5 22 6 9 7 6 8 7 9 96 10 8 12 95 13
REMARK SMILES IDX 5 14 1 15 2 16 3 17 98 18 4 20 97 21 10 22 11 23 12 24 20 25
REMARK SMILES IDX 13 26 19 27 14 28 18 29 15 30 17 31 16 32 27 33 28 34 29 35
REMARK SMILES IDX 30 36 31 37 32 38 33 39 94 40 34 41 93 42 35 43 36 44 37 45
REMARK SMILES IDX 87 46 38 47 92 48 86 49 88 50 39 51 91 52 85 53 84 54 40 56
REMARK SMILES IDX 72 57 52 58 71 59 53 60 56 61 70 62 89 63 54 64 55 65 69 67
REMARK SMILES IDX 90 68 57 69 41 70 42 71 50 72 43 73 44 74 48 75 51 76 45 77
REMARK SMILES IDX 46 78 49 79 47 80 73 81 74 82 82 83 75 84 76 85 80 86 83 87
REMARK SMILES IDX 77 88 78 89 81 90 79 91 58 92 59 93 67 94 60 95 61 96 65 97
REMARK SMILES IDX 68 98 62 99 63 100 66 101 64 102
REMARK H PARENT 6 11 2 19 88 55 56 66
REMARK Flexibility Score: inf
ROOT
ATOM      1  O   UNL A   1      32.502  29.606  25.477  1.00  0.00    -0.374 OA
ENDROOT
BRANCH   1   2
ATOM      2  C   UNL A   1      32.348  28.365  26.164  1.00  0.00     0.202 C 
BRANCH   2   3
ATOM      3  C   UNL A   1      33.597  27.506  26.408  1.00  0.00     0.261 C 
BRANCH   3   4
ATOM      4  O   UNL A   1      33.848  26.517  25.381  1.00  0.00    -0.460 OA
BRANCH   4   5
ATOM      5  C   UNL A   1      32.904  25.537  25.253  1.00  0.00     0.351 C 
ATOM      6  O   UNL A   1      32.309  25.056  26.215  1.00  0.00    -0.247 OA
BRANCH   5   7
ATOM      7  C   UNL A   1      32.705  25.027  23.802  1.00  0.00     0.216 C 
ATOM      8  N   UNL A   1      32.807  22.047  23.567  1.00  0.00    -0.332 N 
ATOM      9  C   UNL A   1      31.498  22.694  23.599  1.00  0.00     0.267 C 
ATOM     10  C   UNL A   1      33.901  22.836  24.120  1.00  0.00     0.267 C 
ATOM     11  H   UNL A   1      33.010  22.006  22.568  1.00  0.00     0.348 HD
ATOM     12  C   UNL A   1      31.413  24.230  23.568  1.00  0.00     0.122 C 
ATOM     13  C   UNL A   1      33.949  24.200  23.430  1.00  0.00     0.122 C 
BRANCH   8  14
ATOM     14  C   UNL A   1      32.817  20.615  23.995  1.00  0.00     0.195 C 
ATOM     15  C   UNL A   1      33.980  16.436  23.892  1.00  0.00     0.332 C 
ATOM     16  N   UNL A   1      33.783  17.866  23.674  1.00  0.00    -0.337 N 
ATOM     17  C   UNL A   1      34.253  18.662  24.813  1.00  0.00     0.268 C 
ATOM     18  C   UNL A   1      32.379  18.170  23.391  1.00  0.00     0.268 C 
ATOM     19  H   UNL A   1      34.342  18.120  22.860  1.00  0.00     0.347 HD
ATOM     20  C   UNL A   1      34.213  20.154  24.467  1.00  0.00     0.126 C 
ATOM     21  C   UNL A   1      32.271  19.626  22.949  1.00  0.00     0.126 C 
ENDBRANCH   8  14
BRANCH   7  22
ATOM     22  O   UNL A   1      32.603  26.338  23.158  1.00  0.00    -0.475 OA
BRANCH  22  23
ATOM     23  C   UNL A   1      31.371  26.918  23.080  1.00  0.00     0.121 A 
ATOM     24  C   UNL A   1      30.265  26.340  23.693  1.00  0.00     0.047 A 
ATOM     25  C   UNL A   1      31.267  28.188  22.511  1.00  0.00     0.055 A 
ATOM     26  C   UNL A   1      29.031  26.989  23.668  1.00  0.00     0.012 A 
ATOM     27  C   UNL A   1      30.036  28.869  22.501  1.00  0.00    -0.015 A 
ATOM     28  C   UNL A   1      28.900  28.250  23.075  1.00  0.00    -0.018 A 
ATOM     29  C   UNL A   1      29.903  30.154  21.950  1.00  0.00     0.009 A 
ATOM     30  C   UNL A   1      27.667  28.920  23.066  1.00  0.00     0.009 A 
ATOM     31  C   UNL A   1      28.671  30.813  21.959  1.00  0.00     0.001 A 
ATOM     32  C   UNL A   1      27.553  30.194  22.511  1.00  0.00     0.001 A 
ENDBRANCH  22  23
ENDBRANCH   7  22
ENDBRANCH   5   7
ENDBRANCH   4   5
ENDBRANCH   3   4
ENDBRANCH   2   3
ENDBRANCH   1   2
BRANCH   1  33
ATOM     33  C   UNL A   1      31.457  30.554  25.596  1.00  0.00     0.202 C 
BRANCH  33  34
ATOM     34  C   UNL A   1      31.675  31.737  26.542  1.00  0.00     0.261 C 
BRANCH  34  35
ATOM     35  O   UNL A   1      32.690  31.565  27.528  1.00  0.00    -0.460 OA
BRANCH  35  36
ATOM     36  C   UNL A   1      33.548  32.602  27.645  1.00  0.00     0.338 C 
ATOM     37  O   UNL A   1      33.318  33.792  27.545  1.00  0.00    -0.246 OA
BRANCH  36  38
ATOM     38  C   UNL A   1      34.854  32.068  28.041  1.00  0.00     0.060 A 
ATOM     39  C   UNL A   1      34.937  30.701  28.323  1.00  0.00     0.016 A 
ATOM     40  C   UNL A   1      35.953  32.912  28.205  1.00  0.00     0.016 A 
ATOM     41  C   UNL A   1      36.125  30.178  28.817  1.00  0.00     0.010 A 
ATOM     42  C   UNL A   1      37.146  32.383  28.701  1.00  0.00     0.010 A 
ATOM     43  C   UNL A   1      37.223  31.021  29.043  1.00  0.00    -0.014 A 
BRANCH  43  44
ATOM     44  C   UNL A   1      38.398  30.487  29.766  1.00  0.00     0.031 A 
ATOM     45  C   UNL A   1      38.625  30.902  31.191  1.00  0.00     0.074 A 
ATOM     46  C   UNL A   1      39.212  29.598  29.172  1.00  0.00     0.049 A 
ATOM     47  N   UNL A   1      39.554  30.518  32.030  1.00  0.00    -0.248 NA
ATOM     48  C   UNL A   1      37.678  31.880  31.749  1.00  0.00     0.031 C 
ATOM     49  C   UNL A   1      39.068  29.111  27.802  1.00  0.00     0.029 A 
ATOM     50  N   UNL A   1      40.316  28.942  29.652  1.00  0.00    -0.354 N 
ATOM     51  C   UNL A   1      39.299  31.200  33.212  1.00  0.00     0.074 A 
ATOM     52  C   UNL A   1      38.153  32.051  32.974  1.00  0.00     0.031 C 
ATOM     53  C   UNL A   1      40.049  28.227  27.550  1.00  0.00     0.029 A 
ATOM     54  C   UNL A   1      40.898  28.104  28.733  1.00  0.00     0.049 A 
ATOM     55  H   UNL A   1      40.659  29.060  30.567  1.00  0.00     0.167 HD
ATOM     56  C   UNL A   1      39.954  31.112  34.393  1.00  0.00     0.037 A 
ATOM     57  C   UNL A   1      41.995  27.332  28.839  1.00  0.00     0.037 A 
ATOM     58  C   UNL A   1      41.095  30.265  34.621  1.00  0.00     0.049 A 
ATOM     59  C   UNL A   1      42.737  27.292  30.149  1.00  0.00     0.074 A 
ATOM     60  C   UNL A   1      41.823  30.090  35.783  1.00  0.00     0.029 A 
ATOM     61  N   UNL A   1      41.677  29.455  33.656  1.00  0.00    -0.354 N 
ATOM     62  N   UNL A   1      42.467  27.911  31.273  1.00  0.00    -0.248 NA
ATOM     63  C   UNL A   1      43.934  26.441  30.206  1.00  0.00     0.031 C 
ATOM     64  C   UNL A   1      42.874  29.207  35.510  1.00  0.00     0.029 A 
ATOM     65  C   UNL A   1      42.771  28.796  34.191  1.00  0.00     0.049 A 
ATOM     66  H   UNL A   1      41.359  29.363  32.729  1.00  0.00     0.167 HD
ATOM     67  C   UNL A   1      43.442  27.507  32.176  1.00  0.00     0.074 A 
ATOM     68  C   UNL A   1      44.302  26.578  31.473  1.00  0.00     0.031 C 
ATOM     69  C   UNL A   1      43.611  27.873  33.471  1.00  0.00     0.037 A 
BRANCH  56  70
ATOM     70  C   UNL A   1      39.464  31.970  35.521  1.00  0.00     0.064 A 
ATOM     71  C   UNL A   1      38.510  31.504  36.439  1.00  0.00     0.173 A 
ATOM     72  C   UNL A   1      39.971  33.265  35.701  1.00  0.00     0.173 A 
ATOM     73  F   UNL A   1      37.983  30.278  36.300  1.00  0.00    -0.203 F 
ATOM     74  C   UNL A   1      38.067  32.312  37.483  1.00  0.00     0.198 A 
ATOM     75  C   UNL A   1      39.544  34.061  36.761  1.00  0.00     0.198 A 
ATOM     76  F   UNL A   1      40.885  33.758  34.852  1.00  0.00    -0.203 F 
ATOM     77  F   UNL A   1      37.125  31.862  38.323  1.00  0.00    -0.200 F 
ATOM     78  C   UNL A   1      38.588  33.587  37.648  1.00  0.00     0.200 A 
ATOM     79  F   UNL A   1      40.055  35.289  36.924  1.00  0.00    -0.200 F 
ATOM     80  F   UNL A   1      38.164  34.361  38.655  1.00  0.00    -0.200 F 
ENDBRANCH  56  70
BRANCH  57  81
ATOM     81  C   UNL A   1      42.454  26.532  27.675  1.00  0.00     0.064 A 
ATOM     82  C   UNL A   1      41.953  25.246  27.436  1.00  0.00     0.173 A 
ATOM     83  C   UNL A   1      43.406  27.039  26.778  1.00  0.00     0.173 A 
ATOM     84  F   UNL A   1      41.058  24.708  28.277  1.00  0.00    -0.203 F 
ATOM     85  C   UNL A   1      42.397  24.491  26.351  1.00  0.00     0.198 A 
ATOM     86  C   UNL A   1      43.830  26.295  25.680  1.00  0.00     0.198 A 
ATOM     87  F   UNL A   1      43.916  28.266  26.963  1.00  0.00    -0.203 F 
ATOM     88  F   UNL A   1      41.933  23.247  26.168  1.00  0.00    -0.200 F 
ATOM     89  C   UNL A   1      43.331  25.018  25.471  1.00  0.00     0.200 A 
ATOM     90  F   UNL A   1      44.723  26.812  24.826  1.00  0.00    -0.200 F 
ATOM     91  F   UNL A   1      43.755  24.293  24.427  1.00  0.00    -0.200 F 
ENDBRANCH  57  81
BRANCH  69  92
ATOM     92  C   UNL A   1      44.752  27.247  34.216  1.00  0.00     0.064 A 
ATOM     93  C   UNL A   1      46.008  27.867  34.289  1.00  0.00     0.173 A 
ATOM     94  C   UNL A   1      44.575  26.035  34.899  1.00  0.00     0.173 A 
ATOM     95  F   UNL A   1      46.231  29.020  33.641  1.00  0.00    -0.203 F 
ATOM     96  C   UNL A   1      47.053  27.283  35.000  1.00  0.00     0.198 A 
ATOM     97  C   UNL A   1      45.614  25.468  35.632  1.00  0.00     0.198 A 
ATOM     98  F   UNL A   1      43.391  25.406  34.865  1.00  0.00    -0.203 F 
ATOM     99  F   UNL A   1      48.257  27.870  35.021  1.00  0.00    -0.200 F 
ATOM    100  C   UNL A   1      46.853  26.089  35.677  1.00  0.00     0.200 A 
ATOM    101  F   UNL A   1      45.416  24.319  36.295  1.00  0.00    -0.200 F 
ATOM    102  F   UNL A   1      47.858  25.531  36.366  1.00  0.00    -0.200 F 
ENDBRANCH  69  92
ENDBRANCH  43  44
ENDBRANCH  36  38
ENDBRANCH  35  36
ENDBRANCH  34  35
ENDBRANCH  33  34
ENDBRANCH   1  33
TORSDOF 17
ENDMDL
