MODEL 1
REMARK VINA RESULT:     -13.9      0.000      0.000
REMARK SMILES CC1(C)O[C@@H]2C[C@@H]3[C@H]4CCC5=CC(=O)C=C[C@@]5(C)[C@]4(F)[C@H](O)C[C@]3(C)[C@]2(C(=O)OCCOCCOC(=O)c2ccc(-c3c4nc(c(-c5c(F)c(F)c(F)c(F)c5F)c5ccc([nH]5)c(-c5c(F)c(F)c(F)c(F)c5F)c5nc(c(-c6c(F)c(F)c(F)c(F)c6F)c6ccc3[nH]6)C=C5)C=C4)cc2)O1
REMARK SMILES IDX 33 1 32 2 31 3 30 4 29 5 27 6 28 7 26 8 1 9 2 10 4 11 101 12
REMARK SMILES IDX 3 13 5 14 6 15 24 16 7 17 23 18 25 19 8 20 21 21 9 22 19 23
REMARK SMILES IDX 10 24 17 25 20 26 11 27 16 28 18 29 12 30 15 31 13 32 14 33
REMARK SMILES IDX 22 34 34 36 35 37 36 38 37 39 38 40 39 41 100 42 40 43 99 44
REMARK SMILES IDX 41 45 42 46 43 47 93 48 44 49 98 50 92 51 94 52 45 53 97 54
REMARK SMILES IDX 91 55 90 56 46 58 78 59 58 60 77 61 59 62 62 63 76 64 95 65
REMARK SMILES IDX 60 66 61 67 75 69 96 70 63 71 47 72 48 73 56 74 49 75 50 76
REMARK SMILES IDX 54 77 57 78 51 79 52 80 55 81 53 82 79 83 80 84 88 85 81 86
REMARK SMILES IDX 82 87 86 88 89 89 83 90 84 91 87 92 85 93 64 94 65 95 73 96
REMARK SMILES IDX 66 97 67 98 71 99 74 100 68 101 69 102 72 103 70 104
REMARK H PARENT 22 35 94 57 62 68
REMARK Flexibility Score: inf
ROOT
ATOM      1  C   UNL A   1      41.702  21.152  27.323  1.00  0.00     0.202 C 
ENDROOT
BRANCH   1   2
ATOM      2  O   UNL A   1      40.408  20.577  27.209  1.00  0.00    -0.374 OA
BRANCH   2   3
ATOM      3  C   UNL A   1      39.786  20.463  25.941  1.00  0.00     0.202 C 
BRANCH   3   4
ATOM      4  C   UNL A   1      38.604  21.372  25.515  1.00  0.00     0.261 C 
BRANCH   4   5
ATOM      5  O   UNL A   1      37.389  20.749  25.045  1.00  0.00    -0.461 OA
BRANCH   5   6
ATOM      6  C   UNL A   1      36.563  21.687  24.538  1.00  0.00     0.341 C 
ATOM      7  O   UNL A   1      36.811  22.240  23.466  1.00  0.00    -0.249 OA
BRANCH   6   8
ATOM      8  C   UNL A   1      35.265  21.993  25.284  1.00  0.00     0.200 C 
ATOM      9  C   UNL A   1      33.466  19.279  24.476  1.00  0.00     0.075 C 
ATOM     10  C   UNL A   1      33.303  20.700  24.993  1.00  0.00     0.165 C 
ATOM     11  O   UNL A   1      33.601  20.603  26.381  1.00  0.00    -0.344 OA
ATOM     12  O   UNL A   1      34.171  21.673  24.363  1.00  0.00    -0.329 OA
ATOM     13  C   UNL A   1      31.829  21.061  24.728  1.00  0.00     0.075 C 
ATOM     14  C   UNL A   1      34.773  21.391  26.646  1.00  0.00     0.166 C 
ATOM     15  C   UNL A   1      34.203  22.617  27.520  1.00  0.00     0.040 C 
ATOM     16  C   UNL A   1      35.394  23.545  25.694  1.00  0.00     0.016 C 
ATOM     17  C   UNL A   1      34.030  23.686  26.414  1.00  0.00     0.008 C 
ATOM     18  C   UNL A   1      35.640  24.720  24.724  1.00  0.00     0.046 C 
ATOM     19  C   UNL A   1      36.645  23.662  26.659  1.00  0.00     0.015 C 
ATOM     20  C   UNL A   1      32.896  24.481  25.667  1.00  0.00     0.035 C 
ATOM     21  C   UNL A   1      34.509  25.096  23.807  1.00  0.00     0.154 C 
ATOM     22  C   UNL A   1      31.718  24.889  26.542  1.00  0.00     0.012 C 
ATOM     23  C   UNL A   1      33.292  25.564  24.649  1.00  0.00     0.152 C 
ATOM     24  C   UNL A   1      30.491  25.116  25.651  1.00  0.00     0.032 C 
ATOM     25  C   UNL A   1      32.058  25.984  23.743  1.00  0.00     0.044 C 
ATOM     26  F   UNL A   1      33.687  26.653  25.387  1.00  0.00    -0.239 F 
ATOM     27  C   UNL A   1      30.736  26.084  24.519  1.00  0.00    -0.053 C 
ATOM     28  C   UNL A   1      32.340  27.313  23.046  1.00  0.00    -0.009 C 
ATOM     29  C   UNL A   1      31.779  24.968  22.588  1.00  0.00     0.024 C 
ATOM     30  C   UNL A   1      29.763  26.919  24.100  1.00  0.00     0.052 C 
ATOM     31  C   UNL A   1      31.359  28.042  22.497  1.00  0.00     0.048 C 
ATOM     32  C   UNL A   1      29.960  27.778  22.901  1.00  0.00     0.178 C 
ATOM     33  O   UNL A   1      29.016  28.313  22.334  1.00  0.00    -0.290 OA
BRANCH  21  34
ATOM     34  O   UNL A   1      34.277  24.022  22.904  1.00  0.00    -0.390 OA
ATOM     35  H   UNL A   1      33.328  23.959  22.714  1.00  0.00     0.211 HD
ENDBRANCH  21  34
ENDBRANCH   6   8
ENDBRANCH   5   6
ENDBRANCH   4   5
ENDBRANCH   3   4
ENDBRANCH   2   3
ENDBRANCH   1   2
BRANCH   1  36
ATOM     36  C   UNL A   1      42.539  21.401  26.063  1.00  0.00     0.261 C 
BRANCH  36  37
ATOM     37  O   UNL A   1      42.077  22.509  25.273  1.00  0.00    -0.460 OA
BRANCH  37  38
ATOM     38  C   UNL A   1      42.934  23.560  25.242  1.00  0.00     0.338 C 
ATOM     39  O   UNL A   1      43.922  23.696  24.547  1.00  0.00    -0.246 OA
BRANCH  38  40
ATOM     40  C   UNL A   1      42.405  24.664  26.060  1.00  0.00     0.060 A 
ATOM     41  C   UNL A   1      43.241  25.764  26.299  1.00  0.00     0.016 A 
ATOM     42  C   UNL A   1      41.165  24.556  26.686  1.00  0.00     0.016 A 
ATOM     43  C   UNL A   1      42.846  26.758  27.186  1.00  0.00     0.010 A 
ATOM     44  C   UNL A   1      40.781  25.544  27.597  1.00  0.00     0.010 A 
ATOM     45  C   UNL A   1      41.632  26.631  27.869  1.00  0.00    -0.014 A 
BRANCH  45  46
ATOM     46  C   UNL A   1      41.321  27.560  28.977  1.00  0.00     0.031 A 
ATOM     47  C   UNL A   1      42.144  27.496  30.230  1.00  0.00     0.074 A 
ATOM     48  C   UNL A   1      40.326  28.454  28.853  1.00  0.00     0.049 A 
ATOM     49  N   UNL A   1      41.997  28.147  31.355  1.00  0.00    -0.248 NA
ATOM     50  C   UNL A   1      43.289  26.570  30.212  1.00  0.00     0.031 C 
ATOM     51  C   UNL A   1      39.504  28.639  27.659  1.00  0.00     0.029 A 
ATOM     52  N   UNL A   1      39.831  29.365  29.750  1.00  0.00    -0.354 N 
ATOM     53  C   UNL A   1      43.020  27.702  32.182  1.00  0.00     0.074 A 
ATOM     54  C   UNL A   1      43.767  26.709  31.441  1.00  0.00     0.031 C 
ATOM     55  C   UNL A   1      38.589  29.592  27.904  1.00  0.00     0.029 A 
ATOM     56  C   UNL A   1      38.737  30.049  29.284  1.00  0.00     0.049 A 
ATOM     57  H   UNL A   1      40.221  29.513  30.642  1.00  0.00     0.167 HD
ATOM     58  C   UNL A   1      43.307  28.093  33.447  1.00  0.00     0.037 A 
ATOM     59  C   UNL A   1      37.927  30.920  29.917  1.00  0.00     0.037 A 
ATOM     60  C   UNL A   1      42.553  29.082  34.172  1.00  0.00     0.049 A 
ATOM     61  C   UNL A   1      38.215  31.272  31.355  1.00  0.00     0.074 A 
ATOM     62  C   UNL A   1      42.769  29.567  35.449  1.00  0.00     0.029 A 
ATOM     63  N   UNL A   1      41.428  29.731  33.682  1.00  0.00    -0.354 N 
ATOM     64  N   UNL A   1      39.192  30.863  32.128  1.00  0.00    -0.248 NA
ATOM     65  C   UNL A   1      37.286  32.205  32.006  1.00  0.00     0.031 C 
ATOM     66  C   UNL A   1      41.739  30.462  35.755  1.00  0.00     0.029 A 
ATOM     67  C   UNL A   1      40.918  30.585  34.645  1.00  0.00     0.049 A 
ATOM     68  H   UNL A   1      41.048  29.602  32.782  1.00  0.00     0.167 HD
ATOM     69  C   UNL A   1      39.013  31.508  33.345  1.00  0.00     0.074 A 
ATOM     70  C   UNL A   1      37.841  32.346  33.202  1.00  0.00     0.031 C 
ATOM     71  C   UNL A   1      39.751  31.415  34.480  1.00  0.00     0.037 A 
BRANCH  58  72
ATOM     72  C   UNL A   1      44.461  27.426  34.138  1.00  0.00     0.064 A 
ATOM     73  C   UNL A   1      45.755  27.970  34.116  1.00  0.00     0.173 A 
ATOM     74  C   UNL A   1      44.262  26.239  34.859  1.00  0.00     0.173 A 
ATOM     75  F   UNL A   1      46.002  29.096  33.429  1.00  0.00    -0.203 F 
ATOM     76  C   UNL A   1      46.810  27.337  34.770  1.00  0.00     0.198 A 
ATOM     77  C   UNL A   1      45.313  25.625  35.537  1.00  0.00     0.198 A 
ATOM     78  F   UNL A   1      43.046  25.676  34.915  1.00  0.00    -0.203 F 
ATOM     79  F   UNL A   1      48.046  27.850  34.695  1.00  0.00    -0.200 F 
ATOM     80  C   UNL A   1      46.586  26.170  35.486  1.00  0.00     0.200 A 
ATOM     81  F   UNL A   1      45.092  24.505  36.239  1.00  0.00    -0.200 F 
ATOM     82  F   UNL A   1      47.601  25.568  36.120  1.00  0.00    -0.200 F 
ENDBRANCH  58  72
BRANCH  59  83
ATOM     83  C   UNL A   1      36.755  31.496  29.208  1.00  0.00     0.064 A 
ATOM     84  C   UNL A   1      36.720  32.850  28.849  1.00  0.00     0.173 A 
ATOM     85  C   UNL A   1      35.639  30.707  28.885  1.00  0.00     0.173 A 
ATOM     86  F   UNL A   1      37.752  33.650  29.154  1.00  0.00    -0.203 F 
ATOM     87  C   UNL A   1      35.608  33.397  28.211  1.00  0.00     0.198 A 
ATOM     88  C   UNL A   1      34.543  31.248  28.220  1.00  0.00     0.198 A 
ATOM     89  F   UNL A   1      35.622  29.405  29.207  1.00  0.00    -0.203 F 
ATOM     90  F   UNL A   1      35.581  34.705  27.921  1.00  0.00    -0.200 F 
ATOM     91  C   UNL A   1      34.523  32.595  27.891  1.00  0.00     0.200 A 
ATOM     92  F   UNL A   1      33.504  30.465  27.899  1.00  0.00    -0.200 F 
ATOM     93  F   UNL A   1      33.456  33.120  27.273  1.00  0.00    -0.200 F 
ENDBRANCH  59  83
BRANCH  71  94
ATOM     94  C   UNL A   1      39.334  32.265  35.646  1.00  0.00     0.064 A 
ATOM     95  C   UNL A   1      38.466  31.784  36.636  1.00  0.00     0.173 A 
ATOM     96  C   UNL A   1      39.851  33.561  35.798  1.00  0.00     0.173 A 
ATOM     97  F   UNL A   1      37.932  30.558  36.528  1.00  0.00    -0.203 F 
ATOM     98  C   UNL A   1      38.115  32.576  37.726  1.00  0.00     0.198 A 
ATOM     99  C   UNL A   1      39.524  34.337  36.906  1.00  0.00     0.198 A 
ATOM    100  F   UNL A   1      40.691  34.066  34.883  1.00  0.00    -0.203 F 
ATOM    101  F   UNL A   1      37.247  32.113  38.636  1.00  0.00    -0.200 F 
ATOM    102  C   UNL A   1      38.650  33.848  37.865  1.00  0.00     0.200 A 
ATOM    103  F   UNL A   1      40.057  35.559  37.047  1.00  0.00    -0.200 F 
ATOM    104  F   UNL A   1      38.320  34.604  38.920  1.00  0.00    -0.200 F 
ENDBRANCH  71  94
ENDBRANCH  45  46
ENDBRANCH  38  40
ENDBRANCH  37  38
ENDBRANCH  36  37
ENDBRANCH   1  36
TORSDOF 15
ENDMDL
MODEL 2
REMARK VINA RESULT:     -13.7      0.879      1.791
REMARK SMILES CC1(C)O[C@@H]2C[C@@H]3[C@H]4CCC5=CC(=O)C=C[C@@]5(C)[C@]4(F)[C@H](O)C[C@]3(C)[C@]2(C(=O)OCCOCCOC(=O)c2ccc(-c3c4nc(c(-c5c(F)c(F)c(F)c(F)c5F)c5ccc([nH]5)c(-c5c(F)c(F)c(F)c(F)c5F)c5nc(c(-c6c(F)c(F)c(F)c(F)c6F)c6ccc3[nH]6)C=C5)C=C4)cc2)O1
REMARK SMILES IDX 33 1 32 2 31 3 30 4 29 5 27 6 28 7 26 8 1 9 2 10 4 11 101 12
REMARK SMILES IDX 3 13 5 14 6 15 24 16 7 17 23 18 25 19 8 20 21 21 9 22 19 23
REMARK SMILES IDX 10 24 17 25 20 26 11 27 16 28 18 29 12 30 15 31 13 32 14 33
REMARK SMILES IDX 22 34 34 36 35 37 36 38 37 39 38 40 39 41 100 42 40 43 99 44
REMARK SMILES IDX 41 45 42 46 43 47 93 48 44 49 98 50 92 51 94 52 45 53 97 54
REMARK SMILES IDX 91 55 90 56 46 58 78 59 58 60 77 61 59 62 62 63 76 64 95 65
REMARK SMILES IDX 60 66 61 67 75 69 96 70 63 71 47 72 48 73 56 74 49 75 50 76
REMARK SMILES IDX 54 77 57 78 51 79 52 80 55 81 53 82 79 83 80 84 88 85 81 86
REMARK SMILES IDX 82 87 86 88 89 89 83 90 84 91 87 92 85 93 64 94 65 95 73 96
REMARK SMILES IDX 66 97 67 98 71 99 74 100 68 101 69 102 72 103 70 104
REMARK H PARENT 22 35 94 57 62 68
REMARK Flexibility Score: inf
ROOT
ATOM      1  C   UNL A   1      40.866  20.716  26.666  1.00  0.00     0.202 C 
ENDROOT
BRANCH   1   2
ATOM      2  O   UNL A   1      39.813  20.332  25.791  1.00  0.00    -0.374 OA
BRANCH   2   3
ATOM      3  C   UNL A   1      38.645  21.125  25.688  1.00  0.00     0.202 C 
BRANCH   3   4
ATOM      4  C   UNL A   1      37.413  20.680  24.858  1.00  0.00     0.261 C 
BRANCH   4   5
ATOM      5  O   UNL A   1      36.095  20.951  25.379  1.00  0.00    -0.461 OA
BRANCH   5   6
ATOM      6  C   UNL A   1      35.507  21.921  24.648  1.00  0.00     0.341 C 
ATOM      7  O   UNL A   1      36.107  22.475  23.727  1.00  0.00    -0.249 OA
BRANCH   6   8
ATOM      8  C   UNL A   1      34.045  22.264  24.936  1.00  0.00     0.200 C 
ATOM      9  C   UNL A   1      32.514  20.049  22.934  1.00  0.00     0.075 C 
ATOM     10  C   UNL A   1      32.260  21.352  23.676  1.00  0.00     0.165 C 
ATOM     11  O   UNL A   1      32.006  20.946  25.016  1.00  0.00    -0.344 OA
ATOM     12  O   UNL A   1      33.362  22.291  23.640  1.00  0.00    -0.329 OA
ATOM     13  C   UNL A   1      31.021  21.969  22.999  1.00  0.00     0.075 C 
ATOM     14  C   UNL A   1      33.039  21.489  25.855  1.00  0.00     0.166 C 
ATOM     15  C   UNL A   1      32.261  22.593  26.731  1.00  0.00     0.040 C 
ATOM     16  C   UNL A   1      34.110  23.672  25.715  1.00  0.00     0.016 C 
ATOM     17  C   UNL A   1      32.587  23.870  25.917  1.00  0.00     0.008 C 
ATOM     18  C   UNL A   1      34.779  24.963  25.197  1.00  0.00     0.046 C 
ATOM     19  C   UNL A   1      34.909  23.417  27.059  1.00  0.00     0.015 C 
ATOM     20  C   UNL A   1      31.873  24.951  25.025  1.00  0.00     0.035 C 
ATOM     21  C   UNL A   1      34.104  25.669  24.055  1.00  0.00     0.154 C 
ATOM     22  C   UNL A   1      30.480  25.350  25.496  1.00  0.00     0.012 C 
ATOM     23  C   UNL A   1      32.692  26.140  24.496  1.00  0.00     0.152 C 
ATOM     24  C   UNL A   1      29.698  25.921  24.307  1.00  0.00     0.032 C 
ATOM     25  C   UNL A   1      31.921  26.902  23.336  1.00  0.00     0.044 C 
ATOM     26  F   UNL A   1      32.848  26.997  25.558  1.00  0.00    -0.239 F 
ATOM     27  C   UNL A   1      30.413  27.043  23.595  1.00  0.00    -0.053 C 
ATOM     28  C   UNL A   1      32.530  28.285  23.114  1.00  0.00    -0.009 C 
ATOM     29  C   UNL A   1      32.034  26.179  21.955  1.00  0.00     0.024 C 
ATOM     30  C   UNL A   1      29.726  28.076  23.066  1.00  0.00     0.052 C 
ATOM     31  C   UNL A   1      31.878  29.242  22.440  1.00  0.00     0.048 C 
ATOM     32  C   UNL A   1      30.416  29.112  22.250  1.00  0.00     0.178 C 
ATOM     33  O   UNL A   1      29.792  29.878  21.527  1.00  0.00    -0.290 OA
BRANCH  21  34
ATOM     34  O   UNL A   1      34.162  24.835  22.904  1.00  0.00    -0.390 OA
ATOM     35  H   UNL A   1      33.413  25.036  22.322  1.00  0.00     0.211 HD
ENDBRANCH  21  34
ENDBRANCH   6   8
ENDBRANCH   5   6
ENDBRANCH   4   5
ENDBRANCH   3   4
ENDBRANCH   2   3
ENDBRANCH   1   2
BRANCH   1  36
ATOM     36  C   UNL A   1      42.293  20.858  26.123  1.00  0.00     0.261 C 
BRANCH  36  37
ATOM     37  O   UNL A   1      42.976  22.031  26.594  1.00  0.00    -0.460 OA
BRANCH  37  38
ATOM     38  C   UNL A   1      42.871  23.101  25.767  1.00  0.00     0.338 C 
ATOM     39  O   UNL A   1      43.026  23.129  24.562  1.00  0.00    -0.246 OA
BRANCH  38  40
ATOM     40  C   UNL A   1      42.341  24.258  26.507  1.00  0.00     0.060 A 
ATOM     41  C   UNL A   1      43.068  25.456  26.461  1.00  0.00     0.016 A 
ATOM     42  C   UNL A   1      41.227  24.126  27.332  1.00  0.00     0.016 A 
ATOM     43  C   UNL A   1      42.692  26.529  27.261  1.00  0.00     0.010 A 
ATOM     44  C   UNL A   1      40.866  25.197  28.155  1.00  0.00     0.010 A 
ATOM     45  C   UNL A   1      41.614  26.389  28.141  1.00  0.00    -0.014 A 
BRANCH  45  46
ATOM     46  C   UNL A   1      41.360  27.438  29.152  1.00  0.00     0.031 A 
ATOM     47  C   UNL A   1      42.243  27.506  30.364  1.00  0.00     0.074 A 
ATOM     48  C   UNL A   1      40.363  28.322  28.977  1.00  0.00     0.049 A 
ATOM     49  N   UNL A   1      42.153  28.279  31.415  1.00  0.00    -0.248 NA
ATOM     50  C   UNL A   1      43.382  26.573  30.395  1.00  0.00     0.031 C 
ATOM     51  C   UNL A   1      39.485  28.380  27.810  1.00  0.00     0.029 A 
ATOM     52  N   UNL A   1      39.916  29.331  29.790  1.00  0.00    -0.354 N 
ATOM     53  C   UNL A   1      43.213  27.919  32.237  1.00  0.00     0.074 A 
ATOM     54  C   UNL A   1      43.919  26.843  31.576  1.00  0.00     0.031 C 
ATOM     55  C   UNL A   1      38.587  29.363  27.991  1.00  0.00     0.029 A 
ATOM     56  C   UNL A   1      38.803  29.969  29.303  1.00  0.00     0.049 A 
ATOM     57  H   UNL A   1      40.349  29.573  30.640  1.00  0.00     0.167 HD
ATOM     58  C   UNL A   1      43.562  28.445  33.435  1.00  0.00     0.037 A 
ATOM     59  C   UNL A   1      38.028  30.912  29.873  1.00  0.00     0.037 A 
ATOM     60  C   UNL A   1      42.848  29.516  34.081  1.00  0.00     0.049 A 
ATOM     61  C   UNL A   1      38.387  31.419  31.247  1.00  0.00     0.074 A 
ATOM     62  C   UNL A   1      43.127  30.137  35.284  1.00  0.00     0.029 A 
ATOM     63  N   UNL A   1      41.703  30.116  33.576  1.00  0.00    -0.354 N 
ATOM     64  N   UNL A   1      39.398  31.089  32.014  1.00  0.00    -0.248 NA
ATOM     65  C   UNL A   1      37.494  32.427  31.835  1.00  0.00     0.031 C 
ATOM     66  C   UNL A   1      42.116  31.069  35.538  1.00  0.00     0.029 A 
ATOM     67  C   UNL A   1      41.243  31.076  34.461  1.00  0.00     0.049 A 
ATOM     68  H   UNL A   1      41.279  29.892  32.715  1.00  0.00     0.167 HD
ATOM     69  C   UNL A   1      39.280  31.867  33.159  1.00  0.00     0.074 A 
ATOM     70  C   UNL A   1      38.106  32.695  32.979  1.00  0.00     0.031 C 
ATOM     71  C   UNL A   1      40.072  31.893  34.260  1.00  0.00     0.037 A 
BRANCH  58  72
ATOM     72  C   UNL A   1      44.745  27.848  34.140  1.00  0.00     0.064 A 
ATOM     73  C   UNL A   1      44.617  26.753  35.008  1.00  0.00     0.173 A 
ATOM     74  C   UNL A   1      46.033  28.362  33.920  1.00  0.00     0.173 A 
ATOM     75  F   UNL A   1      43.407  26.232  35.264  1.00  0.00    -0.203 F 
ATOM     76  C   UNL A   1      45.730  26.211  35.648  1.00  0.00     0.198 A 
ATOM     77  C   UNL A   1      47.146  27.799  34.538  1.00  0.00     0.198 A 
ATOM     78  F   UNL A   1      46.213  29.408  33.099  1.00  0.00    -0.203 F 
ATOM     79  F   UNL A   1      45.577  25.196  36.509  1.00  0.00    -0.200 F 
ATOM     80  C   UNL A   1      46.994  26.729  35.405  1.00  0.00     0.200 A 
ATOM     81  F   UNL A   1      48.368  28.293  34.291  1.00  0.00    -0.200 F 
ATOM     82  F   UNL A   1      48.064  26.201  36.016  1.00  0.00    -0.200 F 
ENDBRANCH  58  72
BRANCH  59  83
ATOM     83  C   UNL A   1      36.825  31.417  29.161  1.00  0.00     0.064 A 
ATOM     84  C   UNL A   1      35.708  30.596  28.957  1.00  0.00     0.173 A 
ATOM     85  C   UNL A   1      36.772  32.727  28.659  1.00  0.00     0.173 A 
ATOM     86  F   UNL A   1      35.719  29.330  29.399  1.00  0.00    -0.203 F 
ATOM     87  C   UNL A   1      34.592  31.059  28.263  1.00  0.00     0.198 A 
ATOM     88  C   UNL A   1      35.644  33.197  27.993  1.00  0.00     0.198 A 
ATOM     89  F   UNL A   1      37.814  33.554  28.827  1.00  0.00    -0.203 F 
ATOM     90  F   UNL A   1      33.556  30.238  28.041  1.00  0.00    -0.200 F 
ATOM     91  C   UNL A   1      34.557  32.361  27.786  1.00  0.00     0.200 A 
ATOM     92  F   UNL A   1      35.609  34.462  27.549  1.00  0.00    -0.200 F 
ATOM     93  F   UNL A   1      33.482  32.807  27.124  1.00  0.00    -0.200 F 
ENDBRANCH  59  83
BRANCH  71  94
ATOM     94  C   UNL A   1      39.716  32.872  35.343  1.00  0.00     0.064 A 
ATOM     95  C   UNL A   1      38.835  32.534  36.381  1.00  0.00     0.173 A 
ATOM     96  C   UNL A   1      40.303  34.146  35.368  1.00  0.00     0.173 A 
ATOM     97  F   UNL A   1      38.235  31.334  36.393  1.00  0.00    -0.203 F 
ATOM     98  C   UNL A   1      38.539  33.444  37.392  1.00  0.00     0.198 A 
ATOM     99  C   UNL A   1      40.031  35.040  36.400  1.00  0.00     0.198 A 
ATOM    100  F   UNL A   1      41.158  34.516  34.404  1.00  0.00    -0.203 F 
ATOM    101  F   UNL A   1      37.659  33.117  38.348  1.00  0.00    -0.200 F 
ATOM    102  C   UNL A   1      39.144  34.692  37.406  1.00  0.00     0.200 A 
ATOM    103  F   UNL A   1      40.630  36.239  36.420  1.00  0.00    -0.200 F 
ATOM    104  F   UNL A   1      38.868  35.561  38.387  1.00  0.00    -0.200 F 
ENDBRANCH  71  94
ENDBRANCH  45  46
ENDBRANCH  38  40
ENDBRANCH  37  38
ENDBRANCH  36  37
ENDBRANCH   1  36
TORSDOF 15
ENDMDL
MODEL 3
REMARK VINA RESULT:     -13.7      2.880      8.091
REMARK SMILES CC1(C)O[C@@H]2C[C@@H]3[C@H]4CCC5=CC(=O)C=C[C@@]5(C)[C@]4(F)[C@H](O)C[C@]3(C)[C@]2(C(=O)OCCOCCOC(=O)c2ccc(-c3c4nc(c(-c5c(F)c(F)c(F)c(F)c5F)c5ccc([nH]5)c(-c5c(F)c(F)c(F)c(F)c5F)c5nc(c(-c6c(F)c(F)c(F)c(F)c6F)c6ccc3[nH]6)C=C5)C=C4)cc2)O1
REMARK SMILES IDX 33 1 32 2 31 3 30 4 29 5 27 6 28 7 26 8 1 9 2 10 4 11 101 12
REMARK SMILES IDX 3 13 5 14 6 15 24 16 7 17 23 18 25 19 8 20 21 21 9 22 19 23
REMARK SMILES IDX 10 24 17 25 20 26 11 27 16 28 18 29 12 30 15 31 13 32 14 33
REMARK SMILES IDX 22 34 34 36 35 37 36 38 37 39 38 40 39 41 100 42 40 43 99 44
REMARK SMILES IDX 41 45 42 46 43 47 93 48 44 49 98 50 92 51 94 52 45 53 97 54
REMARK SMILES IDX 91 55 90 56 46 58 78 59 58 60 77 61 59 62 62 63 76 64 95 65
REMARK SMILES IDX 60 66 61 67 75 69 96 70 63 71 47 72 48 73 56 74 49 75 50 76
REMARK SMILES IDX 54 77 57 78 51 79 52 80 55 81 53 82 79 83 80 84 88 85 81 86
REMARK SMILES IDX 82 87 86 88 89 89 83 90 84 91 87 92 85 93 64 94 65 95 73 96
REMARK SMILES IDX 66 97 67 98 71 99 74 100 68 101 69 102 72 103 70 104
REMARK H PARENT 22 35 94 57 62 68
REMARK Flexibility Score: inf
ROOT
ATOM      1  C   UNL A   1      32.900  29.540  24.937  1.00  0.00     0.202 C 
ENDROOT
BRANCH   1   2
ATOM      2  O   UNL A   1      32.437  29.096  23.668  1.00  0.00    -0.374 OA
BRANCH   2   3
ATOM      3  C   UNL A   1      31.049  28.962  23.421  1.00  0.00     0.202 C 
BRANCH   3   4
ATOM      4  C   UNL A   1      30.297  27.622  23.627  1.00  0.00     0.261 C 
BRANCH   4   5
ATOM      5  O   UNL A   1      30.497  26.901  24.861  1.00  0.00    -0.461 OA
BRANCH   5   6
ATOM      6  C   UNL A   1      30.697  25.593  24.597  1.00  0.00     0.341 C 
ATOM      7  O   UNL A   1      29.752  24.841  24.360  1.00  0.00    -0.249 OA
BRANCH   6   8
ATOM      8  C   UNL A   1      32.134  25.079  24.516  1.00  0.00     0.200 C 
ATOM      9  C   UNL A   1      32.789  25.663  21.277  1.00  0.00     0.075 C 
ATOM     10  C   UNL A   1      33.277  24.836  22.457  1.00  0.00     0.165 C 
ATOM     11  O   UNL A   1      34.074  25.742  23.212  1.00  0.00    -0.344 OA
ATOM     12  O   UNL A   1      32.224  24.288  23.286  1.00  0.00    -0.329 OA
ATOM     13  C   UNL A   1      34.105  23.695  21.836  1.00  0.00     0.075 C 
ATOM     14  C   UNL A   1      33.457  25.921  24.497  1.00  0.00     0.166 C 
ATOM     15  C   UNL A   1      34.485  25.198  25.503  1.00  0.00     0.040 C 
ATOM     16  C   UNL A   1      32.344  24.258  25.885  1.00  0.00     0.016 C 
ATOM     17  C   UNL A   1      33.807  23.813  25.641  1.00  0.00     0.008 C 
ATOM     18  C   UNL A   1      31.474  23.081  26.377  1.00  0.00     0.046 C 
ATOM     19  C   UNL A   1      32.177  25.293  27.072  1.00  0.00     0.015 C 
ATOM     20  C   UNL A   1      34.052  22.304  25.269  1.00  0.00     0.035 C 
ATOM     21  C   UNL A   1      31.594  21.785  25.625  1.00  0.00     0.154 C 
ATOM     22  C   UNL A   1      35.499  21.844  25.384  1.00  0.00     0.012 C 
ATOM     23  C   UNL A   1      33.044  21.245  25.748  1.00  0.00     0.152 C 
ATOM     24  C   UNL A   1      35.703  20.615  24.490  1.00  0.00     0.032 C 
ATOM     25  C   UNL A   1      33.243  19.870  24.980  1.00  0.00     0.044 C 
ATOM     26  F   UNL A   1      33.307  21.047  27.081  1.00  0.00    -0.239 F 
ATOM     27  C   UNL A   1      34.718  19.502  24.756  1.00  0.00    -0.053 C 
ATOM     28  C   UNL A   1      32.547  18.737  25.732  1.00  0.00    -0.009 C 
ATOM     29  C   UNL A   1      32.600  19.871  23.556  1.00  0.00     0.024 C 
ATOM     30  C   UNL A   1      35.089  18.211  24.652  1.00  0.00     0.052 C 
ATOM     31  C   UNL A   1      32.829  17.451  25.486  1.00  0.00     0.048 C 
ATOM     32  C   UNL A   1      34.088  17.117  24.783  1.00  0.00     0.178 C 
ATOM     33  O   UNL A   1      34.331  15.977  24.410  1.00  0.00    -0.290 OA
BRANCH  21  34
ATOM     34  O   UNL A   1      31.100  21.974  24.305  1.00  0.00    -0.390 OA
ATOM     35  H   UNL A   1      31.273  22.886  24.023  1.00  0.00     0.211 HD
ENDBRANCH  21  34
ENDBRANCH   6   8
ENDBRANCH   5   6
ENDBRANCH   4   5
ENDBRANCH   3   4
ENDBRANCH   2   3
ENDBRANCH   1   2
BRANCH   1  36
ATOM     36  C   UNL A   1      31.968  30.350  25.845  1.00  0.00     0.261 C 
BRANCH  36  37
ATOM     37  O   UNL A   1      32.469  30.520  27.182  1.00  0.00    -0.460 OA
BRANCH  37  38
ATOM     38  C   UNL A   1      33.208  31.643  27.357  1.00  0.00     0.338 C 
ATOM     39  O   UNL A   1      32.829  32.797  27.319  1.00  0.00    -0.246 OA
BRANCH  38  40
ATOM     40  C   UNL A   1      34.564  31.288  27.804  1.00  0.00     0.060 A 
ATOM     41  C   UNL A   1      34.810  29.954  28.162  1.00  0.00     0.016 A 
ATOM     42  C   UNL A   1      35.533  32.271  27.994  1.00  0.00     0.016 A 
ATOM     43  C   UNL A   1      36.026  29.599  28.733  1.00  0.00     0.010 A 
ATOM     44  C   UNL A   1      36.746  31.917  28.591  1.00  0.00     0.010 A 
ATOM     45  C   UNL A   1      36.984  30.588  28.987  1.00  0.00    -0.014 A 
BRANCH  45  46
ATOM     46  C   UNL A   1      38.173  30.255  29.800  1.00  0.00     0.031 A 
ATOM     47  C   UNL A   1      39.189  29.301  29.244  1.00  0.00     0.074 A 
ATOM     48  C   UNL A   1      38.345  30.813  31.011  1.00  0.00     0.049 A 
ATOM     49  N   UNL A   1      40.257  28.800  29.810  1.00  0.00    -0.248 NA
ATOM     50  C   UNL A   1      38.970  28.849  27.860  1.00  0.00     0.031 C 
ATOM     51  C   UNL A   1      37.450  31.795  31.619  1.00  0.00     0.029 A 
ATOM     52  N   UNL A   1      39.325  30.620  31.949  1.00  0.00    -0.354 N 
ATOM     53  C   UNL A   1      40.830  27.966  28.859  1.00  0.00     0.074 A 
ATOM     54  C   UNL A   1      39.980  28.008  27.688  1.00  0.00     0.031 C 
ATOM     55  C   UNL A   1      37.911  32.105  32.842  1.00  0.00     0.029 A 
ATOM     56  C   UNL A   1      39.108  31.310  33.114  1.00  0.00     0.049 A 
ATOM     57  H   UNL A   1      40.109  30.043  31.801  1.00  0.00     0.167 HD
ATOM     58  C   UNL A   1      41.964  27.234  28.959  1.00  0.00     0.037 A 
ATOM     59  C   UNL A   1      39.782  31.273  34.280  1.00  0.00     0.037 A 
ATOM     60  C   UNL A   1      42.798  27.202  30.132  1.00  0.00     0.049 A 
ATOM     61  C   UNL A   1      40.992  30.382  34.396  1.00  0.00     0.074 A 
ATOM     62  C   UNL A   1      43.979  26.511  30.333  1.00  0.00     0.029 A 
ATOM     63  N   UNL A   1      42.529  27.886  31.309  1.00  0.00    -0.354 N 
ATOM     64  N   UNL A   1      41.540  29.608  33.490  1.00  0.00    -0.248 NA
ATOM     65  C   UNL A   1      41.674  30.358  35.696  1.00  0.00     0.031 C 
ATOM     66  C   UNL A   1      44.391  26.727  31.652  1.00  0.00     0.029 A 
ATOM     67  C   UNL A   1      43.502  27.605  32.253  1.00  0.00     0.049 A 
ATOM     68  H   UNL A   1      41.759  28.483  31.453  1.00  0.00     0.167 HD
ATOM     69  C   UNL A   1      42.645  29.027  34.100  1.00  0.00     0.074 A 
ATOM     70  C   UNL A   1      42.697  29.551  35.450  1.00  0.00     0.031 C 
ATOM     71  C   UNL A   1      43.537  28.142  33.590  1.00  0.00     0.037 A 
BRANCH  58  72
ATOM     72  C   UNL A   1      42.351  26.383  27.784  1.00  0.00     0.064 A 
ATOM     73  C   UNL A   1      43.314  26.797  26.851  1.00  0.00     0.173 A 
ATOM     74  C   UNL A   1      41.769  25.117  27.607  1.00  0.00     0.173 A 
ATOM     75  F   UNL A   1      43.890  28.003  26.967  1.00  0.00    -0.203 F 
ATOM     76  C   UNL A   1      43.661  25.988  25.772  1.00  0.00     0.198 A 
ATOM     77  C   UNL A   1      42.142  24.299  26.544  1.00  0.00     0.198 A 
ATOM     78  F   UNL A   1      40.844  24.671  28.469  1.00  0.00    -0.203 F 
ATOM     79  F   UNL A   1      44.548  26.425  24.867  1.00  0.00    -0.200 F 
ATOM     80  C   UNL A   1      43.081  24.737  25.624  1.00  0.00     0.200 A 
ATOM     81  F   UNL A   1      41.589  23.085  26.410  1.00  0.00    -0.200 F 
ATOM     82  F   UNL A   1      43.423  23.957  24.589  1.00  0.00    -0.200 F 
ENDBRANCH  58  72
BRANCH  59  83
ATOM     83  C   UNL A   1      39.313  32.082  35.435  1.00  0.00     0.064 A 
ATOM     84  C   UNL A   1      39.678  33.428  35.572  1.00  0.00     0.173 A 
ATOM     85  C   UNL A   1      38.500  31.522  36.434  1.00  0.00     0.173 A 
ATOM     86  F   UNL A   1      40.471  34.002  34.656  1.00  0.00    -0.203 F 
ATOM     87  C   UNL A   1      39.264  34.178  36.672  1.00  0.00     0.198 A 
ATOM     88  C   UNL A   1      38.061  32.281  37.515  1.00  0.00     0.198 A 
ATOM     89  F   UNL A   1      38.122  30.238  36.351  1.00  0.00    -0.203 F 
ATOM     90  F   UNL A   1      39.666  35.450  36.802  1.00  0.00    -0.200 F 
ATOM     91  C   UNL A   1      38.451  33.607  37.639  1.00  0.00     0.200 A 
ATOM     92  F   UNL A   1      37.262  31.729  38.439  1.00  0.00    -0.200 F 
ATOM     93  F   UNL A   1      38.048  34.329  38.693  1.00  0.00    -0.200 F 
ENDBRANCH  59  83
BRANCH  71  94
ATOM     94  C   UNL A   1      44.665  27.707  34.483  1.00  0.00     0.064 A 
ATOM     95  C   UNL A   1      45.860  28.436  34.569  1.00  0.00     0.173 A 
ATOM     96  C   UNL A   1      44.525  26.575  35.300  1.00  0.00     0.173 A 
ATOM     97  F   UNL A   1      46.048  29.516  33.796  1.00  0.00    -0.203 F 
ATOM     98  C   UNL A   1      46.882  28.034  35.423  1.00  0.00     0.198 A 
ATOM     99  C   UNL A   1      45.537  26.196  36.178  1.00  0.00     0.198 A 
ATOM    100  F   UNL A   1      43.400  25.847  35.262  1.00  0.00    -0.203 F 
ATOM    101  F   UNL A   1      48.034  28.719  35.455  1.00  0.00    -0.200 F 
ATOM    102  C   UNL A   1      46.717  26.921  36.234  1.00  0.00     0.200 A 
ATOM    103  F   UNL A   1      45.367  25.130  36.973  1.00  0.00    -0.200 F 
ATOM    104  F   UNL A   1      47.697  26.544  37.065  1.00  0.00    -0.200 F 
ENDBRANCH  71  94
ENDBRANCH  45  46
ENDBRANCH  38  40
ENDBRANCH  37  38
ENDBRANCH  36  37
ENDBRANCH   1  36
TORSDOF 15
ENDMDL
