MODEL 1
REMARK VINA RESULT:     -12.2      0.000      0.000
REMARK SMILES C[C@H]1CCC[C@]1(C(=O)OCCOCCOC(=O)c1ccc(-c2c3nc(c(-c4c(F)c(F)c(F)c(F)c4F)c4ccc([nH]4)c(-c4c(F)c(F)c(F)c(F)c4F)c4nc(c(-c5c(F)c(F)c(F)c(F)c5F)c5ccc2[nH]5)C=C4)C=C3)cc1)c1ccc2c(c1)OCO2
REMARK SMILES IDX 13 1 12 2 11 3 10 4 9 5 7 6 8 7 6 8 1 9 2 10 3 11 4 12 5 13
REMARK SMILES IDX 81 14 82 15 86 16 83 17 85 18 84 19 87 20 89 21 88 22 14 23
REMARK SMILES IDX 15 24 16 25 17 26 18 27 19 28 80 29 20 30 79 31 21 32 22 33
REMARK SMILES IDX 23 34 73 35 24 36 78 37 72 38 74 39 25 40 77 41 71 42 70 43
REMARK SMILES IDX 26 45 58 46 38 47 57 48 39 49 42 50 56 51 75 52 40 53 41 54
REMARK SMILES IDX 55 56 76 57 43 58 27 59 28 60 36 61 29 62 30 63 34 64 37 65
REMARK SMILES IDX 31 66 32 67 35 68 33 69 59 70 60 71 68 72 61 73 62 74 66 75
REMARK SMILES IDX 69 76 63 77 64 78 67 79 65 80 44 81 45 82 53 83 46 84 47 85
REMARK SMILES IDX 51 86 54 87 48 88 49 89 52 90 50 91
REMARK H PARENT 74 44 42 55
REMARK Flexibility Score: inf
ROOT
ATOM      1  C   UNL A   1      31.258  31.211  25.913  1.00  0.00     0.202 C 
ENDROOT
BRANCH   1   2
ATOM      2  O   UNL A   1      31.861  29.939  26.150  1.00  0.00    -0.374 OA
BRANCH   2   3
ATOM      3  C   UNL A   1      32.903  29.533  25.271  1.00  0.00     0.202 C 
BRANCH   3   4
ATOM      4  C   UNL A   1      33.637  28.227  25.593  1.00  0.00     0.261 C 
BRANCH   4   5
ATOM      5  O   UNL A   1      32.777  27.095  25.818  1.00  0.00    -0.463 OA
BRANCH   5   6
ATOM      6  C   UNL A   1      32.551  26.328  24.717  1.00  0.00     0.316 C 
ATOM      7  O   UNL A   1      33.383  26.171  23.825  1.00  0.00    -0.251 OA
BRANCH   6   8
ATOM      8  C   UNL A   1      31.116  25.748  24.618  1.00  0.00     0.096 C 
ATOM      9  C   UNL A   1      31.444  23.928  22.714  1.00  0.00     0.009 C 
ATOM     10  C   UNL A   1      30.882  24.305  24.074  1.00  0.00     0.008 C 
ATOM     11  C   UNL A   1      31.336  23.377  25.188  1.00  0.00     0.005 C 
ATOM     12  C   UNL A   1      30.861  24.075  26.453  1.00  0.00     0.002 C 
ATOM     13  C   UNL A   1      30.715  25.570  26.118  1.00  0.00     0.024 C 
BRANCH   8  14
ATOM     14  C   UNL A   1      30.197  26.686  23.792  1.00  0.00    -0.027 A 
ATOM     15  C   UNL A   1      28.790  26.702  24.010  1.00  0.00     0.009 A 
ATOM     16  C   UNL A   1      30.743  27.670  22.944  1.00  0.00     0.055 A 
ATOM     17  C   UNL A   1      27.960  27.674  23.437  1.00  0.00     0.051 A 
ATOM     18  C   UNL A   1      29.905  28.634  22.419  1.00  0.00     0.166 A 
ATOM     19  C   UNL A   1      28.554  28.641  22.668  1.00  0.00     0.165 A 
ATOM     20  O   UNL A   1      30.299  29.700  21.671  1.00  0.00    -0.454 OA
ATOM     21  O   UNL A   1      27.930  29.713  22.110  1.00  0.00    -0.454 OA
ATOM     22  C   UNL A   1      29.066  30.447  21.612  1.00  0.00     0.468 C 
ENDBRANCH   8  14
ENDBRANCH   6   8
ENDBRANCH   5   6
ENDBRANCH   4   5
ENDBRANCH   3   4
ENDBRANCH   2   3
ENDBRANCH   1   2
BRANCH   1  23
ATOM     23  C   UNL A   1      31.709  32.369  26.811  1.00  0.00     0.261 C 
BRANCH  23  24
ATOM     24  O   UNL A   1      32.823  31.990  27.646  1.00  0.00    -0.460 OA
BRANCH  24  25
ATOM     25  C   UNL A   1      33.711  32.982  27.883  1.00  0.00     0.338 C 
ATOM     26  O   UNL A   1      33.469  34.154  28.110  1.00  0.00    -0.246 OA
BRANCH  25  27
ATOM     27  C   UNL A   1      35.073  32.431  28.022  1.00  0.00     0.060 A 
ATOM     28  C   UNL A   1      35.192  31.038  28.081  1.00  0.00     0.016 A 
ATOM     29  C   UNL A   1      36.183  33.250  28.243  1.00  0.00     0.016 A 
ATOM     30  C   UNL A   1      36.399  30.456  28.456  1.00  0.00     0.010 A 
ATOM     31  C   UNL A   1      37.397  32.664  28.626  1.00  0.00     0.010 A 
ATOM     32  C   UNL A   1      37.488  31.270  28.794  1.00  0.00    -0.014 A 
BRANCH  32  33
ATOM     33  C   UNL A   1      38.615  30.660  29.544  1.00  0.00     0.031 A 
ATOM     34  C   UNL A   1      38.798  31.029  30.994  1.00  0.00     0.074 A 
ATOM     35  C   UNL A   1      39.400  29.724  28.982  1.00  0.00     0.049 A 
ATOM     36  N   UNL A   1      39.670  30.587  31.864  1.00  0.00    -0.248 NA
ATOM     37  C   UNL A   1      37.864  32.029  31.537  1.00  0.00     0.031 C 
ATOM     38  C   UNL A   1      39.292  29.249  27.606  1.00  0.00     0.029 A 
ATOM     39  N   UNL A   1      40.438  28.999  29.511  1.00  0.00    -0.354 N 
ATOM     40  C   UNL A   1      39.392  31.254  33.051  1.00  0.00     0.074 A 
ATOM     41  C   UNL A   1      38.295  32.158  32.783  1.00  0.00     0.031 C 
ATOM     42  C   UNL A   1      40.227  28.305  27.399  1.00  0.00     0.029 A 
ATOM     43  C   UNL A   1      41.011  28.127  28.620  1.00  0.00     0.049 A 
ATOM     44  H   UNL A   1      40.743  29.095  30.443  1.00  0.00     0.167 HD
ATOM     45  C   UNL A   1      39.986  31.119  34.260  1.00  0.00     0.037 A 
ATOM     46  C   UNL A   1      42.050  27.284  28.776  1.00  0.00     0.037 A 
ATOM     47  C   UNL A   1      41.073  30.215  34.531  1.00  0.00     0.049 A 
ATOM     48  C   UNL A   1      42.727  27.185  30.119  1.00  0.00     0.074 A 
ATOM     49  C   UNL A   1      41.748  30.007  35.720  1.00  0.00     0.029 A 
ATOM     50  N   UNL A   1      41.643  29.368  33.592  1.00  0.00    -0.354 N 
ATOM     51  N   UNL A   1      42.449  27.812  31.236  1.00  0.00    -0.248 NA
ATOM     52  C   UNL A   1      43.855  26.248  30.223  1.00  0.00     0.031 C 
ATOM     53  C   UNL A   1      42.754  29.060  35.491  1.00  0.00     0.029 A 
ATOM     54  C   UNL A   1      42.672  28.644  34.172  1.00  0.00     0.049 A 
ATOM     55  H   UNL A   1      41.359  29.293  32.652  1.00  0.00     0.167 HD
ATOM     56  C   UNL A   1      43.342  27.324  32.182  1.00  0.00     0.074 A 
ATOM     57  C   UNL A   1      44.165  26.340  31.509  1.00  0.00     0.031 C 
ATOM     58  C   UNL A   1      43.468  27.657  33.490  1.00  0.00     0.037 A 
BRANCH  45  59
ATOM     59  C   UNL A   1      39.487  31.988  35.376  1.00  0.00     0.064 A 
ATOM     60  C   UNL A   1      38.563  31.517  36.321  1.00  0.00     0.173 A 
ATOM     61  C   UNL A   1      39.952  33.305  35.513  1.00  0.00     0.173 A 
ATOM     62  F   UNL A   1      38.073  30.272  36.224  1.00  0.00    -0.203 F 
ATOM     63  C   UNL A   1      38.104  32.340  37.346  1.00  0.00     0.198 A 
ATOM     64  C   UNL A   1      39.512  34.116  36.555  1.00  0.00     0.198 A 
ATOM     65  F   UNL A   1      40.837  33.803  34.636  1.00  0.00    -0.203 F 
ATOM     66  F   UNL A   1      37.185  31.885  38.210  1.00  0.00    -0.200 F 
ATOM     67  C   UNL A   1      38.583  33.636  37.466  1.00  0.00     0.200 A 
ATOM     68  F   UNL A   1      39.985  35.364  36.675  1.00  0.00    -0.200 F 
ATOM     69  F   UNL A   1      38.144  34.426  38.456  1.00  0.00    -0.200 F 
ENDBRANCH  45  59
BRANCH  46  70
ATOM     70  C   UNL A   1      42.514  26.460  27.630  1.00  0.00     0.064 A 
ATOM     71  C   UNL A   1      43.530  26.911  26.775  1.00  0.00     0.173 A 
ATOM     72  C   UNL A   1      41.940  25.211  27.358  1.00  0.00     0.173 A 
ATOM     73  F   UNL A   1      44.093  28.111  26.979  1.00  0.00    -0.203 F 
ATOM     74  C   UNL A   1      43.939  26.152  25.680  1.00  0.00     0.198 A 
ATOM     75  C   UNL A   1      42.368  24.440  26.279  1.00  0.00     0.198 A 
ATOM     76  F   UNL A   1      40.963  24.734  28.144  1.00  0.00    -0.203 F 
ATOM     77  F   UNL A   1      44.879  26.627  24.852  1.00  0.00    -0.200 F 
ATOM     78  C   UNL A   1      43.362  24.914  25.436  1.00  0.00     0.200 A 
ATOM     79  F   UNL A   1      41.814  23.241  26.054  1.00  0.00    -0.200 F 
ATOM     80  F   UNL A   1      43.757  24.184  24.385  1.00  0.00    -0.200 F 
ENDBRANCH  46  70
BRANCH  58  81
ATOM     81  C   UNL A   1      44.498  26.916  34.294  1.00  0.00     0.064 A 
ATOM     82  C   UNL A   1      45.795  27.418  34.476  1.00  0.00     0.173 A 
ATOM     83  C   UNL A   1      44.170  25.700  34.914  1.00  0.00     0.173 A 
ATOM     84  F   UNL A   1      46.161  28.569  33.895  1.00  0.00    -0.203 F 
ATOM     85  C   UNL A   1      46.734  26.714  35.225  1.00  0.00     0.198 A 
ATOM     86  C   UNL A   1      45.103  25.014  35.686  1.00  0.00     0.198 A 
ATOM     87  F   UNL A   1      42.941  25.181  34.777  1.00  0.00    -0.203 F 
ATOM     88  F   UNL A   1      47.983  27.187  35.344  1.00  0.00    -0.200 F 
ATOM     89  C   UNL A   1      46.387  25.516  35.833  1.00  0.00     0.200 A 
ATOM     90  F   UNL A   1      44.761  23.865  36.283  1.00  0.00    -0.200 F 
ATOM     91  F   UNL A   1      47.293  24.842  36.554  1.00  0.00    -0.200 F 
ENDBRANCH  58  81
ENDBRANCH  32  33
ENDBRANCH  25  27
ENDBRANCH  24  25
ENDBRANCH  23  24
ENDBRANCH   1  23
TORSDOF 15
ENDMDL
MODEL 2
REMARK VINA RESULT:     -12.1      0.567      1.805
REMARK SMILES C[C@H]1CCC[C@]1(C(=O)OCCOCCOC(=O)c1ccc(-c2c3nc(c(-c4c(F)c(F)c(F)c(F)c4F)c4ccc([nH]4)c(-c4c(F)c(F)c(F)c(F)c4F)c4nc(c(-c5c(F)c(F)c(F)c(F)c5F)c5ccc2[nH]5)C=C4)C=C3)cc1)c1ccc2c(c1)OCO2
REMARK SMILES IDX 13 1 12 2 11 3 10 4 9 5 7 6 8 7 6 8 1 9 2 10 3 11 4 12 5 13
REMARK SMILES IDX 81 14 82 15 86 16 83 17 85 18 84 19 87 20 89 21 88 22 14 23
REMARK SMILES IDX 15 24 16 25 17 26 18 27 19 28 80 29 20 30 79 31 21 32 22 33
REMARK SMILES IDX 23 34 73 35 24 36 78 37 72 38 74 39 25 40 77 41 71 42 70 43
REMARK SMILES IDX 26 45 58 46 38 47 57 48 39 49 42 50 56 51 75 52 40 53 41 54
REMARK SMILES IDX 55 56 76 57 43 58 27 59 28 60 36 61 29 62 30 63 34 64 37 65
REMARK SMILES IDX 31 66 32 67 35 68 33 69 59 70 60 71 68 72 61 73 62 74 66 75
REMARK SMILES IDX 69 76 63 77 64 78 67 79 65 80 44 81 45 82 53 83 46 84 47 85
REMARK SMILES IDX 51 86 54 87 48 88 49 89 52 90 50 91
REMARK H PARENT 74 44 42 55
REMARK Flexibility Score: inf
ROOT
ATOM      1  C   UNL A   1      31.400  31.538  26.448  1.00  0.00     0.202 C 
ENDROOT
BRANCH   1   2
ATOM      2  O   UNL A   1      32.084  30.359  26.872  1.00  0.00    -0.374 OA
BRANCH   2   3
ATOM      3  C   UNL A   1      33.138  29.878  26.046  1.00  0.00     0.202 C 
BRANCH   3   4
ATOM      4  C   UNL A   1      33.752  28.518  26.395  1.00  0.00     0.261 C 
BRANCH   4   5
ATOM      5  O   UNL A   1      32.813  27.428  26.433  1.00  0.00    -0.463 OA
BRANCH   5   6
ATOM      6  C   UNL A   1      32.795  26.657  25.312  1.00  0.00     0.316 C 
ATOM      7  O   UNL A   1      33.816  26.275  24.743  1.00  0.00    -0.251 OA
BRANCH   6   8
ATOM      8  C   UNL A   1      31.380  26.384  24.739  1.00  0.00     0.096 C 
ATOM      9  C   UNL A   1      31.973  24.868  22.644  1.00  0.00     0.009 C 
ATOM     10  C   UNL A   1      31.109  25.119  23.867  1.00  0.00     0.008 C 
ATOM     11  C   UNL A   1      31.098  23.954  24.843  1.00  0.00     0.005 C 
ATOM     12  C   UNL A   1      30.388  24.516  26.064  1.00  0.00     0.002 C 
ATOM     13  C   UNL A   1      30.552  26.045  26.021  1.00  0.00     0.024 C 
BRANCH   8  14
ATOM     14  C   UNL A   1      30.870  27.601  23.924  1.00  0.00    -0.027 A 
ATOM     15  C   UNL A   1      31.757  28.340  23.089  1.00  0.00     0.009 A 
ATOM     16  C   UNL A   1      29.494  27.895  23.844  1.00  0.00     0.055 A 
ATOM     17  C   UNL A   1      31.296  29.306  22.186  1.00  0.00     0.051 A 
ATOM     18  C   UNL A   1      29.066  28.830  22.923  1.00  0.00     0.166 A 
ATOM     19  C   UNL A   1      29.941  29.508  22.110  1.00  0.00     0.165 A 
ATOM     20  O   UNL A   1      27.768  29.143  22.661  1.00  0.00    -0.454 OA
ATOM     21  O   UNL A   1      29.304  30.329  21.234  1.00  0.00    -0.454 OA
ATOM     22  C   UNL A   1      27.931  29.976  21.494  1.00  0.00     0.468 C 
ENDBRANCH   8  14
ENDBRANCH   6   8
ENDBRANCH   5   6
ENDBRANCH   4   5
ENDBRANCH   3   4
ENDBRANCH   2   3
ENDBRANCH   1   2
BRANCH   1  23
ATOM     23  C   UNL A   1      32.020  32.881  26.852  1.00  0.00     0.261 C 
BRANCH  23  24
ATOM     24  O   UNL A   1      32.768  32.771  28.081  1.00  0.00    -0.460 OA
BRANCH  24  25
ATOM     25  C   UNL A   1      33.792  33.648  28.195  1.00  0.00     0.338 C 
ATOM     26  O   UNL A   1      33.720  34.854  28.352  1.00  0.00    -0.246 OA
BRANCH  25  27
ATOM     27  C   UNL A   1      35.077  32.929  28.295  1.00  0.00     0.060 A 
ATOM     28  C   UNL A   1      35.018  31.558  28.567  1.00  0.00     0.016 A 
ATOM     29  C   UNL A   1      36.302  33.599  28.276  1.00  0.00     0.016 A 
ATOM     30  C   UNL A   1      36.173  30.866  28.917  1.00  0.00     0.010 A 
ATOM     31  C   UNL A   1      37.464  32.904  28.635  1.00  0.00     0.010 A 
ATOM     32  C   UNL A   1      37.391  31.551  29.018  1.00  0.00    -0.014 A 
BRANCH  32  33
ATOM     33  C   UNL A   1      38.507  30.899  29.748  1.00  0.00     0.031 A 
ATOM     34  C   UNL A   1      38.701  31.228  31.207  1.00  0.00     0.074 A 
ATOM     35  C   UNL A   1      39.270  29.961  29.162  1.00  0.00     0.049 A 
ATOM     36  N   UNL A   1      39.565  30.746  32.063  1.00  0.00    -0.248 NA
ATOM     37  C   UNL A   1      37.790  32.234  31.777  1.00  0.00     0.031 C 
ATOM     38  C   UNL A   1      39.148  29.523  27.774  1.00  0.00     0.029 A 
ATOM     39  N   UNL A   1      40.293  29.201  29.669  1.00  0.00    -0.354 N 
ATOM     40  C   UNL A   1      39.305  31.389  33.267  1.00  0.00     0.074 A 
ATOM     41  C   UNL A   1      38.226  32.322  33.025  1.00  0.00     0.031 C 
ATOM     42  C   UNL A   1      40.063  28.564  27.540  1.00  0.00     0.029 A 
ATOM     43  C   UNL A   1      40.845  28.339  28.755  1.00  0.00     0.049 A 
ATOM     44  H   UNL A   1      40.603  29.267  30.602  1.00  0.00     0.167 HD
ATOM     45  C   UNL A   1      39.899  31.211  34.470  1.00  0.00     0.037 A 
ATOM     46  C   UNL A   1      41.867  27.471  28.886  1.00  0.00     0.037 A 
ATOM     47  C   UNL A   1      40.967  30.278  34.716  1.00  0.00     0.049 A 
ATOM     48  C   UNL A   1      42.545  27.324  30.225  1.00  0.00     0.074 A 
ATOM     49  C   UNL A   1      41.640  30.026  35.897  1.00  0.00     0.029 A 
ATOM     50  N   UNL A   1      41.516  29.442  33.754  1.00  0.00    -0.354 N 
ATOM     51  N   UNL A   1      42.283  27.929  31.358  1.00  0.00    -0.248 NA
ATOM     52  C   UNL A   1      43.653  26.361  30.302  1.00  0.00     0.031 C 
ATOM     53  C   UNL A   1      42.625  29.064  35.642  1.00  0.00     0.029 A 
ATOM     54  C   UNL A   1      42.531  28.682  34.313  1.00  0.00     0.049 A 
ATOM     55  H   UNL A   1      41.229  29.397  32.813  1.00  0.00     0.167 HD
ATOM     56  C   UNL A   1      43.167  27.399  32.289  1.00  0.00     0.074 A 
ATOM     57  C   UNL A   1      43.967  26.414  31.589  1.00  0.00     0.031 C 
ATOM     58  C   UNL A   1      43.304  27.695  33.604  1.00  0.00     0.037 A 
BRANCH  45  59
ATOM     59  C   UNL A   1      39.421  32.063  35.610  1.00  0.00     0.064 A 
ATOM     60  C   UNL A   1      39.892  33.370  35.801  1.00  0.00     0.173 A 
ATOM     61  C   UNL A   1      38.465  31.571  36.511  1.00  0.00     0.173 A 
ATOM     62  F   UNL A   1      40.821  33.880  34.978  1.00  0.00    -0.203 F 
ATOM     63  C   UNL A   1      39.444  34.144  36.868  1.00  0.00     0.198 A 
ATOM     64  C   UNL A   1      37.998  32.357  37.560  1.00  0.00     0.198 A 
ATOM     65  F   UNL A   1      37.980  30.327  36.371  1.00  0.00    -0.203 F 
ATOM     66  F   UNL A   1      39.944  35.373  37.060  1.00  0.00    -0.200 F 
ATOM     67  C   UNL A   1      38.493  33.640  37.743  1.00  0.00     0.200 A 
ATOM     68  F   UNL A   1      37.071  31.872  38.398  1.00  0.00    -0.200 F 
ATOM     69  F   UNL A   1      38.058  34.387  38.767  1.00  0.00    -0.200 F 
ENDBRANCH  45  59
BRANCH  46  70
ATOM     70  C   UNL A   1      42.310  26.666  27.719  1.00  0.00     0.064 A 
ATOM     71  C   UNL A   1      41.777  25.394  27.468  1.00  0.00     0.173 A 
ATOM     72  C   UNL A   1      43.290  27.147  26.839  1.00  0.00     0.173 A 
ATOM     73  F   UNL A   1      40.856  24.880  28.297  1.00  0.00    -0.203 F 
ATOM     74  C   UNL A   1      42.221  24.626  26.393  1.00  0.00     0.198 A 
ATOM     75  C   UNL A   1      43.713  26.391  25.749  1.00  0.00     0.198 A 
ATOM     76  F   UNL A   1      43.834  28.358  27.035  1.00  0.00    -0.203 F 
ATOM     77  F   UNL A   1      41.728  23.395  26.204  1.00  0.00    -0.200 F 
ATOM     78  C   UNL A   1      43.184  25.127  25.531  1.00  0.00     0.200 A 
ATOM     79  F   UNL A   1      44.637  26.883  24.912  1.00  0.00    -0.200 F 
ATOM     80  F   UNL A   1      43.608  24.390  24.496  1.00  0.00    -0.200 F 
ENDBRANCH  46  70
BRANCH  58  81
ATOM     81  C   UNL A   1      44.320  26.913  34.387  1.00  0.00     0.064 A 
ATOM     82  C   UNL A   1      45.650  27.341  34.506  1.00  0.00     0.173 A 
ATOM     83  C   UNL A   1      43.946  25.733  35.048  1.00  0.00     0.173 A 
ATOM     84  F   UNL A   1      46.059  28.455  33.883  1.00  0.00    -0.203 F 
ATOM     85  C   UNL A   1      46.575  26.600  35.236  1.00  0.00     0.198 A 
ATOM     86  C   UNL A   1      44.867  25.011  35.801  1.00  0.00     0.198 A 
ATOM     87  F   UNL A   1      42.684  25.286  34.972  1.00  0.00    -0.203 F 
ATOM     88  F   UNL A   1      47.853  26.999  35.295  1.00  0.00    -0.200 F 
ATOM     89  C   UNL A   1      46.183  25.439  35.886  1.00  0.00     0.200 A 
ATOM     90  F   UNL A   1      44.482  23.897  36.439  1.00  0.00    -0.200 F 
ATOM     91  F   UNL A   1      47.075  24.728  36.589  1.00  0.00    -0.200 F 
ENDBRANCH  58  81
ENDBRANCH  32  33
ENDBRANCH  25  27
ENDBRANCH  24  25
ENDBRANCH  23  24
ENDBRANCH   1  23
TORSDOF 15
ENDMDL
MODEL 3
REMARK VINA RESULT:     -12.0      4.349      7.878
REMARK SMILES C[C@H]1CCC[C@]1(C(=O)OCCOCCOC(=O)c1ccc(-c2c3nc(c(-c4c(F)c(F)c(F)c(F)c4F)c4ccc([nH]4)c(-c4c(F)c(F)c(F)c(F)c4F)c4nc(c(-c5c(F)c(F)c(F)c(F)c5F)c5ccc2[nH]5)C=C4)C=C3)cc1)c1ccc2c(c1)OCO2
REMARK SMILES IDX 13 1 12 2 11 3 10 4 9 5 7 6 8 7 6 8 1 9 2 10 3 11 4 12 5 13
REMARK SMILES IDX 81 14 82 15 86 16 83 17 85 18 84 19 87 20 89 21 88 22 14 23
REMARK SMILES IDX 15 24 16 25 17 26 18 27 19 28 80 29 20 30 79 31 21 32 22 33
REMARK SMILES IDX 23 34 73 35 24 36 78 37 72 38 74 39 25 40 77 41 71 42 70 43
REMARK SMILES IDX 26 45 58 46 38 47 57 48 39 49 42 50 56 51 75 52 40 53 41 54
REMARK SMILES IDX 55 56 76 57 43 58 27 59 28 60 36 61 29 62 30 63 34 64 37 65
REMARK SMILES IDX 31 66 32 67 35 68 33 69 59 70 60 71 68 72 61 73 62 74 66 75
REMARK SMILES IDX 69 76 63 77 64 78 67 79 65 80 44 81 45 82 53 83 46 84 47 85
REMARK SMILES IDX 51 86 54 87 48 88 49 89 52 90 50 91
REMARK H PARENT 74 44 42 55
REMARK Flexibility Score: inf
ROOT
ATOM      1  C   UNL A   1      34.027  34.526  30.100  1.00  0.00     0.202 C 
ENDROOT
BRANCH   1   2
ATOM      2  O   UNL A   1      33.872  33.959  31.401  1.00  0.00    -0.374 OA
BRANCH   2   3
ATOM      3  C   UNL A   1      34.573  34.577  32.474  1.00  0.00     0.202 C 
BRANCH   3   4
ATOM      4  C   UNL A   1      36.099  34.441  32.499  1.00  0.00     0.261 C 
BRANCH   4   5
ATOM      5  O   UNL A   1      36.727  34.953  33.689  1.00  0.00    -0.463 OA
BRANCH   5   6
ATOM      6  C   UNL A   1      36.825  34.057  34.708  1.00  0.00     0.316 C 
ATOM      7  O   UNL A   1      35.881  33.767  35.440  1.00  0.00    -0.251 OA
BRANCH   6   8
ATOM      8  C   UNL A   1      38.254  33.505  34.947  1.00  0.00     0.096 C 
ATOM      9  C   UNL A   1      39.534  34.514  32.852  1.00  0.00     0.009 C 
ATOM     10  C   UNL A   1      39.495  34.234  34.344  1.00  0.00     0.008 C 
ATOM     11  C   UNL A   1      39.678  35.482  35.192  1.00  0.00     0.005 C 
ATOM     12  C   UNL A   1      39.365  35.006  36.602  1.00  0.00     0.002 C 
ATOM     13  C   UNL A   1      38.470  33.761  36.473  1.00  0.00     0.024 C 
BRANCH   8  14
ATOM     14  C   UNL A   1      38.354  32.021  34.502  1.00  0.00    -0.027 A 
ATOM     15  C   UNL A   1      37.367  31.449  33.651  1.00  0.00     0.009 A 
ATOM     16  C   UNL A   1      39.508  31.260  34.777  1.00  0.00     0.055 A 
ATOM     17  C   UNL A   1      37.531  30.188  33.066  1.00  0.00     0.051 A 
ATOM     18  C   UNL A   1      39.656  30.033  34.161  1.00  0.00     0.166 A 
ATOM     19  C   UNL A   1      38.700  29.517  33.322  1.00  0.00     0.165 A 
ATOM     20  O   UNL A   1      40.754  29.234  34.248  1.00  0.00    -0.454 OA
ATOM     21  O   UNL A   1      39.077  28.332  32.773  1.00  0.00    -0.454 OA
ATOM     22  C   UNL A   1      40.434  28.242  33.251  1.00  0.00     0.468 C 
ENDBRANCH   8  14
ENDBRANCH   6   8
ENDBRANCH   5   6
ENDBRANCH   4   5
ENDBRANCH   3   4
ENDBRANCH   2   3
ENDBRANCH   1   2
BRANCH   1  23
ATOM     23  C   UNL A   1      34.209  33.547  28.934  1.00  0.00     0.261 C 
BRANCH  23  24
ATOM     24  O   UNL A   1      34.853  32.328  29.361  1.00  0.00    -0.460 OA
BRANCH  24  25
ATOM     25  C   UNL A   1      34.640  31.266  28.551  1.00  0.00     0.338 C 
ATOM     26  O   UNL A   1      33.681  31.070  27.825  1.00  0.00    -0.246 OA
BRANCH  25  27
ATOM     27  C   UNL A   1      35.839  30.408  28.501  1.00  0.00     0.060 A 
ATOM     28  C   UNL A   1      36.166  29.704  29.665  1.00  0.00     0.016 A 
ATOM     29  C   UNL A   1      36.703  30.409  27.403  1.00  0.00     0.016 A 
ATOM     30  C   UNL A   1      37.402  29.076  29.776  1.00  0.00     0.010 A 
ATOM     31  C   UNL A   1      37.950  29.782  27.518  1.00  0.00     0.010 A 
ATOM     32  C   UNL A   1      38.327  29.169  28.728  1.00  0.00    -0.014 A 
BRANCH  32  33
ATOM     33  C   UNL A   1      39.745  28.832  29.009  1.00  0.00     0.031 A 
ATOM     34  C   UNL A   1      40.552  29.777  29.863  1.00  0.00     0.074 A 
ATOM     35  C   UNL A   1      40.280  27.669  28.602  1.00  0.00     0.049 A 
ATOM     36  N   UNL A   1      41.785  29.671  30.288  1.00  0.00    -0.248 NA
ATOM     37  C   UNL A   1      39.871  31.006  30.301  1.00  0.00     0.031 C 
ATOM     38  C   UNL A   1      39.587  26.653  27.813  1.00  0.00     0.029 A 
ATOM     39  N   UNL A   1      41.530  27.143  28.809  1.00  0.00    -0.354 N 
ATOM     40  C   UNL A   1      42.027  30.815  31.038  1.00  0.00     0.074 A 
ATOM     41  C   UNL A   1      40.827  31.621  30.982  1.00  0.00     0.031 C 
ATOM     42  C   UNL A   1      40.423  25.621  27.605  1.00  0.00     0.029 A 
ATOM     43  C   UNL A   1      41.714  25.913  28.227  1.00  0.00     0.049 A 
ATOM     44  H   UNL A   1      42.230  27.603  29.326  1.00  0.00     0.167 HD
ATOM     45  C   UNL A   1      43.142  31.160  31.725  1.00  0.00     0.037 A 
ATOM     46  C   UNL A   1      42.801  25.119  28.200  1.00  0.00     0.037 A 
ATOM     47  C   UNL A   1      44.334  30.358  31.789  1.00  0.00     0.049 A 
ATOM     48  C   UNL A   1      44.047  25.547  28.933  1.00  0.00     0.074 A 
ATOM     49  C   UNL A   1      45.519  30.620  32.452  1.00  0.00     0.029 A 
ATOM     50  N   UNL A   1      44.489  29.130  31.162  1.00  0.00    -0.354 N 
ATOM     51  N   UNL A   1      44.261  26.625  29.648  1.00  0.00    -0.248 NA
ATOM     52  C   UNL A   1      45.200  24.636  28.865  1.00  0.00     0.031 C 
ATOM     53  C   UNL A   1      46.406  29.569  32.195  1.00  0.00     0.029 A 
ATOM     54  C   UNL A   1      45.756  28.629  31.412  1.00  0.00     0.049 A 
ATOM     55  H   UNL A   1      43.800  28.681  30.618  1.00  0.00     0.167 HD
ATOM     56  C   UNL A   1      45.554  26.508  30.140  1.00  0.00     0.074 A 
ATOM     57  C   UNL A   1      46.074  25.248  29.651  1.00  0.00     0.031 C 
ATOM     58  C   UNL A   1      46.249  27.364  30.930  1.00  0.00     0.037 A 
BRANCH  45  59
ATOM     59  C   UNL A   1      43.130  32.478  32.443  1.00  0.00     0.064 A 
ATOM     60  C   UNL A   1      42.963  32.558  33.834  1.00  0.00     0.173 A 
ATOM     61  C   UNL A   1      43.307  33.675  31.733  1.00  0.00     0.173 A 
ATOM     62  F   UNL A   1      42.771  31.445  34.557  1.00  0.00    -0.203 F 
ATOM     63  C   UNL A   1      42.947  33.790  34.483  1.00  0.00     0.198 A 
ATOM     64  C   UNL A   1      43.318  34.903  32.388  1.00  0.00     0.198 A 
ATOM     65  F   UNL A   1      43.473  33.652  30.401  1.00  0.00    -0.203 F 
ATOM     66  F   UNL A   1      42.737  33.847  35.806  1.00  0.00    -0.200 F 
ATOM     67  C   UNL A   1      43.131  34.961  33.761  1.00  0.00     0.200 A 
ATOM     68  F   UNL A   1      43.507  36.031  31.691  1.00  0.00    -0.200 F 
ATOM     69  F   UNL A   1      43.120  36.146  34.388  1.00  0.00    -0.200 F 
ENDBRANCH  45  59
BRANCH  46  70
ATOM     70  C   UNL A   1      42.762  23.833  27.458  1.00  0.00     0.064 A 
ATOM     71  C   UNL A   1      43.146  23.759  26.112  1.00  0.00     0.173 A 
ATOM     72  C   UNL A   1      42.323  22.654  28.076  1.00  0.00     0.173 A 
ATOM     73  F   UNL A   1      43.550  24.865  25.469  1.00  0.00    -0.203 F 
ATOM     74  C   UNL A   1      43.075  22.558  25.407  1.00  0.00     0.198 A 
ATOM     75  C   UNL A   1      42.277  21.449  27.380  1.00  0.00     0.198 A 
ATOM     76  F   UNL A   1      41.941  22.671  29.362  1.00  0.00    -0.203 F 
ATOM     77  F   UNL A   1      43.404  22.525  24.109  1.00  0.00    -0.200 F 
ATOM     78  C   UNL A   1      42.646  21.403  26.043  1.00  0.00     0.200 A 
ATOM     79  F   UNL A   1      41.872  20.333  28.001  1.00  0.00    -0.200 F 
ATOM     80  F   UNL A   1      42.580  20.249  25.367  1.00  0.00    -0.200 F 
ENDBRANCH  46  70
BRANCH  58  81
ATOM     81  C   UNL A   1      47.627  26.945  31.356  1.00  0.00     0.064 A 
ATOM     82  C   UNL A   1      48.772  27.346  30.653  1.00  0.00     0.173 A 
ATOM     83  C   UNL A   1      47.802  26.155  32.503  1.00  0.00     0.173 A 
ATOM     84  F   UNL A   1      48.657  28.091  29.544  1.00  0.00    -0.203 F 
ATOM     85  C   UNL A   1      50.040  26.946  31.065  1.00  0.00     0.198 A 
ATOM     86  C   UNL A   1      49.073  25.782  32.929  1.00  0.00     0.198 A 
ATOM     87  F   UNL A   1      46.739  25.753  33.216  1.00  0.00    -0.203 F 
ATOM     88  F   UNL A   1      51.117  27.297  30.349  1.00  0.00    -0.200 F 
ATOM     89  C   UNL A   1      50.190  26.169  32.205  1.00  0.00     0.200 A 
ATOM     90  F   UNL A   1      49.216  25.043  34.037  1.00  0.00    -0.200 F 
ATOM     91  F   UNL A   1      51.412  25.786  32.601  1.00  0.00    -0.200 F 
ENDBRANCH  58  81
ENDBRANCH  32  33
ENDBRANCH  25  27
ENDBRANCH  24  25
ENDBRANCH  23  24
ENDBRANCH   1  23
TORSDOF 15
ENDMDL
