MODEL 1
REMARK VINA RESULT:     -11.1      0.000      0.000
REMARK SMILES Cc1[nH]c(=O)sc1S(=O)(=O)NC1(CC(=O)OCCOCCOC(=O)c2ccc(-c3c4nc(c(-c5c(F)c(F)c(F)c(F)c5F)c5ccc([nH]5)c(-c5c(F)c(F)c(F)c(F)c5F)c5nc(c(-c6c(F)c(F)c(F)c(F)c6F)c6ccc3[nH]6)C=C5)C=C4)cc2)CCC1
REMARK SMILES IDX 18 1 17 2 16 3 14 4 15 5 13 6 12 7 88 8 90 9 89 10 11 11
REMARK SMILES IDX 8 13 9 14 10 15 7 16 1 17 2 18 3 19 4 20 6 22 5 23 19 24
REMARK SMILES IDX 20 25 21 26 22 27 23 28 24 29 25 30 26 31 87 32 27 33 86 34
REMARK SMILES IDX 28 35 29 36 30 37 80 38 31 39 85 40 79 41 81 42 32 43 84 44
REMARK SMILES IDX 78 45 77 46 33 48 65 49 45 50 64 51 46 52 49 53 63 54 82 55
REMARK SMILES IDX 47 56 48 57 62 59 83 60 50 61 34 62 35 63 43 64 36 65 37 66
REMARK SMILES IDX 41 67 44 68 38 69 39 70 42 71 40 72 66 73 67 74 75 75 68 76
REMARK SMILES IDX 69 77 73 78 76 79 70 80 71 81 74 82 72 83 51 84 52 85 60 86
REMARK SMILES IDX 53 87 54 88 58 89 61 90 55 91 56 92 59 93 57 94
REMARK H PARENT 11 12 3 21 81 47 49 58
REMARK Flexibility Score: inf
ROOT
ATOM      1  C   UNL A   1      38.416  19.515  25.147  1.00  0.00     0.202 C 
ENDROOT
BRANCH   1   2
ATOM      2  C   UNL A   1      37.997  21.041  25.351  1.00  0.00     0.261 C 
BRANCH   2   3
ATOM      3  O   UNL A   1      37.427  21.716  24.147  1.00  0.00    -0.463 OA
BRANCH   3   4
ATOM      4  C   UNL A   1      36.503  22.714  24.329  1.00  0.00     0.307 C 
ATOM      5  O   UNL A   1      36.797  23.745  24.935  1.00  0.00    -0.252 OA
BRANCH   4   6
ATOM      6  C   UNL A   1      35.052  22.570  23.759  1.00  0.00     0.146 C 
BRANCH   6   7
ATOM      7  C   UNL A   1      33.719  22.322  24.543  1.00  0.00     0.044 C 
ATOM      8  C   UNL A   1      33.800  21.753  26.015  1.00  0.00     0.024 C 
ATOM      9  C   UNL A   1      33.115  20.920  24.175  1.00  0.00     0.024 C 
ATOM     10  C   UNL A   1      33.764  20.338  25.443  1.00  0.00     0.004 C 
BRANCH   7  11
ATOM     11  N   UNL A   1      32.728  23.484  24.616  1.00  0.00    -0.204 NA
ATOM     12  H   UNL A   1      32.731  23.844  23.662  1.00  0.00     0.142 HD
BRANCH  11  13
ATOM     13  S   UNL A   1      32.610  24.899  25.553  1.00  0.00     0.252 S 
ATOM     14  O   UNL A   1      33.957  25.269  25.909  1.00  0.00    -0.206 OA
ATOM     15  O   UNL A   1      31.644  24.533  26.576  1.00  0.00    -0.206 OA
BRANCH  13  16
ATOM     16  C   UNL A   1      31.888  26.087  24.539  1.00  0.00     0.158 A 
ATOM     17  C   UNL A   1      31.538  27.525  26.576  1.00  0.00     0.067 C 
ATOM     18  C   UNL A   1      31.405  27.186  25.121  1.00  0.00     0.046 A 
ATOM     19  N   UNL A   1      30.743  27.986  24.221  1.00  0.00    -0.315 N 
ATOM     20  C   UNL A   1      30.750  27.605  22.918  1.00  0.00     0.305 A 
ATOM     21  H   UNL A   1      30.282  28.806  24.511  1.00  0.00     0.170 HD
ATOM     22  S   UNL A   1      31.627  26.083  22.817  1.00  0.00    -0.061 S 
ATOM     23  O   UNL A   1      30.261  28.218  21.967  1.00  0.00    -0.257 OA
ENDBRANCH  13  16
ENDBRANCH  11  13
ENDBRANCH   7  11
ENDBRANCH   6   7
ENDBRANCH   4   6
ENDBRANCH   3   4
ENDBRANCH   2   3
ENDBRANCH   1   2
BRANCH   1  24
ATOM     24  O   UNL A   1      39.754  19.225  25.589  1.00  0.00    -0.374 OA
BRANCH  24  25
ATOM     25  C   UNL A   1      40.603  20.092  26.397  1.00  0.00     0.202 C 
BRANCH  25  26
ATOM     26  C   UNL A   1      42.159  20.038  26.367  1.00  0.00     0.261 C 
BRANCH  26  27
ATOM     27  O   UNL A   1      42.701  20.560  25.176  1.00  0.00    -0.460 OA
BRANCH  27  28
ATOM     28  C   UNL A   1      44.041  20.624  25.197  1.00  0.00     0.338 C 
ATOM     29  O   UNL A   1      44.831  19.694  25.293  1.00  0.00    -0.246 OA
BRANCH  28  30
ATOM     30  C   UNL A   1      44.393  22.036  25.205  1.00  0.00     0.060 A 
ATOM     31  C   UNL A   1      45.128  22.381  26.327  1.00  0.00     0.016 A 
ATOM     32  C   UNL A   1      43.636  22.954  24.450  1.00  0.00     0.016 A 
ATOM     33  C   UNL A   1      44.791  23.557  26.921  1.00  0.00     0.010 A 
ATOM     34  C   UNL A   1      43.311  24.143  25.042  1.00  0.00     0.010 A 
ATOM     35  C   UNL A   1      43.813  24.365  26.317  1.00  0.00    -0.014 A 
BRANCH  35  36
ATOM     36  C   UNL A   1      43.500  25.576  27.020  1.00  0.00     0.031 A 
ATOM     37  C   UNL A   1      44.529  26.591  26.746  1.00  0.00     0.074 A 
ATOM     38  C   UNL A   1      42.432  25.714  27.817  1.00  0.00     0.049 A 
ATOM     39  N   UNL A   1      45.501  26.932  27.521  1.00  0.00    -0.248 NA
ATOM     40  C   UNL A   1      44.666  27.040  25.352  1.00  0.00     0.031 C 
ATOM     41  C   UNL A   1      41.250  24.866  27.936  1.00  0.00     0.029 A 
ATOM     42  N   UNL A   1      42.166  26.747  28.652  1.00  0.00    -0.354 N 
ATOM     43  C   UNL A   1      46.261  27.815  26.768  1.00  0.00     0.074 A 
ATOM     44  C   UNL A   1      45.856  27.635  25.402  1.00  0.00     0.031 C 
ATOM     45  C   UNL A   1      40.295  25.542  28.617  1.00  0.00     0.029 A 
ATOM     46  C   UNL A   1      40.853  26.802  29.084  1.00  0.00     0.049 A 
ATOM     47  H   UNL A   1      42.848  27.400  28.929  1.00  0.00     0.167 HD
ATOM     48  C   UNL A   1      46.896  28.846  27.381  1.00  0.00     0.037 A 
ATOM     49  C   UNL A   1      40.288  27.886  29.668  1.00  0.00     0.037 A 
ATOM     50  C   UNL A   1      47.082  28.561  28.788  1.00  0.00     0.049 A 
ATOM     51  C   UNL A   1      41.396  28.740  30.183  1.00  0.00     0.074 A 
ATOM     52  C   UNL A   1      47.746  27.582  29.503  1.00  0.00     0.029 A 
ATOM     53  N   UNL A   1      46.205  29.139  29.673  1.00  0.00    -0.354 N 
ATOM     54  N   UNL A   1      42.172  28.398  31.177  1.00  0.00    -0.248 NA
ATOM     55  C   UNL A   1      41.941  29.762  29.298  1.00  0.00     0.031 C 
ATOM     56  C   UNL A   1      46.935  27.335  30.652  1.00  0.00     0.029 A 
ATOM     57  C   UNL A   1      45.844  28.202  30.604  1.00  0.00     0.049 A 
ATOM     58  H   UNL A   1      45.888  30.071  29.643  1.00  0.00     0.167 HD
ATOM     59  C   UNL A   1      43.439  28.834  30.809  1.00  0.00     0.074 A 
ATOM     60  C   UNL A   1      43.219  29.746  29.692  1.00  0.00     0.031 C 
ATOM     61  C   UNL A   1      44.556  28.186  31.257  1.00  0.00     0.037 A 
BRANCH  48  62
ATOM     62  C   UNL A   1      46.860  30.261  26.836  1.00  0.00     0.064 A 
ATOM     63  C   UNL A   1      48.055  31.003  26.869  1.00  0.00     0.173 A 
ATOM     64  C   UNL A   1      45.686  31.023  26.615  1.00  0.00     0.173 A 
ATOM     65  F   UNL A   1      49.235  30.389  27.039  1.00  0.00    -0.203 F 
ATOM     66  C   UNL A   1      48.057  32.399  26.849  1.00  0.00     0.198 A 
ATOM     67  C   UNL A   1      45.698  32.413  26.555  1.00  0.00     0.198 A 
ATOM     68  F   UNL A   1      44.465  30.490  26.540  1.00  0.00    -0.203 F 
ATOM     69  F   UNL A   1      49.205  33.061  27.045  1.00  0.00    -0.200 F 
ATOM     70  C   UNL A   1      46.876  33.103  26.717  1.00  0.00     0.200 A 
ATOM     71  F   UNL A   1      44.538  33.071  26.427  1.00  0.00    -0.200 F 
ATOM     72  F   UNL A   1      46.863  34.439  26.787  1.00  0.00    -0.200 F 
ENDBRANCH  48  62
BRANCH  49  73
ATOM     73  C   UNL A   1      38.912  28.398  29.473  1.00  0.00     0.064 A 
ATOM     74  C   UNL A   1      38.079  28.654  30.573  1.00  0.00     0.173 A 
ATOM     75  C   UNL A   1      38.483  28.907  28.230  1.00  0.00     0.173 A 
ATOM     76  F   UNL A   1      38.441  28.249  31.799  1.00  0.00    -0.203 F 
ATOM     77  C   UNL A   1      36.899  29.392  30.442  1.00  0.00     0.198 A 
ATOM     78  C   UNL A   1      37.300  29.635  28.099  1.00  0.00     0.198 A 
ATOM     79  F   UNL A   1      39.246  28.793  27.135  1.00  0.00    -0.203 F 
ATOM     80  F   UNL A   1      36.163  29.673  31.528  1.00  0.00    -0.200 F 
ATOM     81  C   UNL A   1      36.515  29.890  29.207  1.00  0.00     0.200 A 
ATOM     82  F   UNL A   1      36.961  30.142  26.905  1.00  0.00    -0.200 F 
ATOM     83  F   UNL A   1      35.416  30.648  29.093  1.00  0.00    -0.200 F 
ENDBRANCH  49  73
BRANCH  61  84
ATOM     84  C   UNL A   1      44.380  27.209  32.384  1.00  0.00     0.064 A 
ATOM     85  C   UNL A   1      44.150  25.835  32.206  1.00  0.00     0.173 A 
ATOM     86  C   UNL A   1      44.579  27.669  33.693  1.00  0.00     0.173 A 
ATOM     87  F   UNL A   1      44.050  25.306  30.979  1.00  0.00    -0.203 F 
ATOM     88  C   UNL A   1      44.074  24.971  33.298  1.00  0.00     0.198 A 
ATOM     89  C   UNL A   1      44.541  26.798  34.777  1.00  0.00     0.198 A 
ATOM     90  F   UNL A   1      44.856  28.963  33.915  1.00  0.00    -0.203 F 
ATOM     91  F   UNL A   1      43.837  23.665  33.105  1.00  0.00    -0.200 F 
ATOM     92  C   UNL A   1      44.276  25.452  34.580  1.00  0.00     0.200 A 
ATOM     93  F   UNL A   1      44.786  27.260  36.011  1.00  0.00    -0.200 F 
ATOM     94  F   UNL A   1      44.243  24.615  35.627  1.00  0.00    -0.200 F 
ENDBRANCH  61  84
ENDBRANCH  35  36
ENDBRANCH  28  30
ENDBRANCH  27  28
ENDBRANCH  26  27
ENDBRANCH  25  26
ENDBRANCH  24  25
ENDBRANCH   1  24
TORSDOF 18
ENDMDL
MODEL 2
REMARK VINA RESULT:     -11.1      4.285      9.931
REMARK SMILES Cc1[nH]c(=O)sc1S(=O)(=O)NC1(CC(=O)OCCOCCOC(=O)c2ccc(-c3c4nc(c(-c5c(F)c(F)c(F)c(F)c5F)c5ccc([nH]5)c(-c5c(F)c(F)c(F)c(F)c5F)c5nc(c(-c6c(F)c(F)c(F)c(F)c6F)c6ccc3[nH]6)C=C5)C=C4)cc2)CCC1
REMARK SMILES IDX 18 1 17 2 16 3 14 4 15 5 13 6 12 7 88 8 90 9 89 10 11 11
REMARK SMILES IDX 8 13 9 14 10 15 7 16 1 17 2 18 3 19 4 20 6 22 5 23 19 24
REMARK SMILES IDX 20 25 21 26 22 27 23 28 24 29 25 30 26 31 87 32 27 33 86 34
REMARK SMILES IDX 28 35 29 36 30 37 80 38 31 39 85 40 79 41 81 42 32 43 84 44
REMARK SMILES IDX 78 45 77 46 33 48 65 49 45 50 64 51 46 52 49 53 63 54 82 55
REMARK SMILES IDX 47 56 48 57 62 59 83 60 50 61 34 62 35 63 43 64 36 65 37 66
REMARK SMILES IDX 41 67 44 68 38 69 39 70 42 71 40 72 66 73 67 74 75 75 68 76
REMARK SMILES IDX 69 77 73 78 76 79 70 80 71 81 74 82 72 83 51 84 52 85 60 86
REMARK SMILES IDX 53 87 54 88 58 89 61 90 55 91 56 92 59 93 57 94
REMARK H PARENT 11 12 3 21 81 47 49 58
REMARK Flexibility Score: inf
ROOT
ATOM      1  C   UNL A   1      34.470  32.267  27.686  1.00  0.00     0.202 C 
ENDROOT
BRANCH   1   2
ATOM      2  C   UNL A   1      33.994  30.752  27.845  1.00  0.00     0.261 C 
BRANCH   2   3
ATOM      3  O   UNL A   1      32.790  30.371  27.047  1.00  0.00    -0.463 OA
BRANCH   3   4
ATOM      4  C   UNL A   1      32.884  29.312  26.180  1.00  0.00     0.307 C 
ATOM      5  O   UNL A   1      33.968  28.768  25.962  1.00  0.00    -0.252 OA
BRANCH   4   6
ATOM      6  C   UNL A   1      31.612  28.763  25.453  1.00  0.00     0.146 C 
BRANCH   6   7
ATOM      7  C   UNL A   1      31.519  28.041  24.066  1.00  0.00     0.044 C 
ATOM      8  C   UNL A   1      31.392  28.921  22.761  1.00  0.00     0.024 C 
ATOM      9  C   UNL A   1      30.038  27.614  23.764  1.00  0.00     0.024 C 
ATOM     10  C   UNL A   1      29.874  28.887  22.915  1.00  0.00     0.004 C 
BRANCH   7  11
ATOM     11  N   UNL A   1      32.597  27.004  23.748  1.00  0.00    -0.204 NA
ATOM     12  H   UNL A   1      33.120  27.446  22.992  1.00  0.00     0.142 HD
BRANCH  11  13
ATOM     13  S   UNL A   1      32.585  25.366  23.291  1.00  0.00     0.252 S 
ATOM     14  O   UNL A   1      33.964  24.960  23.184  1.00  0.00    -0.206 OA
ATOM     15  O   UNL A   1      31.715  25.359  22.127  1.00  0.00    -0.206 OA
BRANCH  13  16
ATOM     16  C   UNL A   1      31.787  24.520  24.558  1.00  0.00     0.158 A 
ATOM     17  C   UNL A   1      31.785  22.465  23.103  1.00  0.00     0.067 C 
ATOM     18  C   UNL A   1      31.439  23.251  24.332  1.00  0.00     0.046 A 
ATOM     19  N   UNL A   1      30.697  22.737  25.368  1.00  0.00    -0.315 N 
ATOM     20  C   UNL A   1      30.508  23.526  26.457  1.00  0.00     0.305 A 
ATOM     21  H   UNL A   1      30.318  21.830  25.323  1.00  0.00     0.170 HD
ATOM     22  S   UNL A   1      31.292  25.068  26.135  1.00  0.00    -0.061 S 
ATOM     23  O   UNL A   1      29.922  23.220  27.498  1.00  0.00    -0.257 OA
ENDBRANCH  13  16
ENDBRANCH  11  13
ENDBRANCH   7  11
ENDBRANCH   6   7
ENDBRANCH   4   6
ENDBRANCH   3   4
ENDBRANCH   2   3
ENDBRANCH   1   2
BRANCH   1  24
ATOM     24  O   UNL A   1      34.175  33.082  28.835  1.00  0.00    -0.374 OA
BRANCH  24  25
ATOM     25  C   UNL A   1      34.240  34.536  28.901  1.00  0.00     0.202 C 
BRANCH  25  26
ATOM     26  C   UNL A   1      33.575  35.373  30.033  1.00  0.00     0.261 C 
BRANCH  26  27
ATOM     27  O   UNL A   1      33.313  34.616  31.192  1.00  0.00    -0.460 OA
BRANCH  27  28
ATOM     28  C   UNL A   1      33.619  35.268  32.323  1.00  0.00     0.338 C 
ATOM     29  O   UNL A   1      33.190  36.353  32.698  1.00  0.00    -0.246 OA
BRANCH  28  30
ATOM     30  C   UNL A   1      34.664  34.499  32.982  1.00  0.00     0.060 A 
ATOM     31  C   UNL A   1      35.886  35.150  32.950  1.00  0.00     0.016 A 
ATOM     32  C   UNL A   1      34.520  33.106  33.136  1.00  0.00     0.016 A 
ATOM     33  C   UNL A   1      36.967  34.371  32.674  1.00  0.00     0.010 A 
ATOM     34  C   UNL A   1      35.612  32.325  32.875  1.00  0.00     0.010 A 
ATOM     35  C   UNL A   1      36.788  32.984  32.541  1.00  0.00    -0.014 A 
BRANCH  35  36
ATOM     36  C   UNL A   1      37.973  32.241  32.228  1.00  0.00     0.031 A 
ATOM     37  C   UNL A   1      38.794  32.081  33.438  1.00  0.00     0.074 A 
ATOM     38  C   UNL A   1      38.265  31.796  30.999  1.00  0.00     0.049 A 
ATOM     39  N   UNL A   1      39.849  32.754  33.749  1.00  0.00    -0.248 NA
ATOM     40  C   UNL A   1      38.203  31.316  34.547  1.00  0.00     0.031 C 
ATOM     41  C   UNL A   1      37.404  31.687  29.825  1.00  0.00     0.029 A 
ATOM     42  N   UNL A   1      39.435  31.254  30.584  1.00  0.00    -0.354 N 
ATOM     43  C   UNL A   1      40.176  32.330  35.029  1.00  0.00     0.074 A 
ATOM     44  C   UNL A   1      39.010  31.668  35.546  1.00  0.00     0.031 C 
ATOM     45  C   UNL A   1      38.015  30.901  28.907  1.00  0.00     0.029 A 
ATOM     46  C   UNL A   1      39.349  30.571  29.384  1.00  0.00     0.049 A 
ATOM     47  H   UNL A   1      40.275  31.340  31.092  1.00  0.00     0.167 HD
ATOM     48  C   UNL A   1      41.479  32.260  35.401  1.00  0.00     0.037 A 
ATOM     49  C   UNL A   1      40.291  29.711  28.927  1.00  0.00     0.037 A 
ATOM     50  C   UNL A   1      42.290  33.119  34.565  1.00  0.00     0.049 A 
ATOM     51  C   UNL A   1      41.559  30.018  29.650  1.00  0.00     0.074 A 
ATOM     52  C   UNL A   1      42.322  34.476  34.305  1.00  0.00     0.029 A 
ATOM     53  N   UNL A   1      42.997  32.527  33.546  1.00  0.00    -0.354 N 
ATOM     54  N   UNL A   1      42.240  31.120  29.482  1.00  0.00    -0.248 NA
ATOM     55  C   UNL A   1      41.822  29.315  30.899  1.00  0.00     0.031 C 
ATOM     56  C   UNL A   1      42.673  34.591  32.925  1.00  0.00     0.029 A 
ATOM     57  C   UNL A   1      42.879  33.305  32.426  1.00  0.00     0.049 A 
ATOM     58  H   UNL A   1      43.503  31.685  33.611  1.00  0.00     0.167 HD
ATOM     59  C   UNL A   1      42.685  31.465  30.752  1.00  0.00     0.074 A 
ATOM     60  C   UNL A   1      42.477  30.271  31.565  1.00  0.00     0.031 C 
ATOM     61  C   UNL A   1      42.901  32.773  31.083  1.00  0.00     0.037 A 
BRANCH  48  62
ATOM     62  C   UNL A   1      42.052  31.061  36.134  1.00  0.00     0.064 A 
ATOM     63  C   UNL A   1      42.973  31.309  37.169  1.00  0.00     0.173 A 
ATOM     64  C   UNL A   1      42.019  29.725  35.666  1.00  0.00     0.173 A 
ATOM     65  F   UNL A   1      43.072  32.530  37.717  1.00  0.00    -0.203 F 
ATOM     66  C   UNL A   1      43.894  30.345  37.583  1.00  0.00     0.198 A 
ATOM     67  C   UNL A   1      42.912  28.756  36.111  1.00  0.00     0.198 A 
ATOM     68  F   UNL A   1      41.201  29.302  34.700  1.00  0.00    -0.203 F 
ATOM     69  F   UNL A   1      44.853  30.679  38.456  1.00  0.00    -0.200 F 
ATOM     70  C   UNL A   1      43.878  29.077  37.035  1.00  0.00     0.200 A 
ATOM     71  F   UNL A   1      42.876  27.533  35.563  1.00  0.00    -0.200 F 
ATOM     72  F   UNL A   1      44.814  28.178  37.363  1.00  0.00    -0.200 F 
ENDBRANCH  48  62
BRANCH  49  73
ATOM     73  C   UNL A   1      40.071  28.434  28.212  1.00  0.00     0.064 A 
ATOM     74  C   UNL A   1      40.690  28.188  26.976  1.00  0.00     0.173 A 
ATOM     75  C   UNL A   1      39.477  27.324  28.846  1.00  0.00     0.173 A 
ATOM     76  F   UNL A   1      41.324  29.180  26.332  1.00  0.00    -0.203 F 
ATOM     77  C   UNL A   1      40.732  26.906  26.419  1.00  0.00     0.198 A 
ATOM     78  C   UNL A   1      39.511  26.047  28.285  1.00  0.00     0.198 A 
ATOM     79  F   UNL A   1      38.938  27.433  30.068  1.00  0.00    -0.203 F 
ATOM     80  F   UNL A   1      41.390  26.698  25.269  1.00  0.00    -0.200 F 
ATOM     81  C   UNL A   1      40.150  25.835  27.079  1.00  0.00     0.200 A 
ATOM     82  F   UNL A   1      38.977  25.014  28.953  1.00  0.00    -0.200 F 
ATOM     83  F   UNL A   1      40.242  24.597  26.575  1.00  0.00    -0.200 F 
ENDBRANCH  49  73
BRANCH  61  84
ATOM     84  C   UNL A   1      42.947  33.768  29.960  1.00  0.00     0.064 A 
ATOM     85  C   UNL A   1      41.825  34.462  29.477  1.00  0.00     0.173 A 
ATOM     86  C   UNL A   1      44.200  34.122  29.442  1.00  0.00     0.173 A 
ATOM     87  F   UNL A   1      40.608  34.249  29.995  1.00  0.00    -0.203 F 
ATOM     88  C   UNL A   1      41.951  35.432  28.482  1.00  0.00     0.198 A 
ATOM     89  C   UNL A   1      44.327  35.117  28.478  1.00  0.00     0.198 A 
ATOM     90  F   UNL A   1      45.311  33.530  29.908  1.00  0.00    -0.203 F 
ATOM     91  F   UNL A   1      40.864  36.069  28.024  1.00  0.00    -0.200 F 
ATOM     92  C   UNL A   1      43.203  35.762  27.990  1.00  0.00     0.200 A 
ATOM     93  F   UNL A   1      45.545  35.468  28.041  1.00  0.00    -0.200 F 
ATOM     94  F   UNL A   1      43.329  36.723  27.063  1.00  0.00    -0.200 F 
ENDBRANCH  61  84
ENDBRANCH  35  36
ENDBRANCH  28  30
ENDBRANCH  27  28
ENDBRANCH  26  27
ENDBRANCH  25  26
ENDBRANCH  24  25
ENDBRANCH   1  24
TORSDOF 18
ENDMDL
MODEL 3
REMARK VINA RESULT:     -10.9      2.698      4.172
REMARK SMILES Cc1[nH]c(=O)sc1S(=O)(=O)NC1(CC(=O)OCCOCCOC(=O)c2ccc(-c3c4nc(c(-c5c(F)c(F)c(F)c(F)c5F)c5ccc([nH]5)c(-c5c(F)c(F)c(F)c(F)c5F)c5nc(c(-c6c(F)c(F)c(F)c(F)c6F)c6ccc3[nH]6)C=C5)C=C4)cc2)CCC1
REMARK SMILES IDX 18 1 17 2 16 3 14 4 15 5 13 6 12 7 88 8 90 9 89 10 11 11
REMARK SMILES IDX 8 13 9 14 10 15 7 16 1 17 2 18 3 19 4 20 6 22 5 23 19 24
REMARK SMILES IDX 20 25 21 26 22 27 23 28 24 29 25 30 26 31 87 32 27 33 86 34
REMARK SMILES IDX 28 35 29 36 30 37 80 38 31 39 85 40 79 41 81 42 32 43 84 44
REMARK SMILES IDX 78 45 77 46 33 48 65 49 45 50 64 51 46 52 49 53 63 54 82 55
REMARK SMILES IDX 47 56 48 57 62 59 83 60 50 61 34 62 35 63 43 64 36 65 37 66
REMARK SMILES IDX 41 67 44 68 38 69 39 70 42 71 40 72 66 73 67 74 75 75 68 76
REMARK SMILES IDX 69 77 73 78 76 79 70 80 71 81 74 82 72 83 51 84 52 85 60 86
REMARK SMILES IDX 53 87 54 88 58 89 61 90 55 91 56 92 59 93 57 94
REMARK H PARENT 11 12 3 21 81 47 49 58
REMARK Flexibility Score: inf
ROOT
ATOM      1  C   UNL A   1      36.928  22.304  24.270  1.00  0.00     0.202 C 
ENDROOT
BRANCH   1   2
ATOM      2  C   UNL A   1      35.778  22.946  23.369  1.00  0.00     0.261 C 
BRANCH   2   3
ATOM      3  O   UNL A   1      35.112  24.153  23.944  1.00  0.00    -0.463 OA
BRANCH   3   4
ATOM      4  C   UNL A   1      34.089  24.737  23.240  1.00  0.00     0.307 C 
ATOM      5  O   UNL A   1      33.863  24.420  22.071  1.00  0.00    -0.252 OA
BRANCH   4   6
ATOM      6  C   UNL A   1      33.175  25.816  23.911  1.00  0.00     0.146 C 
BRANCH   6   7
ATOM      7  C   UNL A   1      32.828  25.989  25.429  1.00  0.00     0.044 C 
ATOM      8  C   UNL A   1      31.589  26.886  25.826  1.00  0.00     0.024 C 
ATOM      9  C   UNL A   1      33.694  27.134  26.066  1.00  0.00     0.024 C 
ATOM     10  C   UNL A   1      32.513  28.100  25.866  1.00  0.00     0.004 C 
BRANCH   7  11
ATOM     11  N   UNL A   1      32.683  24.713  26.259  1.00  0.00    -0.204 NA
ATOM     12  H   UNL A   1      33.608  24.289  26.186  1.00  0.00     0.142 HD
BRANCH  11  13
ATOM     13  S   UNL A   1      31.646  23.366  26.212  1.00  0.00     0.252 S 
ATOM     14  O   UNL A   1      30.698  23.615  25.154  1.00  0.00    -0.206 OA
ATOM     15  O   UNL A   1      31.205  23.246  27.592  1.00  0.00    -0.206 OA
BRANCH  13  16
ATOM     16  C   UNL A   1      32.637  22.009  25.848  1.00  0.00     0.158 A 
ATOM     17  C   UNL A   1      34.159  22.692  27.735  1.00  0.00     0.067 C 
ATOM     18  C   UNL A   1      33.753  21.849  26.563  1.00  0.00     0.046 A 
ATOM     19  N   UNL A   1      34.514  20.809  26.087  1.00  0.00    -0.315 N 
ATOM     20  C   UNL A   1      34.007  20.076  25.063  1.00  0.00     0.305 A 
ATOM     21  H   UNL A   1      35.396  20.603  26.474  1.00  0.00     0.170 HD
ATOM     22  S   UNL A   1      32.454  20.781  24.627  1.00  0.00    -0.061 S 
ATOM     23  O   UNL A   1      34.516  19.080  24.543  1.00  0.00    -0.257 OA
ENDBRANCH  13  16
ENDBRANCH  11  13
ENDBRANCH   7  11
ENDBRANCH   6   7
ENDBRANCH   4   6
ENDBRANCH   3   4
ENDBRANCH   2   3
ENDBRANCH   1   2
BRANCH   1  24
ATOM     24  O   UNL A   1      37.049  22.920  25.565  1.00  0.00    -0.374 OA
BRANCH  24  25
ATOM     25  C   UNL A   1      38.270  23.454  26.156  1.00  0.00     0.202 C 
BRANCH  25  26
ATOM     26  C   UNL A   1      39.397  22.559  26.752  1.00  0.00     0.261 C 
BRANCH  26  27
ATOM     27  O   UNL A   1      40.456  23.307  27.303  1.00  0.00    -0.460 OA
BRANCH  27  28
ATOM     28  C   UNL A   1      41.528  23.364  26.500  1.00  0.00     0.338 C 
ATOM     29  O   UNL A   1      42.086  22.433  25.933  1.00  0.00    -0.246 OA
BRANCH  28  30
ATOM     30  C   UNL A   1      41.994  24.743  26.518  1.00  0.00     0.060 A 
ATOM     31  C   UNL A   1      42.729  25.027  27.656  1.00  0.00     0.016 A 
ATOM     32  C   UNL A   1      41.330  25.718  25.747  1.00  0.00     0.016 A 
ATOM     33  C   UNL A   1      42.475  26.227  28.244  1.00  0.00     0.010 A 
ATOM     34  C   UNL A   1      41.090  26.930  26.333  1.00  0.00     0.010 A 
ATOM     35  C   UNL A   1      41.580  27.112  27.620  1.00  0.00    -0.014 A 
BRANCH  35  36
ATOM     36  C   UNL A   1      41.351  28.344  28.317  1.00  0.00     0.031 A 
ATOM     37  C   UNL A   1      42.466  29.271  28.069  1.00  0.00     0.074 A 
ATOM     38  C   UNL A   1      40.279  28.570  29.088  1.00  0.00     0.049 A 
ATOM     39  N   UNL A   1      43.444  29.531  28.867  1.00  0.00    -0.248 NA
ATOM     40  C   UNL A   1      42.672  29.707  26.680  1.00  0.00     0.031 C 
ATOM     41  C   UNL A   1      39.029  27.821  29.178  1.00  0.00     0.029 A 
ATOM     42  N   UNL A   1      40.079  29.621  29.919  1.00  0.00    -0.354 N 
ATOM     43  C   UNL A   1      44.292  30.349  28.135  1.00  0.00     0.074 A 
ATOM     44  C   UNL A   1      43.906  30.202  26.759  1.00  0.00     0.031 C 
ATOM     45  C   UNL A   1      38.116  28.574  29.838  1.00  0.00     0.029 A 
ATOM     46  C   UNL A   1      38.765  29.784  30.319  1.00  0.00     0.049 A 
ATOM     47  H   UNL A   1      40.806  30.216  30.213  1.00  0.00     0.167 HD
ATOM     48  C   UNL A   1      44.994  31.324  28.765  1.00  0.00     0.037 A 
ATOM     49  C   UNL A   1      38.277  30.911  30.892  1.00  0.00     0.037 A 
ATOM     50  C   UNL A   1      45.123  31.025  30.175  1.00  0.00     0.049 A 
ATOM     51  C   UNL A   1      39.439  31.671  31.435  1.00  0.00     0.074 A 
ATOM     52  C   UNL A   1      45.687  29.995  30.904  1.00  0.00     0.029 A 
ATOM     53  N   UNL A   1      44.275  31.674  31.040  1.00  0.00    -0.354 N 
ATOM     54  N   UNL A   1      40.160  31.267  32.446  1.00  0.00    -0.248 NA
ATOM     55  C   UNL A   1      40.087  32.644  30.565  1.00  0.00     0.031 C 
ATOM     56  C   UNL A   1      44.831  29.816  32.033  1.00  0.00     0.029 A 
ATOM     57  C   UNL A   1      43.817  30.770  31.960  1.00  0.00     0.049 A 
ATOM     58  H   UNL A   1      44.037  32.629  31.004  1.00  0.00     0.167 HD
ATOM     59  C   UNL A   1      41.468  31.597  32.110  1.00  0.00     0.074 A 
ATOM     60  C   UNL A   1      41.349  32.523  30.989  1.00  0.00     0.031 C 
ATOM     61  C   UNL A   1      42.516  30.859  32.582  1.00  0.00     0.037 A 
BRANCH  48  62
ATOM     62  C   UNL A   1      45.087  32.738  28.221  1.00  0.00     0.064 A 
ATOM     63  C   UNL A   1      46.371  33.249  27.950  1.00  0.00     0.173 A 
ATOM     64  C   UNL A   1      44.056  33.706  28.280  1.00  0.00     0.173 A 
ATOM     65  F   UNL A   1      47.423  32.424  27.838  1.00  0.00    -0.203 F 
ATOM     66  C   UNL A   1      46.624  34.621  27.907  1.00  0.00     0.198 A 
ATOM     67  C   UNL A   1      44.308  35.071  28.195  1.00  0.00     0.198 A 
ATOM     68  F   UNL A   1      42.776  33.407  28.512  1.00  0.00    -0.203 F 
ATOM     69  F   UNL A   1      47.886  35.057  27.807  1.00  0.00    -0.200 F 
ATOM     70  C   UNL A   1      45.596  35.531  28.055  1.00  0.00     0.200 A 
ATOM     71  F   UNL A   1      43.292  35.934  28.342  1.00  0.00    -0.200 F 
ATOM     72  F   UNL A   1      45.846  36.845  28.104  1.00  0.00    -0.200 F 
ENDBRANCH  48  62
BRANCH  49  73
ATOM     73  C   UNL A   1      36.953  31.534  30.665  1.00  0.00     0.064 A 
ATOM     74  C   UNL A   1      36.053  31.713  31.727  1.00  0.00     0.173 A 
ATOM     75  C   UNL A   1      36.652  32.215  29.467  1.00  0.00     0.173 A 
ATOM     76  F   UNL A   1      36.294  31.142  32.916  1.00  0.00    -0.203 F 
ATOM     77  C   UNL A   1      34.932  32.540  31.605  1.00  0.00     0.198 A 
ATOM     78  C   UNL A   1      35.528  33.031  29.344  1.00  0.00     0.198 A 
ATOM     79  F   UNL A   1      37.492  32.181  28.423  1.00  0.00    -0.203 F 
ATOM     80  F   UNL A   1      34.131  32.738  32.662  1.00  0.00    -0.200 F 
ATOM     81  C   UNL A   1      34.675  33.205  30.417  1.00  0.00     0.200 A 
ATOM     82  F   UNL A   1      35.314  33.699  28.201  1.00  0.00    -0.200 F 
ATOM     83  F   UNL A   1      33.635  34.044  30.320  1.00  0.00    -0.200 F 
ENDBRANCH  49  73
BRANCH  61  84
ATOM     84  C   UNL A   1      42.233  29.901  33.703  1.00  0.00     0.064 A 
ATOM     85  C   UNL A   1      41.742  28.598  33.520  1.00  0.00     0.173 A 
ATOM     86  C   UNL A   1      42.596  30.280  35.003  1.00  0.00     0.173 A 
ATOM     87  F   UNL A   1      41.469  28.131  32.294  1.00  0.00    -0.203 F 
ATOM     88  C   UNL A   1      41.576  27.732  34.600  1.00  0.00     0.198 A 
ATOM     89  C   UNL A   1      42.466  29.401  36.073  1.00  0.00     0.198 A 
ATOM     90  F   UNL A   1      43.122  31.494  35.226  1.00  0.00    -0.203 F 
ATOM     91  F   UNL A   1      41.090  26.498  34.404  1.00  0.00    -0.200 F 
ATOM     92  C   UNL A   1      41.944  28.133  35.874  1.00  0.00     0.200 A 
ATOM     93  F   UNL A   1      42.870  29.775  37.295  1.00  0.00    -0.200 F 
ATOM     94  F   UNL A   1      41.823  27.287  36.907  1.00  0.00    -0.200 F 
ENDBRANCH  61  84
ENDBRANCH  35  36
ENDBRANCH  28  30
ENDBRANCH  27  28
ENDBRANCH  26  27
ENDBRANCH  25  26
ENDBRANCH  24  25
ENDBRANCH   1  24
TORSDOF 18
ENDMDL
