MODEL 1
REMARK VINA RESULT:     -12.0      0.000      0.000
REMARK SMILES O=C(OCCOCCOC(=O)c1cc(-c2cccc(Cl)c2)oc1C(F)(F)F)c1ccc(-c2c3nc(c(-c4c(F)c(F)c(F)c(F)c4F)c4ccc([nH]4)c(-c4c(F)c(F)c(F)c(F)c4F)c4nc(c(-c5c(F)c(F)c(F)c(F)c5F)c5ccc2[nH]5)C=C4)C=C3)cc1
REMARK SMILES IDX 5 1 4 2 3 3 2 4 1 5 28 6 29 7 90 8 30 9 89 10 31 11 32 12
REMARK SMILES IDX 33 13 83 14 34 15 88 16 82 17 84 18 35 19 87 20 81 21 80 22
REMARK SMILES IDX 36 24 68 25 48 26 67 27 49 28 52 29 66 30 85 31 50 32 51 33
REMARK SMILES IDX 65 35 86 36 53 37 37 38 38 39 46 40 39 41 40 42 44 43 47 44
REMARK SMILES IDX 41 45 42 46 45 47 43 48 69 49 70 50 78 51 71 52 72 53 76 54
REMARK SMILES IDX 79 55 73 56 74 57 77 58 75 59 54 60 55 61 63 62 56 63 57 64
REMARK SMILES IDX 61 65 64 66 58 67 59 68 62 69 60 70 6 71 7 72 8 73 9 74
REMARK SMILES IDX 10 75 11 76 12 77 13 78 23 79 14 80 22 81 24 82 25 83 26 84
REMARK SMILES IDX 27 85 15 86 16 87 21 88 17 89 19 90 18 91 20 92
REMARK H PARENT 84 23 52 34
REMARK Flexibility Score: inf
ROOT
ATOM      1  C   UNL A   1      31.974  28.660  27.449  1.00  0.00     0.202 C 
ENDROOT
BRANCH   1   2
ATOM      2  C   UNL A   1      31.735  29.844  26.516  1.00  0.00     0.261 C 
BRANCH   2   3
ATOM      3  O   UNL A   1      32.961  30.570  26.337  1.00  0.00    -0.460 OA
BRANCH   3   4
ATOM      4  C   UNL A   1      33.598  31.336  27.251  1.00  0.00     0.338 C 
ATOM      5  O   UNL A   1      33.078  32.388  27.618  1.00  0.00    -0.246 OA
BRANCH   4   6
ATOM      6  C   UNL A   1      34.918  30.968  27.840  1.00  0.00     0.060 A 
ATOM      7  C   UNL A   1      35.978  31.862  28.001  1.00  0.00     0.016 A 
ATOM      8  C   UNL A   1      35.043  29.683  28.389  1.00  0.00     0.016 A 
ATOM      9  C   UNL A   1      37.144  31.495  28.655  1.00  0.00     0.010 A 
ATOM     10  C   UNL A   1      36.192  29.321  29.100  1.00  0.00     0.010 A 
ATOM     11  C   UNL A   1      37.240  30.239  29.246  1.00  0.00    -0.014 A 
BRANCH  11  12
ATOM     12  C   UNL A   1      38.439  29.931  30.044  1.00  0.00     0.031 A 
ATOM     13  C   UNL A   1      39.496  29.051  29.464  1.00  0.00     0.074 A 
ATOM     14  C   UNL A   1      38.585  30.515  31.248  1.00  0.00     0.049 A 
ATOM     15  N   UNL A   1      40.570  28.571  30.030  1.00  0.00    -0.248 NA
ATOM     16  C   UNL A   1      39.329  28.666  28.053  1.00  0.00     0.031 C 
ATOM     17  C   UNL A   1      37.641  31.470  31.839  1.00  0.00     0.029 A 
ATOM     18  N   UNL A   1      39.581  30.413  32.182  1.00  0.00    -0.354 N 
ATOM     19  C   UNL A   1      41.185  27.795  29.060  1.00  0.00     0.074 A 
ATOM     20  C   UNL A   1      40.379  27.880  27.862  1.00  0.00     0.031 C 
ATOM     21  C   UNL A   1      38.113  31.878  33.026  1.00  0.00     0.029 A 
ATOM     22  C   UNL A   1      39.345  31.154  33.315  1.00  0.00     0.049 A 
ATOM     23  H   UNL A   1      40.387  29.864  32.053  1.00  0.00     0.167 HD
ATOM     24  C   UNL A   1      42.317  27.064  29.184  1.00  0.00     0.037 A 
ATOM     25  C   UNL A   1      40.026  31.194  34.476  1.00  0.00     0.037 A 
ATOM     26  C   UNL A   1      43.100  27.016  30.387  1.00  0.00     0.049 A 
ATOM     27  C   UNL A   1      41.240  30.315  34.604  1.00  0.00     0.074 A 
ATOM     28  C   UNL A   1      44.250  26.293  30.646  1.00  0.00     0.029 A 
ATOM     29  N   UNL A   1      42.806  27.733  31.540  1.00  0.00    -0.354 N 
ATOM     30  N   UNL A   1      41.794  29.535  33.705  1.00  0.00    -0.248 NA
ATOM     31  C   UNL A   1      41.904  30.290  35.913  1.00  0.00     0.031 C 
ATOM     32  C   UNL A   1      44.626  26.541  31.970  1.00  0.00     0.029 A 
ATOM     33  C   UNL A   1      43.736  27.448  32.524  1.00  0.00     0.049 A 
ATOM     34  H   UNL A   1      42.048  28.353  31.642  1.00  0.00     0.167 HD
ATOM     35  C   UNL A   1      42.868  28.927  34.335  1.00  0.00     0.074 A 
ATOM     36  C   UNL A   1      42.908  29.455  35.685  1.00  0.00     0.031 C 
ATOM     37  C   UNL A   1      43.733  28.000  33.855  1.00  0.00     0.037 A 
BRANCH  24  38
ATOM     38  C   UNL A   1      42.716  26.210  28.020  1.00  0.00     0.064 A 
ATOM     39  C   UNL A   1      42.222  24.909  27.845  1.00  0.00     0.173 A 
ATOM     40  C   UNL A   1      43.611  26.709  27.062  1.00  0.00     0.173 A 
ATOM     41  F   UNL A   1      41.386  24.378  28.748  1.00  0.00    -0.203 F 
ATOM     42  C   UNL A   1      42.624  24.134  26.760  1.00  0.00     0.198 A 
ATOM     43  C   UNL A   1      43.995  25.939  25.968  1.00  0.00     0.198 A 
ATOM     44  F   UNL A   1      44.118  27.945  27.191  1.00  0.00    -0.203 F 
ATOM     45  F   UNL A   1      42.173  22.879  26.632  1.00  0.00    -0.200 F 
ATOM     46  C   UNL A   1      43.505  24.650  25.820  1.00  0.00     0.200 A 
ATOM     47  F   UNL A   1      44.844  26.441  25.061  1.00  0.00    -0.200 F 
ATOM     48  F   UNL A   1      43.890  23.902  24.777  1.00  0.00    -0.200 F 
ENDBRANCH  24  38
BRANCH  25  49
ATOM     49  C   UNL A   1      39.536  32.014  35.616  1.00  0.00     0.064 A 
ATOM     50  C   UNL A   1      40.033  33.302  35.857  1.00  0.00     0.173 A 
ATOM     51  C   UNL A   1      38.576  31.515  36.511  1.00  0.00     0.173 A 
ATOM     52  F   UNL A   1      40.970  33.820  35.048  1.00  0.00    -0.203 F 
ATOM     53  C   UNL A   1      39.606  34.047  36.957  1.00  0.00     0.198 A 
ATOM     54  C   UNL A   1      38.125  32.273  37.590  1.00  0.00     0.198 A 
ATOM     55  F   UNL A   1      38.066  30.286  36.335  1.00  0.00    -0.203 F 
ATOM     56  F   UNL A   1      40.141  35.254  37.194  1.00  0.00    -0.200 F 
ATOM     57  C   UNL A   1      38.650  33.534  37.818  1.00  0.00     0.200 A 
ATOM     58  F   UNL A   1      37.188  31.776  38.410  1.00  0.00    -0.200 F 
ATOM     59  F   UNL A   1      38.240  34.250  38.875  1.00  0.00    -0.200 F 
ENDBRANCH  25  49
BRANCH  37  60
ATOM     60  C   UNL A   1      44.785  27.512  34.802  1.00  0.00     0.064 A 
ATOM     61  C   UNL A   1      46.028  28.155  34.897  1.00  0.00     0.173 A 
ATOM     62  C   UNL A   1      44.530  26.428  35.652  1.00  0.00     0.173 A 
ATOM     63  F   UNL A   1      46.320  29.184  34.087  1.00  0.00    -0.203 F 
ATOM     64  C   UNL A   1      46.987  27.716  35.804  1.00  0.00     0.198 A 
ATOM     65  C   UNL A   1      45.480  26.010  36.575  1.00  0.00     0.198 A 
ATOM     66  F   UNL A   1      43.352  25.788  35.597  1.00  0.00    -0.203 F 
ATOM     67  F   UNL A   1      48.183  28.318  35.853  1.00  0.00    -0.200 F 
ATOM     68  C   UNL A   1      46.709  26.650  36.648  1.00  0.00     0.200 A 
ATOM     69  F   UNL A   1      45.208  24.988  37.398  1.00  0.00    -0.200 F 
ATOM     70  F   UNL A   1      47.630  26.237  37.528  1.00  0.00    -0.200 F 
ENDBRANCH  37  60
ENDBRANCH  11  12
ENDBRANCH   4   6
ENDBRANCH   3   4
ENDBRANCH   2   3
ENDBRANCH   1   2
BRANCH   1  71
ATOM     71  O   UNL A   1      31.149  27.536  27.171  1.00  0.00    -0.374 OA
BRANCH  71  72
ATOM     72  C   UNL A   1      31.321  26.903  25.902  1.00  0.00     0.202 C 
BRANCH  72  73
ATOM     73  C   UNL A   1      30.142  25.939  25.708  1.00  0.00     0.261 C 
BRANCH  73  74
ATOM     74  O   UNL A   1      30.651  24.705  25.173  1.00  0.00    -0.460 OA
BRANCH  74  75
ATOM     75  C   UNL A   1      31.159  23.831  26.099  1.00  0.00     0.342 C 
ATOM     76  O   UNL A   1      30.863  23.800  27.277  1.00  0.00    -0.246 OA
BRANCH  75  77
ATOM     77  C   UNL A   1      32.037  22.880  25.445  1.00  0.00     0.111 A 
ATOM     78  C   UNL A   1      31.774  21.497  25.251  1.00  0.00     0.067 A 
ATOM     79  C   UNL A   1      33.316  23.102  24.947  1.00  0.00     0.223 A 
ATOM     80  C   UNL A   1      32.876  20.966  24.631  1.00  0.00     0.135 A 
ATOM     81  O   UNL A   1      33.829  21.916  24.466  1.00  0.00    -0.451 OA
BRANCH  79  82
ATOM     82  C   UNL A   1      34.238  24.268  24.885  1.00  0.00     0.450 C 
ATOM     83  F   UNL A   1      35.514  23.870  24.624  1.00  0.00    -0.163 F 
ATOM     84  F   UNL A   1      33.901  25.132  23.892  1.00  0.00    -0.163 F 
ATOM     85  F   UNL A   1      34.294  24.994  26.026  1.00  0.00    -0.163 F 
ENDBRANCH  79  82
BRANCH  80  86
ATOM     86  C   UNL A   1      33.138  19.652  24.092  1.00  0.00     0.019 A 
ATOM     87  C   UNL A   1      32.418  19.240  22.962  1.00  0.00     0.012 A 
ATOM     88  C   UNL A   1      34.010  18.761  24.722  1.00  0.00     0.032 A 
ATOM     89  C   UNL A   1      32.555  17.945  22.468  1.00  0.00     0.002 A 
ATOM     90  C   UNL A   1      34.136  17.463  24.229  1.00  0.00     0.041 A 
ATOM     91  C   UNL A   1      33.410  17.052  23.110  1.00  0.00     0.020 A 
ATOM     92  Cl  UNL A   1      35.169  16.342  25.027  1.00  0.00    -0.084 Cl
ENDBRANCH  80  86
ENDBRANCH  75  77
ENDBRANCH  74  75
ENDBRANCH  73  74
ENDBRANCH  72  73
ENDBRANCH  71  72
ENDBRANCH   1  71
TORSDOF 16
ENDMDL
MODEL 2
REMARK VINA RESULT:     -11.9      4.441      9.333
REMARK SMILES O=C(OCCOCCOC(=O)c1cc(-c2cccc(Cl)c2)oc1C(F)(F)F)c1ccc(-c2c3nc(c(-c4c(F)c(F)c(F)c(F)c4F)c4ccc([nH]4)c(-c4c(F)c(F)c(F)c(F)c4F)c4nc(c(-c5c(F)c(F)c(F)c(F)c5F)c5ccc2[nH]5)C=C4)C=C3)cc1
REMARK SMILES IDX 5 1 4 2 3 3 2 4 1 5 28 6 29 7 90 8 30 9 89 10 31 11 32 12
REMARK SMILES IDX 33 13 83 14 34 15 88 16 82 17 84 18 35 19 87 20 81 21 80 22
REMARK SMILES IDX 36 24 68 25 48 26 67 27 49 28 52 29 66 30 85 31 50 32 51 33
REMARK SMILES IDX 65 35 86 36 53 37 37 38 38 39 46 40 39 41 40 42 44 43 47 44
REMARK SMILES IDX 41 45 42 46 45 47 43 48 69 49 70 50 78 51 71 52 72 53 76 54
REMARK SMILES IDX 79 55 73 56 74 57 77 58 75 59 54 60 55 61 63 62 56 63 57 64
REMARK SMILES IDX 61 65 64 66 58 67 59 68 62 69 60 70 6 71 7 72 8 73 9 74
REMARK SMILES IDX 10 75 11 76 12 77 13 78 23 79 14 80 22 81 24 82 25 83 26 84
REMARK SMILES IDX 27 85 15 86 16 87 21 88 17 89 19 90 18 91 20 92
REMARK H PARENT 84 23 52 34
REMARK Flexibility Score: inf
ROOT
ATOM      1  C   UNL A   1      36.855  22.205  23.839  1.00  0.00     0.202 C 
ENDROOT
BRANCH   1   2
ATOM      2  C   UNL A   1      36.734  21.040  24.817  1.00  0.00     0.261 C 
BRANCH   2   3
ATOM      3  O   UNL A   1      37.470  21.339  26.014  1.00  0.00    -0.460 OA
BRANCH   3   4
ATOM      4  C   UNL A   1      38.803  21.534  26.126  1.00  0.00     0.338 C 
ATOM      5  O   UNL A   1      39.572  20.645  25.763  1.00  0.00    -0.246 OA
BRANCH   4   6
ATOM      6  C   UNL A   1      39.397  22.785  26.679  1.00  0.00     0.060 A 
ATOM      7  C   UNL A   1      40.465  22.814  27.576  1.00  0.00     0.016 A 
ATOM      8  C   UNL A   1      38.938  24.003  26.152  1.00  0.00     0.016 A 
ATOM      9  C   UNL A   1      41.049  24.007  27.973  1.00  0.00     0.010 A 
ATOM     10  C   UNL A   1      39.558  25.207  26.501  1.00  0.00     0.010 A 
ATOM     11  C   UNL A   1      40.628  25.205  27.404  1.00  0.00    -0.014 A 
BRANCH  11  12
ATOM     12  C   UNL A   1      41.358  26.438  27.750  1.00  0.00     0.031 A 
ATOM     13  C   UNL A   1      40.684  27.476  28.583  1.00  0.00     0.074 A 
ATOM     14  C   UNL A   1      42.643  26.558  27.369  1.00  0.00     0.049 A 
ATOM     15  N   UNL A   1      41.101  28.669  28.909  1.00  0.00    -0.248 NA
ATOM     16  C   UNL A   1      39.364  27.123  29.132  1.00  0.00     0.031 C 
ATOM     17  C   UNL A   1      43.403  25.538  26.640  1.00  0.00     0.029 A 
ATOM     18  N   UNL A   1      43.544  27.574  27.553  1.00  0.00    -0.354 N 
ATOM     19  C   UNL A   1      40.081  29.225  29.666  1.00  0.00     0.074 A 
ATOM     20  C   UNL A   1      39.031  28.236  29.769  1.00  0.00     0.031 C 
ATOM     21  C   UNL A   1      44.659  25.973  26.455  1.00  0.00     0.029 A 
ATOM     22  C   UNL A   1      44.767  27.331  26.977  1.00  0.00     0.049 A 
ATOM     23  H   UNL A   1      43.334  28.397  28.049  1.00  0.00     0.167 HD
ATOM     24  C   UNL A   1      40.036  30.466  30.204  1.00  0.00     0.037 A 
ATOM     25  C   UNL A   1      45.833  28.141  26.842  1.00  0.00     0.037 A 
ATOM     26  C   UNL A   1      41.107  31.417  30.092  1.00  0.00     0.049 A 
ATOM     27  C   UNL A   1      45.722  29.538  27.389  1.00  0.00     0.074 A 
ATOM     28  C   UNL A   1      41.170  32.712  30.570  1.00  0.00     0.029 A 
ATOM     29  N   UNL A   1      42.314  31.162  29.453  1.00  0.00    -0.354 N 
ATOM     30  N   UNL A   1      44.735  30.087  28.059  1.00  0.00    -0.248 NA
ATOM     31  C   UNL A   1      46.851  30.441  27.136  1.00  0.00     0.031 C 
ATOM     32  C   UNL A   1      42.400  33.255  30.182  1.00  0.00     0.029 A 
ATOM     33  C   UNL A   1      43.119  32.286  29.498  1.00  0.00     0.049 A 
ATOM     34  H   UNL A   1      42.561  30.308  29.031  1.00  0.00     0.167 HD
ATOM     35  C   UNL A   1      45.120  31.394  28.306  1.00  0.00     0.074 A 
ATOM     36  C   UNL A   1      46.447  31.548  27.744  1.00  0.00     0.031 C 
ATOM     37  C   UNL A   1      44.436  32.390  28.922  1.00  0.00     0.037 A 
BRANCH  24  38
ATOM     38  C   UNL A   1      38.766  30.876  30.883  1.00  0.00     0.064 A 
ATOM     39  C   UNL A   1      37.661  31.360  30.168  1.00  0.00     0.173 A 
ATOM     40  C   UNL A   1      38.657  30.779  32.278  1.00  0.00     0.173 A 
ATOM     41  F   UNL A   1      37.726  31.497  28.836  1.00  0.00    -0.203 F 
ATOM     42  C   UNL A   1      36.498  31.748  30.829  1.00  0.00     0.198 A 
ATOM     43  C   UNL A   1      37.486  31.148  32.934  1.00  0.00     0.198 A 
ATOM     44  F   UNL A   1      39.690  30.330  33.007  1.00  0.00    -0.203 F 
ATOM     45  F   UNL A   1      35.467  32.246  30.133  1.00  0.00    -0.200 F 
ATOM     46  C   UNL A   1      36.409  31.637  32.210  1.00  0.00     0.200 A 
ATOM     47  F   UNL A   1      37.403  31.039  34.267  1.00  0.00    -0.200 F 
ATOM     48  F   UNL A   1      35.289  32.011  32.844  1.00  0.00    -0.200 F 
ENDBRANCH  24  38
BRANCH  25  49
ATOM     49  C   UNL A   1      47.040  27.692  26.096  1.00  0.00     0.064 A 
ATOM     50  C   UNL A   1      47.094  27.742  24.697  1.00  0.00     0.173 A 
ATOM     51  C   UNL A   1      48.159  27.175  26.768  1.00  0.00     0.173 A 
ATOM     52  F   UNL A   1      46.043  28.203  24.002  1.00  0.00    -0.203 F 
ATOM     53  C   UNL A   1      48.208  27.273  24.000  1.00  0.00     0.198 A 
ATOM     54  C   UNL A   1      49.286  26.739  26.073  1.00  0.00     0.198 A 
ATOM     55  F   UNL A   1      48.164  27.099  28.108  1.00  0.00    -0.203 F 
ATOM     56  F   UNL A   1      48.209  27.280  22.659  1.00  0.00    -0.200 F 
ATOM     57  C   UNL A   1      49.304  26.777  24.689  1.00  0.00     0.200 A 
ATOM     58  F   UNL A   1      50.348  26.276  26.747  1.00  0.00    -0.200 F 
ATOM     59  F   UNL A   1      50.374  26.327  24.020  1.00  0.00    -0.200 F 
ENDBRANCH  25  49
BRANCH  37  60
ATOM     60  C   UNL A   1      45.121  33.717  29.013  1.00  0.00     0.064 A 
ATOM     61  C   UNL A   1      45.962  34.026  30.092  1.00  0.00     0.173 A 
ATOM     62  C   UNL A   1      44.976  34.665  27.990  1.00  0.00     0.173 A 
ATOM     63  F   UNL A   1      46.113  33.155  31.101  1.00  0.00    -0.203 F 
ATOM     64  C   UNL A   1      46.622  35.249  30.151  1.00  0.00     0.198 A 
ATOM     65  C   UNL A   1      45.658  35.874  28.040  1.00  0.00     0.198 A 
ATOM     66  F   UNL A   1      44.185  34.408  26.937  1.00  0.00    -0.203 F 
ATOM     67  F   UNL A   1      47.390  35.542  31.209  1.00  0.00    -0.200 F 
ATOM     68  C   UNL A   1      46.477  36.168  29.121  1.00  0.00     0.200 A 
ATOM     69  F   UNL A   1      45.527  36.757  27.040  1.00  0.00    -0.200 F 
ATOM     70  F   UNL A   1      47.123  37.340  29.175  1.00  0.00    -0.200 F 
ENDBRANCH  37  60
ENDBRANCH  11  12
ENDBRANCH   4   6
ENDBRANCH   3   4
ENDBRANCH   2   3
ENDBRANCH   1   2
BRANCH   1  71
ATOM     71  O   UNL A   1      35.605  22.685  23.363  1.00  0.00    -0.374 OA
BRANCH  71  72
ATOM     72  C   UNL A   1      35.166  23.952  23.857  1.00  0.00     0.202 C 
BRANCH  72  73
ATOM     73  C   UNL A   1      33.858  24.299  23.131  1.00  0.00     0.261 C 
BRANCH  73  74
ATOM     74  O   UNL A   1      32.795  24.317  24.100  1.00  0.00    -0.460 OA
BRANCH  74  75
ATOM     75  C   UNL A   1      31.872  23.311  23.975  1.00  0.00     0.342 C 
ATOM     76  O   UNL A   1      30.836  23.379  23.344  1.00  0.00    -0.246 OA
BRANCH  75  77
ATOM     77  C   UNL A   1      32.358  22.115  24.634  1.00  0.00     0.111 A 
ATOM     78  C   UNL A   1      32.437  20.818  24.058  1.00  0.00     0.067 A 
ATOM     79  C   UNL A   1      32.772  21.975  25.954  1.00  0.00     0.223 A 
ATOM     80  C   UNL A   1      32.913  19.978  25.032  1.00  0.00     0.135 A 
ATOM     81  O   UNL A   1      33.094  20.656  26.193  1.00  0.00    -0.451 OA
BRANCH  79  82
ATOM     82  C   UNL A   1      32.873  22.880  27.130  1.00  0.00     0.450 C 
ATOM     83  F   UNL A   1      33.949  23.709  27.019  1.00  0.00    -0.163 F 
ATOM     84  F   UNL A   1      31.786  23.685  27.250  1.00  0.00    -0.163 F 
ATOM     85  F   UNL A   1      33.011  22.240  28.315  1.00  0.00    -0.163 F 
ENDBRANCH  79  82
BRANCH  80  86
ATOM     86  C   UNL A   1      33.300  18.588  25.000  1.00  0.00     0.019 A 
ATOM     87  C   UNL A   1      34.428  18.227  24.250  1.00  0.00     0.012 A 
ATOM     88  C   UNL A   1      32.528  17.597  25.613  1.00  0.00     0.032 A 
ATOM     89  C   UNL A   1      34.779  16.888  24.100  1.00  0.00     0.002 A 
ATOM     90  C   UNL A   1      32.879  16.257  25.450  1.00  0.00     0.041 A 
ATOM     91  C   UNL A   1      33.997  15.900  24.694  1.00  0.00     0.020 A 
ATOM     92  Cl  UNL A   1      31.907  15.027  26.158  1.00  0.00    -0.084 Cl
ENDBRANCH  80  86
ENDBRANCH  75  77
ENDBRANCH  74  75
ENDBRANCH  73  74
ENDBRANCH  72  73
ENDBRANCH  71  72
ENDBRANCH   1  71
TORSDOF 16
ENDMDL
MODEL 3
REMARK VINA RESULT:     -11.9      1.748      2.822
REMARK SMILES O=C(OCCOCCOC(=O)c1cc(-c2cccc(Cl)c2)oc1C(F)(F)F)c1ccc(-c2c3nc(c(-c4c(F)c(F)c(F)c(F)c4F)c4ccc([nH]4)c(-c4c(F)c(F)c(F)c(F)c4F)c4nc(c(-c5c(F)c(F)c(F)c(F)c5F)c5ccc2[nH]5)C=C4)C=C3)cc1
REMARK SMILES IDX 5 1 4 2 3 3 2 4 1 5 28 6 29 7 90 8 30 9 89 10 31 11 32 12
REMARK SMILES IDX 33 13 83 14 34 15 88 16 82 17 84 18 35 19 87 20 81 21 80 22
REMARK SMILES IDX 36 24 68 25 48 26 67 27 49 28 52 29 66 30 85 31 50 32 51 33
REMARK SMILES IDX 65 35 86 36 53 37 37 38 38 39 46 40 39 41 40 42 44 43 47 44
REMARK SMILES IDX 41 45 42 46 45 47 43 48 69 49 70 50 78 51 71 52 72 53 76 54
REMARK SMILES IDX 79 55 73 56 74 57 77 58 75 59 54 60 55 61 63 62 56 63 57 64
REMARK SMILES IDX 61 65 64 66 58 67 59 68 62 69 60 70 6 71 7 72 8 73 9 74
REMARK SMILES IDX 10 75 11 76 12 77 13 78 23 79 14 80 22 81 24 82 25 83 26 84
REMARK SMILES IDX 27 85 15 86 16 87 21 88 17 89 19 90 18 91 20 92
REMARK H PARENT 84 23 52 34
REMARK Flexibility Score: inf
ROOT
ATOM      1  C   UNL A   1      32.341  28.034  25.814  1.00  0.00     0.202 C 
ENDROOT
BRANCH   1   2
ATOM      2  C   UNL A   1      31.824  29.468  25.871  1.00  0.00     0.261 C 
BRANCH   2   3
ATOM      3  O   UNL A   1      32.932  30.381  25.849  1.00  0.00    -0.460 OA
BRANCH   3   4
ATOM      4  C   UNL A   1      33.420  31.099  26.886  1.00  0.00     0.338 C 
ATOM      5  O   UNL A   1      32.752  32.025  27.340  1.00  0.00    -0.246 OA
BRANCH   4   6
ATOM      6  C   UNL A   1      34.745  30.823  27.511  1.00  0.00     0.060 A 
ATOM      7  C   UNL A   1      35.632  31.815  27.933  1.00  0.00     0.016 A 
ATOM      8  C   UNL A   1      35.049  29.487  27.817  1.00  0.00     0.016 A 
ATOM      9  C   UNL A   1      36.802  31.504  28.608  1.00  0.00     0.010 A 
ATOM     10  C   UNL A   1      36.197  29.167  28.548  1.00  0.00     0.010 A 
ATOM     11  C   UNL A   1      37.069  30.184  28.958  1.00  0.00    -0.014 A 
BRANCH  11  12
ATOM     12  C   UNL A   1      38.254  29.906  29.787  1.00  0.00     0.031 A 
ATOM     13  C   UNL A   1      39.353  29.062  29.233  1.00  0.00     0.074 A 
ATOM     14  C   UNL A   1      38.347  30.486  30.999  1.00  0.00     0.049 A 
ATOM     15  N   UNL A   1      40.424  28.610  29.826  1.00  0.00    -0.248 NA
ATOM     16  C   UNL A   1      39.237  28.682  27.815  1.00  0.00     0.031 C 
ATOM     17  C   UNL A   1      37.359  31.407  31.568  1.00  0.00     0.029 A 
ATOM     18  N   UNL A   1      39.319  30.407  31.960  1.00  0.00    -0.354 N 
ATOM     19  C   UNL A   1      41.090  27.860  28.869  1.00  0.00     0.074 A 
ATOM     20  C   UNL A   1      40.316  27.930  27.649  1.00  0.00     0.031 C 
ATOM     21  C   UNL A   1      37.785  31.822  32.771  1.00  0.00     0.029 A 
ATOM     22  C   UNL A   1      39.029  31.132  33.091  1.00  0.00     0.049 A 
ATOM     23  H   UNL A   1      40.145  29.883  31.852  1.00  0.00     0.167 HD
ATOM     24  C   UNL A   1      42.239  27.163  29.021  1.00  0.00     0.037 A 
ATOM     25  C   UNL A   1      39.675  31.185  34.271  1.00  0.00     0.037 A 
ATOM     26  C   UNL A   1      42.989  27.129  30.246  1.00  0.00     0.049 A 
ATOM     27  C   UNL A   1      40.910  30.341  34.429  1.00  0.00     0.074 A 
ATOM     28  C   UNL A   1      44.152  26.439  30.533  1.00  0.00     0.029 A 
ATOM     29  N   UNL A   1      42.641  27.829  31.394  1.00  0.00    -0.354 N 
ATOM     30  N   UNL A   1      41.513  29.585  33.541  1.00  0.00    -0.248 NA
ATOM     31  C   UNL A   1      41.538  30.327  35.756  1.00  0.00     0.031 C 
ATOM     32  C   UNL A   1      44.483  26.689  31.869  1.00  0.00     0.029 A 
ATOM     33  C   UNL A   1      43.550  27.565  32.403  1.00  0.00     0.049 A 
ATOM     34  H   UNL A   1      41.862  28.425  31.479  1.00  0.00     0.167 HD
ATOM     35  C   UNL A   1      42.586  29.004  34.197  1.00  0.00     0.074 A 
ATOM     36  C   UNL A   1      42.573  29.524  35.551  1.00  0.00     0.031 C 
ATOM     37  C   UNL A   1      43.493  28.108  33.737  1.00  0.00     0.037 A 
BRANCH  24  38
ATOM     38  C   UNL A   1      42.697  26.329  27.864  1.00  0.00     0.064 A 
ATOM     39  C   UNL A   1      42.367  24.972  27.745  1.00  0.00     0.173 A 
ATOM     40  C   UNL A   1      43.481  26.907  26.854  1.00  0.00     0.173 A 
ATOM     41  F   UNL A   1      41.642  24.368  28.699  1.00  0.00    -0.203 F 
ATOM     42  C   UNL A   1      42.820  24.219  26.665  1.00  0.00     0.198 A 
ATOM     43  C   UNL A   1      43.916  26.156  25.765  1.00  0.00     0.198 A 
ATOM     44  F   UNL A   1      43.831  28.200  26.928  1.00  0.00    -0.203 F 
ATOM     45  F   UNL A   1      42.528  22.913  26.590  1.00  0.00    -0.200 F 
ATOM     46  C   UNL A   1      43.589  24.812  25.673  1.00  0.00     0.200 A 
ATOM     47  F   UNL A   1      44.657  26.733  24.809  1.00  0.00    -0.200 F 
ATOM     48  F   UNL A   1      44.024  24.085  24.635  1.00  0.00    -0.200 F 
ENDBRANCH  24  38
BRANCH  25  49
ATOM     49  C   UNL A   1      39.128  31.982  35.402  1.00  0.00     0.064 A 
ATOM     50  C   UNL A   1      39.419  33.345  35.543  1.00  0.00     0.173 A 
ATOM     51  C   UNL A   1      38.322  31.388  36.387  1.00  0.00     0.173 A 
ATOM     52  F   UNL A   1      40.205  33.959  34.645  1.00  0.00    -0.203 F 
ATOM     53  C   UNL A   1      38.945  34.076  36.633  1.00  0.00     0.198 A 
ATOM     54  C   UNL A   1      37.820  32.127  37.456  1.00  0.00     0.198 A 
ATOM     55  F   UNL A   1      38.013  30.085  36.308  1.00  0.00    -0.203 F 
ATOM     56  F   UNL A   1      39.286  35.365  36.771  1.00  0.00    -0.200 F 
ATOM     57  C   UNL A   1      38.142  33.467  37.585  1.00  0.00     0.200 A 
ATOM     58  F   UNL A   1      37.031  31.535  38.365  1.00  0.00    -0.200 F 
ATOM     59  F   UNL A   1      37.686  34.170  38.631  1.00  0.00    -0.200 F 
ENDBRANCH  25  49
BRANCH  37  60
ATOM     60  C   UNL A   1      44.531  27.644  34.710  1.00  0.00     0.064 A 
ATOM     61  C   UNL A   1      44.334  26.492  35.485  1.00  0.00     0.173 A 
ATOM     62  C   UNL A   1      45.749  28.327  34.831  1.00  0.00     0.173 A 
ATOM     63  F   UNL A   1      43.175  25.821  35.415  1.00  0.00    -0.203 F 
ATOM     64  C   UNL A   1      45.319  26.049  36.362  1.00  0.00     0.198 A 
ATOM     65  C   UNL A   1      46.741  27.865  35.688  1.00  0.00     0.198 A 
ATOM     66  F   UNL A   1      45.981  29.430  34.104  1.00  0.00    -0.203 F 
ATOM     67  F   UNL A   1      45.097  24.968  37.123  1.00  0.00    -0.200 F 
ATOM     68  C   UNL A   1      46.524  26.730  36.456  1.00  0.00     0.200 A 
ATOM     69  F   UNL A   1      47.909  28.516  35.770  1.00  0.00    -0.200 F 
ATOM     70  F   UNL A   1      47.475  26.294  37.293  1.00  0.00    -0.200 F 
ENDBRANCH  37  60
ENDBRANCH  11  12
ENDBRANCH   4   6
ENDBRANCH   3   4
ENDBRANCH   2   3
ENDBRANCH   1   2
BRANCH   1  71
ATOM     71  O   UNL A   1      31.707  27.234  24.824  1.00  0.00    -0.374 OA
BRANCH  71  72
ATOM     72  C   UNL A   1      32.442  26.114  24.327  1.00  0.00     0.202 C 
BRANCH  72  73
ATOM     73  C   UNL A   1      31.757  25.656  23.032  1.00  0.00     0.261 C 
BRANCH  73  74
ATOM     74  O   UNL A   1      31.893  24.228  22.929  1.00  0.00    -0.460 OA
BRANCH  74  75
ATOM     75  C   UNL A   1      33.024  23.792  22.289  1.00  0.00     0.342 C 
ATOM     76  O   UNL A   1      33.278  23.959  21.112  1.00  0.00    -0.246 OA
BRANCH  75  77
ATOM     77  C   UNL A   1      33.924  23.178  23.247  1.00  0.00     0.111 A 
ATOM     78  C   UNL A   1      35.202  23.670  23.626  1.00  0.00     0.067 A 
ATOM     79  C   UNL A   1      33.759  21.974  23.923  1.00  0.00     0.223 A 
ATOM     80  C   UNL A   1      35.725  22.771  24.519  1.00  0.00     0.135 A 
ATOM     81  O   UNL A   1      34.878  21.725  24.688  1.00  0.00    -0.451 OA
BRANCH  79  82
ATOM     82  C   UNL A   1      32.718  20.911  23.949  1.00  0.00     0.450 C 
ATOM     83  F   UNL A   1      32.066  20.836  22.755  1.00  0.00    -0.163 F 
ATOM     84  F   UNL A   1      33.251  19.681  24.168  1.00  0.00    -0.163 F 
ATOM     85  F   UNL A   1      31.763  21.091  24.891  1.00  0.00    -0.163 F 
ENDBRANCH  79  82
BRANCH  80  86
ATOM     86  C   UNL A   1      36.928  22.795  25.317  1.00  0.00     0.019 A 
ATOM     87  C   UNL A   1      37.288  23.995  25.945  1.00  0.00     0.012 A 
ATOM     88  C   UNL A   1      37.779  21.690  25.394  1.00  0.00     0.032 A 
ATOM     89  C   UNL A   1      38.492  24.100  26.636  1.00  0.00     0.002 A 
ATOM     90  C   UNL A   1      38.989  21.804  26.078  1.00  0.00     0.041 A 
ATOM     91  C   UNL A   1      39.349  23.003  26.695  1.00  0.00     0.020 A 
ATOM     92  Cl  UNL A   1      40.067  20.465  26.137  1.00  0.00    -0.084 Cl
ENDBRANCH  80  86
ENDBRANCH  75  77
ENDBRANCH  74  75
ENDBRANCH  73  74
ENDBRANCH  72  73
ENDBRANCH  71  72
ENDBRANCH   1  71
TORSDOF 16
ENDMDL
