MODEL 1
REMARK VINA RESULT:     -11.2      0.000      0.000
REMARK SMILES O=C(OCCOCCOC(=O)[C@@H]1CCC[N@@H+](Cc2ccc(F)cc2Cl)C1)c1ccc(-c2c3nc(c(-c4c(F)c(F)c(F)c(F)c4F)c4ccc([nH]4)c(-c4c(F)c(F)c(F)c(F)c4F)c4nc(c(-c5c(F)c(F)c(F)c(F)c5F)c5ccc2[nH]5)C=C4)C=C3)cc1
REMARK SMILES IDX 6 1 5 2 4 3 3 4 2 5 1 6 27 7 28 8 89 9 29 10 88 11 30 12
REMARK SMILES IDX 31 13 32 14 82 15 33 16 87 17 81 18 83 19 34 20 86 21 80 22
REMARK SMILES IDX 79 23 35 25 67 26 47 27 66 28 48 29 51 30 65 31 84 32 49 33
REMARK SMILES IDX 50 34 64 36 85 37 52 38 36 39 37 40 45 41 38 42 39 43 43 44
REMARK SMILES IDX 46 45 40 46 41 47 44 48 42 49 68 50 69 51 77 52 70 53 71 54
REMARK SMILES IDX 75 55 78 56 72 57 73 58 76 59 74 60 53 61 54 62 62 63 55 64
REMARK SMILES IDX 56 65 60 66 63 67 57 68 58 69 61 70 59 71 7 72 8 73 9 74
REMARK SMILES IDX 10 75 11 76 12 77 13 78 26 79 14 80 16 81 15 82 17 84 18 85
REMARK SMILES IDX 19 86 24 87 20 88 23 89 25 90 21 91 22 92
REMARK H PARENT 83 24 51 35 16 83
REMARK Flexibility Score: inf
ROOT
ATOM      1  O   UNL A   1      30.710  27.610  24.872  1.00  0.00    -0.374 OA
ENDROOT
BRANCH   1   2
ATOM      2  C   UNL A   1      31.463  28.194  25.926  1.00  0.00     0.202 C 
BRANCH   2   3
ATOM      3  C   UNL A   1      31.781  29.694  25.873  1.00  0.00     0.261 C 
BRANCH   3   4
ATOM      4  O   UNL A   1      33.153  29.982  26.221  1.00  0.00    -0.460 OA
BRANCH   4   5
ATOM      5  C   UNL A   1      33.558  31.002  27.024  1.00  0.00     0.338 C 
ATOM      6  O   UNL A   1      32.879  32.019  27.161  1.00  0.00    -0.246 OA
BRANCH   5   7
ATOM      7  C   UNL A   1      34.830  30.867  27.763  1.00  0.00     0.060 A 
ATOM      8  C   UNL A   1      35.170  29.643  28.310  1.00  0.00     0.016 A 
ATOM      9  C   UNL A   1      35.720  31.925  27.909  1.00  0.00     0.016 A 
ATOM     10  C   UNL A   1      36.172  29.502  29.227  1.00  0.00     0.010 A 
ATOM     11  C   UNL A   1      36.906  31.718  28.626  1.00  0.00     0.010 A 
ATOM     12  C   UNL A   1      37.123  30.498  29.294  1.00  0.00    -0.014 A 
BRANCH  12  13
ATOM     13  C   UNL A   1      38.346  30.166  30.038  1.00  0.00     0.031 A 
ATOM     14  C   UNL A   1      39.370  29.314  29.377  1.00  0.00     0.074 A 
ATOM     15  C   UNL A   1      38.548  30.739  31.244  1.00  0.00     0.049 A 
ATOM     16  N   UNL A   1      40.426  28.756  29.896  1.00  0.00    -0.248 NA
ATOM     17  C   UNL A   1      39.182  29.044  27.942  1.00  0.00     0.031 C 
ATOM     18  C   UNL A   1      37.647  31.705  31.896  1.00  0.00     0.029 A 
ATOM     19  N   UNL A   1      39.588  30.635  32.127  1.00  0.00    -0.354 N 
ATOM     20  C   UNL A   1      40.986  28.008  28.873  1.00  0.00     0.074 A 
ATOM     21  C   UNL A   1      40.173  28.201  27.695  1.00  0.00     0.031 C 
ATOM     22  C   UNL A   1      38.198  32.138  33.036  1.00  0.00     0.029 A 
ATOM     23  C   UNL A   1      39.408  31.374  33.274  1.00  0.00     0.049 A 
ATOM     24  H   UNL A   1      40.387  30.084  31.959  1.00  0.00     0.167 HD
ATOM     25  C   UNL A   1      42.073  27.212  28.952  1.00  0.00     0.037 A 
ATOM     26  C   UNL A   1      40.102  31.363  34.424  1.00  0.00     0.037 A 
ATOM     27  C   UNL A   1      42.858  27.086  30.151  1.00  0.00     0.049 A 
ATOM     28  C   UNL A   1      41.257  30.405  34.503  1.00  0.00     0.074 A 
ATOM     29  C   UNL A   1      43.960  26.289  30.384  1.00  0.00     0.029 A 
ATOM     30  N   UNL A   1      42.615  27.798  31.321  1.00  0.00    -0.354 N 
ATOM     31  N   UNL A   1      41.740  29.619  33.569  1.00  0.00    -0.248 NA
ATOM     32  C   UNL A   1      41.940  30.302  35.794  1.00  0.00     0.031 C 
ATOM     33  C   UNL A   1      44.354  26.480  31.713  1.00  0.00     0.029 A 
ATOM     34  C   UNL A   1      43.534  27.441  32.291  1.00  0.00     0.049 A 
ATOM     35  H   UNL A   1      41.896  28.459  31.441  1.00  0.00     0.167 HD
ATOM     36  C   UNL A   1      42.792  28.935  34.153  1.00  0.00     0.074 A 
ATOM     37  C   UNL A   1      42.895  29.427  35.515  1.00  0.00     0.031 C 
ATOM     38  C   UNL A   1      43.595  27.979  33.627  1.00  0.00     0.037 A 
BRANCH  25  39
ATOM     39  C   UNL A   1      42.400  26.368  27.761  1.00  0.00     0.064 A 
ATOM     40  C   UNL A   1      41.770  25.141  27.514  1.00  0.00     0.173 A 
ATOM     41  C   UNL A   1      43.377  26.800  26.850  1.00  0.00     0.173 A 
ATOM     42  F   UNL A   1      40.855  24.665  28.372  1.00  0.00    -0.203 F 
ATOM     43  C   UNL A   1      42.116  24.370  26.405  1.00  0.00     0.198 A 
ATOM     44  C   UNL A   1      43.702  26.040  25.730  1.00  0.00     0.198 A 
ATOM     45  F   UNL A   1      44.023  27.958  27.051  1.00  0.00    -0.203 F 
ATOM     46  F   UNL A   1      41.537  23.176  26.213  1.00  0.00    -0.200 F 
ATOM     47  C   UNL A   1      43.076  24.824  25.511  1.00  0.00     0.200 A 
ATOM     48  F   UNL A   1      44.628  26.482  24.869  1.00  0.00    -0.200 F 
ATOM     49  F   UNL A   1      43.404  24.082  24.444  1.00  0.00    -0.200 F 
ENDBRANCH  25  39
BRANCH  26  50
ATOM     50  C   UNL A   1      39.666  32.171  35.597  1.00  0.00     0.064 A 
ATOM     51  C   UNL A   1      38.715  31.682  36.504  1.00  0.00     0.173 A 
ATOM     52  C   UNL A   1      40.158  33.470  35.818  1.00  0.00     0.173 A 
ATOM     53  F   UNL A   1      38.198  30.456  36.334  1.00  0.00    -0.203 F 
ATOM     54  C   UNL A   1      38.251  32.468  37.558  1.00  0.00     0.198 A 
ATOM     55  C   UNL A   1      39.723  34.238  36.896  1.00  0.00     0.198 A 
ATOM     56  F   UNL A   1      41.070  33.996  34.987  1.00  0.00    -0.203 F 
ATOM     57  F   UNL A   1      37.290  31.999  38.366  1.00  0.00    -0.200 F 
ATOM     58  C   UNL A   1      38.757  33.744  37.756  1.00  0.00     0.200 A 
ATOM     59  F   UNL A   1      40.233  35.462  37.092  1.00  0.00    -0.200 F 
ATOM     60  F   UNL A   1      38.304  34.500  38.764  1.00  0.00    -0.200 F 
ENDBRANCH  26  50
BRANCH  38  61
ATOM     61  C   UNL A   1      44.667  27.446  34.524  1.00  0.00     0.064 A 
ATOM     62  C   UNL A   1      44.474  26.289  35.291  1.00  0.00     0.173 A 
ATOM     63  C   UNL A   1      45.916  28.082  34.580  1.00  0.00     0.173 A 
ATOM     64  F   UNL A   1      43.287  25.663  35.284  1.00  0.00    -0.203 F 
ATOM     65  C   UNL A   1      45.489  25.800  36.105  1.00  0.00     0.198 A 
ATOM     66  C   UNL A   1      46.940  27.567  35.365  1.00  0.00     0.198 A 
ATOM     67  F   UNL A   1      46.145  29.188  33.858  1.00  0.00    -0.203 F 
ATOM     68  F   UNL A   1      45.269  24.723  36.872  1.00  0.00    -0.200 F 
ATOM     69  C   UNL A   1      46.724  26.432  36.132  1.00  0.00     0.200 A 
ATOM     70  F   UNL A   1      48.137  28.170  35.377  1.00  0.00    -0.200 F 
ATOM     71  F   UNL A   1      47.706  25.951  36.906  1.00  0.00    -0.200 F 
ENDBRANCH  38  61
ENDBRANCH  12  13
ENDBRANCH   5   7
ENDBRANCH   4   5
ENDBRANCH   3   4
ENDBRANCH   2   3
ENDBRANCH   1   2
BRANCH   1  72
ATOM     72  C   UNL A   1      30.479  26.207  24.975  1.00  0.00     0.202 C 
BRANCH  72  73
ATOM     73  C   UNL A   1      30.930  25.736  26.352  1.00  0.00     0.261 C 
BRANCH  73  74
ATOM     74  O   UNL A   1      31.721  24.546  26.172  1.00  0.00    -0.463 OA
BRANCH  74  75
ATOM     75  C   UNL A   1      31.117  23.381  26.529  1.00  0.00     0.314 C 
ATOM     76  O   UNL A   1      30.348  23.258  27.476  1.00  0.00    -0.252 OA
BRANCH  75  77
ATOM     77  C   UNL A   1      31.542  22.212  25.646  1.00  0.00     0.154 C 
ATOM     78  C   UNL A   1      32.684  21.306  26.144  1.00  0.00     0.027 C 
ATOM     79  C   UNL A   1      31.757  22.683  24.196  1.00  0.00     0.277 C 
ATOM     80  C   UNL A   1      34.083  21.617  25.604  1.00  0.00     0.062 C 
ATOM     81  N   UNL A   1      33.131  23.096  23.888  1.00  0.00    -0.330 N 
ATOM     82  C   UNL A   1      34.096  22.027  24.131  1.00  0.00     0.262 C 
ATOM     83  H   UNL A   1      33.356  23.830  24.559  1.00  0.00     0.348 HD
BRANCH  81  84
ATOM     84  C   UNL A   1      33.289  23.779  22.586  1.00  0.00     0.300 C 
BRANCH  84  85
ATOM     85  C   UNL A   1      33.488  25.277  22.646  1.00  0.00     0.025 A 
ATOM     86  C   UNL A   1      34.001  25.839  23.833  1.00  0.00     0.014 A 
ATOM     87  C   UNL A   1      33.136  26.143  21.596  1.00  0.00     0.052 A 
ATOM     88  C   UNL A   1      34.044  27.218  24.011  1.00  0.00     0.040 A 
ATOM     89  C   UNL A   1      33.207  27.527  21.766  1.00  0.00     0.060 A 
ATOM     90  Cl  UNL A   1      32.607  25.563  20.056  1.00  0.00    -0.084 Cl
ATOM     91  C   UNL A   1      33.631  28.048  22.981  1.00  0.00     0.124 A 
ATOM     92  F   UNL A   1      33.643  29.374  23.162  1.00  0.00    -0.207 F 
ENDBRANCH  84  85
ENDBRANCH  81  84
ENDBRANCH  75  77
ENDBRANCH  74  75
ENDBRANCH  73  74
ENDBRANCH  72  73
ENDBRANCH   1  72
TORSDOF 16
ENDMDL
MODEL 2
REMARK VINA RESULT:     -11.1      1.691      2.671
REMARK SMILES O=C(OCCOCCOC(=O)[C@@H]1CCC[N@@H+](Cc2ccc(F)cc2Cl)C1)c1ccc(-c2c3nc(c(-c4c(F)c(F)c(F)c(F)c4F)c4ccc([nH]4)c(-c4c(F)c(F)c(F)c(F)c4F)c4nc(c(-c5c(F)c(F)c(F)c(F)c5F)c5ccc2[nH]5)C=C4)C=C3)cc1
REMARK SMILES IDX 6 1 5 2 4 3 3 4 2 5 1 6 27 7 28 8 89 9 29 10 88 11 30 12
REMARK SMILES IDX 31 13 32 14 82 15 33 16 87 17 81 18 83 19 34 20 86 21 80 22
REMARK SMILES IDX 79 23 35 25 67 26 47 27 66 28 48 29 51 30 65 31 84 32 49 33
REMARK SMILES IDX 50 34 64 36 85 37 52 38 36 39 37 40 45 41 38 42 39 43 43 44
REMARK SMILES IDX 46 45 40 46 41 47 44 48 42 49 68 50 69 51 77 52 70 53 71 54
REMARK SMILES IDX 75 55 78 56 72 57 73 58 76 59 74 60 53 61 54 62 62 63 55 64
REMARK SMILES IDX 56 65 60 66 63 67 57 68 58 69 61 70 59 71 7 72 8 73 9 74
REMARK SMILES IDX 10 75 11 76 12 77 13 78 26 79 14 80 16 81 15 82 17 84 18 85
REMARK SMILES IDX 19 86 24 87 20 88 23 89 25 90 21 91 22 92
REMARK H PARENT 83 24 51 35 16 83
REMARK Flexibility Score: inf
ROOT
ATOM      1  O   UNL A   1      30.902  29.408  23.406  1.00  0.00    -0.374 OA
ENDROOT
BRANCH   1   2
ATOM      2  C   UNL A   1      31.800  29.006  24.431  1.00  0.00     0.202 C 
BRANCH   2   3
ATOM      3  C   UNL A   1      31.851  29.814  25.735  1.00  0.00     0.261 C 
BRANCH   3   4
ATOM      4  O   UNL A   1      33.200  30.157  26.122  1.00  0.00    -0.460 OA
BRANCH   4   5
ATOM      5  C   UNL A   1      33.534  31.116  27.026  1.00  0.00     0.338 C 
ATOM      6  O   UNL A   1      32.806  32.088  27.229  1.00  0.00    -0.246 OA
BRANCH   5   7
ATOM      7  C   UNL A   1      34.787  30.968  27.794  1.00  0.00     0.060 A 
ATOM      8  C   UNL A   1      35.124  29.730  28.309  1.00  0.00     0.016 A 
ATOM      9  C   UNL A   1      35.662  32.029  28.000  1.00  0.00     0.016 A 
ATOM     10  C   UNL A   1      36.102  29.567  29.248  1.00  0.00     0.010 A 
ATOM     11  C   UNL A   1      36.830  31.808  28.742  1.00  0.00     0.010 A 
ATOM     12  C   UNL A   1      37.042  30.569  29.374  1.00  0.00    -0.014 A 
BRANCH  12  13
ATOM     13  C   UNL A   1      38.248  30.222  30.139  1.00  0.00     0.031 A 
ATOM     14  C   UNL A   1      39.285  29.380  29.487  1.00  0.00     0.074 A 
ATOM     15  C   UNL A   1      38.424  30.775  31.359  1.00  0.00     0.049 A 
ATOM     16  N   UNL A   1      40.329  28.812  30.021  1.00  0.00    -0.248 NA
ATOM     17  C   UNL A   1      39.128  29.134  28.044  1.00  0.00     0.031 C 
ATOM     18  C   UNL A   1      37.509  31.731  32.006  1.00  0.00     0.029 A 
ATOM     19  N   UNL A   1      39.443  30.655  32.263  1.00  0.00    -0.354 N 
ATOM     20  C   UNL A   1      40.911  28.081  28.998  1.00  0.00     0.074 A 
ATOM     21  C   UNL A   1      40.124  28.294  27.805  1.00  0.00     0.031 C 
ATOM     22  C   UNL A   1      38.035  32.145  33.166  1.00  0.00     0.029 A 
ATOM     23  C   UNL A   1      39.238  31.375  33.418  1.00  0.00     0.049 A 
ATOM     24  H   UNL A   1      40.245  30.106  32.103  1.00  0.00     0.167 HD
ATOM     25  C   UNL A   1      41.995  27.282  29.088  1.00  0.00     0.037 A 
ATOM     26  C   UNL A   1      39.907  31.344  34.582  1.00  0.00     0.037 A 
ATOM     27  C   UNL A   1      42.753  27.135  30.301  1.00  0.00     0.049 A 
ATOM     28  C   UNL A   1      41.059  30.384  34.671  1.00  0.00     0.074 A 
ATOM     29  C   UNL A   1      43.849  26.333  30.546  1.00  0.00     0.029 A 
ATOM     30  N   UNL A   1      42.485  27.828  31.477  1.00  0.00    -0.354 N 
ATOM     31  N   UNL A   1      41.562  29.613  33.735  1.00  0.00    -0.248 NA
ATOM     32  C   UNL A   1      41.713  30.259  35.975  1.00  0.00     0.031 C 
ATOM     33  C   UNL A   1      44.213  26.502  31.886  1.00  0.00     0.029 A 
ATOM     34  C   UNL A   1      43.381  27.454  32.461  1.00  0.00     0.049 A 
ATOM     35  H   UNL A   1      41.763  28.488  31.593  1.00  0.00     0.167 HD
ATOM     36  C   UNL A   1      42.600  28.918  34.331  1.00  0.00     0.074 A 
ATOM     37  C   UNL A   1      42.673  29.387  35.703  1.00  0.00     0.031 C 
ATOM     38  C   UNL A   1      43.414  27.969  33.807  1.00  0.00     0.037 A 
BRANCH  25  39
ATOM     39  C   UNL A   1      42.347  26.457  27.890  1.00  0.00     0.064 A 
ATOM     40  C   UNL A   1      41.753  25.214  27.632  1.00  0.00     0.173 A 
ATOM     41  C   UNL A   1      43.312  26.924  26.984  1.00  0.00     0.173 A 
ATOM     42  F   UNL A   1      40.851  24.705  28.485  1.00  0.00    -0.203 F 
ATOM     43  C   UNL A   1      42.123  24.462  26.518  1.00  0.00     0.198 A 
ATOM     44  C   UNL A   1      43.661  26.183  25.859  1.00  0.00     0.198 A 
ATOM     45  F   UNL A   1      43.924  28.099  27.196  1.00  0.00    -0.203 F 
ATOM     46  F   UNL A   1      41.578  23.254  26.316  1.00  0.00    -0.200 F 
ATOM     47  C   UNL A   1      43.069  24.951  25.629  1.00  0.00     0.200 A 
ATOM     48  F   UNL A   1      44.575  26.659  25.002  1.00  0.00    -0.200 F 
ATOM     49  F   UNL A   1      43.421  24.228  24.557  1.00  0.00    -0.200 F 
ENDBRANCH  25  39
BRANCH  26  50
ATOM     50  C   UNL A   1      39.446  32.134  35.758  1.00  0.00     0.064 A 
ATOM     51  C   UNL A   1      40.006  33.383  36.060  1.00  0.00     0.173 A 
ATOM     52  C   UNL A   1      38.462  31.642  36.634  1.00  0.00     0.173 A 
ATOM     53  F   UNL A   1      40.961  33.896  35.270  1.00  0.00    -0.203 F 
ATOM     54  C   UNL A   1      39.629  34.087  37.203  1.00  0.00     0.198 A 
ATOM     55  C   UNL A   1      38.056  32.365  37.753  1.00  0.00     0.198 A 
ATOM     56  F   UNL A   1      37.886  30.453  36.401  1.00  0.00    -0.203 F 
ATOM     57  F   UNL A   1      40.234  35.245  37.503  1.00  0.00    -0.200 F 
ATOM     58  C   UNL A   1      38.652  33.580  38.047  1.00  0.00     0.200 A 
ATOM     59  F   UNL A   1      37.097  31.878  38.552  1.00  0.00    -0.200 F 
ATOM     60  F   UNL A   1      38.296  34.254  39.149  1.00  0.00    -0.200 F 
ENDBRANCH  26  50
BRANCH  38  61
ATOM     61  C   UNL A   1      44.465  27.420  34.719  1.00  0.00     0.064 A 
ATOM     62  C   UNL A   1      44.244  26.267  35.483  1.00  0.00     0.173 A 
ATOM     63  C   UNL A   1      45.722  28.037  34.792  1.00  0.00     0.173 A 
ATOM     64  F   UNL A   1      43.048  25.658  35.459  1.00  0.00    -0.203 F 
ATOM     65  C   UNL A   1      45.240  25.762  36.310  1.00  0.00     0.198 A 
ATOM     66  C   UNL A   1      46.728  27.508  35.591  1.00  0.00     0.198 A 
ATOM     67  F   UNL A   1      45.978  29.140  34.073  1.00  0.00    -0.203 F 
ATOM     68  F   UNL A   1      44.993  24.689  37.074  1.00  0.00    -0.200 F 
ATOM     69  C   UNL A   1      46.484  26.376  36.355  1.00  0.00     0.200 A 
ATOM     70  F   UNL A   1      47.933  28.092  35.620  1.00  0.00    -0.200 F 
ATOM     71  F   UNL A   1      47.447  25.880  37.142  1.00  0.00    -0.200 F 
ENDBRANCH  38  61
ENDBRANCH  12  13
ENDBRANCH   5   7
ENDBRANCH   4   5
ENDBRANCH   3   4
ENDBRANCH   2   3
ENDBRANCH   1   2
BRANCH   1  72
ATOM     72  C   UNL A   1      30.598  28.420  22.423  1.00  0.00     0.202 C 
BRANCH  72  73
ATOM     73  C   UNL A   1      31.498  27.212  22.649  1.00  0.00     0.261 C 
BRANCH  73  74
ATOM     74  O   UNL A   1      30.654  26.050  22.755  1.00  0.00    -0.463 OA
BRANCH  74  75
ATOM     75  C   UNL A   1      29.908  25.967  23.889  1.00  0.00     0.314 C 
ATOM     76  O   UNL A   1      28.859  26.573  24.077  1.00  0.00    -0.252 OA
BRANCH  75  77
ATOM     77  C   UNL A   1      30.548  25.067  24.941  1.00  0.00     0.154 C 
ATOM     78  C   UNL A   1      31.342  25.735  26.079  1.00  0.00     0.027 C 
ATOM     79  C   UNL A   1      31.333  23.927  24.268  1.00  0.00     0.277 C 
ATOM     80  C   UNL A   1      32.860  25.812  25.894  1.00  0.00     0.062 C 
ATOM     81  N   UNL A   1      32.749  24.228  24.020  1.00  0.00    -0.330 N 
ATOM     82  C   UNL A   1      33.465  24.566  25.246  1.00  0.00     0.262 C 
ATOM     83  H   UNL A   1      32.755  25.075  23.452  1.00  0.00     0.348 HD
BRANCH  81  84
ATOM     84  C   UNL A   1      33.441  23.248  23.157  1.00  0.00     0.300 C 
BRANCH  84  85
ATOM     85  C   UNL A   1      34.610  22.523  23.787  1.00  0.00     0.025 A 
ATOM     86  C   UNL A   1      35.914  22.957  23.476  1.00  0.00     0.014 A 
ATOM     87  C   UNL A   1      34.461  21.404  24.625  1.00  0.00     0.052 A 
ATOM     88  C   UNL A   1      37.028  22.228  23.885  1.00  0.00     0.040 A 
ATOM     89  C   UNL A   1      35.580  20.690  25.058  1.00  0.00     0.060 A 
ATOM     90  Cl  UNL A   1      32.915  20.852  25.167  1.00  0.00    -0.084 Cl
ATOM     91  C   UNL A   1      36.847  21.092  24.659  1.00  0.00     0.124 A 
ATOM     92  F   UNL A   1      37.914  20.373  25.027  1.00  0.00    -0.207 F 
ENDBRANCH  84  85
ENDBRANCH  81  84
ENDBRANCH  75  77
ENDBRANCH  74  75
ENDBRANCH  73  74
ENDBRANCH  72  73
ENDBRANCH   1  72
TORSDOF 16
ENDMDL
MODEL 3
REMARK VINA RESULT:     -11.1      1.894      3.494
REMARK SMILES O=C(OCCOCCOC(=O)[C@@H]1CCC[N@@H+](Cc2ccc(F)cc2Cl)C1)c1ccc(-c2c3nc(c(-c4c(F)c(F)c(F)c(F)c4F)c4ccc([nH]4)c(-c4c(F)c(F)c(F)c(F)c4F)c4nc(c(-c5c(F)c(F)c(F)c(F)c5F)c5ccc2[nH]5)C=C4)C=C3)cc1
REMARK SMILES IDX 6 1 5 2 4 3 3 4 2 5 1 6 27 7 28 8 89 9 29 10 88 11 30 12
REMARK SMILES IDX 31 13 32 14 82 15 33 16 87 17 81 18 83 19 34 20 86 21 80 22
REMARK SMILES IDX 79 23 35 25 67 26 47 27 66 28 48 29 51 30 65 31 84 32 49 33
REMARK SMILES IDX 50 34 64 36 85 37 52 38 36 39 37 40 45 41 38 42 39 43 43 44
REMARK SMILES IDX 46 45 40 46 41 47 44 48 42 49 68 50 69 51 77 52 70 53 71 54
REMARK SMILES IDX 75 55 78 56 72 57 73 58 76 59 74 60 53 61 54 62 62 63 55 64
REMARK SMILES IDX 56 65 60 66 63 67 57 68 58 69 61 70 59 71 7 72 8 73 9 74
REMARK SMILES IDX 10 75 11 76 12 77 13 78 26 79 14 80 16 81 15 82 17 84 18 85
REMARK SMILES IDX 19 86 24 87 20 88 23 89 25 90 21 91 22 92
REMARK H PARENT 83 24 51 35 16 83
REMARK Flexibility Score: inf
ROOT
ATOM      1  O   UNL A   1      32.483  27.914  23.912  1.00  0.00    -0.374 OA
ENDROOT
BRANCH   1   2
ATOM      2  C   UNL A   1      33.068  27.752  25.196  1.00  0.00     0.202 C 
BRANCH   2   3
ATOM      3  C   UNL A   1      32.701  28.738  26.312  1.00  0.00     0.261 C 
BRANCH   3   4
ATOM      4  O   UNL A   1      33.135  30.086  26.026  1.00  0.00    -0.460 OA
BRANCH   4   5
ATOM      5  C   UNL A   1      33.435  31.026  26.962  1.00  0.00     0.338 C 
ATOM      6  O   UNL A   1      32.678  31.968  27.190  1.00  0.00    -0.246 OA
BRANCH   5   7
ATOM      7  C   UNL A   1      34.687  30.890  27.733  1.00  0.00     0.060 A 
ATOM      8  C   UNL A   1      35.033  29.657  28.254  1.00  0.00     0.016 A 
ATOM      9  C   UNL A   1      35.554  31.959  27.935  1.00  0.00     0.016 A 
ATOM     10  C   UNL A   1      36.011  29.506  29.195  1.00  0.00     0.010 A 
ATOM     11  C   UNL A   1      36.722  31.751  28.680  1.00  0.00     0.010 A 
ATOM     12  C   UNL A   1      36.942  30.516  29.318  1.00  0.00    -0.014 A 
BRANCH  12  13
ATOM     13  C   UNL A   1      38.150  30.182  30.087  1.00  0.00     0.031 A 
ATOM     14  C   UNL A   1      39.196  29.347  29.440  1.00  0.00     0.074 A 
ATOM     15  C   UNL A   1      38.318  30.740  31.305  1.00  0.00     0.049 A 
ATOM     16  N   UNL A   1      40.244  28.790  29.977  1.00  0.00    -0.248 NA
ATOM     17  C   UNL A   1      39.045  29.096  27.996  1.00  0.00     0.031 C 
ATOM     18  C   UNL A   1      37.393  31.689  31.948  1.00  0.00     0.029 A 
ATOM     19  N   UNL A   1      39.337  30.631  32.212  1.00  0.00    -0.354 N 
ATOM     20  C   UNL A   1      40.835  28.061  28.957  1.00  0.00     0.074 A 
ATOM     21  C   UNL A   1      40.049  28.264  27.762  1.00  0.00     0.031 C 
ATOM     22  C   UNL A   1      37.913  32.111  33.108  1.00  0.00     0.029 A 
ATOM     23  C   UNL A   1      39.123  31.352  33.364  1.00  0.00     0.049 A 
ATOM     24  H   UNL A   1      40.144  30.089  32.055  1.00  0.00     0.167 HD
ATOM     25  C   UNL A   1      41.926  27.272  29.052  1.00  0.00     0.037 A 
ATOM     26  C   UNL A   1      39.789  31.331  34.531  1.00  0.00     0.037 A 
ATOM     27  C   UNL A   1      42.682  27.136  30.267  1.00  0.00     0.049 A 
ATOM     28  C   UNL A   1      40.949  30.381  34.625  1.00  0.00     0.074 A 
ATOM     29  C   UNL A   1      43.785  26.344  30.517  1.00  0.00     0.029 A 
ATOM     30  N   UNL A   1      42.405  27.829  31.441  1.00  0.00    -0.354 N 
ATOM     31  N   UNL A   1      41.461  29.612  33.692  1.00  0.00    -0.248 NA
ATOM     32  C   UNL A   1      41.602  30.265  35.930  1.00  0.00     0.031 C 
ATOM     33  C   UNL A   1      44.144  26.520  31.857  1.00  0.00     0.029 A 
ATOM     34  C   UNL A   1      43.303  27.466  32.428  1.00  0.00     0.049 A 
ATOM     35  H   UNL A   1      41.678  28.483  31.553  1.00  0.00     0.167 HD
ATOM     36  C   UNL A   1      42.504  28.928  34.292  1.00  0.00     0.074 A 
ATOM     37  C   UNL A   1      42.570  29.401  35.663  1.00  0.00     0.031 C 
ATOM     38  C   UNL A   1      43.327  27.985  33.772  1.00  0.00     0.037 A 
BRANCH  25  39
ATOM     39  C   UNL A   1      42.288  26.448  27.857  1.00  0.00     0.064 A 
ATOM     40  C   UNL A   1      41.688  25.210  27.588  1.00  0.00     0.173 A 
ATOM     41  C   UNL A   1      43.269  26.909  26.965  1.00  0.00     0.173 A 
ATOM     42  F   UNL A   1      40.771  24.706  28.428  1.00  0.00    -0.203 F 
ATOM     43  C   UNL A   1      42.067  24.458  26.477  1.00  0.00     0.198 A 
ATOM     44  C   UNL A   1      43.627  26.168  25.843  1.00  0.00     0.198 A 
ATOM     45  F   UNL A   1      43.887  28.079  27.188  1.00  0.00    -0.203 F 
ATOM     46  F   UNL A   1      41.516  23.254  26.265  1.00  0.00    -0.200 F 
ATOM     47  C   UNL A   1      43.030  24.941  25.602  1.00  0.00     0.200 A 
ATOM     48  F   UNL A   1      44.556  26.639  25.000  1.00  0.00    -0.200 F 
ATOM     49  F   UNL A   1      43.390  24.218  24.533  1.00  0.00    -0.200 F 
ENDBRANCH  25  39
BRANCH  26  50
ATOM     50  C   UNL A   1      39.318  32.119  35.703  1.00  0.00     0.064 A 
ATOM     51  C   UNL A   1      39.814  33.405  35.962  1.00  0.00     0.173 A 
ATOM     52  C   UNL A   1      38.391  31.591  36.620  1.00  0.00     0.173 A 
ATOM     53  F   UNL A   1      40.713  33.953  35.132  1.00  0.00    -0.203 F 
ATOM     54  C   UNL A   1      39.430  34.112  37.101  1.00  0.00     0.198 A 
ATOM     55  C   UNL A   1      37.977  32.316  37.735  1.00  0.00     0.198 A 
ATOM     56  F   UNL A   1      37.878  30.366  36.430  1.00  0.00    -0.203 F 
ATOM     57  F   UNL A   1      39.976  35.309  37.357  1.00  0.00    -0.200 F 
ATOM     58  C   UNL A   1      38.510  33.569  37.985  1.00  0.00     0.200 A 
ATOM     59  F   UNL A   1      37.072  31.793  38.574  1.00  0.00    -0.200 F 
ATOM     60  F   UNL A   1      38.149  34.247  39.083  1.00  0.00    -0.200 F 
ENDBRANCH  26  50
BRANCH  38  61
ATOM     61  C   UNL A   1      44.382  27.448  34.688  1.00  0.00     0.064 A 
ATOM     62  C   UNL A   1      45.612  28.099  34.852  1.00  0.00     0.173 A 
ATOM     63  C   UNL A   1      44.135  26.290  35.439  1.00  0.00     0.173 A 
ATOM     64  F   UNL A   1      45.896  29.198  34.136  1.00  0.00    -0.203 F 
ATOM     65  C   UNL A   1      46.570  27.594  35.722  1.00  0.00     0.198 A 
ATOM     66  C   UNL A   1      45.081  25.810  36.336  1.00  0.00     0.198 A 
ATOM     67  F   UNL A   1      42.969  25.639  35.317  1.00  0.00    -0.203 F 
ATOM     68  F   UNL A   1      47.761  28.200  35.827  1.00  0.00    -0.200 F 
ATOM     69  C   UNL A   1      46.300  26.457  36.471  1.00  0.00     0.200 A 
ATOM     70  F   UNL A   1      44.812  24.723  37.070  1.00  0.00    -0.200 F 
ATOM     71  F   UNL A   1      47.221  25.980  37.319  1.00  0.00    -0.200 F 
ENDBRANCH  38  61
ENDBRANCH  12  13
ENDBRANCH   5   7
ENDBRANCH   4   5
ENDBRANCH   3   4
ENDBRANCH   2   3
ENDBRANCH   1   2
BRANCH   1  72
ATOM     72  C   UNL A   1      32.028  26.720  23.279  1.00  0.00     0.202 C 
BRANCH  72  73
ATOM     73  C   UNL A   1      32.888  26.460  22.048  1.00  0.00     0.261 C 
BRANCH  73  74
ATOM     74  O   UNL A   1      34.081  25.780  22.483  1.00  0.00    -0.463 OA
BRANCH  74  75
ATOM     75  C   UNL A   1      33.907  24.498  22.901  1.00  0.00     0.314 C 
ATOM     76  O   UNL A   1      33.583  23.568  22.171  1.00  0.00    -0.252 OA
BRANCH  75  77
ATOM     77  C   UNL A   1      34.112  24.344  24.404  1.00  0.00     0.154 C 
ATOM     78  C   UNL A   1      35.536  24.053  24.915  1.00  0.00     0.027 C 
ATOM     79  C   UNL A   1      33.068  23.379  24.994  1.00  0.00     0.277 C 
ATOM     80  C   UNL A   1      35.871  22.585  25.190  1.00  0.00     0.062 C 
ATOM     81  N   UNL A   1      33.496  21.975  25.040  1.00  0.00    -0.330 N 
ATOM     82  C   UNL A   1      34.720  21.797  25.816  1.00  0.00     0.262 C 
ATOM     83  H   UNL A   1      33.737  21.728  24.081  1.00  0.00     0.348 HD
BRANCH  81  84
ATOM     84  C   UNL A   1      32.420  21.016  25.367  1.00  0.00     0.300 C 
BRANCH  84  85
ATOM     85  C   UNL A   1      32.601  19.613  24.833  1.00  0.00     0.025 A 
ATOM     86  C   UNL A   1      32.910  18.583  25.744  1.00  0.00     0.014 A 
ATOM     87  C   UNL A   1      32.529  19.293  23.466  1.00  0.00     0.052 A 
ATOM     88  C   UNL A   1      33.257  17.311  25.297  1.00  0.00     0.040 A 
ATOM     89  C   UNL A   1      32.849  18.010  23.020  1.00  0.00     0.060 A 
ATOM     90  Cl  UNL A   1      32.046  20.445  22.271  1.00  0.00    -0.084 Cl
ATOM     91  C   UNL A   1      33.238  17.043  23.937  1.00  0.00     0.124 A 
ATOM     92  F   UNL A   1      33.600  15.830  23.504  1.00  0.00    -0.207 F 
ENDBRANCH  84  85
ENDBRANCH  81  84
ENDBRANCH  75  77
ENDBRANCH  74  75
ENDBRANCH  73  74
ENDBRANCH  72  73
ENDBRANCH   1  72
TORSDOF 16
ENDMDL
