MODEL 1
REMARK VINA RESULT:     -12.8      0.000      0.000
REMARK SMILES O=C(C[C@]12CSc3[nH]c(=O)sc3[C@H]1c1cc(Cl)ccc1OC2=O)OCCOCCOC(=O)c1ccc(-c2c3nc(c(-c4c(F)c(F)c(F)c(F)c4F)c4ccc([nH]4)c(-c4c(F)c(F)c(F)c(F)c4F)c4nc(c(-c5c(F)c(F)c(F)c(F)c5F)c5ccc2[nH]5)C=C4)C=C3)cc1
REMARK SMILES IDX 28 1 27 2 26 3 25 4 24 5 2 6 1 7 3 8 4 9 5 10 13 11 22 12
REMARK SMILES IDX 6 13 12 14 14 15 21 16 23 17 7 18 11 19 15 20 20 21 8 22
REMARK SMILES IDX 9 23 16 24 19 25 10 27 17 28 18 29 29 30 30 31 31 32 32 33
REMARK SMILES IDX 33 34 34 35 95 36 35 37 94 38 36 39 37 40 38 41 88 42 39 43
REMARK SMILES IDX 93 44 87 45 89 46 40 47 92 48 86 49 85 50 41 52 73 53 53 54
REMARK SMILES IDX 72 55 54 56 57 57 71 58 90 59 55 60 56 61 70 63 91 64 58 65
REMARK SMILES IDX 42 66 43 67 51 68 44 69 45 70 49 71 52 72 46 73 47 74 50 75
REMARK SMILES IDX 48 76 74 77 75 78 83 79 76 80 77 81 81 82 84 83 78 84 79 85
REMARK SMILES IDX 82 86 80 87 59 88 60 89 68 90 61 91 62 92 66 93 69 94 63 95
REMARK SMILES IDX 64 96 67 97 65 98
REMARK H PARENT 8 26 89 51 57 62
REMARK Flexibility Score: inf
ROOT
ATOM      1  C   UNL A   1      37.009  20.975  24.698  1.00  0.00     0.202 C 
ENDROOT
BRANCH   1   2
ATOM      2  O   UNL A   1      35.977  20.052  24.998  1.00  0.00    -0.374 OA
BRANCH   2   3
ATOM      3  C   UNL A   1      34.646  20.518  25.002  1.00  0.00     0.202 C 
BRANCH   3   4
ATOM      4  C   UNL A   1      33.984  21.024  26.276  1.00  0.00     0.261 C 
BRANCH   4   5
ATOM      5  O   UNL A   1      34.204  22.364  26.696  1.00  0.00    -0.463 OA
BRANCH   5   6
ATOM      6  C   UNL A   1      33.288  23.225  27.125  1.00  0.00     0.307 C 
ATOM      7  O   UNL A   1      32.576  22.913  28.078  1.00  0.00    -0.252 OA
BRANCH   6   8
ATOM      8  C   UNL A   1      33.092  24.538  26.419  1.00  0.00     0.143 C 
BRANCH   8   9
ATOM      9  C   UNL A   1      31.859  24.981  25.550  1.00  0.00     0.100 C 
ATOM     10  C   UNL A   1      31.245  23.650  25.037  1.00  0.00     0.097 C 
ATOM     11  C   UNL A   1      32.637  26.026  24.658  1.00  0.00     0.085 C 
ATOM     12  C   UNL A   1      30.542  25.838  25.682  1.00  0.00     0.319 C 
ATOM     13  S   UNL A   1      32.057  23.056  23.573  1.00  0.00    -0.106 SA
ATOM     14  C   UNL A   1      32.348  25.786  23.210  1.00  0.00     0.049 A 
ATOM     15  C   UNL A   1      32.728  27.345  25.524  1.00  0.00     0.006 A 
ATOM     16  O   UNL A   1      30.506  26.965  26.435  1.00  0.00    -0.426 OA
ATOM     17  O   UNL A   1      29.541  25.632  24.993  1.00  0.00    -0.251 OA
ATOM     18  C   UNL A   1      32.166  24.535  22.729  1.00  0.00     0.090 A 
ATOM     19  S   UNL A   1      32.789  26.854  21.902  1.00  0.00    -0.077 S 
ATOM     20  C   UNL A   1      33.976  27.895  25.894  1.00  0.00     0.028 A 
ATOM     21  C   UNL A   1      31.686  27.683  26.406  1.00  0.00     0.134 A 
ATOM     22  N   UNL A   1      32.332  24.399  21.395  1.00  0.00    -0.307 N 
ATOM     23  C   UNL A   1      32.748  25.510  20.734  1.00  0.00     0.305 A 
ATOM     24  C   UNL A   1      34.124  28.682  27.067  1.00  0.00     0.041 A 
ATOM     25  C   UNL A   1      31.789  28.570  27.495  1.00  0.00     0.049 A 
ATOM     26  H   UNL A   1      32.161  23.547  20.931  1.00  0.00     0.171 HD
ATOM     27  O   UNL A   1      33.091  25.573  19.562  1.00  0.00    -0.257 OA
ATOM     28  Cl  UNL A   1      35.703  29.073  27.645  1.00  0.00    -0.084 Cl
ATOM     29  C   UNL A   1      33.035  29.043  27.855  1.00  0.00     0.024 A 
ENDBRANCH   8   9
ENDBRANCH   6   8
ENDBRANCH   5   6
ENDBRANCH   4   5
ENDBRANCH   3   4
ENDBRANCH   2   3
ENDBRANCH   1   2
BRANCH   1  30
ATOM     30  C   UNL A   1      38.333  20.649  25.390  1.00  0.00     0.261 C 
BRANCH  30  31
ATOM     31  O   UNL A   1      39.068  21.864  25.656  1.00  0.00    -0.460 OA
BRANCH  31  32
ATOM     32  C   UNL A   1      40.094  21.770  26.552  1.00  0.00     0.338 C 
ATOM     33  O   UNL A   1      41.002  20.958  26.535  1.00  0.00    -0.246 OA
BRANCH  32  34
ATOM     34  C   UNL A   1      40.146  23.053  27.321  1.00  0.00     0.060 A 
ATOM     35  C   UNL A   1      39.262  24.093  27.035  1.00  0.00     0.016 A 
ATOM     36  C   UNL A   1      41.329  23.323  28.044  1.00  0.00     0.016 A 
ATOM     37  C   UNL A   1      39.630  25.399  27.360  1.00  0.00     0.010 A 
ATOM     38  C   UNL A   1      41.689  24.639  28.378  1.00  0.00     0.010 A 
ATOM     39  C   UNL A   1      40.855  25.693  28.016  1.00  0.00    -0.014 A 
BRANCH  39  40
ATOM     40  C   UNL A   1      40.939  27.029  28.650  1.00  0.00     0.031 A 
ATOM     41  C   UNL A   1      42.128  27.723  28.090  1.00  0.00     0.074 A 
ATOM     42  C   UNL A   1      40.136  27.716  29.495  1.00  0.00     0.049 A 
ATOM     43  N   UNL A   1      43.242  27.945  28.699  1.00  0.00    -0.248 NA
ATOM     44  C   UNL A   1      42.174  27.928  26.632  1.00  0.00     0.031 C 
ATOM     45  C   UNL A   1      38.795  27.381  29.956  1.00  0.00     0.029 A 
ATOM     46  N   UNL A   1      40.354  28.942  30.091  1.00  0.00    -0.354 N 
ATOM     47  C   UNL A   1      44.082  28.485  27.736  1.00  0.00     0.074 A 
ATOM     48  C   UNL A   1      43.450  28.272  26.461  1.00  0.00     0.031 C 
ATOM     49  C   UNL A   1      38.241  28.448  30.584  1.00  0.00     0.029 A 
ATOM     50  C   UNL A   1      39.222  29.517  30.676  1.00  0.00     0.049 A 
ATOM     51  H   UNL A   1      41.237  29.377  30.104  1.00  0.00     0.167 HD
ATOM     52  C   UNL A   1      45.084  29.324  28.097  1.00  0.00     0.037 A 
ATOM     53  C   UNL A   1      39.096  30.782  31.162  1.00  0.00     0.037 A 
ATOM     54  C   UNL A   1      45.389  29.193  29.498  1.00  0.00     0.049 A 
ATOM     55  C   UNL A   1      40.454  31.269  31.485  1.00  0.00     0.074 A 
ATOM     56  C   UNL A   1      45.938  28.229  30.316  1.00  0.00     0.029 A 
ATOM     57  N   UNL A   1      44.714  30.067  30.303  1.00  0.00    -0.354 N 
ATOM     58  N   UNL A   1      41.174  30.818  32.471  1.00  0.00    -0.248 NA
ATOM     59  C   UNL A   1      41.163  32.081  30.505  1.00  0.00     0.031 C 
ATOM     60  C   UNL A   1      45.336  28.416  31.597  1.00  0.00     0.029 A 
ATOM     61  C   UNL A   1      44.474  29.509  31.526  1.00  0.00     0.049 A 
ATOM     62  H   UNL A   1      44.439  30.974  30.037  1.00  0.00     0.167 HD
ATOM     63  C   UNL A   1      42.469  30.897  32.003  1.00  0.00     0.074 A 
ATOM     64  C   UNL A   1      42.417  31.834  30.888  1.00  0.00     0.031 C 
ATOM     65  C   UNL A   1      43.382  29.950  32.361  1.00  0.00     0.037 A 
BRANCH  52  66
ATOM     66  C   UNL A   1      45.374  30.600  27.337  1.00  0.00     0.064 A 
ATOM     67  C   UNL A   1      46.707  30.910  27.014  1.00  0.00     0.173 A 
ATOM     68  C   UNL A   1      44.453  31.666  27.212  1.00  0.00     0.173 A 
ATOM     69  F   UNL A   1      47.674  29.991  27.153  1.00  0.00    -0.203 F 
ATOM     70  C   UNL A   1      47.092  32.202  26.639  1.00  0.00     0.198 A 
ATOM     71  C   UNL A   1      44.830  32.935  26.782  1.00  0.00     0.198 A 
ATOM     72  F   UNL A   1      43.182  31.570  27.618  1.00  0.00    -0.203 F 
ATOM     73  F   UNL A   1      48.389  32.483  26.461  1.00  0.00    -0.200 F 
ATOM     74  C   UNL A   1      46.153  33.211  26.522  1.00  0.00     0.200 A 
ATOM     75  F   UNL A   1      43.907  33.905  26.713  1.00  0.00    -0.200 F 
ATOM     76  F   UNL A   1      46.526  34.459  26.214  1.00  0.00    -0.200 F 
ENDBRANCH  52  66
BRANCH  53  77
ATOM     77  C   UNL A   1      37.944  31.732  31.160  1.00  0.00     0.064 A 
ATOM     78  C   UNL A   1      37.369  32.183  29.951  1.00  0.00     0.173 A 
ATOM     79  C   UNL A   1      37.176  31.940  32.318  1.00  0.00     0.173 A 
ATOM     80  F   UNL A   1      38.009  32.002  28.785  1.00  0.00    -0.203 F 
ATOM     81  C   UNL A   1      36.086  32.743  29.901  1.00  0.00     0.198 A 
ATOM     82  C   UNL A   1      35.896  32.504  32.267  1.00  0.00     0.198 A 
ATOM     83  F   UNL A   1      37.604  31.502  33.509  1.00  0.00    -0.203 F 
ATOM     84  F   UNL A   1      35.542  33.073  28.720  1.00  0.00    -0.200 F 
ATOM     85  C   UNL A   1      35.342  32.886  31.058  1.00  0.00     0.200 A 
ATOM     86  F   UNL A   1      35.171  32.604  33.390  1.00  0.00    -0.200 F 
ATOM     87  F   UNL A   1      34.083  33.342  31.005  1.00  0.00    -0.200 F 
ENDBRANCH  53  77
BRANCH  65  88
ATOM     88  C   UNL A   1      43.130  29.191  33.628  1.00  0.00     0.064 A 
ATOM     89  C   UNL A   1      43.538  29.602  34.907  1.00  0.00     0.173 A 
ATOM     90  C   UNL A   1      42.335  28.040  33.536  1.00  0.00     0.173 A 
ATOM     91  F   UNL A   1      44.236  30.733  35.083  1.00  0.00    -0.203 F 
ATOM     92  C   UNL A   1      43.177  28.873  36.041  1.00  0.00     0.198 A 
ATOM     93  C   UNL A   1      41.943  27.339  34.670  1.00  0.00     0.198 A 
ATOM     94  F   UNL A   1      41.892  27.625  32.338  1.00  0.00    -0.203 F 
ATOM     95  F   UNL A   1      43.578  29.277  37.255  1.00  0.00    -0.200 F 
ATOM     96  C   UNL A   1      42.371  27.751  35.921  1.00  0.00     0.200 A 
ATOM     97  F   UNL A   1      41.127  26.283  34.550  1.00  0.00    -0.200 F 
ATOM     98  F   UNL A   1      41.981  27.081  37.015  1.00  0.00    -0.200 F 
ENDBRANCH  65  88
ENDBRANCH  39  40
ENDBRANCH  32  34
ENDBRANCH  31  32
ENDBRANCH  30  31
ENDBRANCH   1  30
TORSDOF 15
ENDMDL
MODEL 2
REMARK VINA RESULT:     -12.8      3.090      8.541
REMARK SMILES O=C(C[C@]12CSc3[nH]c(=O)sc3[C@H]1c1cc(Cl)ccc1OC2=O)OCCOCCOC(=O)c1ccc(-c2c3nc(c(-c4c(F)c(F)c(F)c(F)c4F)c4ccc([nH]4)c(-c4c(F)c(F)c(F)c(F)c4F)c4nc(c(-c5c(F)c(F)c(F)c(F)c5F)c5ccc2[nH]5)C=C4)C=C3)cc1
REMARK SMILES IDX 28 1 27 2 26 3 25 4 24 5 2 6 1 7 3 8 4 9 5 10 13 11 22 12
REMARK SMILES IDX 6 13 12 14 14 15 21 16 23 17 7 18 11 19 15 20 20 21 8 22
REMARK SMILES IDX 9 23 16 24 19 25 10 27 17 28 18 29 29 30 30 31 31 32 32 33
REMARK SMILES IDX 33 34 34 35 95 36 35 37 94 38 36 39 37 40 38 41 88 42 39 43
REMARK SMILES IDX 93 44 87 45 89 46 40 47 92 48 86 49 85 50 41 52 73 53 53 54
REMARK SMILES IDX 72 55 54 56 57 57 71 58 90 59 55 60 56 61 70 63 91 64 58 65
REMARK SMILES IDX 42 66 43 67 51 68 44 69 45 70 49 71 52 72 46 73 47 74 50 75
REMARK SMILES IDX 48 76 74 77 75 78 83 79 76 80 77 81 81 82 84 83 78 84 79 85
REMARK SMILES IDX 82 86 80 87 59 88 60 89 68 90 61 91 62 92 66 93 69 94 63 95
REMARK SMILES IDX 64 96 67 97 65 98
REMARK H PARENT 8 26 89 51 57 62
REMARK Flexibility Score: inf
ROOT
ATOM      1  C   UNL A   1      34.581  32.647  28.012  1.00  0.00     0.202 C 
ENDROOT
BRANCH   1   2
ATOM      2  O   UNL A   1      34.326  31.261  28.160  1.00  0.00    -0.374 OA
BRANCH   2   3
ATOM      3  C   UNL A   1      33.536  30.621  27.182  1.00  0.00     0.202 C 
BRANCH   3   4
ATOM      4  C   UNL A   1      33.975  29.315  26.534  1.00  0.00     0.261 C 
BRANCH   4   5
ATOM      5  O   UNL A   1      33.359  28.890  25.326  1.00  0.00    -0.463 OA
BRANCH   5   6
ATOM      6  C   UNL A   1      33.885  28.097  24.399  1.00  0.00     0.307 C 
ATOM      7  O   UNL A   1      34.261  28.589  23.337  1.00  0.00    -0.252 OA
BRANCH   6   8
ATOM      8  C   UNL A   1      33.967  26.613  24.629  1.00  0.00     0.143 C 
BRANCH   8   9
ATOM      9  C   UNL A   1      33.064  25.496  23.991  1.00  0.00     0.100 C 
ATOM     10  C   UNL A   1      31.757  26.232  23.590  1.00  0.00     0.097 C 
ATOM     11  C   UNL A   1      33.198  24.461  25.177  1.00  0.00     0.085 C 
ATOM     12  C   UNL A   1      33.118  24.421  22.838  1.00  0.00     0.319 C 
ATOM     13  S   UNL A   1      30.620  26.369  24.948  1.00  0.00    -0.106 SA
ATOM     14  C   UNL A   1      31.846  23.969  25.588  1.00  0.00     0.049 A 
ATOM     15  C   UNL A   1      34.579  23.726  24.950  1.00  0.00     0.006 A 
ATOM     16  O   UNL A   1      34.265  23.763  22.540  1.00  0.00    -0.426 OA
ATOM     17  O   UNL A   1      32.108  24.004  22.268  1.00  0.00    -0.251 OA
ATOM     18  C   UNL A   1      30.765  24.781  25.557  1.00  0.00     0.090 A 
ATOM     19  S   UNL A   1      31.544  22.638  26.674  1.00  0.00    -0.077 S 
ATOM     20  C   UNL A   1      35.609  23.788  25.915  1.00  0.00     0.028 A 
ATOM     21  C   UNL A   1      35.049  23.493  23.645  1.00  0.00     0.134 A 
ATOM     22  N   UNL A   1      29.723  24.385  26.321  1.00  0.00    -0.307 N 
ATOM     23  C   UNL A   1      29.936  23.282  27.086  1.00  0.00     0.305 A 
ATOM     24  C   UNL A   1      36.977  23.655  25.553  1.00  0.00     0.041 A 
ATOM     25  C   UNL A   1      36.385  23.225  23.292  1.00  0.00     0.049 A 
ATOM     26  H   UNL A   1      28.864  24.866  26.324  1.00  0.00     0.171 HD
ATOM     27  O   UNL A   1      29.188  22.839  27.945  1.00  0.00    -0.257 OA
ATOM     28  Cl  UNL A   1      38.209  24.042  26.697  1.00  0.00    -0.084 Cl
ATOM     29  C   UNL A   1      37.368  23.349  24.252  1.00  0.00     0.024 A 
ENDBRANCH   8   9
ENDBRANCH   6   8
ENDBRANCH   5   6
ENDBRANCH   4   5
ENDBRANCH   3   4
ENDBRANCH   2   3
ENDBRANCH   1   2
BRANCH   1  30
ATOM     30  C   UNL A   1      34.229  33.463  29.255  1.00  0.00     0.261 C 
BRANCH  30  31
ATOM     31  O   UNL A   1      35.348  33.488  30.169  1.00  0.00    -0.460 OA
BRANCH  31  32
ATOM     32  C   UNL A   1      35.294  32.619  31.221  1.00  0.00     0.338 C 
ATOM     33  O   UNL A   1      34.315  32.356  31.896  1.00  0.00    -0.246 OA
BRANCH  32  34
ATOM     34  C   UNL A   1      36.516  31.758  31.164  1.00  0.00     0.060 A 
ATOM     35  C   UNL A   1      37.768  32.311  30.896  1.00  0.00     0.016 A 
ATOM     36  C   UNL A   1      36.317  30.369  30.995  1.00  0.00     0.016 A 
ATOM     37  C   UNL A   1      38.760  31.499  30.345  1.00  0.00     0.010 A 
ATOM     38  C   UNL A   1      37.323  29.554  30.451  1.00  0.00     0.010 A 
ATOM     39  C   UNL A   1      38.547  30.117  30.096  1.00  0.00    -0.014 A 
BRANCH  39  40
ATOM     40  C   UNL A   1      39.769  29.305  29.898  1.00  0.00     0.031 A 
ATOM     41  C   UNL A   1      40.372  29.060  31.235  1.00  0.00     0.074 A 
ATOM     42  C   UNL A   1      40.331  28.705  28.823  1.00  0.00     0.049 A 
ATOM     43  N   UNL A   1      41.444  29.603  31.702  1.00  0.00    -0.248 NA
ATOM     44  C   UNL A   1      39.546  28.368  32.239  1.00  0.00     0.031 C 
ATOM     45  C   UNL A   1      39.793  28.554  27.478  1.00  0.00     0.029 A 
ATOM     46  N   UNL A   1      41.531  28.027  28.738  1.00  0.00    -0.354 N 
ATOM     47  C   UNL A   1      41.523  29.177  33.021  1.00  0.00     0.074 A 
ATOM     48  C   UNL A   1      40.249  28.592  33.348  1.00  0.00     0.031 C 
ATOM     49  C   UNL A   1      40.549  27.674  26.773  1.00  0.00     0.029 A 
ATOM     50  C   UNL A   1      41.695  27.275  27.572  1.00  0.00     0.049 A 
ATOM     51  H   UNL A   1      42.216  28.071  29.444  1.00  0.00     0.167 HD
ATOM     52  C   UNL A   1      42.727  29.075  33.634  1.00  0.00     0.037 A 
ATOM     53  C   UNL A   1      42.678  26.371  27.305  1.00  0.00     0.037 A 
ATOM     54  C   UNL A   1      43.728  29.842  32.939  1.00  0.00     0.049 A 
ATOM     55  C   UNL A   1      43.829  26.700  28.171  1.00  0.00     0.074 A 
ATOM     56  C   UNL A   1      43.987  31.176  32.713  1.00  0.00     0.029 A 
ATOM     57  N   UNL A   1      44.432  29.131  32.008  1.00  0.00    -0.354 N 
ATOM     58  N   UNL A   1      44.575  27.756  28.022  1.00  0.00    -0.248 NA
ATOM     59  C   UNL A   1      43.988  25.988  29.432  1.00  0.00     0.031 C 
ATOM     60  C   UNL A   1      44.650  31.235  31.449  1.00  0.00     0.029 A 
ATOM     61  C   UNL A   1      44.807  29.936  30.970  1.00  0.00     0.049 A 
ATOM     62  H   UNL A   1      44.640  28.171  32.076  1.00  0.00     0.167 HD
ATOM     63  C   UNL A   1      44.940  28.093  29.309  1.00  0.00     0.074 A 
ATOM     64  C   UNL A   1      44.710  26.890  30.099  1.00  0.00     0.031 C 
ATOM     65  C   UNL A   1      45.081  29.403  29.656  1.00  0.00     0.037 A 
BRANCH  52  66
ATOM     66  C   UNL A   1      43.092  27.882  34.489  1.00  0.00     0.064 A 
ATOM     67  C   UNL A   1      43.514  28.098  35.814  1.00  0.00     0.173 A 
ATOM     68  C   UNL A   1      43.359  26.594  33.969  1.00  0.00     0.173 A 
ATOM     69  F   UNL A   1      43.365  29.301  36.389  1.00  0.00    -0.203 F 
ATOM     70  C   UNL A   1      44.191  27.114  36.541  1.00  0.00     0.198 A 
ATOM     71  C   UNL A   1      43.981  25.598  34.715  1.00  0.00     0.198 A 
ATOM     72  F   UNL A   1      43.152  26.280  32.685  1.00  0.00    -0.203 F 
ATOM     73  F   UNL A   1      44.684  27.403  37.752  1.00  0.00    -0.200 F 
ATOM     74  C   UNL A   1      44.422  25.865  35.992  1.00  0.00     0.200 A 
ATOM     75  F   UNL A   1      44.226  24.408  34.147  1.00  0.00    -0.200 F 
ATOM     76  F   UNL A   1      45.115  24.939  36.665  1.00  0.00    -0.200 F 
ENDBRANCH  52  66
BRANCH  53  77
ATOM     77  C   UNL A   1      42.658  25.084  26.547  1.00  0.00     0.064 A 
ATOM     78  C   UNL A   1      43.501  24.880  25.432  1.00  0.00     0.173 A 
ATOM     79  C   UNL A   1      42.080  23.929  27.097  1.00  0.00     0.173 A 
ATOM     80  F   UNL A   1      44.127  25.916  24.853  1.00  0.00    -0.203 F 
ATOM     81  C   UNL A   1      43.793  23.598  24.946  1.00  0.00     0.198 A 
ATOM     82  C   UNL A   1      42.368  22.650  26.609  1.00  0.00     0.198 A 
ATOM     83  F   UNL A   1      41.309  24.005  28.190  1.00  0.00    -0.203 F 
ATOM     84  F   UNL A   1      44.670  23.444  23.943  1.00  0.00    -0.200 F 
ATOM     85  C   UNL A   1      43.241  22.482  25.547  1.00  0.00     0.200 A 
ATOM     86  F   UNL A   1      41.857  21.574  27.222  1.00  0.00    -0.200 F 
ATOM     87  F   UNL A   1      43.583  21.251  25.142  1.00  0.00    -0.200 F 
ENDBRANCH  53  77
BRANCH  65  88
ATOM     88  C   UNL A   1      45.364  30.383  28.558  1.00  0.00     0.064 A 
ATOM     89  C   UNL A   1      44.388  31.000  27.760  1.00  0.00     0.173 A 
ATOM     90  C   UNL A   1      46.695  30.793  28.395  1.00  0.00     0.173 A 
ATOM     91  F   UNL A   1      43.087  30.717  27.910  1.00  0.00    -0.203 F 
ATOM     92  C   UNL A   1      44.743  31.971  26.822  1.00  0.00     0.198 A 
ATOM     93  C   UNL A   1      47.040  31.788  27.490  1.00  0.00     0.198 A 
ATOM     94  F   UNL A   1      47.660  30.256  29.159  1.00  0.00    -0.203 F 
ATOM     95  F   UNL A   1      43.799  32.548  26.063  1.00  0.00    -0.200 F 
ATOM     96  C   UNL A   1      46.065  32.372  26.698  1.00  0.00     0.200 A 
ATOM     97  F   UNL A   1      48.311  32.202  27.408  1.00  0.00    -0.200 F 
ATOM     98  F   UNL A   1      46.397  33.342  25.834  1.00  0.00    -0.200 F 
ENDBRANCH  65  88
ENDBRANCH  39  40
ENDBRANCH  32  34
ENDBRANCH  31  32
ENDBRANCH  30  31
ENDBRANCH   1  30
TORSDOF 15
ENDMDL
MODEL 3
REMARK VINA RESULT:     -12.6      1.418      2.428
REMARK SMILES O=C(C[C@]12CSc3[nH]c(=O)sc3[C@H]1c1cc(Cl)ccc1OC2=O)OCCOCCOC(=O)c1ccc(-c2c3nc(c(-c4c(F)c(F)c(F)c(F)c4F)c4ccc([nH]4)c(-c4c(F)c(F)c(F)c(F)c4F)c4nc(c(-c5c(F)c(F)c(F)c(F)c5F)c5ccc2[nH]5)C=C4)C=C3)cc1
REMARK SMILES IDX 28 1 27 2 26 3 25 4 24 5 2 6 1 7 3 8 4 9 5 10 13 11 22 12
REMARK SMILES IDX 6 13 12 14 14 15 21 16 23 17 7 18 11 19 15 20 20 21 8 22
REMARK SMILES IDX 9 23 16 24 19 25 10 27 17 28 18 29 29 30 30 31 31 32 32 33
REMARK SMILES IDX 33 34 34 35 95 36 35 37 94 38 36 39 37 40 38 41 88 42 39 43
REMARK SMILES IDX 93 44 87 45 89 46 40 47 92 48 86 49 85 50 41 52 73 53 53 54
REMARK SMILES IDX 72 55 54 56 57 57 71 58 90 59 55 60 56 61 70 63 91 64 58 65
REMARK SMILES IDX 42 66 43 67 51 68 44 69 45 70 49 71 52 72 46 73 47 74 50 75
REMARK SMILES IDX 48 76 74 77 75 78 83 79 76 80 77 81 81 82 84 83 78 84 79 85
REMARK SMILES IDX 82 86 80 87 59 88 60 89 68 90 61 91 62 92 66 93 69 94 63 95
REMARK SMILES IDX 64 96 67 97 65 98
REMARK H PARENT 8 26 89 51 57 62
REMARK Flexibility Score: inf
ROOT
ATOM      1  C   UNL A   1      40.430  21.871  27.205  1.00  0.00     0.202 C 
ENDROOT
BRANCH   1   2
ATOM      2  O   UNL A   1      39.581  22.827  26.595  1.00  0.00    -0.374 OA
BRANCH   2   3
ATOM      3  C   UNL A   1      38.388  22.374  25.994  1.00  0.00     0.202 C 
BRANCH   3   4
ATOM      4  C   UNL A   1      37.176  23.283  25.845  1.00  0.00     0.261 C 
BRANCH   4   5
ATOM      5  O   UNL A   1      35.870  22.735  25.963  1.00  0.00    -0.463 OA
BRANCH   5   6
ATOM      6  C   UNL A   1      34.853  23.241  26.651  1.00  0.00     0.307 C 
ATOM      7  O   UNL A   1      34.479  22.667  27.672  1.00  0.00    -0.252 OA
BRANCH   6   8
ATOM      8  C   UNL A   1      34.139  24.469  26.157  1.00  0.00     0.143 C 
BRANCH   8   9
ATOM      9  C   UNL A   1      32.728  24.541  25.468  1.00  0.00     0.100 C 
ATOM     10  C   UNL A   1      32.460  23.093  24.975  1.00  0.00     0.097 C 
ATOM     11  C   UNL A   1      33.049  25.774  24.536  1.00  0.00     0.085 C 
ATOM     12  C   UNL A   1      31.249  24.977  25.802  1.00  0.00     0.319 C 
ATOM     13  S   UNL A   1      33.208  22.773  23.396  1.00  0.00    -0.106 SA
ATOM     14  C   UNL A   1      32.653  25.473  23.125  1.00  0.00     0.049 A 
ATOM     15  C   UNL A   1      32.870  27.056  25.444  1.00  0.00     0.006 A 
ATOM     16  O   UNL A   1      30.991  26.039  26.604  1.00  0.00    -0.426 OA
ATOM     17  O   UNL A   1      30.268  24.495  25.234  1.00  0.00    -0.251 OA
ATOM     18  C   UNL A   1      32.776  24.227  22.614  1.00  0.00     0.090 A 
ATOM     19  S   UNL A   1      32.592  26.633  21.824  1.00  0.00    -0.077 S 
ATOM     20  C   UNL A   1      33.945  27.942  25.681  1.00  0.00     0.028 A 
ATOM     21  C   UNL A   1      31.900  27.070  26.463  1.00  0.00     0.134 A 
ATOM     22  N   UNL A   1      32.796  24.155  21.265  1.00  0.00    -0.307 N 
ATOM     23  C   UNL A   1      32.785  25.345  20.609  1.00  0.00     0.305 A 
ATOM     24  C   UNL A   1      34.015  28.729  26.862  1.00  0.00     0.041 A 
ATOM     25  C   UNL A   1      31.888  27.939  27.569  1.00  0.00     0.049 A 
ATOM     26  H   UNL A   1      32.817  23.294  20.787  1.00  0.00     0.171 HD
ATOM     27  O   UNL A   1      32.938  25.514  19.408  1.00  0.00    -0.257 OA
ATOM     28  Cl  UNL A   1      35.476  29.556  27.257  1.00  0.00    -0.084 Cl
ATOM     29  C   UNL A   1      32.981  28.751  27.794  1.00  0.00     0.024 A 
ENDBRANCH   8   9
ENDBRANCH   6   8
ENDBRANCH   5   6
ENDBRANCH   4   5
ENDBRANCH   3   4
ENDBRANCH   2   3
ENDBRANCH   1   2
BRANCH   1  30
ATOM     30  C   UNL A   1      41.856  21.890  26.655  1.00  0.00     0.261 C 
BRANCH  30  31
ATOM     31  O   UNL A   1      41.918  22.698  25.459  1.00  0.00    -0.460 OA
BRANCH  31  32
ATOM     32  C   UNL A   1      43.040  23.458  25.295  1.00  0.00     0.338 C 
ATOM     33  O   UNL A   1      43.944  23.257  24.504  1.00  0.00    -0.246 OA
BRANCH  32  34
ATOM     34  C   UNL A   1      42.796  24.779  25.955  1.00  0.00     0.060 A 
ATOM     35  C   UNL A   1      43.356  25.068  27.200  1.00  0.00     0.016 A 
ATOM     36  C   UNL A   1      41.700  25.539  25.490  1.00  0.00     0.016 A 
ATOM     37  C   UNL A   1      42.738  26.021  28.011  1.00  0.00     0.010 A 
ATOM     38  C   UNL A   1      41.089  26.504  26.307  1.00  0.00     0.010 A 
ATOM     39  C   UNL A   1      41.587  26.736  27.587  1.00  0.00    -0.014 A 
BRANCH  39  40
ATOM     40  C   UNL A   1      41.279  27.968  28.349  1.00  0.00     0.031 A 
ATOM     41  C   UNL A   1      42.354  28.955  28.066  1.00  0.00     0.074 A 
ATOM     42  C   UNL A   1      40.230  28.363  29.107  1.00  0.00     0.049 A 
ATOM     43  N   UNL A   1      43.291  29.320  28.874  1.00  0.00    -0.248 NA
ATOM     44  C   UNL A   1      42.564  29.351  26.664  1.00  0.00     0.031 C 
ATOM     45  C   UNL A   1      38.945  27.705  29.300  1.00  0.00     0.029 A 
ATOM     46  N   UNL A   1      40.082  29.521  29.844  1.00  0.00    -0.354 N 
ATOM     47  C   UNL A   1      44.121  30.140  28.122  1.00  0.00     0.074 A 
ATOM     48  C   UNL A   1      43.743  29.967  26.745  1.00  0.00     0.031 C 
ATOM     49  C   UNL A   1      38.083  28.547  29.924  1.00  0.00     0.029 A 
ATOM     50  C   UNL A   1      38.779  29.772  30.280  1.00  0.00     0.049 A 
ATOM     51  H   UNL A   1      40.836  30.121  30.047  1.00  0.00     0.167 HD
ATOM     52  C   UNL A   1      44.848  31.111  28.725  1.00  0.00     0.037 A 
ATOM     53  C   UNL A   1      38.306  30.913  30.855  1.00  0.00     0.037 A 
ATOM     54  C   UNL A   1      44.968  30.866  30.139  1.00  0.00     0.049 A 
ATOM     55  C   UNL A   1      39.461  31.620  31.448  1.00  0.00     0.074 A 
ATOM     56  C   UNL A   1      45.593  29.937  30.944  1.00  0.00     0.029 A 
ATOM     57  N   UNL A   1      44.007  31.474  30.896  1.00  0.00    -0.354 N 
ATOM     58  N   UNL A   1      40.112  31.202  32.495  1.00  0.00    -0.248 NA
ATOM     59  C   UNL A   1      40.106  32.678  30.683  1.00  0.00     0.031 C 
ATOM     60  C   UNL A   1      44.784  29.832  32.116  1.00  0.00     0.029 A 
ATOM     61  C   UNL A   1      43.721  30.726  32.003  1.00  0.00     0.049 A 
ATOM     62  H   UNL A   1      43.579  32.332  30.675  1.00  0.00     0.167 HD
ATOM     63  C   UNL A   1      41.411  31.603  32.263  1.00  0.00     0.074 A 
ATOM     64  C   UNL A   1      41.315  32.645  31.247  1.00  0.00     0.031 C 
ATOM     65  C   UNL A   1      42.449  30.825  32.679  1.00  0.00     0.037 A 
BRANCH  52  66
ATOM     66  C   UNL A   1      44.955  32.506  28.149  1.00  0.00     0.064 A 
ATOM     67  C   UNL A   1      46.231  33.031  27.872  1.00  0.00     0.173 A 
ATOM     68  C   UNL A   1      43.901  33.449  28.172  1.00  0.00     0.173 A 
ATOM     69  F   UNL A   1      47.312  32.236  27.883  1.00  0.00    -0.203 F 
ATOM     70  C   UNL A   1      46.436  34.401  27.679  1.00  0.00     0.198 A 
ATOM     71  C   UNL A   1      44.101  34.803  27.922  1.00  0.00     0.198 A 
ATOM     72  F   UNL A   1      42.661  33.131  28.561  1.00  0.00    -0.203 F 
ATOM     73  F   UNL A   1      47.682  34.873  27.542  1.00  0.00    -0.200 F 
ATOM     74  C   UNL A   1      45.372  35.284  27.702  1.00  0.00     0.200 A 
ATOM     75  F   UNL A   1      43.058  35.643  27.988  1.00  0.00    -0.200 F 
ATOM     76  F   UNL A   1      45.573  36.601  27.570  1.00  0.00    -0.200 F 
ENDBRANCH  52  66
BRANCH  53  77
ATOM     77  C   UNL A   1      36.985  31.600  30.748  1.00  0.00     0.064 A 
ATOM     78  C   UNL A   1      36.117  31.696  31.858  1.00  0.00     0.173 A 
ATOM     79  C   UNL A   1      36.703  32.462  29.675  1.00  0.00     0.173 A 
ATOM     80  F   UNL A   1      36.321  30.938  32.947  1.00  0.00    -0.203 F 
ATOM     81  C   UNL A   1      35.081  32.637  31.913  1.00  0.00     0.198 A 
ATOM     82  C   UNL A   1      35.664  33.398  29.729  1.00  0.00     0.198 A 
ATOM     83  F   UNL A   1      37.496  32.491  28.596  1.00  0.00    -0.203 F 
ATOM     84  F   UNL A   1      34.339  32.755  33.025  1.00  0.00    -0.200 F 
ATOM     85  C   UNL A   1      34.867  33.501  30.855  1.00  0.00     0.200 A 
ATOM     86  F   UNL A   1      35.490  34.255  28.712  1.00  0.00    -0.200 F 
ATOM     87  F   UNL A   1      33.932  34.459  30.937  1.00  0.00    -0.200 F 
ENDBRANCH  53  77
BRANCH  65  88
ATOM     88  C   UNL A   1      42.191  29.873  33.808  1.00  0.00     0.064 A 
ATOM     89  C   UNL A   1      41.729  28.556  33.659  1.00  0.00     0.173 A 
ATOM     90  C   UNL A   1      42.542  30.300  35.096  1.00  0.00     0.173 A 
ATOM     91  F   UNL A   1      41.446  28.051  32.450  1.00  0.00    -0.203 F 
ATOM     92  C   UNL A   1      41.606  27.713  34.765  1.00  0.00     0.198 A 
ATOM     93  C   UNL A   1      42.457  29.446  36.189  1.00  0.00     0.198 A 
ATOM     94  F   UNL A   1      43.020  31.541  35.285  1.00  0.00    -0.203 F 
ATOM     95  F   UNL A   1      41.159  26.459  34.607  1.00  0.00    -0.200 F 
ATOM     96  C   UNL A   1      41.982  28.156  36.024  1.00  0.00     0.200 A 
ATOM     97  F   UNL A   1      42.864  29.866  37.394  1.00  0.00    -0.200 F 
ATOM     98  F   UNL A   1      41.913  27.329  37.078  1.00  0.00    -0.200 F 
ENDBRANCH  65  88
ENDBRANCH  39  40
ENDBRANCH  32  34
ENDBRANCH  31  32
ENDBRANCH  30  31
ENDBRANCH   1  30
TORSDOF 15
ENDMDL
