MODEL 1
REMARK VINA RESULT:     -12.2      0.000      0.000
REMARK SMILES COc1ccc([C@H]2[C@H](C(=O)OCCOCCOC(=O)c3ccc(-c4c5nc(c(-c6c(F)c(F)c(F)c(F)c6F)c6ccc([nH]6)c(-c6c(F)c(F)c(F)c(F)c6F)c6nc(c(-c7c(F)c(F)c(F)c(F)c7F)c7ccc4[nH]7)C=C6)C=C5)cc3)CCN2c2ccc(F)cc2)cc1
REMARK SMILES IDX 14 1 13 2 12 3 11 4 9 5 10 6 8 7 7 8 85 9 83 10 84 11 6 12
REMARK SMILES IDX 3 13 4 14 94 15 5 16 93 17 2 18 1 19 86 20 87 21 92 22 88 23
REMARK SMILES IDX 91 24 89 25 90 26 15 27 16 28 17 29 18 30 19 31 20 32 21 33
REMARK SMILES IDX 82 34 22 35 81 36 23 37 24 38 25 39 75 40 26 41 80 42 74 43
REMARK SMILES IDX 76 44 27 45 79 46 73 47 72 48 28 50 60 51 40 52 59 53 41 54
REMARK SMILES IDX 44 55 58 56 77 57 42 58 43 59 57 61 78 62 45 63 29 64 30 65
REMARK SMILES IDX 38 66 31 67 32 68 36 69 39 70 33 71 34 72 37 73 35 74 61 75
REMARK SMILES IDX 62 76 70 77 63 78 64 79 68 80 71 81 65 82 66 83 69 84 67 85
REMARK SMILES IDX 46 86 47 87 55 88 48 89 49 90 53 91 56 92 50 93 51 94 54 95
REMARK SMILES IDX 52 96
REMARK H PARENT 76 49 44 60
REMARK Flexibility Score: inf
ROOT
ATOM      1  O   UNL A   1      35.600  23.378  23.837  1.00  0.00    -0.374 OA
ENDROOT
BRANCH   1   2
ATOM      2  C   UNL A   1      34.364  22.672  23.733  1.00  0.00     0.202 C 
BRANCH   2   3
ATOM      3  C   UNL A   1      33.513  22.977  22.501  1.00  0.00     0.261 C 
BRANCH   3   4
ATOM      4  O   UNL A   1      32.537  23.998  22.782  1.00  0.00    -0.463 OA
BRANCH   4   5
ATOM      5  C   UNL A   1      32.993  25.273  22.752  1.00  0.00     0.311 C 
ATOM      6  O   UNL A   1      33.651  25.752  21.834  1.00  0.00    -0.252 OA
BRANCH   5   7
ATOM      7  C   UNL A   1      32.672  26.076  23.990  1.00  0.00     0.128 C 
ATOM      8  C   UNL A   1      32.224  27.535  23.774  1.00  0.00     0.127 C 
ATOM      9  N   UNL A   1      30.759  27.414  23.678  1.00  0.00    -0.364 N 
ATOM     10  C   UNL A   1      31.513  25.441  24.749  1.00  0.00     0.039 C 
ATOM     11  C   UNL A   1      30.271  26.147  24.211  1.00  0.00     0.118 C 
BRANCH   8  12
ATOM     12  C   UNL A   1      32.647  28.400  24.975  1.00  0.00    -0.024 A 
ATOM     13  C   UNL A   1      33.487  30.148  27.045  1.00  0.00     0.118 A 
ATOM     14  C   UNL A   1      32.234  30.302  26.450  1.00  0.00     0.047 A 
ATOM     15  C   UNL A   1      34.292  29.087  26.652  1.00  0.00     0.047 A 
ATOM     16  C   UNL A   1      31.813  29.436  25.431  1.00  0.00     0.010 A 
ATOM     17  C   UNL A   1      33.876  28.230  25.631  1.00  0.00     0.010 A 
BRANCH  13  18
ATOM     18  O   UNL A   1      33.810  31.065  28.007  1.00  0.00    -0.497 OA
ATOM     19  C   UNL A   1      34.915  31.913  27.701  1.00  0.00     0.278 C 
ENDBRANCH  13  18
ENDBRANCH   8  12
BRANCH   9  20
ATOM     20  C   UNL A   1      29.919  28.312  23.063  1.00  0.00     0.037 A 
ATOM     21  C   UNL A   1      28.530  28.271  23.293  1.00  0.00     0.029 A 
ATOM     22  C   UNL A   1      30.394  29.315  22.211  1.00  0.00     0.029 A 
ATOM     23  C   UNL A   1      27.656  29.199  22.721  1.00  0.00     0.041 A 
ATOM     24  C   UNL A   1      29.521  30.238  21.626  1.00  0.00     0.041 A 
ATOM     25  C   UNL A   1      28.162  30.173  21.882  1.00  0.00     0.123 A 
ATOM     26  F   UNL A   1      27.338  31.064  21.314  1.00  0.00    -0.207 F 
ENDBRANCH   9  20
ENDBRANCH   5   7
ENDBRANCH   4   5
ENDBRANCH   3   4
ENDBRANCH   2   3
ENDBRANCH   1   2
BRANCH   1  27
ATOM     27  C   UNL A   1      36.790  22.628  23.603  1.00  0.00     0.202 C 
BRANCH  27  28
ATOM     28  C   UNL A   1      37.050  21.439  24.539  1.00  0.00     0.261 C 
BRANCH  28  29
ATOM     29  O   UNL A   1      37.465  21.842  25.857  1.00  0.00    -0.460 OA
BRANCH  29  30
ATOM     30  C   UNL A   1      38.783  21.670  26.125  1.00  0.00     0.338 C 
ATOM     31  O   UNL A   1      39.482  20.714  25.827  1.00  0.00    -0.246 OA
BRANCH  30  32
ATOM     32  C   UNL A   1      39.334  22.919  26.688  1.00  0.00     0.060 A 
ATOM     33  C   UNL A   1      38.702  24.129  26.388  1.00  0.00     0.016 A 
ATOM     34  C   UNL A   1      40.474  22.908  27.489  1.00  0.00     0.016 A 
ATOM     35  C   UNL A   1      39.223  25.334  26.867  1.00  0.00     0.010 A 
ATOM     36  C   UNL A   1      40.971  24.113  28.003  1.00  0.00     0.010 A 
ATOM     37  C   UNL A   1      40.379  25.343  27.664  1.00  0.00    -0.014 A 
BRANCH  37  38
ATOM     38  C   UNL A   1      41.048  26.631  28.012  1.00  0.00     0.031 A 
ATOM     39  C   UNL A   1      42.468  26.873  27.554  1.00  0.00     0.074 A 
ATOM     40  C   UNL A   1      40.410  27.595  28.707  1.00  0.00     0.049 A 
ATOM     41  N   UNL A   1      43.248  27.905  27.764  1.00  0.00    -0.248 NA
ATOM     42  C   UNL A   1      43.100  25.800  26.769  1.00  0.00     0.031 C 
ATOM     43  C   UNL A   1      39.046  27.504  29.227  1.00  0.00     0.029 A 
ATOM     44  N   UNL A   1      40.831  28.845  29.099  1.00  0.00    -0.354 N 
ATOM     45  C   UNL A   1      44.463  27.589  27.166  1.00  0.00     0.074 A 
ATOM     46  C   UNL A   1      44.335  26.253  26.628  1.00  0.00     0.031 C 
ATOM     47  C   UNL A   1      38.738  28.652  29.855  1.00  0.00     0.029 A 
ATOM     48  C   UNL A   1      39.892  29.549  29.815  1.00  0.00     0.049 A 
ATOM     49  H   UNL A   1      41.723  29.203  28.885  1.00  0.00     0.167 HD
ATOM     50  C   UNL A   1      45.578  28.348  27.047  1.00  0.00     0.037 A 
ATOM     51  C   UNL A   1      39.959  30.769  30.386  1.00  0.00     0.037 A 
ATOM     52  C   UNL A   1      45.701  29.696  27.533  1.00  0.00     0.049 A 
ATOM     53  C   UNL A   1      41.219  31.591  30.251  1.00  0.00     0.074 A 
ATOM     54  C   UNL A   1      46.769  30.567  27.395  1.00  0.00     0.029 A 
ATOM     55  N   UNL A   1      44.725  30.371  28.250  1.00  0.00    -0.354 N 
ATOM     56  N   UNL A   1      42.334  31.304  29.625  1.00  0.00    -0.248 NA
ATOM     57  C   UNL A   1      41.224  32.912  30.899  1.00  0.00     0.031 C 
ATOM     58  C   UNL A   1      46.465  31.745  28.081  1.00  0.00     0.029 A 
ATOM     59  C   UNL A   1      45.180  31.636  28.587  1.00  0.00     0.049 A 
ATOM     60  H   UNL A   1      43.842  30.005  28.485  1.00  0.00     0.167 HD
ATOM     61  C   UNL A   1      43.155  32.416  29.776  1.00  0.00     0.074 A 
ATOM     62  C   UNL A   1      42.404  33.391  30.533  1.00  0.00     0.031 C 
ATOM     63  C   UNL A   1      44.420  32.610  29.328  1.00  0.00     0.037 A 
BRANCH  50  64
ATOM     64  C   UNL A   1      46.769  27.742  26.360  1.00  0.00     0.064 A 
ATOM     65  C   UNL A   1      47.724  26.990  27.060  1.00  0.00     0.173 A 
ATOM     66  C   UNL A   1      46.921  27.867  24.970  1.00  0.00     0.173 A 
ATOM     67  F   UNL A   1      47.631  26.850  28.391  1.00  0.00    -0.203 F 
ATOM     68  C   UNL A   1      48.801  26.407  26.399  1.00  0.00     0.198 A 
ATOM     69  C   UNL A   1      47.980  27.252  24.308  1.00  0.00     0.198 A 
ATOM     70  F   UNL A   1      46.031  28.568  24.252  1.00  0.00    -0.203 F 
ATOM     71  F   UNL A   1      49.726  25.732  27.094  1.00  0.00    -0.200 F 
ATOM     72  C   UNL A   1      48.922  26.529  25.022  1.00  0.00     0.200 A 
ATOM     73  F   UNL A   1      48.086  27.357  22.976  1.00  0.00    -0.200 F 
ATOM     74  F   UNL A   1      49.950  25.952  24.386  1.00  0.00    -0.200 F 
ENDBRANCH  50  64
BRANCH  51  75
ATOM     75  C   UNL A   1      38.799  31.307  31.154  1.00  0.00     0.064 A 
ATOM     76  C   UNL A   1      38.666  31.072  32.530  1.00  0.00     0.173 A 
ATOM     77  C   UNL A   1      37.771  32.016  30.514  1.00  0.00     0.173 A 
ATOM     78  F   UNL A   1      39.607  30.374  33.184  1.00  0.00    -0.203 F 
ATOM     79  C   UNL A   1      37.536  31.494  33.229  1.00  0.00     0.198 A 
ATOM     80  C   UNL A   1      36.658  32.469  31.221  1.00  0.00     0.198 A 
ATOM     81  F   UNL A   1      37.845  32.267  29.199  1.00  0.00    -0.203 F 
ATOM     82  F   UNL A   1      37.403  31.194  34.528  1.00  0.00    -0.200 F 
ATOM     83  C   UNL A   1      36.535  32.196  32.575  1.00  0.00     0.200 A 
ATOM     84  F   UNL A   1      35.701  33.158  30.588  1.00  0.00    -0.200 F 
ATOM     85  F   UNL A   1      35.447  32.597  33.245  1.00  0.00    -0.200 F 
ENDBRANCH  51  75
BRANCH  63  86
ATOM     86  C   UNL A   1      45.064  33.941  29.600  1.00  0.00     0.064 A 
ATOM     87  C   UNL A   1      45.841  34.168  30.746  1.00  0.00     0.173 A 
ATOM     88  C   UNL A   1      44.941  34.991  28.675  1.00  0.00     0.173 A 
ATOM     89  F   UNL A   1      45.983  33.203  31.668  1.00  0.00    -0.203 F 
ATOM     90  C   UNL A   1      46.442  35.404  30.972  1.00  0.00     0.198 A 
ATOM     91  C   UNL A   1      45.572  36.213  28.886  1.00  0.00     0.198 A 
ATOM     92  F   UNL A   1      44.219  34.824  27.556  1.00  0.00    -0.203 F 
ATOM     93  F   UNL A   1      47.133  35.614  32.100  1.00  0.00    -0.200 F 
ATOM     94  C   UNL A   1      46.315  36.422  30.038  1.00  0.00     0.200 A 
ATOM     95  F   UNL A   1      45.464  37.188  27.973  1.00  0.00    -0.200 F 
ATOM     96  F   UNL A   1      46.902  37.607  30.252  1.00  0.00    -0.200 F 
ENDBRANCH  63  86
ENDBRANCH  37  38
ENDBRANCH  30  32
ENDBRANCH  29  30
ENDBRANCH  28  29
ENDBRANCH  27  28
ENDBRANCH   1  27
TORSDOF 17
ENDMDL
MODEL 2
REMARK VINA RESULT:     -12.2      4.386      9.965
REMARK SMILES COc1ccc([C@H]2[C@H](C(=O)OCCOCCOC(=O)c3ccc(-c4c5nc(c(-c6c(F)c(F)c(F)c(F)c6F)c6ccc([nH]6)c(-c6c(F)c(F)c(F)c(F)c6F)c6nc(c(-c7c(F)c(F)c(F)c(F)c7F)c7ccc4[nH]7)C=C6)C=C5)cc3)CCN2c2ccc(F)cc2)cc1
REMARK SMILES IDX 14 1 13 2 12 3 11 4 9 5 10 6 8 7 7 8 85 9 83 10 84 11 6 12
REMARK SMILES IDX 3 13 4 14 94 15 5 16 93 17 2 18 1 19 86 20 87 21 92 22 88 23
REMARK SMILES IDX 91 24 89 25 90 26 15 27 16 28 17 29 18 30 19 31 20 32 21 33
REMARK SMILES IDX 82 34 22 35 81 36 23 37 24 38 25 39 75 40 26 41 80 42 74 43
REMARK SMILES IDX 76 44 27 45 79 46 73 47 72 48 28 50 60 51 40 52 59 53 41 54
REMARK SMILES IDX 44 55 58 56 77 57 42 58 43 59 57 61 78 62 45 63 29 64 30 65
REMARK SMILES IDX 38 66 31 67 32 68 36 69 39 70 33 71 34 72 37 73 35 74 61 75
REMARK SMILES IDX 62 76 70 77 63 78 64 79 68 80 71 81 65 82 66 83 69 84 67 85
REMARK SMILES IDX 46 86 47 87 55 88 48 89 49 90 53 91 56 92 50 93 51 94 54 95
REMARK SMILES IDX 52 96
REMARK H PARENT 76 49 44 60
REMARK Flexibility Score: inf
ROOT
ATOM      1  O   UNL A   1      32.115  27.959  25.792  1.00  0.00    -0.374 OA
ENDROOT
BRANCH   1   2
ATOM      2  C   UNL A   1      31.479  26.834  25.186  1.00  0.00     0.202 C 
BRANCH   2   3
ATOM      3  C   UNL A   1      31.236  25.627  26.090  1.00  0.00     0.261 C 
BRANCH   3   4
ATOM      4  O   UNL A   1      30.520  24.590  25.393  1.00  0.00    -0.463 OA
BRANCH   4   5
ATOM      5  C   UNL A   1      31.018  23.337  25.528  1.00  0.00     0.311 C 
ATOM      6  O   UNL A   1      30.431  22.414  26.083  1.00  0.00    -0.252 OA
BRANCH   5   7
ATOM      7  C   UNL A   1      32.415  23.163  24.978  1.00  0.00     0.128 C 
ATOM      8  C   UNL A   1      33.165  21.880  25.387  1.00  0.00     0.127 C 
ATOM      9  N   UNL A   1      32.808  20.938  24.313  1.00  0.00    -0.364 N 
ATOM     10  C   UNL A   1      32.383  23.104  23.456  1.00  0.00     0.039 C 
ATOM     11  C   UNL A   1      32.283  21.615  23.133  1.00  0.00     0.118 C 
BRANCH   8  12
ATOM     12  C   UNL A   1      34.681  22.147  25.429  1.00  0.00    -0.024 A 
ATOM     13  C   UNL A   1      37.475  22.551  25.708  1.00  0.00     0.118 A 
ATOM     14  C   UNL A   1      36.971  21.304  25.337  1.00  0.00     0.047 A 
ATOM     15  C   UNL A   1      36.592  23.610  25.877  1.00  0.00     0.047 A 
ATOM     16  C   UNL A   1      35.591  21.102  25.193  1.00  0.00     0.010 A 
ATOM     17  C   UNL A   1      35.216  23.406  25.741  1.00  0.00     0.010 A 
BRANCH  13  18
ATOM     18  O   UNL A   1      38.832  22.631  25.850  1.00  0.00    -0.497 OA
ATOM     19  C   UNL A   1      39.495  21.399  26.126  1.00  0.00     0.278 C 
ENDBRANCH  13  18
ENDBRANCH   8  12
BRANCH   9  20
ATOM     20  C   UNL A   1      32.837  19.567  24.408  1.00  0.00     0.037 A 
ATOM     21  C   UNL A   1      32.896  18.768  23.249  1.00  0.00     0.029 A 
ATOM     22  C   UNL A   1      32.836  18.903  25.639  1.00  0.00     0.029 A 
ATOM     23  C   UNL A   1      32.975  17.374  23.312  1.00  0.00     0.041 A 
ATOM     24  C   UNL A   1      32.903  17.507  25.706  1.00  0.00     0.041 A 
ATOM     25  C   UNL A   1      32.969  16.754  24.546  1.00  0.00     0.123 A 
ATOM     26  F   UNL A   1      33.032  15.419  24.627  1.00  0.00    -0.207 F 
ENDBRANCH   9  20
ENDBRANCH   5   7
ENDBRANCH   4   5
ENDBRANCH   3   4
ENDBRANCH   2   3
ENDBRANCH   1   2
BRANCH   1  27
ATOM     27  C   UNL A   1      32.149  29.165  25.031  1.00  0.00     0.202 C 
BRANCH  27  28
ATOM     28  C   UNL A   1      31.779  30.457  25.774  1.00  0.00     0.261 C 
BRANCH  28  29
ATOM     29  O   UNL A   1      32.371  30.542  27.083  1.00  0.00    -0.460 OA
BRANCH  29  30
ATOM     30  C   UNL A   1      33.153  31.630  27.294  1.00  0.00     0.338 C 
ATOM     31  O   UNL A   1      32.819  32.804  27.243  1.00  0.00    -0.246 OA
BRANCH  30  32
ATOM     32  C   UNL A   1      34.472  31.195  27.791  1.00  0.00     0.060 A 
ATOM     33  C   UNL A   1      34.674  29.838  28.064  1.00  0.00     0.016 A 
ATOM     34  C   UNL A   1      35.500  32.109  28.008  1.00  0.00     0.016 A 
ATOM     35  C   UNL A   1      35.897  29.398  28.579  1.00  0.00     0.010 A 
ATOM     36  C   UNL A   1      36.739  31.661  28.486  1.00  0.00     0.010 A 
ATOM     37  C   UNL A   1      36.938  30.308  28.818  1.00  0.00    -0.014 A 
BRANCH  37  38
ATOM     38  C   UNL A   1      38.167  29.877  29.547  1.00  0.00     0.031 A 
ATOM     39  C   UNL A   1      38.407  30.380  30.952  1.00  0.00     0.074 A 
ATOM     40  C   UNL A   1      39.060  29.032  28.992  1.00  0.00     0.049 A 
ATOM     41  N   UNL A   1      39.415  30.156  31.758  1.00  0.00    -0.248 NA
ATOM     42  C   UNL A   1      37.381  31.271  31.518  1.00  0.00     0.031 C 
ATOM     43  C   UNL A   1      38.974  28.473  27.644  1.00  0.00     0.029 A 
ATOM     44  N   UNL A   1      40.222  28.498  29.498  1.00  0.00    -0.354 N 
ATOM     45  C   UNL A   1      39.157  30.899  32.905  1.00  0.00     0.074 A 
ATOM     46  C   UNL A   1      37.925  31.619  32.673  1.00  0.00     0.031 C 
ATOM     47  C   UNL A   1      40.027  27.665  27.435  1.00  0.00     0.029 A 
ATOM     48  C   UNL A   1      40.885  27.674  28.620  1.00  0.00     0.049 A 
ATOM     49  H   UNL A   1      40.550  28.689  30.407  1.00  0.00     0.167 HD
ATOM     50  C   UNL A   1      39.862  30.960  34.059  1.00  0.00     0.037 A 
ATOM     51  C   UNL A   1      42.054  27.014  28.748  1.00  0.00     0.037 A 
ATOM     52  C   UNL A   1      41.061  30.210  34.321  1.00  0.00     0.049 A 
ATOM     53  C   UNL A   1      42.829  27.109  30.041  1.00  0.00     0.074 A 
ATOM     54  C   UNL A   1      41.804  30.155  35.488  1.00  0.00     0.029 A 
ATOM     55  N   UNL A   1      41.695  29.386  33.405  1.00  0.00    -0.354 N 
ATOM     56  N   UNL A   1      42.536  27.762  31.139  1.00  0.00    -0.248 NA
ATOM     57  C   UNL A   1      44.096  26.365  30.113  1.00  0.00     0.031 C 
ATOM     58  C   UNL A   1      42.919  29.347  35.260  1.00  0.00     0.029 A 
ATOM     59  C   UNL A   1      42.836  28.842  33.973  1.00  0.00     0.049 A 
ATOM     60  H   UNL A   1      41.381  29.213  32.488  1.00  0.00     0.167 HD
ATOM     61  C   UNL A   1      43.561  27.483  32.036  1.00  0.00     0.074 A 
ATOM     62  C   UNL A   1      44.472  26.585  31.364  1.00  0.00     0.031 C 
ATOM     63  C   UNL A   1      43.731  27.934  33.303  1.00  0.00     0.037 A 
BRANCH  50  64
ATOM     64  C   UNL A   1      39.357  31.871  35.142  1.00  0.00     0.064 A 
ATOM     65  C   UNL A   1      39.666  33.240  35.161  1.00  0.00     0.173 A 
ATOM     66  C   UNL A   1      38.502  31.377  36.139  1.00  0.00     0.173 A 
ATOM     67  F   UNL A   1      40.488  33.760  34.238  1.00  0.00    -0.203 F 
ATOM     68  C   UNL A   1      39.159  34.073  36.153  1.00  0.00     0.198 A 
ATOM     69  C   UNL A   1      37.969  32.221  37.109  1.00  0.00     0.198 A 
ATOM     70  F   UNL A   1      38.168  30.078  36.161  1.00  0.00    -0.203 F 
ATOM     71  F   UNL A   1      39.505  35.368  36.180  1.00  0.00    -0.200 F 
ATOM     72  C   UNL A   1      38.303  33.567  37.120  1.00  0.00     0.200 A 
ATOM     73  F   UNL A   1      37.128  31.733  38.031  1.00  0.00    -0.200 F 
ATOM     74  F   UNL A   1      37.802  34.375  38.063  1.00  0.00    -0.200 F 
ENDBRANCH  50  64
BRANCH  51  75
ATOM     75  C   UNL A   1      42.588  26.198  27.619  1.00  0.00     0.064 A 
ATOM     76  C   UNL A   1      42.255  24.843  27.481  1.00  0.00     0.173 A 
ATOM     77  C   UNL A   1      43.487  26.743  26.691  1.00  0.00     0.173 A 
ATOM     78  F   UNL A   1      41.421  24.265  28.359  1.00  0.00    -0.203 F 
ATOM     79  C   UNL A   1      42.827  24.057  26.481  1.00  0.00     0.198 A 
ATOM     80  C   UNL A   1      44.031  25.966  25.670  1.00  0.00     0.198 A 
ATOM     81  F   UNL A   1      43.842  28.033  26.777  1.00  0.00    -0.203 F 
ATOM     82  F   UNL A   1      42.545  22.749  26.417  1.00  0.00    -0.200 F 
ATOM     83  C   UNL A   1      43.711  24.620  25.574  1.00  0.00     0.200 A 
ATOM     84  F   UNL A   1      44.874  26.517  24.788  1.00  0.00    -0.200 F 
ATOM     85  F   UNL A   1      44.264  23.864  24.617  1.00  0.00    -0.200 F 
ENDBRANCH  51  75
BRANCH  63  86
ATOM     86  C   UNL A   1      44.922  27.431  34.072  1.00  0.00     0.064 A 
ATOM     87  C   UNL A   1      46.144  28.120  34.080  1.00  0.00     0.173 A 
ATOM     88  C   UNL A   1      44.823  26.266  34.850  1.00  0.00     0.173 A 
ATOM     89  F   UNL A   1      46.297  29.233  33.345  1.00  0.00    -0.203 F 
ATOM     90  C   UNL A   1      47.230  27.645  34.811  1.00  0.00     0.198 A 
ATOM     91  C   UNL A   1      45.899  25.815  35.609  1.00  0.00     0.198 A 
ATOM     92  F   UNL A   1      43.674  25.574  34.888  1.00  0.00    -0.203 F 
ATOM     93  F   UNL A   1      48.403  28.291  34.760  1.00  0.00    -0.200 F 
ATOM     94  C   UNL A   1      47.105  26.499  35.582  1.00  0.00     0.200 A 
ATOM     95  F   UNL A   1      45.769  24.717  36.367  1.00  0.00    -0.200 F 
ATOM     96  F   UNL A   1      48.147  26.049  36.293  1.00  0.00    -0.200 F 
ENDBRANCH  63  86
ENDBRANCH  37  38
ENDBRANCH  30  32
ENDBRANCH  29  30
ENDBRANCH  28  29
ENDBRANCH  27  28
ENDBRANCH   1  27
TORSDOF 17
ENDMDL
MODEL 3
REMARK VINA RESULT:     -12.0      4.375      9.935
REMARK SMILES COc1ccc([C@H]2[C@H](C(=O)OCCOCCOC(=O)c3ccc(-c4c5nc(c(-c6c(F)c(F)c(F)c(F)c6F)c6ccc([nH]6)c(-c6c(F)c(F)c(F)c(F)c6F)c6nc(c(-c7c(F)c(F)c(F)c(F)c7F)c7ccc4[nH]7)C=C6)C=C5)cc3)CCN2c2ccc(F)cc2)cc1
REMARK SMILES IDX 14 1 13 2 12 3 11 4 9 5 10 6 8 7 7 8 85 9 83 10 84 11 6 12
REMARK SMILES IDX 3 13 4 14 94 15 5 16 93 17 2 18 1 19 86 20 87 21 92 22 88 23
REMARK SMILES IDX 91 24 89 25 90 26 15 27 16 28 17 29 18 30 19 31 20 32 21 33
REMARK SMILES IDX 82 34 22 35 81 36 23 37 24 38 25 39 75 40 26 41 80 42 74 43
REMARK SMILES IDX 76 44 27 45 79 46 73 47 72 48 28 50 60 51 40 52 59 53 41 54
REMARK SMILES IDX 44 55 58 56 77 57 42 58 43 59 57 61 78 62 45 63 29 64 30 65
REMARK SMILES IDX 38 66 31 67 32 68 36 69 39 70 33 71 34 72 37 73 35 74 61 75
REMARK SMILES IDX 62 76 70 77 63 78 64 79 68 80 71 81 65 82 66 83 69 84 67 85
REMARK SMILES IDX 46 86 47 87 55 88 48 89 49 90 53 91 56 92 50 93 51 94 54 95
REMARK SMILES IDX 52 96
REMARK H PARENT 76 49 44 60
REMARK Flexibility Score: inf
ROOT
ATOM      1  O   UNL A   1      31.376  27.862  25.218  1.00  0.00    -0.374 OA
ENDROOT
BRANCH   1   2
ATOM      2  C   UNL A   1      31.978  26.833  26.001  1.00  0.00     0.202 C 
BRANCH   2   3
ATOM      3  C   UNL A   1      31.125  25.593  26.260  1.00  0.00     0.261 C 
BRANCH   3   4
ATOM      4  O   UNL A   1      31.097  24.729  25.108  1.00  0.00    -0.463 OA
BRANCH   4   5
ATOM      5  C   UNL A   1      31.496  23.452  25.320  1.00  0.00     0.311 C 
ATOM      6  O   UNL A   1      30.840  22.613  25.928  1.00  0.00    -0.252 OA
BRANCH   5   7
ATOM      7  C   UNL A   1      32.874  23.136  24.785  1.00  0.00     0.128 C 
ATOM      8  C   UNL A   1      33.514  21.816  25.257  1.00  0.00     0.127 C 
ATOM      9  N   UNL A   1      33.080  20.858  24.226  1.00  0.00    -0.364 N 
ATOM     10  C   UNL A   1      32.839  23.010  23.268  1.00  0.00     0.039 C 
ATOM     11  C   UNL A   1      32.615  21.521  23.013  1.00  0.00     0.118 C 
BRANCH   8  12
ATOM     12  C   UNL A   1      35.047  21.957  25.294  1.00  0.00    -0.024 A 
ATOM     13  C   UNL A   1      37.867  22.119  25.558  1.00  0.00     0.118 A 
ATOM     14  C   UNL A   1      37.261  20.941  25.119  1.00  0.00     0.047 A 
ATOM     15  C   UNL A   1      37.074  23.233  25.802  1.00  0.00     0.047 A 
ATOM     16  C   UNL A   1      35.868  20.859  24.982  1.00  0.00     0.010 A 
ATOM     17  C   UNL A   1      35.685  23.148  25.673  1.00  0.00     0.010 A 
BRANCH  13  18
ATOM     18  O   UNL A   1      39.228  22.081  25.685  1.00  0.00    -0.497 OA
ATOM     19  C   UNL A   1      39.761  20.870  26.218  1.00  0.00     0.278 C 
ENDBRANCH  13  18
ENDBRANCH   8  12
BRANCH   9  20
ATOM     20  C   UNL A   1      32.995  19.495  24.383  1.00  0.00     0.037 A 
ATOM     21  C   UNL A   1      33.242  18.630  23.299  1.00  0.00     0.029 A 
ATOM     22  C   UNL A   1      32.689  18.904  25.614  1.00  0.00     0.029 A 
ATOM     23  C   UNL A   1      33.210  17.240  23.438  1.00  0.00     0.041 A 
ATOM     24  C   UNL A   1      32.644  17.512  25.754  1.00  0.00     0.041 A 
ATOM     25  C   UNL A   1      32.901  16.692  24.668  1.00  0.00     0.123 A 
ATOM     26  F   UNL A   1      32.855  15.362  24.819  1.00  0.00    -0.207 F 
ENDBRANCH   9  20
ENDBRANCH   5   7
ENDBRANCH   4   5
ENDBRANCH   3   4
ENDBRANCH   2   3
ENDBRANCH   1   2
BRANCH   1  27
ATOM     27  C   UNL A   1      32.170  29.018  24.955  1.00  0.00     0.202 C 
BRANCH  27  28
ATOM     28  C   UNL A   1      31.779  30.304  25.698  1.00  0.00     0.261 C 
BRANCH  28  29
ATOM     29  O   UNL A   1      32.342  30.382  27.020  1.00  0.00    -0.460 OA
BRANCH  29  30
ATOM     30  C   UNL A   1      33.078  31.494  27.270  1.00  0.00     0.338 C 
ATOM     31  O   UNL A   1      32.699  32.655  27.247  1.00  0.00    -0.246 OA
BRANCH  30  32
ATOM     32  C   UNL A   1      34.409  31.096  27.771  1.00  0.00     0.060 A 
ATOM     33  C   UNL A   1      34.683  29.736  27.944  1.00  0.00     0.016 A 
ATOM     34  C   UNL A   1      35.375  32.048  28.088  1.00  0.00     0.016 A 
ATOM     35  C   UNL A   1      35.917  29.327  28.459  1.00  0.00     0.010 A 
ATOM     36  C   UNL A   1      36.626  31.634  28.565  1.00  0.00     0.010 A 
ATOM     37  C   UNL A   1      36.896  30.273  28.797  1.00  0.00    -0.014 A 
BRANCH  37  38
ATOM     38  C   UNL A   1      38.131  29.857  29.527  1.00  0.00     0.031 A 
ATOM     39  C   UNL A   1      38.365  30.364  30.931  1.00  0.00     0.074 A 
ATOM     40  C   UNL A   1      39.033  29.022  28.972  1.00  0.00     0.049 A 
ATOM     41  N   UNL A   1      39.376  30.152  31.737  1.00  0.00    -0.248 NA
ATOM     42  C   UNL A   1      37.328  31.243  31.497  1.00  0.00     0.031 C 
ATOM     43  C   UNL A   1      38.953  28.461  27.624  1.00  0.00     0.029 A 
ATOM     44  N   UNL A   1      40.201  28.502  29.478  1.00  0.00    -0.354 N 
ATOM     45  C   UNL A   1      39.108  30.893  32.883  1.00  0.00     0.074 A 
ATOM     46  C   UNL A   1      37.868  31.598  32.651  1.00  0.00     0.031 C 
ATOM     47  C   UNL A   1      40.016  27.665  27.416  1.00  0.00     0.029 A 
ATOM     48  C   UNL A   1      40.873  27.685  28.600  1.00  0.00     0.049 A 
ATOM     49  H   UNL A   1      40.527  28.697  30.387  1.00  0.00     0.167 HD
ATOM     50  C   UNL A   1      39.813  30.962  34.038  1.00  0.00     0.037 A 
ATOM     51  C   UNL A   1      42.050  27.038  28.729  1.00  0.00     0.037 A 
ATOM     52  C   UNL A   1      41.021  30.227  34.300  1.00  0.00     0.049 A 
ATOM     53  C   UNL A   1      42.824  27.143  30.022  1.00  0.00     0.074 A 
ATOM     54  C   UNL A   1      41.764  30.181  35.467  1.00  0.00     0.029 A 
ATOM     55  N   UNL A   1      41.664  29.409  33.384  1.00  0.00    -0.354 N 
ATOM     56  N   UNL A   1      42.523  27.794  31.119  1.00  0.00    -0.248 NA
ATOM     57  C   UNL A   1      44.099  26.414  30.094  1.00  0.00     0.031 C 
ATOM     58  C   UNL A   1      42.889  29.385  35.239  1.00  0.00     0.029 A 
ATOM     59  C   UNL A   1      42.812  28.879  33.952  1.00  0.00     0.049 A 
ATOM     60  H   UNL A   1      41.352  29.232  32.467  1.00  0.00     0.167 HD
ATOM     61  C   UNL A   1      43.551  27.527  32.016  1.00  0.00     0.074 A 
ATOM     62  C   UNL A   1      44.473  26.639  31.345  1.00  0.00     0.031 C 
ATOM     63  C   UNL A   1      43.717  27.980  33.283  1.00  0.00     0.037 A 
BRANCH  50  64
ATOM     64  C   UNL A   1      39.298  31.868  35.120  1.00  0.00     0.064 A 
ATOM     65  C   UNL A   1      38.516  31.385  36.180  1.00  0.00     0.173 A 
ATOM     66  C   UNL A   1      39.644  33.229  35.126  1.00  0.00     0.173 A 
ATOM     67  F   UNL A   1      38.148  30.096  36.215  1.00  0.00    -0.203 F 
ATOM     68  C   UNL A   1      38.078  32.235  37.191  1.00  0.00     0.198 A 
ATOM     69  C   UNL A   1      39.234  34.067  36.158  1.00  0.00     0.198 A 
ATOM     70  F   UNL A   1      40.397  33.740  34.141  1.00  0.00    -0.203 F 
ATOM     71  F   UNL A   1      37.293  31.761  38.168  1.00  0.00    -0.200 F 
ATOM     72  C   UNL A   1      38.446  33.572  37.186  1.00  0.00     0.200 A 
ATOM     73  F   UNL A   1      39.605  35.355  36.160  1.00  0.00    -0.200 F 
ATOM     74  F   UNL A   1      38.037  34.385  38.170  1.00  0.00    -0.200 F 
ENDBRANCH  50  64
BRANCH  51  75
ATOM     75  C   UNL A   1      42.593  26.228  27.601  1.00  0.00     0.064 A 
ATOM     76  C   UNL A   1      42.251  24.877  27.445  1.00  0.00     0.173 A 
ATOM     77  C   UNL A   1      43.509  26.774  26.690  1.00  0.00     0.173 A 
ATOM     78  F   UNL A   1      41.400  24.298  28.306  1.00  0.00    -0.203 F 
ATOM     79  C   UNL A   1      42.830  24.095  26.447  1.00  0.00     0.198 A 
ATOM     80  C   UNL A   1      44.061  26.001  25.670  1.00  0.00     0.198 A 
ATOM     81  F   UNL A   1      43.875  28.060  26.792  1.00  0.00    -0.203 F 
ATOM     82  F   UNL A   1      42.538  22.790  26.367  1.00  0.00    -0.200 F 
ATOM     83  C   UNL A   1      43.732  24.658  25.557  1.00  0.00     0.200 A 
ATOM     84  F   UNL A   1      44.922  26.553  24.805  1.00  0.00    -0.200 F 
ATOM     85  F   UNL A   1      44.292  23.906  24.602  1.00  0.00    -0.200 F 
ENDBRANCH  51  75
BRANCH  63  86
ATOM     86  C   UNL A   1      44.913  27.491  34.052  1.00  0.00     0.064 A 
ATOM     87  C   UNL A   1      44.875  26.313  34.813  1.00  0.00     0.173 A 
ATOM     88  C   UNL A   1      46.130  28.189  33.988  1.00  0.00     0.173 A 
ATOM     89  F   UNL A   1      43.734  25.613  34.917  1.00  0.00    -0.203 F 
ATOM     90  C   UNL A   1      45.999  25.870  35.505  1.00  0.00     0.198 A 
ATOM     91  C   UNL A   1      47.261  27.724  34.652  1.00  0.00     0.198 A 
ATOM     92  F   UNL A   1      46.226  29.316  33.267  1.00  0.00    -0.203 F 
ATOM     93  F   UNL A   1      45.923  24.771  36.269  1.00  0.00    -0.200 F 
ATOM     94  C   UNL A   1      47.193  26.570  35.418  1.00  0.00     0.200 A 
ATOM     95  F   UNL A   1      48.419  28.392  34.550  1.00  0.00    -0.200 F 
ATOM     96  F   UNL A   1      48.277  26.136  36.076  1.00  0.00    -0.200 F 
ENDBRANCH  63  86
ENDBRANCH  37  38
ENDBRANCH  30  32
ENDBRANCH  29  30
ENDBRANCH  28  29
ENDBRANCH  27  28
ENDBRANCH   1  27
TORSDOF 17
ENDMDL
