MODEL 1
REMARK VINA RESULT:     -11.8      0.000      0.000
REMARK SMILES N#Cc1ccc2c(c1)C=C(C(=O)OCCOCCOC(=O)c1ccc(-c3c4nc(c(-c5c(F)c(F)c(F)c(F)c5F)c5ccc([nH]5)c(-c5c(F)c(F)c(F)c(F)c5F)c5nc(c(-c6c(F)c(F)c(F)c(F)c6F)c6ccc3[nH]6)C=C5)C=C4)cc1)[C@@H](C(F)(F)F)O2
REMARK SMILES IDX 17 1 16 2 15 3 14 4 13 5 11 6 12 7 10 8 3 9 4 10 8 11 5 12
REMARK SMILES IDX 7 13 6 14 9 15 90 16 85 17 2 18 1 19 86 20 87 21 88 22 89 23
REMARK SMILES IDX 18 24 19 25 20 26 21 27 22 28 23 29 84 30 24 31 83 32 25 33
REMARK SMILES IDX 26 34 27 35 77 36 28 37 82 38 76 39 78 40 29 41 81 42 75 43
REMARK SMILES IDX 74 44 30 46 62 47 42 48 61 49 43 50 46 51 60 52 79 53 44 54
REMARK SMILES IDX 45 55 59 57 80 58 47 59 31 60 32 61 40 62 33 63 34 64 38 65
REMARK SMILES IDX 41 66 35 67 36 68 39 69 37 70 63 71 64 72 72 73 65 74 66 75
REMARK SMILES IDX 70 76 73 77 67 78 68 79 71 80 69 81 48 82 49 83 57 84 50 85
REMARK SMILES IDX 51 86 55 87 58 88 52 89 53 90 56 91 54 92
REMARK H PARENT 78 45 46 56
REMARK Flexibility Score: inf
ROOT
ATOM      1  C   UNL A   1      31.753  31.964  26.850  1.00  0.00     0.202 C 
ENDROOT
BRANCH   1   2
ATOM      2  O   UNL A   1      32.269  30.775  26.259  1.00  0.00    -0.374 OA
BRANCH   2   3
ATOM      3  C   UNL A   1      33.165  29.959  27.003  1.00  0.00     0.202 C 
BRANCH   3   4
ATOM      4  C   UNL A   1      33.915  28.833  26.284  1.00  0.00     0.261 C 
BRANCH   4   5
ATOM      5  O   UNL A   1      33.700  28.844  24.868  1.00  0.00    -0.460 OA
BRANCH   5   6
ATOM      6  C   UNL A   1      33.267  27.661  24.368  1.00  0.00     0.338 C 
ATOM      7  O   UNL A   1      33.870  26.601  24.372  1.00  0.00    -0.246 OA
BRANCH   6   8
ATOM      8  C   UNL A   1      31.870  27.793  23.916  1.00  0.00     0.087 C 
ATOM      9  C   UNL A   1      28.474  30.699  22.164  1.00  0.00     0.053 A 
ATOM     10  C   UNL A   1      27.499  29.763  22.524  1.00  0.00     0.023 A 
ATOM     11  C   UNL A   1      29.826  30.398  22.351  1.00  0.00     0.031 A 
ATOM     12  C   UNL A   1      27.876  28.524  23.048  1.00  0.00     0.048 A 
ATOM     13  C   UNL A   1      30.199  29.173  22.917  1.00  0.00     0.019 A 
ATOM     14  C   UNL A   1      29.225  28.230  23.248  1.00  0.00     0.128 A 
ATOM     15  C   UNL A   1      31.587  28.916  23.242  1.00  0.00     0.027 C 
ATOM     16  O   UNL A   1      29.508  26.999  23.768  1.00  0.00    -0.475 OA
ATOM     17  C   UNL A   1      30.857  26.734  24.249  1.00  0.00     0.316 C 
BRANCH   9  18
ATOM     18  C   UNL A   1      28.096  31.977  21.637  1.00  0.00     0.099 C 
ATOM     19  N   UNL A   1      27.787  33.017  21.221  1.00  0.00    -0.192 NA
ENDBRANCH   9  18
BRANCH  17  20
ATOM     20  C   UNL A   1      30.788  26.438  25.755  1.00  0.00     0.430 C 
ATOM     21  F   UNL A   1      29.597  25.887  26.091  1.00  0.00    -0.167 F 
ATOM     22  F   UNL A   1      31.741  25.557  26.140  1.00  0.00    -0.167 F 
ATOM     23  F   UNL A   1      30.944  27.557  26.497  1.00  0.00    -0.167 F 
ENDBRANCH  17  20
ENDBRANCH   6   8
ENDBRANCH   5   6
ENDBRANCH   4   5
ENDBRANCH   3   4
ENDBRANCH   2   3
ENDBRANCH   1   2
BRANCH   1  24
ATOM     24  C   UNL A   1      32.718  33.057  27.331  1.00  0.00     0.261 C 
BRANCH  24  25
ATOM     25  O   UNL A   1      32.206  33.849  28.413  1.00  0.00    -0.460 OA
BRANCH  25  26
ATOM     26  C   UNL A   1      32.992  34.899  28.764  1.00  0.00     0.338 C 
ATOM     27  O   UNL A   1      32.732  36.086  28.673  1.00  0.00    -0.246 OA
BRANCH  26  28
ATOM     28  C   UNL A   1      34.176  34.388  29.478  1.00  0.00     0.060 A 
ATOM     29  C   UNL A   1      34.039  33.703  30.684  1.00  0.00     0.016 A 
ATOM     30  C   UNL A   1      35.439  34.572  28.898  1.00  0.00     0.016 A 
ATOM     31  C   UNL A   1      35.178  33.188  31.306  1.00  0.00     0.010 A 
ATOM     32  C   UNL A   1      36.574  34.053  29.520  1.00  0.00     0.010 A 
ATOM     33  C   UNL A   1      36.450  33.342  30.721  1.00  0.00    -0.014 A 
BRANCH  33  34
ATOM     34  C   UNL A   1      37.625  32.659  31.317  1.00  0.00     0.031 A 
ATOM     35  C   UNL A   1      38.151  33.037  32.668  1.00  0.00     0.074 A 
ATOM     36  C   UNL A   1      38.220  31.677  30.612  1.00  0.00     0.049 A 
ATOM     37  N   UNL A   1      39.118  32.485  33.358  1.00  0.00    -0.248 NA
ATOM     38  C   UNL A   1      37.517  34.185  33.331  1.00  0.00     0.031 C 
ATOM     39  C   UNL A   1      37.819  31.249  29.272  1.00  0.00     0.029 A 
ATOM     40  N   UNL A   1      39.273  30.854  30.925  1.00  0.00    -0.354 N 
ATOM     41  C   UNL A   1      39.196  33.202  34.543  1.00  0.00     0.074 A 
ATOM     42  C   UNL A   1      38.219  34.266  34.454  1.00  0.00     0.031 C 
ATOM     43  C   UNL A   1      38.583  30.213  28.896  1.00  0.00     0.029 A 
ATOM     44  C   UNL A   1      39.556  29.932  29.949  1.00  0.00     0.049 A 
ATOM     45  H   UNL A   1      39.776  30.919  31.769  1.00  0.00     0.167 HD
ATOM     46  C   UNL A   1      39.995  32.972  35.614  1.00  0.00     0.037 A 
ATOM     47  C   UNL A   1      40.492  28.963  29.904  1.00  0.00     0.037 A 
ATOM     48  C   UNL A   1      40.975  31.918  35.685  1.00  0.00     0.049 A 
ATOM     49  C   UNL A   1      41.405  28.770  31.083  1.00  0.00     0.074 A 
ATOM     50  C   UNL A   1      41.809  31.589  36.742  1.00  0.00     0.029 A 
ATOM     51  N   UNL A   1      41.270  31.032  34.658  1.00  0.00    -0.354 N 
ATOM     52  N   UNL A   1      41.417  29.401  32.231  1.00  0.00    -0.248 NA
ATOM     53  C   UNL A   1      42.431  27.726  30.962  1.00  0.00     0.031 C 
ATOM     54  C   UNL A   1      42.652  30.553  36.330  1.00  0.00     0.029 A 
ATOM     55  C   UNL A   1      42.297  30.183  35.043  1.00  0.00     0.049 A 
ATOM     56  H   UNL A   1      40.815  31.010  33.785  1.00  0.00     0.167 HD
ATOM     57  C   UNL A   1      42.433  28.820  32.977  1.00  0.00     0.074 A 
ATOM     58  C   UNL A   1      43.000  27.768  32.160  1.00  0.00     0.031 C 
ATOM     59  C   UNL A   1      42.858  29.135  34.225  1.00  0.00     0.037 A 
BRANCH  46  60
ATOM     60  C   UNL A   1      39.842  33.870  36.809  1.00  0.00     0.064 A 
ATOM     61  C   UNL A   1      40.470  35.125  36.868  1.00  0.00     0.173 A 
ATOM     62  C   UNL A   1      38.996  33.513  37.871  1.00  0.00     0.173 A 
ATOM     63  F   UNL A   1      41.292  35.515  35.881  1.00  0.00    -0.203 F 
ATOM     64  C   UNL A   1      40.274  35.976  37.952  1.00  0.00     0.198 A 
ATOM     65  C   UNL A   1      38.775  34.381  38.937  1.00  0.00     0.198 A 
ATOM     66  F   UNL A   1      38.361  32.332  37.862  1.00  0.00    -0.203 F 
ATOM     67  F   UNL A   1      40.916  37.151  38.003  1.00  0.00    -0.200 F 
ATOM     68  C   UNL A   1      39.419  35.609  38.980  1.00  0.00     0.200 A 
ATOM     69  F   UNL A   1      37.933  34.034  39.919  1.00  0.00    -0.200 F 
ATOM     70  F   UNL A   1      39.217  36.439  40.013  1.00  0.00    -0.200 F 
ENDBRANCH  46  60
BRANCH  47  71
ATOM     71  C   UNL A   1      40.580  28.085  28.708  1.00  0.00     0.064 A 
ATOM     72  C   UNL A   1      39.886  26.869  28.655  1.00  0.00     0.173 A 
ATOM     73  C   UNL A   1      41.331  28.457  27.582  1.00  0.00     0.173 A 
ATOM     74  F   UNL A   1      39.169  26.460  29.713  1.00  0.00    -0.203 F 
ATOM     75  C   UNL A   1      39.945  26.055  27.525  1.00  0.00     0.198 A 
ATOM     76  C   UNL A   1      41.362  27.659  26.442  1.00  0.00     0.198 A 
ATOM     77  F   UNL A   1      42.010  29.613  27.580  1.00  0.00    -0.203 F 
ATOM     78  F   UNL A   1      39.300  24.880  27.516  1.00  0.00    -0.200 F 
ATOM     79  C   UNL A   1      40.673  26.455  26.416  1.00  0.00     0.200 A 
ATOM     80  F   UNL A   1      42.051  28.060  25.364  1.00  0.00    -0.200 F 
ATOM     81  F   UNL A   1      40.714  25.682  25.323  1.00  0.00    -0.200 F 
ENDBRANCH  47  71
BRANCH  59  82
ATOM     82  C   UNL A   1      43.989  28.330  34.805  1.00  0.00     0.064 A 
ATOM     83  C   UNL A   1      45.322  28.756  34.706  1.00  0.00     0.173 A 
ATOM     84  C   UNL A   1      43.729  27.160  35.537  1.00  0.00     0.173 A 
ATOM     85  F   UNL A   1      45.627  29.860  34.008  1.00  0.00    -0.203 F 
ATOM     86  C   UNL A   1      46.352  28.033  35.302  1.00  0.00     0.198 A 
ATOM     87  C   UNL A   1      44.757  26.461  36.162  1.00  0.00     0.198 A 
ATOM     88  F   UNL A   1      42.473  26.710  35.670  1.00  0.00    -0.203 F 
ATOM     89  F   UNL A   1      47.621  28.438  35.158  1.00  0.00    -0.200 F 
ATOM     90  C   UNL A   1      46.068  26.895  36.040  1.00  0.00     0.200 A 
ATOM     91  F   UNL A   1      44.478  25.373  36.893  1.00  0.00    -0.200 F 
ATOM     92  F   UNL A   1      47.059  26.213  36.632  1.00  0.00    -0.200 F 
ENDBRANCH  59  82
ENDBRANCH  33  34
ENDBRANCH  26  28
ENDBRANCH  25  26
ENDBRANCH  24  25
ENDBRANCH   1  24
TORSDOF 16
ENDMDL
MODEL 2
REMARK VINA RESULT:     -11.8      3.168      4.837
REMARK SMILES N#Cc1ccc2c(c1)C=C(C(=O)OCCOCCOC(=O)c1ccc(-c3c4nc(c(-c5c(F)c(F)c(F)c(F)c5F)c5ccc([nH]5)c(-c5c(F)c(F)c(F)c(F)c5F)c5nc(c(-c6c(F)c(F)c(F)c(F)c6F)c6ccc3[nH]6)C=C5)C=C4)cc1)[C@@H](C(F)(F)F)O2
REMARK SMILES IDX 17 1 16 2 15 3 14 4 13 5 11 6 12 7 10 8 3 9 4 10 8 11 5 12
REMARK SMILES IDX 7 13 6 14 9 15 90 16 85 17 2 18 1 19 86 20 87 21 88 22 89 23
REMARK SMILES IDX 18 24 19 25 20 26 21 27 22 28 23 29 84 30 24 31 83 32 25 33
REMARK SMILES IDX 26 34 27 35 77 36 28 37 82 38 76 39 78 40 29 41 81 42 75 43
REMARK SMILES IDX 74 44 30 46 62 47 42 48 61 49 43 50 46 51 60 52 79 53 44 54
REMARK SMILES IDX 45 55 59 57 80 58 47 59 31 60 32 61 40 62 33 63 34 64 38 65
REMARK SMILES IDX 41 66 35 67 36 68 39 69 37 70 63 71 64 72 72 73 65 74 66 75
REMARK SMILES IDX 70 76 73 77 67 78 68 79 71 80 69 81 48 82 49 83 57 84 50 85
REMARK SMILES IDX 51 86 55 87 58 88 52 89 53 90 56 91 54 92
REMARK H PARENT 78 45 46 56
REMARK Flexibility Score: inf
ROOT
ATOM      1  C   UNL A   1      31.376  28.974  25.275  1.00  0.00     0.202 C 
ENDROOT
BRANCH   1   2
ATOM      2  O   UNL A   1      30.736  28.888  24.005  1.00  0.00    -0.374 OA
BRANCH   2   3
ATOM      3  C   UNL A   1      30.342  27.616  23.507  1.00  0.00     0.202 C 
BRANCH   3   4
ATOM      4  C   UNL A   1      31.045  27.052  22.269  1.00  0.00     0.261 C 
BRANCH   4   5
ATOM      5  O   UNL A   1      31.434  25.683  22.432  1.00  0.00    -0.460 OA
BRANCH   5   6
ATOM      6  C   UNL A   1      32.692  25.414  22.005  1.00  0.00     0.338 C 
ATOM      7  O   UNL A   1      33.277  25.944  21.075  1.00  0.00    -0.246 OA
BRANCH   6   8
ATOM      8  C   UNL A   1      33.334  24.453  22.920  1.00  0.00     0.087 C 
ATOM      9  C   UNL A   1      33.210  20.070  24.873  1.00  0.00     0.053 A 
ATOM     10  C   UNL A   1      34.118  20.488  25.851  1.00  0.00     0.023 A 
ATOM     11  C   UNL A   1      32.851  20.943  23.842  1.00  0.00     0.031 A 
ATOM     12  C   UNL A   1      34.680  21.766  25.785  1.00  0.00     0.048 A 
ATOM     13  C   UNL A   1      33.381  22.237  23.804  1.00  0.00     0.019 A 
ATOM     14  C   UNL A   1      34.310  22.642  24.764  1.00  0.00     0.128 A 
ATOM     15  C   UNL A   1      32.904  23.188  22.821  1.00  0.00     0.027 C 
ATOM     16  O   UNL A   1      34.901  23.872  24.774  1.00  0.00    -0.475 OA
ATOM     17  C   UNL A   1      34.367  24.916  23.910  1.00  0.00     0.316 C 
BRANCH   9  18
ATOM     18  C   UNL A   1      32.620  18.766  24.940  1.00  0.00     0.099 C 
ATOM     19  N   UNL A   1      32.152  17.704  25.000  1.00  0.00    -0.192 NA
ENDBRANCH   9  18
BRANCH  17  20
ATOM     20  C   UNL A   1      33.861  26.068  24.792  1.00  0.00     0.430 C 
ATOM     21  F   UNL A   1      34.629  26.209  25.900  1.00  0.00    -0.167 F 
ATOM     22  F   UNL A   1      33.902  27.255  24.143  1.00  0.00    -0.167 F 
ATOM     23  F   UNL A   1      32.588  25.870  25.201  1.00  0.00    -0.167 F 
ENDBRANCH  17  20
ENDBRANCH   6   8
ENDBRANCH   5   6
ENDBRANCH   4   5
ENDBRANCH   3   4
ENDBRANCH   2   3
ENDBRANCH   1   2
BRANCH   1  24
ATOM     24  C   UNL A   1      31.796  30.344  25.825  1.00  0.00     0.261 C 
BRANCH  24  25
ATOM     25  O   UNL A   1      33.196  30.443  26.128  1.00  0.00    -0.460 OA
BRANCH  25  26
ATOM     26  C   UNL A   1      33.507  31.388  27.053  1.00  0.00     0.338 C 
ATOM     27  O   UNL A   1      32.803  32.299  27.451  1.00  0.00    -0.246 OA
BRANCH  26  28
ATOM     28  C   UNL A   1      34.794  31.036  27.678  1.00  0.00     0.060 A 
ATOM     29  C   UNL A   1      35.723  32.023  28.002  1.00  0.00     0.016 A 
ATOM     30  C   UNL A   1      35.047  29.689  27.975  1.00  0.00     0.016 A 
ATOM     31  C   UNL A   1      36.909  31.658  28.641  1.00  0.00     0.010 A 
ATOM     32  C   UNL A   1      36.232  29.327  28.616  1.00  0.00     0.010 A 
ATOM     33  C   UNL A   1      37.164  30.313  28.970  1.00  0.00    -0.014 A 
BRANCH  33  34
ATOM     34  C   UNL A   1      38.357  29.964  29.781  1.00  0.00     0.031 A 
ATOM     35  C   UNL A   1      38.550  30.504  31.166  1.00  0.00     0.074 A 
ATOM     36  C   UNL A   1      39.278  29.140  29.244  1.00  0.00     0.049 A 
ATOM     37  N   UNL A   1      39.497  30.232  32.030  1.00  0.00    -0.248 NA
ATOM     38  C   UNL A   1      37.560  31.477  31.644  1.00  0.00     0.031 C 
ATOM     39  C   UNL A   1      39.214  28.584  27.893  1.00  0.00     0.029 A 
ATOM     40  N   UNL A   1      40.433  28.615  29.768  1.00  0.00    -0.354 N 
ATOM     41  C   UNL A   1      39.207  30.982  33.159  1.00  0.00     0.074 A 
ATOM     42  C   UNL A   1      38.029  31.766  32.851  1.00  0.00     0.031 C 
ATOM     43  C   UNL A   1      40.256  27.760  27.709  1.00  0.00     0.029 A 
ATOM     44  C   UNL A   1      41.085  27.763  28.912  1.00  0.00     0.049 A 
ATOM     45  H   UNL A   1      40.762  28.831  30.670  1.00  0.00     0.167 HD
ATOM     46  C   UNL A   1      39.853  30.993  34.351  1.00  0.00     0.037 A 
ATOM     47  C   UNL A   1      42.221  27.058  29.076  1.00  0.00     0.037 A 
ATOM     48  C   UNL A   1      41.034  30.220  34.642  1.00  0.00     0.049 A 
ATOM     49  C   UNL A   1      42.950  27.136  30.389  1.00  0.00     0.074 A 
ATOM     50  C   UNL A   1      41.739  30.143  35.832  1.00  0.00     0.029 A 
ATOM     51  N   UNL A   1      41.696  29.403  33.735  1.00  0.00    -0.354 N 
ATOM     52  N   UNL A   1      42.623  27.786  31.479  1.00  0.00    -0.248 NA
ATOM     53  C   UNL A   1      44.204  26.377  30.497  1.00  0.00     0.031 C 
ATOM     54  C   UNL A   1      42.863  29.337  35.624  1.00  0.00     0.029 A 
ATOM     55  C   UNL A   1      42.821  28.850  34.328  1.00  0.00     0.049 A 
ATOM     56  H   UNL A   1      41.408  29.241  32.808  1.00  0.00     0.167 HD
ATOM     57  C   UNL A   1      43.615  27.500  32.407  1.00  0.00     0.074 A 
ATOM     58  C   UNL A   1      44.544  26.597  31.759  1.00  0.00     0.031 C 
ATOM     59  C   UNL A   1      43.744  27.950  33.679  1.00  0.00     0.037 A 
BRANCH  46  60
ATOM     60  C   UNL A   1      39.296  31.862  35.443  1.00  0.00     0.064 A 
ATOM     61  C   UNL A   1      38.422  31.348  36.415  1.00  0.00     0.173 A 
ATOM     62  C   UNL A   1      39.702  33.200  35.572  1.00  0.00     0.173 A 
ATOM     63  F   UNL A   1      37.999  30.077  36.337  1.00  0.00    -0.203 F 
ATOM     64  C   UNL A   1      37.959  32.145  37.458  1.00  0.00     0.198 A 
ATOM     65  C   UNL A   1      39.265  33.984  36.637  1.00  0.00     0.198 A 
ATOM     66  F   UNL A   1      40.545  33.740  34.680  1.00  0.00    -0.203 F 
ATOM     67  F   UNL A   1      37.095  31.642  38.350  1.00  0.00    -0.200 F 
ATOM     68  C   UNL A   1      38.389  33.458  37.575  1.00  0.00     0.200 A 
ATOM     69  F   UNL A   1      39.697  35.246  36.760  1.00  0.00    -0.200 F 
ATOM     70  F   UNL A   1      37.958  34.218  38.592  1.00  0.00    -0.200 F 
ENDBRANCH  46  60
BRANCH  47  71
ATOM     71  C   UNL A   1      42.711  26.192  27.972  1.00  0.00     0.064 A 
ATOM     72  C   UNL A   1      42.265  24.871  27.841  1.00  0.00     0.173 A 
ATOM     73  C   UNL A   1      43.608  26.676  27.007  1.00  0.00     0.173 A 
ATOM     74  F   UNL A   1      41.422  24.355  28.748  1.00  0.00    -0.203 F 
ATOM     75  C   UNL A   1      42.702  24.064  26.792  1.00  0.00     0.198 A 
ATOM     76  C   UNL A   1      44.017  25.880  25.940  1.00  0.00     0.198 A 
ATOM     77  F   UNL A   1      44.062  27.936  27.083  1.00  0.00    -0.203 F 
ATOM     78  F   UNL A   1      42.286  22.792  26.711  1.00  0.00    -0.200 F 
ATOM     79  C   UNL A   1      43.568  24.572  25.837  1.00  0.00     0.200 A 
ATOM     80  F   UNL A   1      44.839  26.383  25.008  1.00  0.00    -0.200 F 
ATOM     81  F   UNL A   1      43.973  23.803  24.818  1.00  0.00    -0.200 F 
ENDBRANCH  47  71
BRANCH  59  82
ATOM     82  C   UNL A   1      44.926  27.472  34.476  1.00  0.00     0.064 A 
ATOM     83  C   UNL A   1      44.884  26.278  35.211  1.00  0.00     0.173 A 
ATOM     84  C   UNL A   1      46.142  28.174  34.438  1.00  0.00     0.173 A 
ATOM     85  F   UNL A   1      43.745  25.575  35.291  1.00  0.00    -0.203 F 
ATOM     86  C   UNL A   1      46.007  25.815  35.892  1.00  0.00     0.198 A 
ATOM     87  C   UNL A   1      47.272  27.689  35.090  1.00  0.00     0.198 A 
ATOM     88  F   UNL A   1      46.242  29.318  33.745  1.00  0.00    -0.203 F 
ATOM     89  F   UNL A   1      45.930  24.694  36.622  1.00  0.00    -0.200 F 
ATOM     90  C   UNL A   1      47.203  26.513  35.821  1.00  0.00     0.200 A 
ATOM     91  F   UNL A   1      48.433  28.354  35.001  1.00  0.00    -0.200 F 
ATOM     92  F   UNL A   1      48.289  26.053  36.459  1.00  0.00    -0.200 F 
ENDBRANCH  59  82
ENDBRANCH  33  34
ENDBRANCH  26  28
ENDBRANCH  25  26
ENDBRANCH  24  25
ENDBRANCH   1  24
TORSDOF 16
ENDMDL
MODEL 3
REMARK VINA RESULT:     -11.8      1.539      2.606
REMARK SMILES N#Cc1ccc2c(c1)C=C(C(=O)OCCOCCOC(=O)c1ccc(-c3c4nc(c(-c5c(F)c(F)c(F)c(F)c5F)c5ccc([nH]5)c(-c5c(F)c(F)c(F)c(F)c5F)c5nc(c(-c6c(F)c(F)c(F)c(F)c6F)c6ccc3[nH]6)C=C5)C=C4)cc1)[C@@H](C(F)(F)F)O2
REMARK SMILES IDX 17 1 16 2 15 3 14 4 13 5 11 6 12 7 10 8 3 9 4 10 8 11 5 12
REMARK SMILES IDX 7 13 6 14 9 15 90 16 85 17 2 18 1 19 86 20 87 21 88 22 89 23
REMARK SMILES IDX 18 24 19 25 20 26 21 27 22 28 23 29 84 30 24 31 83 32 25 33
REMARK SMILES IDX 26 34 27 35 77 36 28 37 82 38 76 39 78 40 29 41 81 42 75 43
REMARK SMILES IDX 74 44 30 46 62 47 42 48 61 49 43 50 46 51 60 52 79 53 44 54
REMARK SMILES IDX 45 55 59 57 80 58 47 59 31 60 32 61 40 62 33 63 34 64 38 65
REMARK SMILES IDX 41 66 35 67 36 68 39 69 37 70 63 71 64 72 72 73 65 74 66 75
REMARK SMILES IDX 70 76 73 77 67 78 68 79 71 80 69 81 48 82 49 83 57 84 50 85
REMARK SMILES IDX 51 86 55 87 58 88 52 89 53 90 56 91 54 92
REMARK H PARENT 78 45 46 56
REMARK Flexibility Score: inf
ROOT
ATOM      1  C   UNL A   1      31.786  30.457  25.885  1.00  0.00     0.202 C 
ENDROOT
BRANCH   1   2
ATOM      2  O   UNL A   1      32.413  29.374  26.565  1.00  0.00    -0.374 OA
BRANCH   2   3
ATOM      3  C   UNL A   1      33.677  28.905  26.111  1.00  0.00     0.202 C 
BRANCH   3   4
ATOM      4  C   UNL A   1      33.756  27.543  25.415  1.00  0.00     0.261 C 
BRANCH   4   5
ATOM      5  O   UNL A   1      33.443  27.619  24.019  1.00  0.00    -0.460 OA
BRANCH   5   6
ATOM      6  C   UNL A   1      32.700  26.580  23.565  1.00  0.00     0.338 C 
ATOM      7  O   UNL A   1      33.063  25.423  23.435  1.00  0.00    -0.246 OA
BRANCH   6   8
ATOM      8  C   UNL A   1      31.306  27.016  23.360  1.00  0.00     0.087 C 
ATOM      9  C   UNL A   1      28.356  30.631  22.236  1.00  0.00     0.053 A 
ATOM     10  C   UNL A   1      27.279  29.902  22.751  1.00  0.00     0.023 A 
ATOM     11  C   UNL A   1      29.626  30.050  22.185  1.00  0.00     0.031 A 
ATOM     12  C   UNL A   1      27.469  28.591  23.195  1.00  0.00     0.048 A 
ATOM     13  C   UNL A   1      29.821  28.752  22.671  1.00  0.00     0.019 A 
ATOM     14  C   UNL A   1      28.739  28.016  23.158  1.00  0.00     0.128 A 
ATOM     15  C   UNL A   1      31.158  28.201  22.752  1.00  0.00     0.027 C 
ATOM     16  O   UNL A   1      28.840  26.733  23.615  1.00  0.00    -0.475 OA
ATOM     17  C   UNL A   1      30.163  26.175  23.855  1.00  0.00     0.316 C 
BRANCH   9  18
ATOM     18  C   UNL A   1      28.172  31.981  21.789  1.00  0.00     0.099 C 
ATOM     19  N   UNL A   1      28.028  33.079  21.438  1.00  0.00    -0.192 NA
ENDBRANCH   9  18
BRANCH  17  20
ATOM     20  C   UNL A   1      30.285  25.837  25.349  1.00  0.00     0.430 C 
ATOM     21  F   UNL A   1      30.816  26.872  26.043  1.00  0.00    -0.167 F 
ATOM     22  F   UNL A   1      29.079  25.578  25.906  1.00  0.00    -0.167 F 
ATOM     23  F   UNL A   1      31.071  24.758  25.560  1.00  0.00    -0.167 F 
ENDBRANCH  17  20
ENDBRANCH   6   8
ENDBRANCH   5   6
ENDBRANCH   4   5
ENDBRANCH   3   4
ENDBRANCH   2   3
ENDBRANCH   1   2
BRANCH   1  24
ATOM     24  C   UNL A   1      31.817  31.863  26.501  1.00  0.00     0.261 C 
BRANCH  24  25
ATOM     25  O   UNL A   1      32.617  31.959  27.689  1.00  0.00    -0.460 OA
BRANCH  25  26
ATOM     26  C   UNL A   1      33.611  32.883  27.626  1.00  0.00     0.338 C 
ATOM     27  O   UNL A   1      33.515  34.060  27.326  1.00  0.00    -0.246 OA
BRANCH  26  28
ATOM     28  C   UNL A   1      34.844  32.292  28.177  1.00  0.00     0.060 A 
ATOM     29  C   UNL A   1      36.033  33.018  28.199  1.00  0.00     0.016 A 
ATOM     30  C   UNL A   1      34.784  30.999  28.715  1.00  0.00     0.016 A 
ATOM     31  C   UNL A   1      37.168  32.447  28.777  1.00  0.00     0.010 A 
ATOM     32  C   UNL A   1      35.918  30.431  29.294  1.00  0.00     0.010 A 
ATOM     33  C   UNL A   1      37.115  31.159  29.345  1.00  0.00    -0.014 A 
BRANCH  33  34
ATOM     34  C   UNL A   1      38.287  30.630  30.087  1.00  0.00     0.031 A 
ATOM     35  C   UNL A   1      38.569  31.035  31.501  1.00  0.00     0.074 A 
ATOM     36  C   UNL A   1      39.106  29.765  29.457  1.00  0.00     0.049 A 
ATOM     37  N   UNL A   1      39.506  30.603  32.310  1.00  0.00    -0.248 NA
ATOM     38  C   UNL A   1      37.695  32.060  32.087  1.00  0.00     0.031 C 
ATOM     39  C   UNL A   1      38.951  29.328  28.070  1.00  0.00     0.029 A 
ATOM     40  N   UNL A   1      40.214  29.088  29.900  1.00  0.00    -0.354 N 
ATOM     41  C   UNL A   1      39.321  31.285  33.503  1.00  0.00     0.074 A 
ATOM     42  C   UNL A   1      38.221  32.204  33.296  1.00  0.00     0.031 C 
ATOM     43  C   UNL A   1      39.900  28.422  27.788  1.00  0.00     0.029 A 
ATOM     44  C   UNL A   1      40.755  28.247  28.959  1.00  0.00     0.049 A 
ATOM     45  H   UNL A   1      40.587  29.197  30.805  1.00  0.00     0.167 HD
ATOM     46  C   UNL A   1      39.995  31.136  34.670  1.00  0.00     0.037 A 
ATOM     47  C   UNL A   1      41.818  27.422  29.030  1.00  0.00     0.037 A 
ATOM     48  C   UNL A   1      41.099  30.229  34.860  1.00  0.00     0.049 A 
ATOM     49  C   UNL A   1      42.584  27.322  30.320  1.00  0.00     0.074 A 
ATOM     50  C   UNL A   1      41.823  29.987  36.016  1.00  0.00     0.029 A 
ATOM     51  N   UNL A   1      41.652  29.427  33.872  1.00  0.00    -0.354 N 
ATOM     52  N   UNL A   1      42.353  27.911  31.467  1.00  0.00    -0.248 NA
ATOM     53  C   UNL A   1      43.757  26.437  30.327  1.00  0.00     0.031 C 
ATOM     54  C   UNL A   1      42.854  29.094  35.710  1.00  0.00     0.029 A 
ATOM     55  C   UNL A   1      42.730  28.719  34.382  1.00  0.00     0.049 A 
ATOM     56  H   UNL A   1      41.325  29.368  32.945  1.00  0.00     0.167 HD
ATOM     57  C   UNL A   1      43.334  27.455  32.336  1.00  0.00     0.074 A 
ATOM     58  C   UNL A   1      44.150  26.520  31.591  1.00  0.00     0.031 C 
ATOM     59  C   UNL A   1      43.540  27.787  33.635  1.00  0.00     0.037 A 
BRANCH  46  60
ATOM     60  C   UNL A   1      39.558  31.965  35.844  1.00  0.00     0.064 A 
ATOM     61  C   UNL A   1      40.121  33.225  36.103  1.00  0.00     0.173 A 
ATOM     62  C   UNL A   1      38.509  31.537  36.673  1.00  0.00     0.173 A 
ATOM     63  F   UNL A   1      41.130  33.681  35.344  1.00  0.00    -0.203 F 
ATOM     64  C   UNL A   1      39.668  34.012  37.158  1.00  0.00     0.198 A 
ATOM     65  C   UNL A   1      38.034  32.342  37.706  1.00  0.00     0.198 A 
ATOM     66  F   UNL A   1      37.925  30.347  36.466  1.00  0.00    -0.203 F 
ATOM     67  F   UNL A   1      40.249  35.193  37.407  1.00  0.00    -0.200 F 
ATOM     68  C   UNL A   1      38.617  33.576  37.951  1.00  0.00     0.200 A 
ATOM     69  F   UNL A   1      37.006  31.927  38.458  1.00  0.00    -0.200 F 
ATOM     70  F   UNL A   1      38.169  34.344  38.953  1.00  0.00    -0.200 F 
ENDBRANCH  46  60
BRANCH  47  71
ATOM     71  C   UNL A   1      42.189  26.604  27.846  1.00  0.00     0.064 A 
ATOM     72  C   UNL A   1      43.179  27.034  26.955  1.00  0.00     0.173 A 
ATOM     73  C   UNL A   1      41.586  25.360  27.600  1.00  0.00     0.173 A 
ATOM     74  F   UNL A   1      43.773  28.224  27.136  1.00  0.00    -0.203 F 
ATOM     75  C   UNL A   1      43.549  26.258  25.858  1.00  0.00     0.198 A 
ATOM     76  C   UNL A   1      41.979  24.570  26.523  1.00  0.00     0.198 A 
ATOM     77  F   UNL A   1      40.635  24.899  28.426  1.00  0.00    -0.203 F 
ATOM     78  F   UNL A   1      44.474  26.711  25.001  1.00  0.00    -0.200 F 
ATOM     79  C   UNL A   1      42.956  25.022  25.649  1.00  0.00     0.200 A 
ATOM     80  F   UNL A   1      41.419  23.367  26.337  1.00  0.00    -0.200 F 
ATOM     81  F   UNL A   1      43.325  24.267  24.606  1.00  0.00    -0.200 F 
ENDBRANCH  47  71
BRANCH  59  82
ATOM     82  C   UNL A   1      44.688  27.132  34.352  1.00  0.00     0.064 A 
ATOM     83  C   UNL A   1      44.563  25.863  34.936  1.00  0.00     0.173 A 
ATOM     84  C   UNL A   1      45.951  27.746  34.386  1.00  0.00     0.173 A 
ATOM     85  F   UNL A   1      43.376  25.237  34.943  1.00  0.00    -0.203 F 
ATOM     86  C   UNL A   1      45.652  25.241  35.542  1.00  0.00     0.198 A 
ATOM     87  C   UNL A   1      47.046  27.105  34.959  1.00  0.00     0.198 A 
ATOM     88  F   UNL A   1      46.130  28.956  33.837  1.00  0.00    -0.203 F 
ATOM     89  F   UNL A   1      45.497  24.047  36.129  1.00  0.00    -0.200 F 
ATOM     90  C   UNL A   1      46.894  25.856  35.541  1.00  0.00     0.200 A 
ATOM     91  F   UNL A   1      48.251  27.692  34.938  1.00  0.00    -0.200 F 
ATOM     92  F   UNL A   1      47.947  25.245  36.104  1.00  0.00    -0.200 F 
ENDBRANCH  59  82
ENDBRANCH  33  34
ENDBRANCH  26  28
ENDBRANCH  25  26
ENDBRANCH  24  25
ENDBRANCH   1  24
TORSDOF 16
ENDMDL
