MODEL 1
REMARK VINA RESULT:     -11.2      0.000      0.000
REMARK SMILES CC1(C)C(CNC(=O)[C@H]2C[C@H]2C(=O)OCCOCCOC(=O)c2ccc(-c3c4nc(c(-c5c(F)c(F)c(F)c(F)c5F)c5ccc([nH]5)c(-c5c(F)c(F)c(F)c(F)c5F)c5nc(c(-c6c(F)c(F)c(F)c(F)c6F)c6ccc3[nH]6)C=C5)C=C4)cc2)C1(C)C
REMARK SMILES IDX 16 1 15 2 14 3 12 4 13 5 11 6 9 7 10 8 7 9 6 10 8 12 5 13
REMARK SMILES IDX 4 14 1 15 2 16 3 17 86 18 87 19 88 20 17 21 18 22 19 23
REMARK SMILES IDX 20 24 21 25 22 26 23 27 24 28 85 29 25 30 84 31 26 32 27 33
REMARK SMILES IDX 28 34 78 35 29 36 83 37 77 38 79 39 30 40 82 41 76 42 75 43
REMARK SMILES IDX 31 45 63 46 43 47 62 48 44 49 47 50 61 51 80 52 45 53 46 54
REMARK SMILES IDX 60 56 81 57 48 58 32 59 33 60 41 61 34 62 35 63 39 64 42 65
REMARK SMILES IDX 36 66 37 67 40 68 38 69 64 70 65 71 73 72 66 73 67 74 71 75
REMARK SMILES IDX 74 76 68 77 69 78 72 79 70 80 49 81 50 82 58 83 51 84 52 85
REMARK SMILES IDX 56 86 59 87 53 88 54 89 57 90 55 91
REMARK H PARENT 6 11 79 44 47 55
REMARK Flexibility Score: inf
ROOT
ATOM      1  C   UNL A   1      31.922  29.293  26.361  1.00  0.00     0.202 C 
ENDROOT
BRANCH   1   2
ATOM      2  C   UNL A   1      31.687  29.380  24.850  1.00  0.00     0.261 C 
BRANCH   2   3
ATOM      3  O   UNL A   1      30.924  28.273  24.348  1.00  0.00    -0.463 OA
BRANCH   3   4
ATOM      4  C   UNL A   1      31.411  27.727  23.208  1.00  0.00     0.309 C 
ATOM      5  O   UNL A   1      30.829  27.673  22.133  1.00  0.00    -0.252 OA
BRANCH   4   6
ATOM      6  C   UNL A   1      32.806  27.233  23.300  1.00  0.00     0.112 C 
ATOM      7  C   UNL A   1      33.598  26.308  22.401  1.00  0.00     0.093 C 
ATOM      8  C   UNL A   1      33.730  27.792  22.241  1.00  0.00     0.030 C 
BRANCH   7   9
ATOM      9  C   UNL A   1      32.963  25.373  21.452  1.00  0.00     0.224 C 
ATOM     10  N   UNL A   1      32.291  24.278  21.920  1.00  0.00    -0.356 N 
ATOM     11  H   UNL A   1      31.755  23.801  21.246  1.00  0.00     0.163 HD
ATOM     12  O   UNL A   1      32.902  25.666  20.264  1.00  0.00    -0.275 OA
BRANCH  10  13
ATOM     13  C   UNL A   1      32.244  23.711  23.249  1.00  0.00     0.120 C 
BRANCH  13  14
ATOM     14  C   UNL A   1      33.369  22.750  23.490  1.00  0.00     0.021 C 
ATOM     15  C   UNL A   1      35.879  22.543  24.117  1.00  0.00     0.012 C 
ATOM     16  C   UNL A   1      34.480  22.974  24.518  1.00  0.00    -0.025 C 
ATOM     17  C   UNL A   1      34.513  24.212  25.385  1.00  0.00     0.012 C 
ATOM     18  C   UNL A   1      33.402  21.896  24.758  1.00  0.00    -0.025 C 
ATOM     19  C   UNL A   1      33.783  20.435  24.627  1.00  0.00     0.012 C 
ATOM     20  C   UNL A   1      32.323  22.086  25.806  1.00  0.00     0.012 C 
ENDBRANCH  13  14
ENDBRANCH  10  13
ENDBRANCH   7   9
ENDBRANCH   4   6
ENDBRANCH   3   4
ENDBRANCH   2   3
ENDBRANCH   1   2
BRANCH   1  21
ATOM     21  O   UNL A   1      32.012  30.525  27.072  1.00  0.00    -0.374 OA
BRANCH  21  22
ATOM     22  C   UNL A   1      31.362  31.667  26.505  1.00  0.00     0.202 C 
BRANCH  22  23
ATOM     23  C   UNL A   1      31.968  33.045  26.804  1.00  0.00     0.261 C 
BRANCH  23  24
ATOM     24  O   UNL A   1      32.769  33.062  27.999  1.00  0.00    -0.460 OA
BRANCH  24  25
ATOM     25  C   UNL A   1      33.889  33.817  27.936  1.00  0.00     0.338 C 
ATOM     26  O   UNL A   1      33.967  35.021  27.752  1.00  0.00    -0.246 OA
BRANCH  25  27
ATOM     27  C   UNL A   1      35.065  33.004  28.294  1.00  0.00     0.060 A 
ATOM     28  C   UNL A   1      34.836  31.714  28.793  1.00  0.00     0.016 A 
ATOM     29  C   UNL A   1      36.359  33.524  28.241  1.00  0.00     0.016 A 
ATOM     30  C   UNL A   1      35.897  30.958  29.288  1.00  0.00     0.010 A 
ATOM     31  C   UNL A   1      37.422  32.769  28.751  1.00  0.00     0.010 A 
ATOM     32  C   UNL A   1      37.191  31.498  29.309  1.00  0.00    -0.014 A 
BRANCH  32  33
ATOM     33  C   UNL A   1      38.269  30.786  30.038  1.00  0.00     0.031 A 
ATOM     34  C   UNL A   1      38.509  31.106  31.487  1.00  0.00     0.074 A 
ATOM     35  C   UNL A   1      39.012  29.849  29.421  1.00  0.00     0.049 A 
ATOM     36  N   UNL A   1      39.411  30.628  32.306  1.00  0.00    -0.248 NA
ATOM     37  C   UNL A   1      37.613  32.102  32.096  1.00  0.00     0.031 C 
ATOM     38  C   UNL A   1      38.860  29.431  28.030  1.00  0.00     0.029 A 
ATOM     39  N   UNL A   1      40.054  29.088  29.891  1.00  0.00    -0.354 N 
ATOM     40  C   UNL A   1      39.198  31.270  33.518  1.00  0.00     0.074 A 
ATOM     41  C   UNL A   1      38.096  32.187  33.327  1.00  0.00     0.031 C 
ATOM     42  C   UNL A   1      39.789  28.502  27.751  1.00  0.00     0.029 A 
ATOM     43  C   UNL A   1      40.617  28.279  28.935  1.00  0.00     0.049 A 
ATOM     44  H   UNL A   1      40.368  29.119  30.824  1.00  0.00     0.167 HD
ATOM     45  C   UNL A   1      39.861  31.103  34.688  1.00  0.00     0.037 A 
ATOM     46  C   UNL A   1      41.692  27.471  29.004  1.00  0.00     0.037 A 
ATOM     47  C   UNL A   1      40.946  30.179  34.885  1.00  0.00     0.049 A 
ATOM     48  C   UNL A   1      42.438  27.335  30.307  1.00  0.00     0.074 A 
ATOM     49  C   UNL A   1      41.646  29.906  36.047  1.00  0.00     0.029 A 
ATOM     50  N   UNL A   1      41.495  29.384  33.890  1.00  0.00    -0.354 N 
ATOM     51  N   UNL A   1      42.199  27.910  31.461  1.00  0.00    -0.248 NA
ATOM     52  C   UNL A   1      43.599  26.434  30.319  1.00  0.00     0.031 C 
ATOM     53  C   UNL A   1      42.651  28.982  35.745  1.00  0.00     0.029 A 
ATOM     54  C   UNL A   1      42.547  28.643  34.406  1.00  0.00     0.049 A 
ATOM     55  H   UNL A   1      41.185  29.353  32.957  1.00  0.00     0.167 HD
ATOM     56  C   UNL A   1      43.160  27.422  32.339  1.00  0.00     0.074 A 
ATOM     57  C   UNL A   1      43.978  26.494  31.588  1.00  0.00     0.031 C 
ATOM     58  C   UNL A   1      43.347  27.717  33.648  1.00  0.00     0.037 A 
BRANCH  45  59
ATOM     59  C   UNL A   1      39.449  31.957  35.850  1.00  0.00     0.064 A 
ATOM     60  C   UNL A   1      40.046  33.201  36.099  1.00  0.00     0.173 A 
ATOM     61  C   UNL A   1      38.401  31.550  36.689  1.00  0.00     0.173 A 
ATOM     62  F   UNL A   1      41.059  33.631  35.331  1.00  0.00    -0.203 F 
ATOM     63  C   UNL A   1      39.618  34.000  37.157  1.00  0.00     0.198 A 
ATOM     64  C   UNL A   1      37.960  32.362  37.730  1.00  0.00     0.198 A 
ATOM     65  F   UNL A   1      37.794  30.371  36.489  1.00  0.00    -0.203 F 
ATOM     66  F   UNL A   1      40.223  35.172  37.397  1.00  0.00    -0.200 F 
ATOM     67  C   UNL A   1      38.571  33.584  37.965  1.00  0.00     0.200 A 
ATOM     68  F   UNL A   1      36.939  31.963  38.503  1.00  0.00    -0.200 F 
ATOM     69  F   UNL A   1      38.152  34.360  38.975  1.00  0.00    -0.200 F 
ENDBRANCH  45  59
BRANCH  46  70
ATOM     70  C   UNL A   1      42.149  26.739  27.794  1.00  0.00     0.064 A 
ATOM     71  C   UNL A   1      41.655  25.466  27.481  1.00  0.00     0.173 A 
ATOM     72  C   UNL A   1      43.117  27.292  26.940  1.00  0.00     0.173 A 
ATOM     73  F   UNL A   1      40.750  24.885  28.283  1.00  0.00    -0.203 F 
ATOM     74  C   UNL A   1      42.125  24.763  26.374  1.00  0.00     0.198 A 
ATOM     75  C   UNL A   1      43.565  26.599  25.818  1.00  0.00     0.198 A 
ATOM     76  F   UNL A   1      43.625  28.505  27.196  1.00  0.00    -0.203 F 
ATOM     77  F   UNL A   1      41.673  23.526  26.128  1.00  0.00    -0.200 F 
ATOM     78  C   UNL A   1      43.076  25.332  25.540  1.00  0.00     0.200 A 
ATOM     79  F   UNL A   1      44.477  27.158  25.009  1.00  0.00    -0.200 F 
ATOM     80  F   UNL A   1      43.529  24.655  24.477  1.00  0.00    -0.200 F 
ENDBRANCH  46  70
BRANCH  58  81
ATOM     81  C   UNL A   1      44.459  27.007  34.365  1.00  0.00     0.064 A 
ATOM     82  C   UNL A   1      45.737  27.574  34.483  1.00  0.00     0.173 A 
ATOM     83  C   UNL A   1      44.229  25.768  34.981  1.00  0.00     0.173 A 
ATOM     84  F   UNL A   1      46.010  28.750  33.899  1.00  0.00    -0.203 F 
ATOM     85  C   UNL A   1      46.749  26.915  35.174  1.00  0.00     0.198 A 
ATOM     86  C   UNL A   1      45.236  25.126  35.696  1.00  0.00     0.198 A 
ATOM     87  F   UNL A   1      43.023  25.188  34.904  1.00  0.00    -0.203 F 
ATOM     88  F   UNL A   1      47.975  27.455  35.239  1.00  0.00    -0.200 F 
ATOM     89  C   UNL A   1      46.497  25.696  35.786  1.00  0.00     0.200 A 
ATOM     90  F   UNL A   1      44.987  23.955  36.298  1.00  0.00    -0.200 F 
ATOM     91  F   UNL A   1      47.472  25.069  36.459  1.00  0.00    -0.200 F 
ENDBRANCH  58  81
ENDBRANCH  32  33
ENDBRANCH  25  27
ENDBRANCH  24  25
ENDBRANCH  23  24
ENDBRANCH  22  23
ENDBRANCH  21  22
ENDBRANCH   1  21
TORSDOF 17
ENDMDL
MODEL 2
REMARK VINA RESULT:     -11.1      3.620      8.970
REMARK SMILES CC1(C)C(CNC(=O)[C@H]2C[C@H]2C(=O)OCCOCCOC(=O)c2ccc(-c3c4nc(c(-c5c(F)c(F)c(F)c(F)c5F)c5ccc([nH]5)c(-c5c(F)c(F)c(F)c(F)c5F)c5nc(c(-c6c(F)c(F)c(F)c(F)c6F)c6ccc3[nH]6)C=C5)C=C4)cc2)C1(C)C
REMARK SMILES IDX 16 1 15 2 14 3 12 4 13 5 11 6 9 7 10 8 7 9 6 10 8 12 5 13
REMARK SMILES IDX 4 14 1 15 2 16 3 17 86 18 87 19 88 20 17 21 18 22 19 23
REMARK SMILES IDX 20 24 21 25 22 26 23 27 24 28 85 29 25 30 84 31 26 32 27 33
REMARK SMILES IDX 28 34 78 35 29 36 83 37 77 38 79 39 30 40 82 41 76 42 75 43
REMARK SMILES IDX 31 45 63 46 43 47 62 48 44 49 47 50 61 51 80 52 45 53 46 54
REMARK SMILES IDX 60 56 81 57 48 58 32 59 33 60 41 61 34 62 35 63 39 64 42 65
REMARK SMILES IDX 36 66 37 67 40 68 38 69 64 70 65 71 73 72 66 73 67 74 71 75
REMARK SMILES IDX 74 76 68 77 69 78 72 79 70 80 49 81 50 82 58 83 51 84 52 85
REMARK SMILES IDX 56 86 59 87 53 88 54 89 57 90 55 91
REMARK H PARENT 6 11 79 44 47 55
REMARK Flexibility Score: inf
ROOT
ATOM      1  C   UNL A   1      40.840  20.270  26.364  1.00  0.00     0.202 C 
ENDROOT
BRANCH   1   2
ATOM      2  C   UNL A   1      39.889  21.469  26.314  1.00  0.00     0.261 C 
BRANCH   2   3
ATOM      3  O   UNL A   1      38.649  21.161  25.662  1.00  0.00    -0.463 OA
BRANCH   3   4
ATOM      4  C   UNL A   1      37.857  22.234  25.425  1.00  0.00     0.309 C 
ATOM      5  O   UNL A   1      38.058  23.374  25.822  1.00  0.00    -0.252 OA
BRANCH   4   6
ATOM      6  C   UNL A   1      36.699  21.971  24.537  1.00  0.00     0.112 C 
ATOM      7  C   UNL A   1      35.225  22.275  24.704  1.00  0.00     0.093 C 
ATOM      8  C   UNL A   1      36.094  23.215  23.926  1.00  0.00     0.030 C 
BRANCH   7   9
ATOM      9  C   UNL A   1      34.602  22.535  26.017  1.00  0.00     0.224 C 
ATOM     10  N   UNL A   1      33.831  23.649  26.198  1.00  0.00    -0.356 N 
ATOM     11  H   UNL A   1      33.316  23.665  27.037  1.00  0.00     0.163 HD
ATOM     12  O   UNL A   1      34.645  21.672  26.886  1.00  0.00    -0.275 OA
BRANCH  10  13
ATOM     13  C   UNL A   1      33.655  24.808  25.352  1.00  0.00     0.120 C 
BRANCH  13  14
ATOM     14  C   UNL A   1      32.484  25.641  25.776  1.00  0.00     0.021 C 
ATOM     15  C   UNL A   1      31.728  27.630  27.262  1.00  0.00     0.012 C 
ATOM     16  C   UNL A   1      32.568  27.134  26.100  1.00  0.00    -0.025 C 
ATOM     17  C   UNL A   1      33.876  27.887  26.004  1.00  0.00     0.012 C 
ATOM     18  C   UNL A   1      31.862  26.654  24.814  1.00  0.00    -0.025 C 
ATOM     19  C   UNL A   1      30.350  26.731  24.735  1.00  0.00     0.012 C 
ATOM     20  C   UNL A   1      32.491  26.860  23.451  1.00  0.00     0.012 C 
ENDBRANCH  13  14
ENDBRANCH  10  13
ENDBRANCH   7   9
ENDBRANCH   4   6
ENDBRANCH   3   4
ENDBRANCH   2   3
ENDBRANCH   1   2
BRANCH   1  21
ATOM     21  O   UNL A   1      41.882  20.230  25.392  1.00  0.00    -0.374 OA
BRANCH  21  22
ATOM     22  C   UNL A   1      43.227  20.373  25.855  1.00  0.00     0.202 C 
BRANCH  22  23
ATOM     23  C   UNL A   1      43.991  21.634  25.429  1.00  0.00     0.261 C 
BRANCH  23  24
ATOM     24  O   UNL A   1      43.126  22.737  25.111  1.00  0.00    -0.460 OA
BRANCH  24  25
ATOM     25  C   UNL A   1      43.727  23.947  25.048  1.00  0.00     0.338 C 
ATOM     26  O   UNL A   1      44.622  24.296  24.297  1.00  0.00    -0.246 OA
BRANCH  25  27
ATOM     27  C   UNL A   1      43.030  24.900  25.931  1.00  0.00     0.060 A 
ATOM     28  C   UNL A   1      43.582  26.180  26.070  1.00  0.00     0.016 A 
ATOM     29  C   UNL A   1      41.918  24.522  26.686  1.00  0.00     0.016 A 
ATOM     30  C   UNL A   1      43.056  27.071  27.003  1.00  0.00     0.010 A 
ATOM     31  C   UNL A   1      41.398  25.413  27.633  1.00  0.00     0.010 A 
ATOM     32  C   UNL A   1      41.987  26.677  27.820  1.00  0.00    -0.014 A 
BRANCH  32  33
ATOM     33  C   UNL A   1      41.580  27.538  28.958  1.00  0.00     0.031 A 
ATOM     34  C   UNL A   1      42.343  27.454  30.250  1.00  0.00     0.074 A 
ATOM     35  C   UNL A   1      40.554  28.400  28.835  1.00  0.00     0.049 A 
ATOM     36  N   UNL A   1      42.144  28.090  31.377  1.00  0.00    -0.248 NA
ATOM     37  C   UNL A   1      43.485  26.526  30.278  1.00  0.00     0.031 C 
ATOM     38  C   UNL A   1      39.754  28.592  27.628  1.00  0.00     0.029 A 
ATOM     39  N   UNL A   1      40.005  29.267  29.747  1.00  0.00    -0.354 N 
ATOM     40  C   UNL A   1      43.124  27.633  32.247  1.00  0.00     0.074 A 
ATOM     41  C   UNL A   1      43.907  26.651  31.529  1.00  0.00     0.031 C 
ATOM     42  C   UNL A   1      38.801  29.507  27.880  1.00  0.00     0.029 A 
ATOM     43  C   UNL A   1      38.909  29.943  29.270  1.00  0.00     0.049 A 
ATOM     44  H   UNL A   1      40.363  29.393  30.656  1.00  0.00     0.167 HD
ATOM     45  C   UNL A   1      43.354  28.005  33.529  1.00  0.00     0.037 A 
ATOM     46  C   UNL A   1      38.076  30.797  29.895  1.00  0.00     0.037 A 
ATOM     47  C   UNL A   1      42.587  28.994  34.240  1.00  0.00     0.049 A 
ATOM     48  C   UNL A   1      38.329  31.163  31.335  1.00  0.00     0.074 A 
ATOM     49  C   UNL A   1      42.775  29.472  35.524  1.00  0.00     0.029 A 
ATOM     50  N   UNL A   1      41.478  29.649  33.727  1.00  0.00    -0.354 N 
ATOM     51  N   UNL A   1      39.287  30.762  32.135  1.00  0.00    -0.248 NA
ATOM     52  C   UNL A   1      37.387  32.104  31.959  1.00  0.00     0.031 C 
ATOM     53  C   UNL A   1      41.751  30.380  35.808  1.00  0.00     0.029 A 
ATOM     54  C   UNL A   1      40.952  30.505  34.683  1.00  0.00     0.049 A 
ATOM     55  H   UNL A   1      41.116  29.524  32.821  1.00  0.00     0.167 HD
ATOM     56  C   UNL A   1      39.080  31.419  33.342  1.00  0.00     0.074 A 
ATOM     57  C   UNL A   1      37.912  32.255  33.166  1.00  0.00     0.031 C 
ATOM     58  C   UNL A   1      39.794  31.337  34.491  1.00  0.00     0.037 A 
BRANCH  45  59
ATOM     59  C   UNL A   1      44.469  27.323  34.264  1.00  0.00     0.064 A 
ATOM     60  C   UNL A   1      44.268  26.121  34.957  1.00  0.00     0.173 A 
ATOM     61  C   UNL A   1      45.768  27.850  34.222  1.00  0.00     0.173 A 
ATOM     62  F   UNL A   1      43.042  25.582  35.034  1.00  0.00    -0.203 F 
ATOM     63  C   UNL A   1      45.327  25.479  35.595  1.00  0.00     0.198 A 
ATOM     64  C   UNL A   1      46.828  27.193  34.841  1.00  0.00     0.198 A 
ATOM     65  F   UNL A   1      46.013  28.995  33.568  1.00  0.00    -0.203 F 
ATOM     66  F   UNL A   1      45.108  24.346  36.278  1.00  0.00    -0.200 F 
ATOM     67  C   UNL A   1      46.606  26.010  35.530  1.00  0.00     0.200 A 
ATOM     68  F   UNL A   1      48.066  27.703  34.766  1.00  0.00    -0.200 F 
ATOM     69  F   UNL A   1      47.626  25.385  36.134  1.00  0.00    -0.200 F 
ENDBRANCH  45  59
BRANCH  46  70
ATOM     70  C   UNL A   1      36.904  31.353  29.171  1.00  0.00     0.064 A 
ATOM     71  C   UNL A   1      36.864  32.695  28.769  1.00  0.00     0.173 A 
ATOM     72  C   UNL A   1      35.783  30.555  28.892  1.00  0.00     0.173 A 
ATOM     73  F   UNL A   1      37.900  33.505  29.037  1.00  0.00    -0.203 F 
ATOM     74  C   UNL A   1      35.741  33.224  28.136  1.00  0.00     0.198 A 
ATOM     75  C   UNL A   1      34.673  31.079  28.234  1.00  0.00     0.198 A 
ATOM     76  F   UNL A   1      35.768  29.266  29.259  1.00  0.00    -0.203 F 
ATOM     77  F   UNL A   1      35.710  34.523  27.809  1.00  0.00    -0.200 F 
ATOM     78  C   UNL A   1      34.649  32.414  27.864  1.00  0.00     0.200 A 
ATOM     79  F   UNL A   1      33.623  30.289  27.965  1.00  0.00    -0.200 F 
ATOM     80  F   UNL A   1      33.568  32.924  27.257  1.00  0.00    -0.200 F 
ENDBRANCH  46  70
BRANCH  58  81
ATOM     81  C   UNL A   1      39.353  32.195  35.642  1.00  0.00     0.064 A 
ATOM     82  C   UNL A   1      38.472  31.714  36.622  1.00  0.00     0.173 A 
ATOM     83  C   UNL A   1      39.856  33.496  35.791  1.00  0.00     0.173 A 
ATOM     84  F   UNL A   1      37.952  30.482  36.516  1.00  0.00    -0.203 F 
ATOM     85  C   UNL A   1      38.094  32.513  37.697  1.00  0.00     0.198 A 
ATOM     86  C   UNL A   1      39.498  34.282  36.883  1.00  0.00     0.198 A 
ATOM     87  F   UNL A   1      40.707  34.000  34.885  1.00  0.00    -0.203 F 
ATOM     88  F   UNL A   1      37.218  32.049  38.599  1.00  0.00    -0.200 F 
ATOM     89  C   UNL A   1      38.613  33.793  37.831  1.00  0.00     0.200 A 
ATOM     90  F   UNL A   1      40.011  35.513  37.018  1.00  0.00    -0.200 F 
ATOM     91  F   UNL A   1      38.254  34.556  38.872  1.00  0.00    -0.200 F 
ENDBRANCH  58  81
ENDBRANCH  32  33
ENDBRANCH  25  27
ENDBRANCH  24  25
ENDBRANCH  23  24
ENDBRANCH  22  23
ENDBRANCH  21  22
ENDBRANCH   1  21
TORSDOF 17
ENDMDL
MODEL 3
REMARK VINA RESULT:     -11.1      1.109      1.925
REMARK SMILES CC1(C)C(CNC(=O)[C@H]2C[C@H]2C(=O)OCCOCCOC(=O)c2ccc(-c3c4nc(c(-c5c(F)c(F)c(F)c(F)c5F)c5ccc([nH]5)c(-c5c(F)c(F)c(F)c(F)c5F)c5nc(c(-c6c(F)c(F)c(F)c(F)c6F)c6ccc3[nH]6)C=C5)C=C4)cc2)C1(C)C
REMARK SMILES IDX 16 1 15 2 14 3 12 4 13 5 11 6 9 7 10 8 7 9 6 10 8 12 5 13
REMARK SMILES IDX 4 14 1 15 2 16 3 17 86 18 87 19 88 20 17 21 18 22 19 23
REMARK SMILES IDX 20 24 21 25 22 26 23 27 24 28 85 29 25 30 84 31 26 32 27 33
REMARK SMILES IDX 28 34 78 35 29 36 83 37 77 38 79 39 30 40 82 41 76 42 75 43
REMARK SMILES IDX 31 45 63 46 43 47 62 48 44 49 47 50 61 51 80 52 45 53 46 54
REMARK SMILES IDX 60 56 81 57 48 58 32 59 33 60 41 61 34 62 35 63 39 64 42 65
REMARK SMILES IDX 36 66 37 67 40 68 38 69 64 70 65 71 73 72 66 73 67 74 71 75
REMARK SMILES IDX 74 76 68 77 69 78 72 79 70 80 49 81 50 82 58 83 51 84 52 85
REMARK SMILES IDX 56 86 59 87 53 88 54 89 57 90 55 91
REMARK H PARENT 6 11 79 44 47 55
REMARK Flexibility Score: inf
ROOT
ATOM      1  C   UNL A   1      32.594  29.480  27.238  1.00  0.00     0.202 C 
ENDROOT
BRANCH   1   2
ATOM      2  C   UNL A   1      31.702  28.325  26.774  1.00  0.00     0.261 C 
BRANCH   2   3
ATOM      3  O   UNL A   1      32.153  27.744  25.541  1.00  0.00    -0.463 OA
BRANCH   3   4
ATOM      4  C   UNL A   1      31.317  27.935  24.492  1.00  0.00     0.309 C 
ATOM      5  O   UNL A   1      30.942  29.017  24.063  1.00  0.00    -0.252 OA
BRANCH   4   6
ATOM      6  C   UNL A   1      30.910  26.696  23.786  1.00  0.00     0.112 C 
ATOM      7  C   UNL A   1      30.427  25.361  24.311  1.00  0.00     0.093 C 
ATOM      8  C   UNL A   1      29.431  26.392  23.876  1.00  0.00     0.030 C 
BRANCH   7   9
ATOM      9  C   UNL A   1      30.676  24.905  25.692  1.00  0.00     0.224 C 
ATOM     10  N   UNL A   1      31.918  24.458  26.050  1.00  0.00    -0.356 N 
ATOM     11  H   UNL A   1      32.052  24.334  27.017  1.00  0.00     0.163 HD
ATOM     12  O   UNL A   1      29.818  25.080  26.550  1.00  0.00    -0.275 OA
BRANCH  10  13
ATOM     13  C   UNL A   1      33.065  24.138  25.230  1.00  0.00     0.120 C 
BRANCH  13  14
ATOM     14  C   UNL A   1      33.352  22.667  25.213  1.00  0.00     0.021 C 
ATOM     15  C   UNL A   1      32.530  20.359  24.356  1.00  0.00     0.012 C 
ATOM     16  C   UNL A   1      33.046  21.749  24.028  1.00  0.00    -0.025 C 
ATOM     17  C   UNL A   1      32.420  22.283  22.760  1.00  0.00     0.012 C 
ATOM     18  C   UNL A   1      34.505  22.110  24.377  1.00  0.00    -0.025 C 
ATOM     19  C   UNL A   1      35.394  21.052  24.999  1.00  0.00     0.012 C 
ATOM     20  C   UNL A   1      35.308  23.054  23.505  1.00  0.00     0.012 C 
ENDBRANCH  13  14
ENDBRANCH  10  13
ENDBRANCH   7   9
ENDBRANCH   4   6
ENDBRANCH   3   4
ENDBRANCH   2   3
ENDBRANCH   1   2
BRANCH   1  21
ATOM     21  O   UNL A   1      32.611  30.650  26.425  1.00  0.00    -0.374 OA
BRANCH  21  22
ATOM     22  C   UNL A   1      31.588  31.625  26.646  1.00  0.00     0.202 C 
BRANCH  22  23
ATOM     23  C   UNL A   1      32.033  33.076  26.876  1.00  0.00     0.261 C 
BRANCH  23  24
ATOM     24  O   UNL A   1      32.752  33.257  28.108  1.00  0.00    -0.460 OA
BRANCH  24  25
ATOM     25  C   UNL A   1      33.893  33.976  28.014  1.00  0.00     0.338 C 
ATOM     26  O   UNL A   1      34.006  35.172  27.799  1.00  0.00    -0.246 OA
BRANCH  25  27
ATOM     27  C   UNL A   1      35.048  33.135  28.379  1.00  0.00     0.060 A 
ATOM     28  C   UNL A   1      34.786  31.882  28.947  1.00  0.00     0.016 A 
ATOM     29  C   UNL A   1      36.359  33.600  28.261  1.00  0.00     0.016 A 
ATOM     30  C   UNL A   1      35.833  31.110  29.449  1.00  0.00     0.010 A 
ATOM     31  C   UNL A   1      37.408  32.830  28.778  1.00  0.00     0.010 A 
ATOM     32  C   UNL A   1      37.146  31.599  29.405  1.00  0.00    -0.014 A 
BRANCH  32  33
ATOM     33  C   UNL A   1      38.218  30.881  30.138  1.00  0.00     0.031 A 
ATOM     34  C   UNL A   1      38.457  31.203  31.586  1.00  0.00     0.074 A 
ATOM     35  C   UNL A   1      38.957  29.938  29.525  1.00  0.00     0.049 A 
ATOM     36  N   UNL A   1      39.355  30.721  32.409  1.00  0.00    -0.248 NA
ATOM     37  C   UNL A   1      37.566  32.206  32.192  1.00  0.00     0.031 C 
ATOM     38  C   UNL A   1      38.804  29.519  28.134  1.00  0.00     0.029 A 
ATOM     39  N   UNL A   1      39.993  29.172  29.998  1.00  0.00    -0.354 N 
ATOM     40  C   UNL A   1      39.144  31.367  33.619  1.00  0.00     0.074 A 
ATOM     41  C   UNL A   1      38.048  32.291  33.424  1.00  0.00     0.031 C 
ATOM     42  C   UNL A   1      39.728  28.583  27.859  1.00  0.00     0.029 A 
ATOM     43  C   UNL A   1      40.552  28.358  29.045  1.00  0.00     0.049 A 
ATOM     44  H   UNL A   1      40.305  29.204  30.931  1.00  0.00     0.167 HD
ATOM     45  C   UNL A   1      39.803  31.199  34.791  1.00  0.00     0.037 A 
ATOM     46  C   UNL A   1      41.622  27.543  29.117  1.00  0.00     0.037 A 
ATOM     47  C   UNL A   1      40.883  30.268  34.991  1.00  0.00     0.049 A 
ATOM     48  C   UNL A   1      42.365  27.406  30.422  1.00  0.00     0.074 A 
ATOM     49  C   UNL A   1      41.579  29.993  36.155  1.00  0.00     0.029 A 
ATOM     50  N   UNL A   1      41.429  29.468  33.999  1.00  0.00    -0.354 N 
ATOM     51  N   UNL A   1      42.128  27.984  31.574  1.00  0.00    -0.248 NA
ATOM     52  C   UNL A   1      43.521  26.497  30.438  1.00  0.00     0.031 C 
ATOM     53  C   UNL A   1      42.579  29.063  35.857  1.00  0.00     0.029 A 
ATOM     54  C   UNL A   1      42.475  28.721  34.518  1.00  0.00     0.049 A 
ATOM     55  H   UNL A   1      41.120  29.436  33.065  1.00  0.00     0.167 HD
ATOM     56  C   UNL A   1      43.084  27.493  32.455  1.00  0.00     0.074 A 
ATOM     57  C   UNL A   1      43.897  26.558  31.707  1.00  0.00     0.031 C 
ATOM     58  C   UNL A   1      43.270  27.789  33.764  1.00  0.00     0.037 A 
BRANCH  45  59
ATOM     59  C   UNL A   1      39.395  32.057  35.950  1.00  0.00     0.064 A 
ATOM     60  C   UNL A   1      39.974  33.315  36.176  1.00  0.00     0.173 A 
ATOM     61  C   UNL A   1      38.367  31.641  36.809  1.00  0.00     0.173 A 
ATOM     62  F   UNL A   1      40.967  33.753  35.388  1.00  0.00    -0.203 F 
ATOM     63  C   UNL A   1      39.548  34.117  37.232  1.00  0.00     0.198 A 
ATOM     64  C   UNL A   1      37.928  32.456  37.849  1.00  0.00     0.198 A 
ATOM     65  F   UNL A   1      37.778  30.449  36.631  1.00  0.00    -0.203 F 
ATOM     66  F   UNL A   1      40.136  35.302  37.451  1.00  0.00    -0.200 F 
ATOM     67  C   UNL A   1      38.522  33.691  38.062  1.00  0.00     0.200 A 
ATOM     68  F   UNL A   1      36.928  32.048  38.642  1.00  0.00    -0.200 F 
ATOM     69  F   UNL A   1      38.105  34.470  39.070  1.00  0.00    -0.200 F 
ENDBRANCH  45  59
BRANCH  46  70
ATOM     70  C   UNL A   1      42.077  26.806  27.910  1.00  0.00     0.064 A 
ATOM     71  C   UNL A   1      42.986  27.375  27.008  1.00  0.00     0.173 A 
ATOM     72  C   UNL A   1      41.586  25.523  27.620  1.00  0.00     0.173 A 
ATOM     73  F   UNL A   1      43.463  28.610  27.227  1.00  0.00    -0.203 F 
ATOM     74  C   UNL A   1      43.370  26.700  25.850  1.00  0.00     0.198 A 
ATOM     75  C   UNL A   1      41.992  24.839  26.477  1.00  0.00     0.198 A 
ATOM     76  F   UNL A   1      40.711  24.935  28.448  1.00  0.00    -0.203 F 
ATOM     77  F   UNL A   1      44.200  27.289  24.979  1.00  0.00    -0.200 F 
ATOM     78  C   UNL A   1      42.877  25.430  25.589  1.00  0.00     0.200 A 
ATOM     79  F   UNL A   1      41.520  23.608  26.234  1.00  0.00    -0.200 F 
ATOM     80  F   UNL A   1      43.244  24.783  24.475  1.00  0.00    -0.200 F 
ENDBRANCH  46  70
BRANCH  58  81
ATOM     81  C   UNL A   1      44.376  27.074  34.484  1.00  0.00     0.064 A 
ATOM     82  C   UNL A   1      45.659  27.631  34.600  1.00  0.00     0.173 A 
ATOM     83  C   UNL A   1      44.137  25.839  35.107  1.00  0.00     0.173 A 
ATOM     84  F   UNL A   1      45.942  28.802  34.010  1.00  0.00    -0.203 F 
ATOM     85  C   UNL A   1      46.666  26.967  35.295  1.00  0.00     0.198 A 
ATOM     86  C   UNL A   1      45.139  25.192  35.824  1.00  0.00     0.198 A 
ATOM     87  F   UNL A   1      42.926  25.268  35.032  1.00  0.00    -0.203 F 
ATOM     88  F   UNL A   1      47.896  27.497  35.357  1.00  0.00    -0.200 F 
ATOM     89  C   UNL A   1      46.404  25.753  35.912  1.00  0.00     0.200 A 
ATOM     90  F   UNL A   1      44.880  24.026  36.432  1.00  0.00    -0.200 F 
ATOM     91  F   UNL A   1      47.374  25.121  36.588  1.00  0.00    -0.200 F 
ENDBRANCH  58  81
ENDBRANCH  32  33
ENDBRANCH  25  27
ENDBRANCH  24  25
ENDBRANCH  23  24
ENDBRANCH  22  23
ENDBRANCH  21  22
ENDBRANCH   1  21
TORSDOF 17
ENDMDL
