MODEL 1
REMARK VINA RESULT:     -12.1      0.000      0.000
REMARK SMILES C/C(=N\NC(N)=O)c1nnn(-c2ccc(C(=O)OCCOCCOC(=O)c3ccc(-c4c5nc(c(-c6c(F)c(F)c(F)c(F)c6F)c6ccc([nH]6)c(-c6c(F)c(F)c(F)c(F)c6F)c6nc(c(-c7c(F)c(F)c(F)c(F)c7F)c7ccc4[nH]7)C=C6)C=C5)cc3)cc2)c1C
REMARK SMILES IDX 20 1 19 2 18 3 16 4 17 5 15 6 12 7 13 8 91 9 14 10 90 11
REMARK SMILES IDX 11 12 8 13 9 14 92 15 10 16 93 17 2 18 1 19 3 20 4 21 5 22
REMARK SMILES IDX 6 24 7 25 21 28 22 29 23 30 24 31 25 32 26 33 27 34 28 35
REMARK SMILES IDX 89 36 29 37 88 38 30 39 31 40 32 41 82 42 33 43 87 44 81 45
REMARK SMILES IDX 83 46 34 47 86 48 80 49 79 50 35 52 67 53 47 54 66 55 48 56
REMARK SMILES IDX 51 57 65 58 84 59 49 60 50 61 64 63 85 64 52 65 36 66 37 67
REMARK SMILES IDX 45 68 38 69 39 70 43 71 46 72 40 73 41 74 44 75 42 76 68 77
REMARK SMILES IDX 69 78 77 79 70 80 71 81 75 82 78 83 72 84 73 85 76 86 74 87
REMARK SMILES IDX 53 88 54 89 62 90 55 91 56 92 60 93 63 94 57 95 58 96 61 97
REMARK SMILES IDX 59 98
REMARK H PARENT 4 23 6 26 6 27 83 51 51 62
REMARK Flexibility Score: inf
ROOT
ATOM      1  C   UNL A   1      40.612  21.722  27.574  1.00  0.00     0.202 C 
ENDROOT
BRANCH   1   2
ATOM      2  C   UNL A   1      40.049  22.092  26.204  1.00  0.00     0.261 C 
BRANCH   2   3
ATOM      3  O   UNL A   1      38.616  21.986  26.165  1.00  0.00    -0.460 OA
BRANCH   3   4
ATOM      4  C   UNL A   1      38.152  21.004  25.360  1.00  0.00     0.338 C 
ATOM      5  O   UNL A   1      38.620  19.881  25.221  1.00  0.00    -0.246 OA
BRANCH   4   6
ATOM      6  C   UNL A   1      36.885  21.408  24.726  1.00  0.00     0.060 A 
ATOM      7  C   UNL A   1      34.538  22.599  23.892  1.00  0.00     0.067 A 
ATOM      8  C   UNL A   1      35.745  23.040  23.343  1.00  0.00     0.029 A 
ATOM      9  C   UNL A   1      34.485  21.470  24.722  1.00  0.00     0.029 A 
ATOM     10  C   UNL A   1      36.925  22.455  23.791  1.00  0.00     0.018 A 
ATOM     11  C   UNL A   1      35.666  20.860  25.134  1.00  0.00     0.018 A 
BRANCH   7  12
ATOM     12  N   UNL A   1      33.419  23.452  23.820  1.00  0.00    -0.217 N 
ATOM     13  C   UNL A   1      32.067  25.137  24.079  1.00  0.00     0.132 A 
ATOM     14  N   UNL A   1      31.715  24.458  22.942  1.00  0.00    -0.128 NA
ATOM     15  C   UNL A   1      33.175  24.537  24.646  1.00  0.00     0.071 A 
ATOM     16  N   UNL A   1      32.604  23.492  22.745  1.00  0.00    -0.061 NA
ATOM     17  C   UNL A   1      34.056  24.965  25.761  1.00  0.00     0.069 C 
BRANCH  13  18
ATOM     18  C   UNL A   1      31.434  26.376  24.493  1.00  0.00     0.087 C 
ATOM     19  C   UNL A   1      30.598  26.329  25.749  1.00  0.00     0.071 C 
ATOM     20  N   UNL A   1      31.681  27.404  23.735  1.00  0.00    -0.174 NA
BRANCH  20  21
ATOM     21  N   UNL A   1      31.073  28.608  23.951  1.00  0.00    -0.229 N 
ATOM     22  C   UNL A   1      30.298  29.288  23.035  1.00  0.00     0.332 C 
ATOM     23  H   UNL A   1      31.197  29.025  24.835  1.00  0.00     0.195 HD
ATOM     24  N   UNL A   1      29.860  30.486  23.511  1.00  0.00    -0.350 N 
ATOM     25  O   UNL A   1      29.986  28.916  21.912  1.00  0.00    -0.247 OA
ATOM     26  H   UNL A   1      30.115  30.779  24.416  1.00  0.00     0.161 HD
ATOM     27  H   UNL A   1      29.289  31.060  22.951  1.00  0.00     0.161 HD
ENDBRANCH  20  21
ENDBRANCH  13  18
ENDBRANCH   7  12
ENDBRANCH   4   6
ENDBRANCH   3   4
ENDBRANCH   2   3
ENDBRANCH   1   2
BRANCH   1  28
ATOM     28  O   UNL A   1      41.766  20.884  27.629  1.00  0.00    -0.374 OA
BRANCH  28  29
ATOM     29  C   UNL A   1      41.701  19.533  27.187  1.00  0.00     0.202 C 
BRANCH  29  30
ATOM     30  C   UNL A   1      42.547  19.123  25.988  1.00  0.00     0.261 C 
BRANCH  30  31
ATOM     31  O   UNL A   1      42.927  20.242  25.204  1.00  0.00    -0.460 OA
BRANCH  31  32
ATOM     32  C   UNL A   1      44.257  20.339  24.997  1.00  0.00     0.338 C 
ATOM     33  O   UNL A   1      45.068  19.424  24.918  1.00  0.00    -0.246 OA
BRANCH  32  34
ATOM     34  C   UNL A   1      44.630  21.755  24.998  1.00  0.00     0.060 A 
ATOM     35  C   UNL A   1      45.762  22.084  25.750  1.00  0.00     0.016 A 
ATOM     36  C   UNL A   1      43.697  22.715  24.584  1.00  0.00     0.016 A 
ATOM     37  C   UNL A   1      45.805  23.323  26.339  1.00  0.00     0.010 A 
ATOM     38  C   UNL A   1      43.727  23.942  25.193  1.00  0.00     0.010 A 
ATOM     39  C   UNL A   1      44.722  24.179  26.142  1.00  0.00    -0.014 A 
BRANCH  39  40
ATOM     40  C   UNL A   1      44.596  25.317  27.023  1.00  0.00     0.031 A 
ATOM     41  C   UNL A   1      45.670  26.324  26.886  1.00  0.00     0.074 A 
ATOM     42  C   UNL A   1      43.484  25.456  27.770  1.00  0.00     0.049 A 
ATOM     43  N   UNL A   1      46.426  26.831  27.802  1.00  0.00    -0.248 NA
ATOM     44  C   UNL A   1      46.011  26.748  25.516  1.00  0.00     0.031 C 
ATOM     45  C   UNL A   1      42.257  24.649  27.714  1.00  0.00     0.029 A 
ATOM     46  N   UNL A   1      43.162  26.438  28.649  1.00  0.00    -0.354 N 
ATOM     47  C   UNL A   1      47.226  27.762  27.146  1.00  0.00     0.074 A 
ATOM     48  C   UNL A   1      47.045  27.554  25.736  1.00  0.00     0.031 C 
ATOM     49  C   UNL A   1      41.262  25.312  28.344  1.00  0.00     0.029 A 
ATOM     50  C   UNL A   1      41.807  26.525  28.929  1.00  0.00     0.049 A 
ATOM     51  H   UNL A   1      43.832  27.036  29.055  1.00  0.00     0.167 HD
ATOM     52  C   UNL A   1      47.789  28.806  27.806  1.00  0.00     0.037 A 
ATOM     53  C   UNL A   1      41.179  27.585  29.493  1.00  0.00     0.037 A 
ATOM     54  C   UNL A   1      47.919  28.537  29.211  1.00  0.00     0.049 A 
ATOM     55  C   UNL A   1      42.221  28.433  30.131  1.00  0.00     0.074 A 
ATOM     56  C   UNL A   1      48.598  27.588  29.951  1.00  0.00     0.029 A 
ATOM     57  N   UNL A   1      47.017  29.105  30.075  1.00  0.00    -0.354 N 
ATOM     58  N   UNL A   1      42.918  28.082  31.177  1.00  0.00    -0.248 NA
ATOM     59  C   UNL A   1      42.798  29.507  29.333  1.00  0.00     0.031 C 
ATOM     60  C   UNL A   1      47.759  27.314  31.069  1.00  0.00     0.029 A 
ATOM     61  C   UNL A   1      46.632  28.130  30.959  1.00  0.00     0.049 A 
ATOM     62  H   UNL A   1      46.705  30.039  30.063  1.00  0.00     0.167 HD
ATOM     63  C   UNL A   1      44.187  28.598  30.953  1.00  0.00     0.074 A 
ATOM     64  C   UNL A   1      44.028  29.542  29.853  1.00  0.00     0.031 C 
ATOM     65  C   UNL A   1      45.295  28.006  31.488  1.00  0.00     0.037 A 
BRANCH  52  66
ATOM     66  C   UNL A   1      47.887  30.190  27.217  1.00  0.00     0.064 A 
ATOM     67  C   UNL A   1      49.126  30.854  27.229  1.00  0.00     0.173 A 
ATOM     68  C   UNL A   1      46.766  30.995  26.906  1.00  0.00     0.173 A 
ATOM     69  F   UNL A   1      50.252  30.194  27.535  1.00  0.00    -0.203 F 
ATOM     70  C   UNL A   1      49.224  32.232  27.016  1.00  0.00     0.198 A 
ATOM     71  C   UNL A   1      46.875  32.356  26.635  1.00  0.00     0.198 A 
ATOM     72  F   UNL A   1      45.511  30.531  26.960  1.00  0.00    -0.203 F 
ATOM     73  F   UNL A   1      50.407  32.843  27.163  1.00  0.00    -0.200 F 
ATOM     74  C   UNL A   1      48.099  32.981  26.724  1.00  0.00     0.200 A 
ATOM     75  F   UNL A   1      45.769  33.065  26.369  1.00  0.00    -0.200 F 
ATOM     76  F   UNL A   1      48.183  34.310  26.578  1.00  0.00    -0.200 F 
ENDBRANCH  52  66
BRANCH  53  77
ATOM     77  C   UNL A   1      39.809  28.072  29.204  1.00  0.00     0.064 A 
ATOM     78  C   UNL A   1      38.842  28.163  30.216  1.00  0.00     0.173 A 
ATOM     79  C   UNL A   1      39.488  28.687  27.977  1.00  0.00     0.173 A 
ATOM     80  F   UNL A   1      39.090  27.655  31.432  1.00  0.00    -0.203 F 
ATOM     81  C   UNL A   1      37.629  28.831  30.013  1.00  0.00     0.198 A 
ATOM     82  C   UNL A   1      38.273  29.339  27.769  1.00  0.00     0.198 A 
ATOM     83  F   UNL A   1      40.382  28.748  26.979  1.00  0.00    -0.203 F 
ATOM     84  F   UNL A   1      36.752  28.946  31.020  1.00  0.00    -0.200 F 
ATOM     85  C   UNL A   1      37.347  29.421  28.791  1.00  0.00     0.200 A 
ATOM     86  F   UNL A   1      38.031  29.937  26.593  1.00  0.00    -0.200 F 
ATOM     87  F   UNL A   1      36.207  30.102  28.611  1.00  0.00    -0.200 F 
ENDBRANCH  53  77
BRANCH  65  88
ATOM     88  C   UNL A   1      45.080  26.933  32.518  1.00  0.00     0.064 A 
ATOM     89  C   UNL A   1      44.895  27.204  33.884  1.00  0.00     0.173 A 
ATOM     90  C   UNL A   1      44.886  25.614  32.090  1.00  0.00     0.173 A 
ATOM     91  F   UNL A   1      44.956  28.458  34.350  1.00  0.00    -0.203 F 
ATOM     92  C   UNL A   1      44.574  26.194  34.787  1.00  0.00     0.198 A 
ATOM     93  C   UNL A   1      44.528  24.611  32.988  1.00  0.00     0.198 A 
ATOM     94  F   UNL A   1      44.986  25.309  30.786  1.00  0.00    -0.203 F 
ATOM     95  F   UNL A   1      44.407  26.479  36.087  1.00  0.00    -0.200 F 
ATOM     96  C   UNL A   1      44.381  24.898  34.336  1.00  0.00     0.200 A 
ATOM     97  F   UNL A   1      44.291  23.370  32.540  1.00  0.00    -0.200 F 
ATOM     98  F   UNL A   1      44.023  23.934  35.194  1.00  0.00    -0.200 F 
ENDBRANCH  65  88
ENDBRANCH  39  40
ENDBRANCH  32  34
ENDBRANCH  31  32
ENDBRANCH  30  31
ENDBRANCH  29  30
ENDBRANCH  28  29
ENDBRANCH   1  28
TORSDOF 17
ENDMDL
MODEL 2
REMARK VINA RESULT:     -11.8      3.668      8.161
REMARK SMILES C/C(=N\NC(N)=O)c1nnn(-c2ccc(C(=O)OCCOCCOC(=O)c3ccc(-c4c5nc(c(-c6c(F)c(F)c(F)c(F)c6F)c6ccc([nH]6)c(-c6c(F)c(F)c(F)c(F)c6F)c6nc(c(-c7c(F)c(F)c(F)c(F)c7F)c7ccc4[nH]7)C=C6)C=C5)cc3)cc2)c1C
REMARK SMILES IDX 20 1 19 2 18 3 16 4 17 5 15 6 12 7 13 8 91 9 14 10 90 11
REMARK SMILES IDX 11 12 8 13 9 14 92 15 10 16 93 17 2 18 1 19 3 20 4 21 5 22
REMARK SMILES IDX 6 24 7 25 21 28 22 29 23 30 24 31 25 32 26 33 27 34 28 35
REMARK SMILES IDX 89 36 29 37 88 38 30 39 31 40 32 41 82 42 33 43 87 44 81 45
REMARK SMILES IDX 83 46 34 47 86 48 80 49 79 50 35 52 67 53 47 54 66 55 48 56
REMARK SMILES IDX 51 57 65 58 84 59 49 60 50 61 64 63 85 64 52 65 36 66 37 67
REMARK SMILES IDX 45 68 38 69 39 70 43 71 46 72 40 73 41 74 44 75 42 76 68 77
REMARK SMILES IDX 69 78 77 79 70 80 71 81 75 82 78 83 72 84 73 85 76 86 74 87
REMARK SMILES IDX 53 88 54 89 62 90 55 91 56 92 60 93 63 94 57 95 58 96 61 97
REMARK SMILES IDX 59 98
REMARK H PARENT 4 23 6 26 6 27 83 51 51 62
REMARK Flexibility Score: inf
ROOT
ATOM      1  C   UNL A   1      40.003  21.879  26.860  1.00  0.00     0.202 C 
ENDROOT
BRANCH   1   2
ATOM      2  C   UNL A   1      38.895  22.643  26.139  1.00  0.00     0.261 C 
BRANCH   2   3
ATOM      3  O   UNL A   1      37.627  21.975  26.244  1.00  0.00    -0.460 OA
BRANCH   3   4
ATOM      4  C   UNL A   1      37.333  21.170  25.198  1.00  0.00     0.338 C 
ATOM      5  O   UNL A   1      37.778  20.050  24.981  1.00  0.00    -0.246 OA
BRANCH   4   6
ATOM      6  C   UNL A   1      36.269  21.763  24.369  1.00  0.00     0.060 A 
ATOM      7  C   UNL A   1      34.405  23.345  23.089  1.00  0.00     0.067 A 
ATOM      8  C   UNL A   1      35.717  23.337  22.611  1.00  0.00     0.029 A 
ATOM      9  C   UNL A   1      33.988  22.454  24.089  1.00  0.00     0.029 A 
ATOM     10  C   UNL A   1      36.657  22.559  23.280  1.00  0.00     0.018 A 
ATOM     11  C   UNL A   1      34.924  21.646  24.727  1.00  0.00     0.018 A 
BRANCH   7  12
ATOM     12  N   UNL A   1      33.575  24.433  22.749  1.00  0.00    -0.217 N 
ATOM     13  C   UNL A   1      32.637  26.395  22.690  1.00  0.00     0.132 A 
ATOM     14  N   UNL A   1      32.443  25.775  21.483  1.00  0.00    -0.128 NA
ATOM     15  C   UNL A   1      33.388  25.575  23.511  1.00  0.00     0.071 A 
ATOM     16  N   UNL A   1      33.100  24.622  21.500  1.00  0.00    -0.061 NA
ATOM     17  C   UNL A   1      34.023  25.827  24.828  1.00  0.00     0.069 C 
BRANCH  13  18
ATOM     18  C   UNL A   1      32.229  27.762  22.956  1.00  0.00     0.087 C 
ATOM     19  C   UNL A   1      33.294  28.827  22.845  1.00  0.00     0.071 C 
ATOM     20  N   UNL A   1      30.969  27.919  23.242  1.00  0.00    -0.174 NA
BRANCH  20  21
ATOM     21  N   UNL A   1      30.470  29.136  23.610  1.00  0.00    -0.229 N 
ATOM     22  C   UNL A   1      29.763  29.991  22.790  1.00  0.00     0.332 C 
ATOM     23  H   UNL A   1      30.627  29.427  24.537  1.00  0.00     0.195 HD
ATOM     24  N   UNL A   1      29.432  31.155  23.414  1.00  0.00    -0.350 N 
ATOM     25  O   UNL A   1      29.424  29.791  21.631  1.00  0.00    -0.247 OA
ATOM     26  H   UNL A   1      29.707  31.309  24.347  1.00  0.00     0.161 HD
ATOM     27  H   UNL A   1      28.917  31.843  22.933  1.00  0.00     0.161 HD
ENDBRANCH  20  21
ENDBRANCH  13  18
ENDBRANCH   7  12
ENDBRANCH   4   6
ENDBRANCH   3   4
ENDBRANCH   2   3
ENDBRANCH   1   2
BRANCH   1  28
ATOM     28  O   UNL A   1      41.180  21.539  26.125  1.00  0.00    -0.374 OA
BRANCH  28  29
ATOM     29  C   UNL A   1      42.426  22.156  26.428  1.00  0.00     0.202 C 
BRANCH  29  30
ATOM     30  C   UNL A   1      42.732  23.511  25.803  1.00  0.00     0.261 C 
BRANCH  30  31
ATOM     31  O   UNL A   1      41.962  24.547  26.388  1.00  0.00    -0.460 OA
BRANCH  31  32
ATOM     32  C   UNL A   1      41.894  25.669  25.640  1.00  0.00     0.338 C 
ATOM     33  O   UNL A   1      42.558  25.943  24.646  1.00  0.00    -0.246 OA
BRANCH  32  34
ATOM     34  C   UNL A   1      40.963  26.602  26.275  1.00  0.00     0.060 A 
ATOM     35  C   UNL A   1      41.156  27.954  25.973  1.00  0.00     0.016 A 
ATOM     36  C   UNL A   1      40.203  26.179  27.374  1.00  0.00     0.016 A 
ATOM     37  C   UNL A   1      40.841  28.880  26.936  1.00  0.00     0.010 A 
ATOM     38  C   UNL A   1      39.912  27.100  28.345  1.00  0.00     0.010 A 
ATOM     39  C   UNL A   1      40.337  28.415  28.150  1.00  0.00    -0.014 A 
BRANCH  39  40
ATOM     40  C   UNL A   1      40.335  29.328  29.270  1.00  0.00     0.031 A 
ATOM     41  C   UNL A   1      39.193  30.265  29.299  1.00  0.00     0.074 A 
ATOM     42  C   UNL A   1      41.247  29.174  30.250  1.00  0.00     0.049 A 
ATOM     43  N   UNL A   1      39.205  31.552  29.402  1.00  0.00    -0.248 NA
ATOM     44  C   UNL A   1      37.854  29.688  29.083  1.00  0.00     0.031 C 
ATOM     45  C   UNL A   1      42.205  28.073  30.422  1.00  0.00     0.029 A 
ATOM     46  N   UNL A   1      41.420  29.906  31.379  1.00  0.00    -0.354 N 
ATOM     47  C   UNL A   1      37.866  31.933  29.430  1.00  0.00     0.074 A 
ATOM     48  C   UNL A   1      37.092  30.777  29.070  1.00  0.00     0.031 C 
ATOM     49  C   UNL A   1      42.680  28.093  31.687  1.00  0.00     0.029 A 
ATOM     50  C   UNL A   1      42.143  29.258  32.368  1.00  0.00     0.049 A 
ATOM     51  H   UNL A   1      41.063  30.818  31.487  1.00  0.00     0.167 HD
ATOM     52  C   UNL A   1      37.472  33.103  29.993  1.00  0.00     0.037 A 
ATOM     53  C   UNL A   1      42.184  29.604  33.678  1.00  0.00     0.037 A 
ATOM     54  C   UNL A   1      38.542  34.061  30.032  1.00  0.00     0.049 A 
ATOM     55  C   UNL A   1      41.683  31.000  33.787  1.00  0.00     0.074 A 
ATOM     56  C   UNL A   1      39.314  34.681  29.069  1.00  0.00     0.029 A 
ATOM     57  N   UNL A   1      39.194  34.269  31.221  1.00  0.00    -0.354 N 
ATOM     58  N   UNL A   1      42.310  32.046  33.323  1.00  0.00    -0.248 NA
ATOM     59  C   UNL A   1      40.259  31.188  34.030  1.00  0.00     0.031 C 
ATOM     60  C   UNL A   1      40.606  34.817  29.655  1.00  0.00     0.029 A 
ATOM     61  C   UNL A   1      40.538  34.296  30.948  1.00  0.00     0.049 A 
ATOM     62  H   UNL A   1      38.776  34.379  32.105  1.00  0.00     0.167 HD
ATOM     63  C   UNL A   1      41.310  32.883  32.846  1.00  0.00     0.074 A 
ATOM     64  C   UNL A   1      40.069  32.346  33.393  1.00  0.00     0.031 C 
ATOM     65  C   UNL A   1      41.549  33.760  31.827  1.00  0.00     0.037 A 
BRANCH  52  66
ATOM     66  C   UNL A   1      36.217  33.233  30.817  1.00  0.00     0.064 A 
ATOM     67  C   UNL A   1      35.122  33.943  30.293  1.00  0.00     0.173 A 
ATOM     68  C   UNL A   1      36.148  32.941  32.199  1.00  0.00     0.173 A 
ATOM     69  F   UNL A   1      35.093  34.295  28.999  1.00  0.00    -0.203 F 
ATOM     70  C   UNL A   1      34.075  34.386  31.105  1.00  0.00     0.198 A 
ATOM     71  C   UNL A   1      35.074  33.331  32.994  1.00  0.00     0.198 A 
ATOM     72  F   UNL A   1      37.160  32.367  32.863  1.00  0.00    -0.203 F 
ATOM     73  F   UNL A   1      33.118  35.166  30.587  1.00  0.00    -0.200 F 
ATOM     74  C   UNL A   1      34.054  34.083  32.455  1.00  0.00     0.200 A 
ATOM     75  F   UNL A   1      35.083  33.041  34.303  1.00  0.00    -0.200 F 
ATOM     76  F   UNL A   1      33.082  34.557  33.245  1.00  0.00    -0.200 F 
ENDBRANCH  52  66
BRANCH  53  77
ATOM     77  C   UNL A   1      42.288  28.692  34.842  1.00  0.00     0.064 A 
ATOM     78  C   UNL A   1      41.522  27.519  34.917  1.00  0.00     0.173 A 
ATOM     79  C   UNL A   1      43.319  28.825  35.795  1.00  0.00     0.173 A 
ATOM     80  F   UNL A   1      40.559  27.286  34.013  1.00  0.00    -0.203 F 
ATOM     81  C   UNL A   1      41.773  26.539  35.884  1.00  0.00     0.198 A 
ATOM     82  C   UNL A   1      43.559  27.857  36.769  1.00  0.00     0.198 A 
ATOM     83  F   UNL A   1      44.174  29.856  35.748  1.00  0.00    -0.203 F 
ATOM     84  F   UNL A   1      41.057  25.407  35.891  1.00  0.00    -0.200 F 
ATOM     85  C   UNL A   1      42.793  26.707  36.806  1.00  0.00     0.200 A 
ATOM     86  F   UNL A   1      44.573  28.018  37.631  1.00  0.00    -0.200 F 
ATOM     87  F   UNL A   1      43.065  25.749  37.702  1.00  0.00    -0.200 F 
ENDBRANCH  53  77
BRANCH  65  88
ATOM     88  C   UNL A   1      42.977  33.963  31.407  1.00  0.00     0.064 A 
ATOM     89  C   UNL A   1      43.601  33.202  30.404  1.00  0.00     0.173 A 
ATOM     90  C   UNL A   1      43.679  35.066  31.910  1.00  0.00     0.173 A 
ATOM     91  F   UNL A   1      42.951  32.200  29.798  1.00  0.00    -0.203 F 
ATOM     92  C   UNL A   1      44.884  33.504  29.957  1.00  0.00     0.198 A 
ATOM     93  C   UNL A   1      44.948  35.389  31.436  1.00  0.00     0.198 A 
ATOM     94  F   UNL A   1      43.107  35.867  32.823  1.00  0.00    -0.203 F 
ATOM     95  F   UNL A   1      45.458  32.758  29.001  1.00  0.00    -0.200 F 
ATOM     96  C   UNL A   1      45.554  34.604  30.467  1.00  0.00     0.200 A 
ATOM     97  F   UNL A   1      45.571  36.485  31.893  1.00  0.00    -0.200 F 
ATOM     98  F   UNL A   1      46.768  34.927  30.002  1.00  0.00    -0.200 F 
ENDBRANCH  65  88
ENDBRANCH  39  40
ENDBRANCH  32  34
ENDBRANCH  31  32
ENDBRANCH  30  31
ENDBRANCH  29  30
ENDBRANCH  28  29
ENDBRANCH   1  28
TORSDOF 17
ENDMDL
MODEL 3
REMARK VINA RESULT:     -11.7      2.877      4.747
REMARK SMILES C/C(=N\NC(N)=O)c1nnn(-c2ccc(C(=O)OCCOCCOC(=O)c3ccc(-c4c5nc(c(-c6c(F)c(F)c(F)c(F)c6F)c6ccc([nH]6)c(-c6c(F)c(F)c(F)c(F)c6F)c6nc(c(-c7c(F)c(F)c(F)c(F)c7F)c7ccc4[nH]7)C=C6)C=C5)cc3)cc2)c1C
REMARK SMILES IDX 20 1 19 2 18 3 16 4 17 5 15 6 12 7 13 8 91 9 14 10 90 11
REMARK SMILES IDX 11 12 8 13 9 14 92 15 10 16 93 17 2 18 1 19 3 20 4 21 5 22
REMARK SMILES IDX 6 24 7 25 21 28 22 29 23 30 24 31 25 32 26 33 27 34 28 35
REMARK SMILES IDX 89 36 29 37 88 38 30 39 31 40 32 41 82 42 33 43 87 44 81 45
REMARK SMILES IDX 83 46 34 47 86 48 80 49 79 50 35 52 67 53 47 54 66 55 48 56
REMARK SMILES IDX 51 57 65 58 84 59 49 60 50 61 64 63 85 64 52 65 36 66 37 67
REMARK SMILES IDX 45 68 38 69 39 70 43 71 46 72 40 73 41 74 44 75 42 76 68 77
REMARK SMILES IDX 69 78 77 79 70 80 71 81 75 82 78 83 72 84 73 85 76 86 74 87
REMARK SMILES IDX 53 88 54 89 62 90 55 91 56 92 60 93 63 94 57 95 58 96 61 97
REMARK SMILES IDX 59 98
REMARK H PARENT 4 23 6 26 6 27 83 51 51 62
REMARK Flexibility Score: inf
ROOT
ATOM      1  C   UNL A   1      35.262  20.820  25.636  1.00  0.00     0.202 C 
ENDROOT
BRANCH   1   2
ATOM      2  C   UNL A   1      33.738  20.785  25.551  1.00  0.00     0.261 C 
BRANCH   2   3
ATOM      3  O   UNL A   1      33.214  21.916  24.836  1.00  0.00    -0.460 OA
BRANCH   3   4
ATOM      4  C   UNL A   1      32.052  22.399  25.332  1.00  0.00     0.338 C 
ATOM      5  O   UNL A   1      31.119  21.752  25.789  1.00  0.00    -0.246 OA
BRANCH   4   6
ATOM      6  C   UNL A   1      32.082  23.871  25.380  1.00  0.00     0.060 A 
ATOM      7  C   UNL A   1      31.703  26.593  25.119  1.00  0.00     0.067 A 
ATOM      8  C   UNL A   1      30.929  25.896  26.050  1.00  0.00     0.029 A 
ATOM      9  C   UNL A   1      32.765  25.973  24.443  1.00  0.00     0.029 A 
ATOM     10  C   UNL A   1      31.105  24.520  26.154  1.00  0.00     0.018 A 
ATOM     11  C   UNL A   1      32.965  24.603  24.584  1.00  0.00     0.018 A 
BRANCH   7  12
ATOM     12  N   UNL A   1      31.240  27.846  24.669  1.00  0.00    -0.217 N 
ATOM     13  C   UNL A   1      30.068  29.410  23.714  1.00  0.00     0.132 A 
ATOM     14  N   UNL A   1      30.798  29.964  24.733  1.00  0.00    -0.128 NA
ATOM     15  C   UNL A   1      30.304  28.050  23.668  1.00  0.00     0.071 A 
ATOM     16  N   UNL A   1      31.434  28.985  25.366  1.00  0.00    -0.061 NA
ATOM     17  C   UNL A   1      29.647  26.969  22.892  1.00  0.00     0.069 C 
BRANCH  13  18
ATOM     18  C   UNL A   1      29.097  30.157  22.935  1.00  0.00     0.087 C 
ATOM     19  C   UNL A   1      27.660  30.090  23.390  1.00  0.00     0.071 C 
ATOM     20  N   UNL A   1      29.588  30.826  21.932  1.00  0.00    -0.174 NA
BRANCH  20  21
ATOM     21  N   UNL A   1      28.777  31.492  21.057  1.00  0.00    -0.229 N 
ATOM     22  C   UNL A   1      28.190  32.719  21.288  1.00  0.00     0.332 C 
ATOM     23  H   UNL A   1      28.597  31.061  20.191  1.00  0.00     0.195 HD
ATOM     24  N   UNL A   1      27.396  33.117  20.256  1.00  0.00    -0.350 N 
ATOM     25  O   UNL A   1      28.332  33.432  22.272  1.00  0.00    -0.247 OA
ATOM     26  H   UNL A   1      27.287  32.539  19.466  1.00  0.00     0.161 HD
ATOM     27  H   UNL A   1      26.928  33.983  20.299  1.00  0.00     0.161 HD
ENDBRANCH  20  21
ENDBRANCH  13  18
ENDBRANCH   7  12
ENDBRANCH   4   6
ENDBRANCH   3   4
ENDBRANCH   2   3
ENDBRANCH   1   2
BRANCH   1  28
ATOM     28  O   UNL A   1      35.982  21.502  24.609  1.00  0.00    -0.374 OA
BRANCH  28  29
ATOM     29  C   UNL A   1      37.399  21.618  24.674  1.00  0.00     0.202 C 
BRANCH  29  30
ATOM     30  C   UNL A   1      38.034  21.982  26.010  1.00  0.00     0.261 C 
BRANCH  30  31
ATOM     31  O   UNL A   1      39.182  22.797  25.844  1.00  0.00    -0.460 OA
BRANCH  31  32
ATOM     32  C   UNL A   1      40.067  22.710  26.859  1.00  0.00     0.338 C 
ATOM     33  O   UNL A   1      40.146  21.827  27.706  1.00  0.00    -0.246 OA
BRANCH  32  34
ATOM     34  C   UNL A   1      40.878  23.929  26.881  1.00  0.00     0.060 A 
ATOM     35  C   UNL A   1      41.833  24.005  27.900  1.00  0.00     0.016 A 
ATOM     36  C   UNL A   1      40.450  25.056  26.166  1.00  0.00     0.016 A 
ATOM     37  C   UNL A   1      42.139  25.245  28.403  1.00  0.00     0.010 A 
ATOM     38  C   UNL A   1      40.736  26.291  26.686  1.00  0.00     0.010 A 
ATOM     39  C   UNL A   1      41.487  26.351  27.860  1.00  0.00    -0.014 A 
BRANCH  39  40
ATOM     40  C   UNL A   1      41.534  27.590  28.602  1.00  0.00     0.031 A 
ATOM     41  C   UNL A   1      42.712  28.435  28.314  1.00  0.00     0.074 A 
ATOM     42  C   UNL A   1      40.479  27.949  29.357  1.00  0.00     0.049 A 
ATOM     43  N   UNL A   1      43.561  28.948  29.141  1.00  0.00    -0.248 NA
ATOM     44  C   UNL A   1      43.043  28.653  26.894  1.00  0.00     0.031 C 
ATOM     45  C   UNL A   1      39.164  27.298  29.434  1.00  0.00     0.029 A 
ATOM     46  N   UNL A   1      40.313  29.058  30.122  1.00  0.00    -0.354 N 
ATOM     47  C   UNL A   1      44.438  29.692  28.356  1.00  0.00     0.074 A 
ATOM     48  C   UNL A   1      44.173  29.346  26.987  1.00  0.00     0.031 C 
ATOM     49  C   UNL A   1      38.282  28.146  30.008  1.00  0.00     0.029 A 
ATOM     50  C   UNL A   1      38.991  29.342  30.427  1.00  0.00     0.049 A 
ATOM     51  H   UNL A   1      41.066  29.612  30.434  1.00  0.00     0.167 HD
ATOM     52  C   UNL A   1      45.148  30.728  28.870  1.00  0.00     0.037 A 
ATOM     53  C   UNL A   1      38.518  30.529  30.878  1.00  0.00     0.037 A 
ATOM     54  C   UNL A   1      45.305  30.610  30.293  1.00  0.00     0.049 A 
ATOM     55  C   UNL A   1      39.679  31.311  31.380  1.00  0.00     0.074 A 
ATOM     56  C   UNL A   1      45.898  29.676  31.121  1.00  0.00     0.029 A 
ATOM     57  N   UNL A   1      44.515  31.380  31.108  1.00  0.00    -0.354 N 
ATOM     58  N   UNL A   1      40.374  31.000  32.440  1.00  0.00    -0.248 NA
ATOM     59  C   UNL A   1      40.345  32.207  30.443  1.00  0.00     0.031 C 
ATOM     60  C   UNL A   1      45.080  29.638  32.288  1.00  0.00     0.029 A 
ATOM     61  C   UNL A   1      44.054  30.568  32.113  1.00  0.00     0.049 A 
ATOM     62  H   UNL A   1      44.315  32.337  30.993  1.00  0.00     0.167 HD
ATOM     63  C   UNL A   1      41.684  31.328  32.120  1.00  0.00     0.074 A 
ATOM     64  C   UNL A   1      41.591  32.151  30.920  1.00  0.00     0.031 C 
ATOM     65  C   UNL A   1      42.736  30.670  32.691  1.00  0.00     0.037 A 
BRANCH  52  66
ATOM     66  C   UNL A   1      45.384  32.012  28.117  1.00  0.00     0.064 A 
ATOM     67  C   UNL A   1      44.286  32.829  27.793  1.00  0.00     0.173 A 
ATOM     68  C   UNL A   1      46.594  32.326  27.455  1.00  0.00     0.173 A 
ATOM     69  F   UNL A   1      43.083  32.606  28.343  1.00  0.00    -0.203 F 
ATOM     70  C   UNL A   1      44.378  33.837  26.830  1.00  0.00     0.198 A 
ATOM     71  C   UNL A   1      46.697  33.371  26.540  1.00  0.00     0.198 A 
ATOM     72  F   UNL A   1      47.695  31.574  27.577  1.00  0.00    -0.203 F 
ATOM     73  F   UNL A   1      43.277  34.506  26.463  1.00  0.00    -0.200 F 
ATOM     74  C   UNL A   1      45.581  34.104  26.202  1.00  0.00     0.200 A 
ATOM     75  F   UNL A   1      47.869  33.600  25.932  1.00  0.00    -0.200 F 
ATOM     76  F   UNL A   1      45.657  35.029  25.236  1.00  0.00    -0.200 F 
ENDBRANCH  52  66
BRANCH  53  77
ATOM     77  C   UNL A   1      37.204  31.144  30.571  1.00  0.00     0.064 A 
ATOM     78  C   UNL A   1      36.303  31.479  31.593  1.00  0.00     0.173 A 
ATOM     79  C   UNL A   1      36.902  31.638  29.286  1.00  0.00     0.173 A 
ATOM     80  F   UNL A   1      36.544  31.098  32.856  1.00  0.00    -0.203 F 
ATOM     81  C   UNL A   1      35.171  32.263  31.343  1.00  0.00     0.198 A 
ATOM     82  C   UNL A   1      35.765  32.405  29.034  1.00  0.00     0.198 A 
ATOM     83  F   UNL A   1      37.749  31.464  28.262  1.00  0.00    -0.203 F 
ATOM     84  F   UNL A   1      34.361  32.609  32.354  1.00  0.00    -0.200 F 
ATOM     85  C   UNL A   1      34.905  32.728  30.066  1.00  0.00     0.200 A 
ATOM     86  F   UNL A   1      35.543  32.879  27.799  1.00  0.00    -0.200 F 
ATOM     87  F   UNL A   1      33.847  33.518  29.836  1.00  0.00    -0.200 F 
ENDBRANCH  53  77
BRANCH  65  88
ATOM     88  C   UNL A   1      42.439  29.758  33.847  1.00  0.00     0.064 A 
ATOM     89  C   UNL A   1      42.019  28.427  33.690  1.00  0.00     0.173 A 
ATOM     90  C   UNL A   1      42.751  30.187  35.144  1.00  0.00     0.173 A 
ATOM     91  F   UNL A   1      41.808  27.913  32.471  1.00  0.00    -0.203 F 
ATOM     92  C   UNL A   1      41.876  27.577  34.783  1.00  0.00     0.198 A 
ATOM     93  C   UNL A   1      42.643  29.325  36.232  1.00  0.00     0.198 A 
ATOM     94  F   UNL A   1      43.219  31.429  35.346  1.00  0.00    -0.203 F 
ATOM     95  F   UNL A   1      41.469  26.311  34.605  1.00  0.00    -0.200 F 
ATOM     96  C   UNL A   1      42.197  28.025  36.054  1.00  0.00     0.200 A 
ATOM     97  F   UNL A   1      43.005  29.745  37.453  1.00  0.00    -0.200 F 
ATOM     98  F   UNL A   1      42.109  27.194  37.102  1.00  0.00    -0.200 F 
ENDBRANCH  65  88
ENDBRANCH  39  40
ENDBRANCH  32  34
ENDBRANCH  31  32
ENDBRANCH  30  31
ENDBRANCH  29  30
ENDBRANCH  28  29
ENDBRANCH   1  28
TORSDOF 17
ENDMDL
