MODEL 1
REMARK VINA RESULT:     -10.4      0.000      0.000
REMARK SMILES CCN(Cc1cccc(C)n1)C(=O)[C@@H]([NH3+])CC(=O)OCCOCCOC(=O)c1ccc(-c2c3nc(c(-c4c(F)c(F)c(F)c(F)c4F)c4ccc([nH]4)c(-c4c(F)c(F)c(F)c(F)c4F)c4nc(c(-c5c(F)c(F)c(F)c(F)c5F)c5ccc2[nH]5)C=C4)C=C3)cc1
REMARK SMILES IDX 20 1 19 2 17 3 18 4 16 5 14 6 12 7 13 8 3 9 2 10 1 11 4 12
REMARK SMILES IDX 5 13 6 14 11 15 7 16 9 17 8 18 10 19 15 20 21 24 22 25 23 26
REMARK SMILES IDX 24 27 25 28 26 29 27 30 28 31 29 32 90 33 30 34 89 35 31 36
REMARK SMILES IDX 32 37 33 38 83 39 34 40 88 41 82 42 84 43 35 44 87 45 81 46
REMARK SMILES IDX 80 47 36 49 68 50 48 51 67 52 49 53 52 54 66 55 85 56 50 57
REMARK SMILES IDX 51 58 65 60 86 61 53 62 37 63 38 64 46 65 39 66 40 67 44 68
REMARK SMILES IDX 47 69 41 70 42 71 45 72 43 73 69 74 70 75 78 76 71 77 72 78
REMARK SMILES IDX 76 79 79 80 73 81 74 82 77 83 75 84 54 85 55 86 63 87 56 88
REMARK SMILES IDX 57 89 61 90 64 91 58 92 59 93 62 94 60 95
REMARK H PARENT 15 21 15 22 15 23 84 48 52 59
REMARK Flexibility Score: inf
ROOT
ATOM      1  C   UNL A   1      30.707  29.570  24.115  1.00  0.00     0.261 C 
ENDROOT
BRANCH   1   2
ATOM      2  O   UNL A   1      30.204  28.226  24.029  1.00  0.00    -0.463 OA
BRANCH   2   3
ATOM      3  C   UNL A   1      30.893  27.383  23.222  1.00  0.00     0.312 C 
ATOM      4  O   UNL A   1      30.944  27.473  21.999  1.00  0.00    -0.252 OA
BRANCH   3   5
ATOM      5  C   UNL A   1      31.647  26.306  23.967  1.00  0.00     0.198 C 
BRANCH   5   6
ATOM      6  C   UNL A   1      30.849  25.240  24.710  1.00  0.00     0.282 C 
BRANCH   6   7
ATOM      7  C   UNL A   1      31.295  24.780  26.125  1.00  0.00     0.281 C 
ATOM      8  O   UNL A   1      31.498  25.658  26.976  1.00  0.00    -0.268 OA
BRANCH   7   9
ATOM      9  N   UNL A   1      31.562  23.452  26.422  1.00  0.00    -0.332 N 
BRANCH   9  10
ATOM     10  C   UNL A   1      30.455  22.495  26.336  1.00  0.00     0.116 C 
ATOM     11  C   UNL A   1      29.288  22.872  27.236  1.00  0.00     0.027 C 
ENDBRANCH   9  10
BRANCH   9  12
ATOM     12  C   UNL A   1      32.872  22.910  26.803  1.00  0.00     0.175 C 
BRANCH  12  13
ATOM     13  C   UNL A   1      33.921  22.989  25.706  1.00  0.00     0.060 A 
ATOM     14  C   UNL A   1      33.602  22.858  24.357  1.00  0.00     0.026 A 
ATOM     15  N   UNL A   1      35.189  23.257  26.113  1.00  0.00    -0.256 NA
ATOM     16  C   UNL A   1      34.591  23.069  23.401  1.00  0.00     0.004 A 
ATOM     17  C   UNL A   1      36.144  23.463  25.172  1.00  0.00     0.038 A 
ATOM     18  C   UNL A   1      35.879  23.382  23.812  1.00  0.00     0.023 A 
ATOM     19  C   UNL A   1      37.523  23.773  25.668  1.00  0.00     0.067 C 
ENDBRANCH  12  13
ENDBRANCH   9  12
ENDBRANCH   7   9
ENDBRANCH   6   7
BRANCH   6  20
ATOM     20  N   UNL A   1      29.409  25.606  24.755  1.00  0.00    -0.347 N 
ATOM     21  H   UNL A   1      29.318  26.610  24.915  1.00  0.00     0.345 HD
ATOM     22  H   UNL A   1      28.953  25.099  25.513  1.00  0.00     0.345 HD
ATOM     23  H   UNL A   1      28.968  25.362  23.869  1.00  0.00     0.345 HD
ENDBRANCH   6  20
ENDBRANCH   5   6
ENDBRANCH   3   5
ENDBRANCH   2   3
ENDBRANCH   1   2
BRANCH   1  24
ATOM     24  C   UNL A   1      31.809  29.699  25.168  1.00  0.00     0.202 C 
BRANCH  24  25
ATOM     25  O   UNL A   1      31.501  30.501  26.306  1.00  0.00    -0.374 OA
BRANCH  25  26
ATOM     26  C   UNL A   1      31.032  31.827  26.065  1.00  0.00     0.202 C 
BRANCH  26  27
ATOM     27  C   UNL A   1      31.764  32.955  26.802  1.00  0.00     0.261 C 
BRANCH  27  28
ATOM     28  O   UNL A   1      32.835  32.463  27.627  1.00  0.00    -0.460 OA
BRANCH  28  29
ATOM     29  C   UNL A   1      33.812  33.355  27.895  1.00  0.00     0.338 C 
ATOM     30  O   UNL A   1      33.691  34.569  28.022  1.00  0.00    -0.246 OA
BRANCH  29  31
ATOM     31  C   UNL A   1      35.089  32.676  28.186  1.00  0.00     0.060 A 
ATOM     32  C   UNL A   1      35.040  31.300  28.445  1.00  0.00     0.016 A 
ATOM     33  C   UNL A   1      36.288  33.378  28.327  1.00  0.00     0.016 A 
ATOM     34  C   UNL A   1      36.170  30.634  28.913  1.00  0.00     0.010 A 
ATOM     35  C   UNL A   1      37.422  32.709  28.810  1.00  0.00     0.010 A 
ATOM     36  C   UNL A   1      37.355  31.345  29.146  1.00  0.00    -0.014 A 
BRANCH  36  37
ATOM     37  C   UNL A   1      38.463  30.684  29.880  1.00  0.00     0.031 A 
ATOM     38  C   UNL A   1      38.696  31.034  31.325  1.00  0.00     0.074 A 
ATOM     39  C   UNL A   1      39.222  29.747  29.287  1.00  0.00     0.049 A 
ATOM     40  N   UNL A   1      39.599  30.578  32.157  1.00  0.00    -0.248 NA
ATOM     41  C   UNL A   1      37.785  32.029  31.913  1.00  0.00     0.031 C 
ATOM     42  C   UNL A   1      39.071  29.287  27.909  1.00  0.00     0.029 A 
ATOM     43  N   UNL A   1      40.275  29.012  29.775  1.00  0.00    -0.354 N 
ATOM     44  C   UNL A   1      39.366  31.229  33.362  1.00  0.00     0.074 A 
ATOM     45  C   UNL A   1      38.255  32.132  33.148  1.00  0.00     0.031 C 
ATOM     46  C   UNL A   1      40.006  28.354  27.656  1.00  0.00     0.029 A 
ATOM     47  C   UNL A   1      40.836  28.171  28.846  1.00  0.00     0.049 A 
ATOM     48  H   UNL A   1      40.597  29.084  30.702  1.00  0.00     0.167 HD
ATOM     49  C   UNL A   1      40.014  31.081  34.542  1.00  0.00     0.037 A 
ATOM     50  C   UNL A   1      41.907  27.360  28.942  1.00  0.00     0.037 A 
ATOM     51  C   UNL A   1      41.117  30.182  34.760  1.00  0.00     0.049 A 
ATOM     52  C   UNL A   1      42.654  27.265  30.248  1.00  0.00     0.074 A 
ATOM     53  C   UNL A   1      41.821  29.947  35.928  1.00  0.00     0.029 A 
ATOM     54  N   UNL A   1      41.681  29.375  33.783  1.00  0.00    -0.354 N 
ATOM     55  N   UNL A   1      42.409  27.862  31.388  1.00  0.00    -0.248 NA
ATOM     56  C   UNL A   1      43.828  26.380  30.277  1.00  0.00     0.031 C 
ATOM     57  C   UNL A   1      42.842  29.033  35.647  1.00  0.00     0.029 A 
ATOM     58  C   UNL A   1      42.743  28.662  34.316  1.00  0.00     0.049 A 
ATOM     59  H   UNL A   1      41.373  29.318  32.850  1.00  0.00     0.167 HD
ATOM     60  C   UNL A   1      43.376  27.407  32.275  1.00  0.00     0.074 A 
ATOM     61  C   UNL A   1      44.209  26.475  31.544  1.00  0.00     0.031 C 
ATOM     62  C   UNL A   1      43.560  27.732  33.579  1.00  0.00     0.037 A 
BRANCH  49  63
ATOM     63  C   UNL A   1      39.559  31.930  35.692  1.00  0.00     0.064 A 
ATOM     64  C   UNL A   1      40.100  33.203  35.927  1.00  0.00     0.173 A 
ATOM     65  C   UNL A   1      38.538  31.481  36.543  1.00  0.00     0.173 A 
ATOM     66  F   UNL A   1      41.086  33.671  35.148  1.00  0.00    -0.203 F 
ATOM     67  C   UNL A   1      39.648  33.986  36.986  1.00  0.00     0.198 A 
ATOM     68  C   UNL A   1      38.072  32.278  37.585  1.00  0.00     0.198 A 
ATOM     69  F   UNL A   1      37.985  30.274  36.356  1.00  0.00    -0.203 F 
ATOM     70  F   UNL A   1      40.204  35.185  37.215  1.00  0.00    -0.200 F 
ATOM     71  C   UNL A   1      38.631  33.527  37.809  1.00  0.00     0.200 A 
ATOM     72  F   UNL A   1      37.081  31.837  38.372  1.00  0.00    -0.200 F 
ATOM     73  F   UNL A   1      38.192  34.287  38.823  1.00  0.00    -0.200 F 
ENDBRANCH  49  63
BRANCH  50  74
ATOM     74  C   UNL A   1      42.351  26.578  27.760  1.00  0.00     0.064 A 
ATOM     75  C   UNL A   1      41.825  25.308  27.492  1.00  0.00     0.173 A 
ATOM     76  C   UNL A   1      43.328  27.080  26.887  1.00  0.00     0.173 A 
ATOM     77  F   UNL A   1      40.909  24.775  28.313  1.00  0.00    -0.203 F 
ATOM     78  C   UNL A   1      42.270  24.561  26.401  1.00  0.00     0.198 A 
ATOM     79  C   UNL A   1      43.752  26.344  25.783  1.00  0.00     0.198 A 
ATOM     80  F   UNL A   1      43.865  28.289  27.103  1.00  0.00    -0.203 F 
ATOM     81  F   UNL A   1      41.783  23.331  26.191  1.00  0.00    -0.200 F 
ATOM     82  C   UNL A   1      43.230  25.082  25.546  1.00  0.00     0.200 A 
ATOM     83  F   UNL A   1      44.672  26.856  24.954  1.00  0.00    -0.200 F 
ATOM     84  F   UNL A   1      43.655  24.364  24.497  1.00  0.00    -0.200 F 
ENDBRANCH  50  74
BRANCH  62  85
ATOM     85  C   UNL A   1      44.680  27.055  34.311  1.00  0.00     0.064 A 
ATOM     86  C   UNL A   1      45.953  27.638  34.410  1.00  0.00     0.173 A 
ATOM     87  C   UNL A   1      44.468  25.829  34.961  1.00  0.00     0.173 A 
ATOM     88  F   UNL A   1      46.210  28.801  33.794  1.00  0.00    -0.203 F 
ATOM     89  C   UNL A   1      46.975  27.008  35.114  1.00  0.00     0.198 A 
ATOM     90  C   UNL A   1      45.485  25.215  35.686  1.00  0.00     0.198 A 
ATOM     91  F   UNL A   1      43.268  25.233  34.902  1.00  0.00    -0.203 F 
ATOM     92  F   UNL A   1      48.194  27.563  35.161  1.00  0.00    -0.200 F 
ATOM     93  C   UNL A   1      46.739  25.802  35.757  1.00  0.00     0.200 A 
ATOM     94  F   UNL A   1      45.252  24.056  36.316  1.00  0.00    -0.200 F 
ATOM     95  F   UNL A   1      47.724  25.202  36.440  1.00  0.00    -0.200 F 
ENDBRANCH  62  85
ENDBRANCH  36  37
ENDBRANCH  29  31
ENDBRANCH  28  29
ENDBRANCH  27  28
ENDBRANCH  26  27
ENDBRANCH  25  26
ENDBRANCH  24  25
ENDBRANCH   1  24
TORSDOF 21
ENDMDL
MODEL 2
REMARK VINA RESULT:     -10.3      4.222      9.764
REMARK SMILES CCN(Cc1cccc(C)n1)C(=O)[C@@H]([NH3+])CC(=O)OCCOCCOC(=O)c1ccc(-c2c3nc(c(-c4c(F)c(F)c(F)c(F)c4F)c4ccc([nH]4)c(-c4c(F)c(F)c(F)c(F)c4F)c4nc(c(-c5c(F)c(F)c(F)c(F)c5F)c5ccc2[nH]5)C=C4)C=C3)cc1
REMARK SMILES IDX 20 1 19 2 17 3 18 4 16 5 14 6 12 7 13 8 3 9 2 10 1 11 4 12
REMARK SMILES IDX 5 13 6 14 11 15 7 16 9 17 8 18 10 19 15 20 21 24 22 25 23 26
REMARK SMILES IDX 24 27 25 28 26 29 27 30 28 31 29 32 90 33 30 34 89 35 31 36
REMARK SMILES IDX 32 37 33 38 83 39 34 40 88 41 82 42 84 43 35 44 87 45 81 46
REMARK SMILES IDX 80 47 36 49 68 50 48 51 67 52 49 53 52 54 66 55 85 56 50 57
REMARK SMILES IDX 51 58 65 60 86 61 53 62 37 63 38 64 46 65 39 66 40 67 44 68
REMARK SMILES IDX 47 69 41 70 42 71 45 72 43 73 69 74 70 75 78 76 71 77 72 78
REMARK SMILES IDX 76 79 79 80 73 81 74 82 77 83 75 84 54 85 55 86 63 87 56 88
REMARK SMILES IDX 57 89 61 90 64 91 58 92 59 93 62 94 60 95
REMARK H PARENT 15 21 15 22 15 23 84 48 52 59
REMARK Flexibility Score: inf
ROOT
ATOM      1  C   UNL A   1      33.282  21.093  25.995  1.00  0.00     0.261 C 
ENDROOT
BRANCH   1   2
ATOM      2  O   UNL A   1      32.516  22.084  25.287  1.00  0.00    -0.463 OA
BRANCH   2   3
ATOM      3  C   UNL A   1      31.405  22.537  25.915  1.00  0.00     0.312 C 
ATOM      4  O   UNL A   1      30.383  21.879  26.087  1.00  0.00    -0.252 OA
BRANCH   3   5
ATOM      5  C   UNL A   1      31.531  23.951  26.435  1.00  0.00     0.198 C 
BRANCH   5   6
ATOM      6  C   UNL A   1      30.599  25.019  25.872  1.00  0.00     0.282 C 
BRANCH   6   7
ATOM      7  C   UNL A   1      30.960  26.522  26.021  1.00  0.00     0.281 C 
ATOM      8  O   UNL A   1      30.738  27.060  27.115  1.00  0.00    -0.268 OA
BRANCH   7   9
ATOM      9  N   UNL A   1      31.418  27.283  24.955  1.00  0.00    -0.332 N 
BRANCH   9  10
ATOM     10  C   UNL A   1      30.424  27.977  24.133  1.00  0.00     0.116 C 
ATOM     11  C   UNL A   1      30.755  27.925  22.649  1.00  0.00     0.027 C 
ENDBRANCH   9  10
BRANCH   9  12
ATOM     12  C   UNL A   1      32.826  27.469  24.585  1.00  0.00     0.175 C 
BRANCH  12  13
ATOM     13  C   UNL A   1      33.566  26.177  24.281  1.00  0.00     0.060 A 
ATOM     14  C   UNL A   1      34.591  25.695  25.092  1.00  0.00     0.026 A 
ATOM     15  N   UNL A   1      33.129  25.481  23.199  1.00  0.00    -0.256 NA
ATOM     16  C   UNL A   1      35.136  24.443  24.825  1.00  0.00     0.004 A 
ATOM     17  C   UNL A   1      33.667  24.261  22.951  1.00  0.00     0.038 A 
ATOM     18  C   UNL A   1      34.665  23.711  23.744  1.00  0.00     0.023 A 
ATOM     19  C   UNL A   1      33.141  23.523  21.758  1.00  0.00     0.067 C 
ENDBRANCH  12  13
ENDBRANCH   9  12
ENDBRANCH   7   9
ENDBRANCH   6   7
BRANCH   6  20
ATOM     20  N   UNL A   1      30.286  24.737  24.446  1.00  0.00    -0.347 N 
ATOM     21  H   UNL A   1      29.752  23.871  24.380  1.00  0.00     0.345 HD
ATOM     22  H   UNL A   1      31.155  24.642  23.921  1.00  0.00     0.345 HD
ATOM     23  H   UNL A   1      29.738  25.506  24.061  1.00  0.00     0.345 HD
ENDBRANCH   6  20
ENDBRANCH   5   6
ENDBRANCH   3   5
ENDBRANCH   2   3
ENDBRANCH   1   2
BRANCH   1  24
ATOM     24  C   UNL A   1      33.573  19.869  25.124  1.00  0.00     0.202 C 
BRANCH  24  25
ATOM     25  O   UNL A   1      34.947  19.517  24.974  1.00  0.00    -0.374 OA
BRANCH  25  26
ATOM     26  C   UNL A   1      35.903  20.575  25.027  1.00  0.00     0.202 C 
BRANCH  26  27
ATOM     27  C   UNL A   1      37.380  20.162  24.989  1.00  0.00     0.261 C 
BRANCH  27  28
ATOM     28  O   UNL A   1      38.264  21.284  25.157  1.00  0.00    -0.460 OA
BRANCH  28  29
ATOM     29  C   UNL A   1      39.308  21.076  25.988  1.00  0.00     0.338 C 
ATOM     30  O   UNL A   1      39.976  20.052  26.094  1.00  0.00    -0.246 OA
BRANCH  29  31
ATOM     31  C   UNL A   1      39.686  22.317  26.690  1.00  0.00     0.060 A 
ATOM     32  C   UNL A   1      39.051  23.499  26.291  1.00  0.00     0.016 A 
ATOM     33  C   UNL A   1      40.722  22.353  27.626  1.00  0.00     0.016 A 
ATOM     34  C   UNL A   1      39.492  24.729  26.772  1.00  0.00     0.010 A 
ATOM     35  C   UNL A   1      41.174  23.593  28.100  1.00  0.00     0.010 A 
ATOM     36  C   UNL A   1      40.590  24.788  27.641  1.00  0.00    -0.014 A 
BRANCH  36  37
ATOM     37  C   UNL A   1      41.207  26.104  27.941  1.00  0.00     0.031 A 
ATOM     38  C   UNL A   1      42.607  26.382  27.464  1.00  0.00     0.074 A 
ATOM     39  C   UNL A   1      40.516  27.061  28.584  1.00  0.00     0.049 A 
ATOM     40  N   UNL A   1      43.337  27.460  27.608  1.00  0.00    -0.248 NA
ATOM     41  C   UNL A   1      43.272  25.301  26.720  1.00  0.00     0.031 C 
ATOM     42  C   UNL A   1      39.141  26.933  29.058  1.00  0.00     0.029 A 
ATOM     43  N   UNL A   1      40.883  28.333  28.948  1.00  0.00    -0.354 N 
ATOM     44  C   UNL A   1      44.544  27.187  26.976  1.00  0.00     0.074 A 
ATOM     45  C   UNL A   1      44.460  25.833  26.470  1.00  0.00     0.031 C 
ATOM     46  C   UNL A   1      38.781  28.079  29.663  1.00  0.00     0.029 A 
ATOM     47  C   UNL A   1      39.908  29.009  29.639  1.00  0.00     0.049 A 
ATOM     48  H   UNL A   1      41.761  28.722  28.734  1.00  0.00     0.167 HD
ATOM     49  C   UNL A   1      45.620  27.994  26.824  1.00  0.00     0.037 A 
ATOM     50  C   UNL A   1      39.932  30.233  30.202  1.00  0.00     0.037 A 
ATOM     51  C   UNL A   1      45.706  29.342  27.322  1.00  0.00     0.049 A 
ATOM     52  C   UNL A   1      41.169  31.086  30.078  1.00  0.00     0.074 A 
ATOM     53  C   UNL A   1      46.747  30.245  27.194  1.00  0.00     0.029 A 
ATOM     54  N   UNL A   1      44.712  29.977  28.051  1.00  0.00    -0.354 N 
ATOM     55  N   UNL A   1      42.292  30.830  29.454  1.00  0.00    -0.248 NA
ATOM     56  C   UNL A   1      41.137  32.400  30.737  1.00  0.00     0.031 C 
ATOM     57  C   UNL A   1      46.404  31.410  27.887  1.00  0.00     0.029 A 
ATOM     58  C   UNL A   1      45.128  31.251  28.405  1.00  0.00     0.049 A 
ATOM     59  H   UNL A   1      43.842  29.583  28.283  1.00  0.00     0.167 HD
ATOM     60  C   UNL A   1      43.088  31.957  29.621  1.00  0.00     0.074 A 
ATOM     61  C   UNL A   1      42.315  32.904  30.397  1.00  0.00     0.031 C 
ATOM     62  C   UNL A   1      44.346  32.187  29.172  1.00  0.00     0.037 A 
BRANCH  49  63
ATOM     63  C   UNL A   1      46.809  27.433  26.101  1.00  0.00     0.064 A 
ATOM     64  C   UNL A   1      46.990  27.621  24.723  1.00  0.00     0.173 A 
ATOM     65  C   UNL A   1      47.803  26.738  26.807  1.00  0.00     0.173 A 
ATOM     66  F   UNL A   1      46.062  28.269  24.003  1.00  0.00    -0.203 F 
ATOM     67  C   UNL A   1      48.113  27.114  24.074  1.00  0.00     0.198 A 
ATOM     68  C   UNL A   1      48.936  26.255  26.159  1.00  0.00     0.198 A 
ATOM     69  F   UNL A   1      47.680  26.538  28.127  1.00  0.00    -0.203 F 
ATOM     70  F   UNL A   1      48.247  27.273  22.750  1.00  0.00    -0.200 F 
ATOM     71  C   UNL A   1      49.088  26.438  24.792  1.00  0.00     0.200 A 
ATOM     72  F   UNL A   1      49.883  25.612  26.856  1.00  0.00    -0.200 F 
ATOM     73  F   UNL A   1      50.172  25.958  24.167  1.00  0.00    -0.200 F 
ENDBRANCH  49  63
BRANCH  50  74
ATOM     74  C   UNL A   1      38.748  30.725  30.952  1.00  0.00     0.064 A 
ATOM     75  C   UNL A   1      37.700  31.387  30.300  1.00  0.00     0.173 A 
ATOM     76  C   UNL A   1      38.653  30.559  32.343  1.00  0.00     0.173 A 
ATOM     77  F   UNL A   1      37.759  31.593  28.976  1.00  0.00    -0.203 F 
ATOM     78  C   UNL A   1      36.607  31.880  31.012  1.00  0.00     0.198 A 
ATOM     79  C   UNL A   1      37.547  31.029  33.048  1.00  0.00     0.198 A 
ATOM     80  F   UNL A   1      39.632  29.935  33.013  1.00  0.00    -0.203 F 
ATOM     81  F   UNL A   1      35.639  32.548  30.371  1.00  0.00    -0.200 F 
ATOM     82  C   UNL A   1      36.530  31.696  32.384  1.00  0.00     0.200 A 
ATOM     83  F   UNL A   1      37.473  30.839  34.373  1.00  0.00    -0.200 F 
ATOM     84  F   UNL A   1      35.478  32.167  33.067  1.00  0.00    -0.200 F 
ENDBRANCH  50  74
BRANCH  62  85
ATOM     85  C   UNL A   1      44.958  33.522  29.478  1.00  0.00     0.064 A 
ATOM     86  C   UNL A   1      44.767  34.628  28.635  1.00  0.00     0.173 A 
ATOM     87  C   UNL A   1      45.705  33.711  30.651  1.00  0.00     0.173 A 
ATOM     88  F   UNL A   1      44.073  34.495  27.495  1.00  0.00    -0.203 F 
ATOM     89  C   UNL A   1      45.321  35.867  28.946  1.00  0.00     0.198 A 
ATOM     90  C   UNL A   1      46.234  34.959  30.971  1.00  0.00     0.198 A 
ATOM     91  F   UNL A   1      45.911  32.688  31.493  1.00  0.00    -0.203 F 
ATOM     92  F   UNL A   1      45.161  36.899  28.106  1.00  0.00    -0.200 F 
ATOM     93  C   UNL A   1      46.047  36.033  30.116  1.00  0.00     0.200 A 
ATOM     94  F   UNL A   1      46.926  35.119  32.107  1.00  0.00    -0.200 F 
ATOM     95  F   UNL A   1      46.573  37.229  30.416  1.00  0.00    -0.200 F 
ENDBRANCH  62  85
ENDBRANCH  36  37
ENDBRANCH  29  31
ENDBRANCH  28  29
ENDBRANCH  27  28
ENDBRANCH  26  27
ENDBRANCH  25  26
ENDBRANCH  24  25
ENDBRANCH   1  24
TORSDOF 21
ENDMDL
MODEL 3
REMARK VINA RESULT:     -10.1      2.125      7.757
REMARK SMILES CCN(Cc1cccc(C)n1)C(=O)[C@@H]([NH3+])CC(=O)OCCOCCOC(=O)c1ccc(-c2c3nc(c(-c4c(F)c(F)c(F)c(F)c4F)c4ccc([nH]4)c(-c4c(F)c(F)c(F)c(F)c4F)c4nc(c(-c5c(F)c(F)c(F)c(F)c5F)c5ccc2[nH]5)C=C4)C=C3)cc1
REMARK SMILES IDX 20 1 19 2 17 3 18 4 16 5 14 6 12 7 13 8 3 9 2 10 1 11 4 12
REMARK SMILES IDX 5 13 6 14 11 15 7 16 9 17 8 18 10 19 15 20 21 24 22 25 23 26
REMARK SMILES IDX 24 27 25 28 26 29 27 30 28 31 29 32 90 33 30 34 89 35 31 36
REMARK SMILES IDX 32 37 33 38 83 39 34 40 88 41 82 42 84 43 35 44 87 45 81 46
REMARK SMILES IDX 80 47 36 49 68 50 48 51 67 52 49 53 52 54 66 55 85 56 50 57
REMARK SMILES IDX 51 58 65 60 86 61 53 62 37 63 38 64 46 65 39 66 40 67 44 68
REMARK SMILES IDX 47 69 41 70 42 71 45 72 43 73 69 74 70 75 78 76 71 77 72 78
REMARK SMILES IDX 76 79 79 80 73 81 74 82 77 83 75 84 54 85 55 86 63 87 56 88
REMARK SMILES IDX 57 89 61 90 64 91 58 92 59 93 62 94 60 95
REMARK H PARENT 15 21 15 22 15 23 84 48 52 59
REMARK Flexibility Score: inf
ROOT
ATOM      1  C   UNL A   1      31.025  26.474  26.263  1.00  0.00     0.261 C 
ENDROOT
BRANCH   1   2
ATOM      2  O   UNL A   1      31.780  25.255  26.150  1.00  0.00    -0.463 OA
BRANCH   2   3
ATOM      3  C   UNL A   1      31.069  24.104  26.226  1.00  0.00     0.312 C 
ATOM      4  O   UNL A   1      30.493  23.706  27.234  1.00  0.00    -0.252 OA
BRANCH   3   5
ATOM      5  C   UNL A   1      31.007  23.338  24.925  1.00  0.00     0.198 C 
BRANCH   5   6
ATOM      6  C   UNL A   1      32.282  23.203  24.099  1.00  0.00     0.282 C 
BRANCH   6   7
ATOM      7  C   UNL A   1      33.364  22.165  24.505  1.00  0.00     0.281 C 
ATOM      8  O   UNL A   1      34.477  22.257  23.967  1.00  0.00    -0.268 OA
BRANCH   7   9
ATOM      9  N   UNL A   1      33.091  21.104  25.356  1.00  0.00    -0.332 N 
BRANCH   9  10
ATOM     10  C   UNL A   1      33.694  21.127  26.692  1.00  0.00     0.116 C 
ATOM     11  C   UNL A   1      34.097  22.528  27.126  1.00  0.00     0.027 C 
ENDBRANCH   9  10
BRANCH   9  12
ATOM     12  C   UNL A   1      32.229  19.958  25.041  1.00  0.00     0.175 C 
BRANCH  12  13
ATOM     13  C   UNL A   1      32.976  18.643  24.885  1.00  0.00     0.060 A 
ATOM     14  C   UNL A   1      34.266  18.574  24.365  1.00  0.00     0.026 A 
ATOM     15  N   UNL A   1      32.333  17.536  25.341  1.00  0.00    -0.256 NA
ATOM     16  C   UNL A   1      34.935  17.354  24.370  1.00  0.00     0.004 A 
ATOM     17  C   UNL A   1      32.997  16.354  25.343  1.00  0.00     0.038 A 
ATOM     18  C   UNL A   1      34.297  16.229  24.872  1.00  0.00     0.023 A 
ATOM     19  C   UNL A   1      32.254  15.165  25.871  1.00  0.00     0.067 C 
ENDBRANCH  12  13
ENDBRANCH   9  12
ENDBRANCH   7   9
ENDBRANCH   6   7
BRANCH   6  20
ATOM     20  N   UNL A   1      31.953  23.019  22.661  1.00  0.00    -0.347 N 
ATOM     21  H   UNL A   1      30.944  22.925  22.553  1.00  0.00     0.345 HD
ATOM     22  H   UNL A   1      32.413  22.178  22.313  1.00  0.00     0.345 HD
ATOM     23  H   UNL A   1      32.278  23.828  22.132  1.00  0.00     0.345 HD
ENDBRANCH   6  20
ENDBRANCH   5   6
ENDBRANCH   3   5
ENDBRANCH   2   3
ENDBRANCH   1   2
BRANCH   1  24
ATOM     24  C   UNL A   1      30.753  27.103  24.894  1.00  0.00     0.202 C 
BRANCH  24  25
ATOM     25  O   UNL A   1      31.001  28.503  24.786  1.00  0.00    -0.374 OA
BRANCH  25  26
ATOM     26  C   UNL A   1      32.213  28.906  24.149  1.00  0.00     0.202 C 
BRANCH  26  27
ATOM     27  C   UNL A   1      33.195  29.718  25.002  1.00  0.00     0.261 C 
BRANCH  27  28
ATOM     28  O   UNL A   1      32.765  29.834  26.369  1.00  0.00    -0.460 OA
BRANCH  28  29
ATOM     29  C   UNL A   1      33.247  30.903  27.037  1.00  0.00     0.338 C 
ATOM     30  O   UNL A   1      32.630  31.914  27.359  1.00  0.00    -0.246 OA
BRANCH  29  31
ATOM     31  C   UNL A   1      34.627  30.665  27.501  1.00  0.00     0.060 A 
ATOM     32  C   UNL A   1      34.993  29.341  27.773  1.00  0.00     0.016 A 
ATOM     33  C   UNL A   1      35.506  31.713  27.786  1.00  0.00     0.016 A 
ATOM     34  C   UNL A   1      36.208  29.063  28.394  1.00  0.00     0.010 A 
ATOM     35  C   UNL A   1      36.723  31.433  28.422  1.00  0.00     0.010 A 
ATOM     36  C   UNL A   1      37.060  30.111  28.768  1.00  0.00    -0.014 A 
BRANCH  36  37
ATOM     37  C   UNL A   1      38.218  29.824  29.649  1.00  0.00     0.031 A 
ATOM     38  C   UNL A   1      39.300  28.898  29.160  1.00  0.00     0.074 A 
ATOM     39  C   UNL A   1      38.336  30.416  30.850  1.00  0.00     0.049 A 
ATOM     40  N   UNL A   1      40.399  28.512  29.757  1.00  0.00    -0.248 NA
ATOM     41  C   UNL A   1      39.119  28.336  27.812  1.00  0.00     0.031 C 
ATOM     42  C   UNL A   1      37.383  31.363  31.421  1.00  0.00     0.029 A 
ATOM     43  N   UNL A   1      39.316  30.304  31.807  1.00  0.00    -0.354 N 
ATOM     44  C   UNL A   1      41.039  27.664  28.863  1.00  0.00     0.074 A 
ATOM     45  C   UNL A   1      40.193  27.569  27.691  1.00  0.00     0.031 C 
ATOM     46  C   UNL A   1      37.817  31.740  32.636  1.00  0.00     0.029 A 
ATOM     47  C   UNL A   1      39.066  31.041  32.937  1.00  0.00     0.049 A 
ATOM     48  H   UNL A   1      40.120  29.747  31.692  1.00  0.00     0.167 HD
ATOM     49  C   UNL A   1      42.226  27.029  29.001  1.00  0.00     0.037 A 
ATOM     50  C   UNL A   1      39.758  31.126  34.090  1.00  0.00     0.037 A 
ATOM     51  C   UNL A   1      43.071  27.124  30.162  1.00  0.00     0.049 A 
ATOM     52  C   UNL A   1      41.043  30.354  34.246  1.00  0.00     0.074 A 
ATOM     53  C   UNL A   1      44.305  26.535  30.383  1.00  0.00     0.029 A 
ATOM     54  N   UNL A   1      42.765  27.849  31.303  1.00  0.00    -0.354 N 
ATOM     55  N   UNL A   1      41.654  29.579  33.383  1.00  0.00    -0.248 NA
ATOM     56  C   UNL A   1      41.736  30.473  35.538  1.00  0.00     0.031 C 
ATOM     57  C   UNL A   1      44.723  26.866  31.676  1.00  0.00     0.029 A 
ATOM     58  C   UNL A   1      43.772  27.700  32.243  1.00  0.00     0.049 A 
ATOM     59  H   UNL A   1      41.952  28.389  31.428  1.00  0.00     0.167 HD
ATOM     60  C   UNL A   1      42.811  29.140  34.015  1.00  0.00     0.074 A 
ATOM     61  C   UNL A   1      42.824  29.744  35.331  1.00  0.00     0.031 C 
ATOM     62  C   UNL A   1      43.776  28.312  33.547  1.00  0.00     0.037 A 
BRANCH  49  63
ATOM     63  C   UNL A   1      42.679  26.153  27.870  1.00  0.00     0.064 A 
ATOM     64  C   UNL A   1      42.278  24.812  27.771  1.00  0.00     0.173 A 
ATOM     65  C   UNL A   1      43.488  26.675  26.850  1.00  0.00     0.173 A 
ATOM     66  F   UNL A   1      41.514  24.264  28.729  1.00  0.00    -0.203 F 
ATOM     67  C   UNL A   1      42.688  24.021  26.702  1.00  0.00     0.198 A 
ATOM     68  C   UNL A   1      43.875  25.887  25.769  1.00  0.00     0.198 A 
ATOM     69  F   UNL A   1      43.893  27.953  26.895  1.00  0.00    -0.203 F 
ATOM     70  F   UNL A   1      42.324  22.732  26.646  1.00  0.00    -0.200 F 
ATOM     71  C   UNL A   1      43.480  24.559  25.699  1.00  0.00     0.200 A 
ATOM     72  F   UNL A   1      44.630  26.413  24.795  1.00  0.00    -0.200 F 
ATOM     73  F   UNL A   1      43.867  23.798  24.666  1.00  0.00    -0.200 F 
ENDBRANCH  49  63
BRANCH  50  74
ATOM     74  C   UNL A   1      39.242  31.967  35.201  1.00  0.00     0.064 A 
ATOM     75  C   UNL A   1      38.469  31.414  36.230  1.00  0.00     0.173 A 
ATOM     76  C   UNL A   1      39.497  33.346  35.242  1.00  0.00     0.173 A 
ATOM     77  F   UNL A   1      38.176  30.105  36.219  1.00  0.00    -0.203 F 
ATOM     78  C   UNL A   1      37.956  32.212  37.252  1.00  0.00     0.198 A 
ATOM     79  C   UNL A   1      39.007  34.137  36.278  1.00  0.00     0.198 A 
ATOM     80  F   UNL A   1      40.229  33.923  34.279  1.00  0.00    -0.203 F 
ATOM     81  F   UNL A   1      37.183  31.667  38.200  1.00  0.00    -0.200 F 
ATOM     82  C   UNL A   1      38.230  33.572  37.277  1.00  0.00     0.200 A 
ATOM     83  F   UNL A   1      39.282  35.448  36.304  1.00  0.00    -0.200 F 
ATOM     84  F   UNL A   1      37.739  34.337  38.262  1.00  0.00    -0.200 F 
ENDBRANCH  50  74
BRANCH  62  85
ATOM     85  C   UNL A   1      44.944  28.032  34.446  1.00  0.00     0.064 A 
ATOM     86  C   UNL A   1      46.071  28.869  34.470  1.00  0.00     0.173 A 
ATOM     87  C   UNL A   1      44.919  26.940  35.327  1.00  0.00     0.173 A 
ATOM     88  F   UNL A   1      46.150  29.917  33.637  1.00  0.00    -0.203 F 
ATOM     89  C   UNL A   1      47.136  28.609  35.328  1.00  0.00     0.198 A 
ATOM     90  C   UNL A   1      45.974  26.699  36.203  1.00  0.00     0.198 A 
ATOM     91  F   UNL A   1      43.863  26.114  35.348  1.00  0.00    -0.203 F 
ATOM     92  F   UNL A   1      48.219  29.398  35.305  1.00  0.00    -0.200 F 
ATOM     93  C   UNL A   1      47.084  27.530  36.198  1.00  0.00     0.200 A 
ATOM     94  F   UNL A   1      45.917  25.663  37.050  1.00  0.00    -0.200 F 
ATOM     95  F   UNL A   1      48.108  27.287  37.028  1.00  0.00    -0.200 F 
ENDBRANCH  62  85
ENDBRANCH  36  37
ENDBRANCH  29  31
ENDBRANCH  28  29
ENDBRANCH  27  28
ENDBRANCH  26  27
ENDBRANCH  25  26
ENDBRANCH  24  25
ENDBRANCH   1  24
TORSDOF 21
ENDMDL
