MODEL 1
REMARK VINA RESULT:     -12.8      0.000      0.000
REMARK SMILES COc1cc(/N=N/c2ccccc2)ccc1NC(=O)[C@H]1CC=CC[C@@H]1C(=O)OCCOCCOC(=O)c1ccc(-c2c3nc(c(-c4c(F)c(F)c(F)c(F)c4F)c4ccc([nH]4)c(-c4c(F)c(F)c(F)c(F)c4F)c4nc(c(-c5c(F)c(F)c(F)c(F)c5F)c5ccc2[nH]5)C=C4)C=C3)cc1
REMARK SMILES IDX 30 1 29 2 28 3 26 4 27 5 25 6 20 7 21 8 22 9 24 10 23 11
REMARK SMILES IDX 18 12 17 13 19 15 16 16 3 17 4 18 5 19 15 20 14 21 2 22 1 23
REMARK SMILES IDX 6 24 7 25 8 26 9 27 13 28 10 29 12 30 11 31 31 32 32 33
REMARK SMILES IDX 33 34 34 35 35 36 36 37 37 38 38 39 99 40 39 41 98 42 40 43
REMARK SMILES IDX 41 44 42 45 92 46 43 47 97 48 91 49 93 50 44 51 96 52 90 53
REMARK SMILES IDX 89 54 45 56 77 57 57 58 76 59 58 60 61 61 75 62 94 63 59 64
REMARK SMILES IDX 60 65 74 67 95 68 62 69 46 70 47 71 55 72 48 73 49 74 53 75
REMARK SMILES IDX 56 76 50 77 51 78 54 79 52 80 78 81 79 82 87 83 80 84 81 85
REMARK SMILES IDX 85 86 88 87 82 88 83 89 86 90 84 91 63 92 64 93 72 94 65 95
REMARK SMILES IDX 66 96 70 97 73 98 67 99 68 100 71 101 69 102
REMARK H PARENT 17 14 93 55 61 66
REMARK Flexibility Score: inf
ROOT
ATOM      1  C   UNL A   1      35.589  23.819  25.325  1.00  0.00     0.202 C 
ENDROOT
BRANCH   1   2
ATOM      2  C   UNL A   1      34.340  24.638  25.682  1.00  0.00     0.261 C 
BRANCH   2   3
ATOM      3  O   UNL A   1      34.272  25.921  25.055  1.00  0.00    -0.463 OA
BRANCH   3   4
ATOM      4  C   UNL A   1      33.648  26.869  25.817  1.00  0.00     0.310 C 
ATOM      5  O   UNL A   1      34.231  27.741  26.448  1.00  0.00    -0.252 OA
BRANCH   4   6
ATOM      6  C   UNL A   1      32.138  26.746  25.691  1.00  0.00     0.116 C 
ATOM      7  C   UNL A   1      31.709  26.929  24.208  1.00  0.00     0.097 C 
ATOM      8  C   UNL A   1      31.908  28.400  23.771  1.00  0.00     0.041 C 
ATOM      9  C   UNL A   1      31.678  29.431  24.833  1.00  0.00    -0.030 C 
ATOM     10  C   UNL A   1      31.438  27.732  26.634  1.00  0.00     0.043 C 
ATOM     11  C   UNL A   1      31.433  29.135  26.114  1.00  0.00    -0.030 C 
BRANCH   7  12
ATOM     12  C   UNL A   1      30.291  26.365  24.007  1.00  0.00     0.228 C 
ATOM     13  N   UNL A   1      30.000  25.033  24.074  1.00  0.00    -0.323 N 
ATOM     14  H   UNL A   1      29.082  24.801  23.803  1.00  0.00     0.170 HD
ATOM     15  O   UNL A   1      29.335  27.116  23.777  1.00  0.00    -0.274 OA
BRANCH  13  16
ATOM     16  C   UNL A   1      30.789  23.940  24.464  1.00  0.00     0.083 A 
ATOM     17  C   UNL A   1      30.685  23.393  25.758  1.00  0.00     0.144 A 
ATOM     18  C   UNL A   1      31.234  22.122  26.006  1.00  0.00     0.079 A 
ATOM     19  C   UNL A   1      31.938  21.427  25.016  1.00  0.00     0.090 A 
ATOM     20  C   UNL A   1      31.613  23.313  23.524  1.00  0.00     0.032 A 
ATOM     21  C   UNL A   1      32.179  22.070  23.798  1.00  0.00     0.033 A 
BRANCH  17  22
ATOM     22  O   UNL A   1      29.917  23.871  26.788  1.00  0.00    -0.494 OA
ATOM     23  C   UNL A   1      29.161  22.926  27.536  1.00  0.00     0.278 C 
ENDBRANCH  17  22
BRANCH  19  24
ATOM     24  N   UNL A   1      32.396  20.111  25.243  1.00  0.00    -0.150 NA
ATOM     25  N   UNL A   1      32.146  19.406  24.236  1.00  0.00    -0.151 NA
BRANCH  25  26
ATOM     26  C   UNL A   1      32.729  18.131  24.332  1.00  0.00     0.086 A 
ATOM     27  C   UNL A   1      32.567  17.389  25.509  1.00  0.00     0.030 A 
ATOM     28  C   UNL A   1      33.548  17.623  23.320  1.00  0.00     0.030 A 
ATOM     29  C   UNL A   1      33.193  16.151  25.664  1.00  0.00     0.002 A 
ATOM     30  C   UNL A   1      34.177  16.383  23.471  1.00  0.00     0.002 A 
ATOM     31  C   UNL A   1      33.998  15.648  24.643  1.00  0.00     0.000 A 
ENDBRANCH  25  26
ENDBRANCH  19  24
ENDBRANCH  13  16
ENDBRANCH   7  12
ENDBRANCH   4   6
ENDBRANCH   3   4
ENDBRANCH   2   3
ENDBRANCH   1   2
BRANCH   1  32
ATOM     32  O   UNL A   1      35.432  22.550  24.705  1.00  0.00    -0.374 OA
BRANCH  32  33
ATOM     33  C   UNL A   1      35.772  21.370  25.432  1.00  0.00     0.202 C 
BRANCH  33  34
ATOM     34  C   UNL A   1      37.036  20.595  25.044  1.00  0.00     0.261 C 
BRANCH  34  35
ATOM     35  O   UNL A   1      38.204  21.434  25.010  1.00  0.00    -0.460 OA
BRANCH  35  36
ATOM     36  C   UNL A   1      39.152  21.123  25.923  1.00  0.00     0.338 C 
ATOM     37  O   UNL A   1      39.689  20.038  26.105  1.00  0.00    -0.246 OA
BRANCH  36  38
ATOM     38  C   UNL A   1      39.616  22.342  26.597  1.00  0.00     0.060 A 
ATOM     39  C   UNL A   1      39.090  23.571  26.175  1.00  0.00     0.016 A 
ATOM     40  C   UNL A   1      40.644  22.289  27.537  1.00  0.00     0.016 A 
ATOM     41  C   UNL A   1      39.625  24.761  26.662  1.00  0.00     0.010 A 
ATOM     42  C   UNL A   1      41.191  23.482  28.012  1.00  0.00     0.010 A 
ATOM     43  C   UNL A   1      40.709  24.720  27.546  1.00  0.00    -0.014 A 
BRANCH  43  44
ATOM     44  C   UNL A   1      41.463  25.959  27.842  1.00  0.00     0.031 A 
ATOM     45  C   UNL A   1      40.771  27.052  28.607  1.00  0.00     0.074 A 
ATOM     46  C   UNL A   1      42.736  26.105  27.438  1.00  0.00     0.049 A 
ATOM     47  N   UNL A   1      41.185  28.261  28.889  1.00  0.00    -0.248 NA
ATOM     48  C   UNL A   1      39.426  26.741  29.121  1.00  0.00     0.031 C 
ATOM     49  C   UNL A   1      43.523  25.092  26.739  1.00  0.00     0.029 A 
ATOM     50  N   UNL A   1      43.585  27.178  27.545  1.00  0.00    -0.354 N 
ATOM     51  C   UNL A   1      40.147  28.858  29.592  1.00  0.00     0.074 A 
ATOM     52  C   UNL A   1      39.078  27.889  29.685  1.00  0.00     0.031 C 
ATOM     53  C   UNL A   1      44.737  25.600  26.460  1.00  0.00     0.029 A 
ATOM     54  C   UNL A   1      44.795  26.984  26.926  1.00  0.00     0.049 A 
ATOM     55  H   UNL A   1      43.349  28.008  28.021  1.00  0.00     0.167 HD
ATOM     56  C   UNL A   1      40.094  30.107  30.112  1.00  0.00     0.037 A 
ATOM     57  C   UNL A   1      45.814  27.843  26.732  1.00  0.00     0.037 A 
ATOM     58  C   UNL A   1      41.168  31.059  30.028  1.00  0.00     0.049 A 
ATOM     59  C   UNL A   1      45.700  29.250  27.264  1.00  0.00     0.074 A 
ATOM     60  C   UNL A   1      41.226  32.342  30.543  1.00  0.00     0.029 A 
ATOM     61  N   UNL A   1      42.374  30.831  29.381  1.00  0.00    -0.354 N 
ATOM     62  N   UNL A   1      44.726  29.803  27.944  1.00  0.00    -0.248 NA
ATOM     63  C   UNL A   1      46.830  30.153  26.997  1.00  0.00     0.031 C 
ATOM     64  C   UNL A   1      42.447  32.908  30.165  1.00  0.00     0.029 A 
ATOM     65  C   UNL A   1      43.173  31.958  29.464  1.00  0.00     0.049 A 
ATOM     66  H   UNL A   1      42.623  29.993  28.931  1.00  0.00     0.167 HD
ATOM     67  C   UNL A   1      45.141  31.099  28.224  1.00  0.00     0.074 A 
ATOM     68  C   UNL A   1      46.458  31.250  27.640  1.00  0.00     0.031 C 
ATOM     69  C   UNL A   1      44.495  32.075  28.906  1.00  0.00     0.037 A 
BRANCH  56  70
ATOM     70  C   UNL A   1      38.828  30.530  30.793  1.00  0.00     0.064 A 
ATOM     71  C   UNL A   1      38.691  30.495  32.188  1.00  0.00     0.173 A 
ATOM     72  C   UNL A   1      37.757  31.035  30.039  1.00  0.00     0.173 A 
ATOM     73  F   UNL A   1      39.680  30.009  32.951  1.00  0.00    -0.203 F 
ATOM     74  C   UNL A   1      37.522  30.939  32.803  1.00  0.00     0.198 A 
ATOM     75  C   UNL A   1      36.601  31.503  30.658  1.00  0.00     0.198 A 
ATOM     76  F   UNL A   1      37.840  31.091  28.701  1.00  0.00    -0.203 F 
ATOM     77  F   UNL A   1      37.398  30.868  34.135  1.00  0.00    -0.200 F 
ATOM     78  C   UNL A   1      36.482  31.451  32.038  1.00  0.00     0.200 A 
ATOM     79  F   UNL A   1      35.604  32.007  29.918  1.00  0.00    -0.200 F 
ATOM     80  F   UNL A   1      35.366  31.892  32.632  1.00  0.00    -0.200 F 
ENDBRANCH  56  70
BRANCH  57  81
ATOM     81  C   UNL A   1      47.024  27.415  25.983  1.00  0.00     0.064 A 
ATOM     82  C   UNL A   1      48.143  26.900  26.652  1.00  0.00     0.173 A 
ATOM     83  C   UNL A   1      47.107  27.552  24.589  1.00  0.00     0.173 A 
ATOM     84  F   UNL A   1      48.124  26.773  27.988  1.00  0.00    -0.203 F 
ATOM     85  C   UNL A   1      49.307  26.565  25.961  1.00  0.00     0.198 A 
ATOM     86  C   UNL A   1      48.259  27.189  23.895  1.00  0.00     0.198 A 
ATOM     87  F   UNL A   1      46.066  28.041  23.899  1.00  0.00    -0.203 F 
ATOM     88  F   UNL A   1      50.382  26.133  26.634  1.00  0.00    -0.200 F 
ATOM     89  C   UNL A   1      49.362  26.708  24.583  1.00  0.00     0.200 A 
ATOM     90  F   UNL A   1      48.305  27.319  22.562  1.00  0.00    -0.200 F 
ATOM     91  F   UNL A   1      50.483  26.393  23.919  1.00  0.00    -0.200 F 
ENDBRANCH  57  81
BRANCH  69  92
ATOM     92  C   UNL A   1      45.222  33.371  29.122  1.00  0.00     0.064 A 
ATOM     93  C   UNL A   1      45.088  34.450  28.239  1.00  0.00     0.173 A 
ATOM     94  C   UNL A   1      46.011  33.550  30.269  1.00  0.00     0.173 A 
ATOM     95  F   UNL A   1      44.355  34.323  27.123  1.00  0.00    -0.203 F 
ATOM     96  C   UNL A   1      45.734  35.659  28.487  1.00  0.00     0.198 A 
ATOM     97  C   UNL A   1      46.630  34.769  30.529  1.00  0.00     0.198 A 
ATOM     98  F   UNL A   1      46.162  32.550  31.150  1.00  0.00    -0.203 F 
ATOM     99  F   UNL A   1      45.625  36.667  27.609  1.00  0.00    -0.200 F 
ATOM    100  C   UNL A   1      46.496  35.820  29.635  1.00  0.00     0.200 A 
ATOM    101  F   UNL A   1      47.353  34.927  31.646  1.00  0.00    -0.200 F 
ATOM    102  F   UNL A   1      47.106  36.989  29.878  1.00  0.00    -0.200 F 
ENDBRANCH  69  92
ENDBRANCH  43  44
ENDBRANCH  36  38
ENDBRANCH  35  36
ENDBRANCH  34  35
ENDBRANCH  33  34
ENDBRANCH  32  33
ENDBRANCH   1  32
TORSDOF 19
ENDMDL
MODEL 2
REMARK VINA RESULT:     -12.2      0.625      6.975
REMARK SMILES COc1cc(/N=N/c2ccccc2)ccc1NC(=O)[C@H]1CC=CC[C@@H]1C(=O)OCCOCCOC(=O)c1ccc(-c2c3nc(c(-c4c(F)c(F)c(F)c(F)c4F)c4ccc([nH]4)c(-c4c(F)c(F)c(F)c(F)c4F)c4nc(c(-c5c(F)c(F)c(F)c(F)c5F)c5ccc2[nH]5)C=C4)C=C3)cc1
REMARK SMILES IDX 30 1 29 2 28 3 26 4 27 5 25 6 20 7 21 8 22 9 24 10 23 11
REMARK SMILES IDX 18 12 17 13 19 15 16 16 3 17 4 18 5 19 15 20 14 21 2 22 1 23
REMARK SMILES IDX 6 24 7 25 8 26 9 27 13 28 10 29 12 30 11 31 31 32 32 33
REMARK SMILES IDX 33 34 34 35 35 36 36 37 37 38 38 39 99 40 39 41 98 42 40 43
REMARK SMILES IDX 41 44 42 45 92 46 43 47 97 48 91 49 93 50 44 51 96 52 90 53
REMARK SMILES IDX 89 54 45 56 77 57 57 58 76 59 58 60 61 61 75 62 94 63 59 64
REMARK SMILES IDX 60 65 74 67 95 68 62 69 46 70 47 71 55 72 48 73 49 74 53 75
REMARK SMILES IDX 56 76 50 77 51 78 54 79 52 80 78 81 79 82 87 83 80 84 81 85
REMARK SMILES IDX 85 86 88 87 82 88 83 89 86 90 84 91 63 92 64 93 72 94 65 95
REMARK SMILES IDX 66 96 70 97 73 98 67 99 68 100 71 101 69 102
REMARK H PARENT 17 14 93 55 61 66
REMARK Flexibility Score: inf
ROOT
ATOM      1  C   UNL A   1      35.513  23.983  25.609  1.00  0.00     0.202 C 
ENDROOT
BRANCH   1   2
ATOM      2  C   UNL A   1      34.190  24.752  25.480  1.00  0.00     0.261 C 
BRANCH   2   3
ATOM      3  O   UNL A   1      34.331  26.109  25.051  1.00  0.00    -0.463 OA
BRANCH   3   4
ATOM      4  C   UNL A   1      33.735  27.011  25.887  1.00  0.00     0.310 C 
ATOM      5  O   UNL A   1      34.338  27.861  26.529  1.00  0.00    -0.252 OA
BRANCH   4   6
ATOM      6  C   UNL A   1      32.222  26.873  25.829  1.00  0.00     0.116 C 
ATOM      7  C   UNL A   1      31.713  27.171  24.391  1.00  0.00     0.097 C 
ATOM      8  C   UNL A   1      31.870  28.676  24.068  1.00  0.00     0.041 C 
ATOM      9  C   UNL A   1      31.684  29.612  25.224  1.00  0.00    -0.030 C 
ATOM     10  C   UNL A   1      31.561  27.766  26.886  1.00  0.00     0.043 C 
ATOM     11  C   UNL A   1      31.511  29.207  26.486  1.00  0.00    -0.030 C 
BRANCH   7  12
ATOM     12  C   UNL A   1      30.294  26.602  24.218  1.00  0.00     0.228 C 
ATOM     13  N   UNL A   1      30.038  25.274  24.035  1.00  0.00    -0.323 N 
ATOM     14  H   UNL A   1      29.102  25.064  23.813  1.00  0.00     0.170 HD
ATOM     15  O   UNL A   1      29.304  27.344  24.243  1.00  0.00    -0.274 OA
BRANCH  13  16
ATOM     16  C   UNL A   1      30.885  24.157  24.111  1.00  0.00     0.083 A 
ATOM     17  C   UNL A   1      30.970  23.387  25.287  1.00  0.00     0.144 A 
ATOM     18  C   UNL A   1      31.562  22.113  25.225  1.00  0.00     0.079 A 
ATOM     19  C   UNL A   1      32.127  21.629  24.041  1.00  0.00     0.090 A 
ATOM     20  C   UNL A   1      31.575  23.736  22.970  1.00  0.00     0.032 A 
ATOM     21  C   UNL A   1      32.188  22.485  22.936  1.00  0.00     0.033 A 
BRANCH  17  22
ATOM     22  O   UNL A   1      30.349  23.648  26.482  1.00  0.00    -0.494 OA
ATOM     23  C   UNL A   1      29.617  22.589  27.086  1.00  0.00     0.278 C 
ENDBRANCH  17  22
BRANCH  19  24
ATOM     24  N   UNL A   1      32.626  20.310  23.963  1.00  0.00    -0.150 NA
ATOM     25  N   UNL A   1      32.920  19.909  25.114  1.00  0.00    -0.151 NA
BRANCH  25  26
ATOM     26  C   UNL A   1      33.260  18.546  25.122  1.00  0.00     0.086 A 
ATOM     27  C   UNL A   1      34.331  18.101  24.336  1.00  0.00     0.030 A 
ATOM     28  C   UNL A   1      32.498  17.605  25.821  1.00  0.00     0.030 A 
ATOM     29  C   UNL A   1      34.649  16.743  24.267  1.00  0.00     0.002 A 
ATOM     30  C   UNL A   1      32.813  16.245  25.753  1.00  0.00     0.002 A 
ATOM     31  C   UNL A   1      33.889  15.816  24.977  1.00  0.00     0.000 A 
ENDBRANCH  25  26
ENDBRANCH  19  24
ENDBRANCH  13  16
ENDBRANCH   7  12
ENDBRANCH   4   6
ENDBRANCH   3   4
ENDBRANCH   2   3
ENDBRANCH   1   2
BRANCH   1  32
ATOM     32  O   UNL A   1      35.683  22.771  24.886  1.00  0.00    -0.374 OA
BRANCH  32  33
ATOM     33  C   UNL A   1      35.919  21.558  25.599  1.00  0.00     0.202 C 
BRANCH  33  34
ATOM     34  C   UNL A   1      37.210  20.777  25.330  1.00  0.00     0.261 C 
BRANCH  34  35
ATOM     35  O   UNL A   1      38.352  21.639  25.184  1.00  0.00    -0.460 OA
BRANCH  35  36
ATOM     36  C   UNL A   1      39.338  21.431  26.087  1.00  0.00     0.338 C 
ATOM     37  O   UNL A   1      39.981  20.405  26.271  1.00  0.00    -0.246 OA
BRANCH  36  38
ATOM     38  C   UNL A   1      39.690  22.697  26.742  1.00  0.00     0.060 A 
ATOM     39  C   UNL A   1      38.984  23.850  26.375  1.00  0.00     0.016 A 
ATOM     40  C   UNL A   1      40.781  22.771  27.607  1.00  0.00     0.016 A 
ATOM     41  C   UNL A   1      39.398  25.096  26.838  1.00  0.00     0.010 A 
ATOM     42  C   UNL A   1      41.205  24.022  28.059  1.00  0.00     0.010 A 
ATOM     43  C   UNL A   1      40.538  25.190  27.644  1.00  0.00    -0.014 A 
BRANCH  43  44
ATOM     44  C   UNL A   1      41.148  26.514  27.903  1.00  0.00     0.031 A 
ATOM     45  C   UNL A   1      42.575  26.739  27.486  1.00  0.00     0.074 A 
ATOM     46  C   UNL A   1      40.445  27.493  28.496  1.00  0.00     0.049 A 
ATOM     47  N   UNL A   1      43.353  27.768  27.703  1.00  0.00    -0.248 NA
ATOM     48  C   UNL A   1      43.213  25.652  26.725  1.00  0.00     0.031 C 
ATOM     49  C   UNL A   1      39.041  27.406  28.892  1.00  0.00     0.029 A 
ATOM     50  N   UNL A   1      40.828  28.752  28.884  1.00  0.00    -0.354 N 
ATOM     51  C   UNL A   1      44.573  27.445  27.125  1.00  0.00     0.074 A 
ATOM     52  C   UNL A   1      44.442  26.121  26.558  1.00  0.00     0.031 C 
ATOM     53  C   UNL A   1      38.685  28.557  29.487  1.00  0.00     0.029 A 
ATOM     54  C   UNL A   1      39.845  29.443  29.549  1.00  0.00     0.049 A 
ATOM     55  H   UNL A   1      41.721  29.125  28.703  1.00  0.00     0.167 HD
ATOM     56  C   UNL A   1      45.702  28.190  27.074  1.00  0.00     0.037 A 
ATOM     57  C   UNL A   1      39.896  30.640  30.164  1.00  0.00     0.037 A 
ATOM     58  C   UNL A   1      45.819  29.512  27.627  1.00  0.00     0.049 A 
ATOM     59  C   UNL A   1      41.187  31.420  30.150  1.00  0.00     0.074 A 
ATOM     60  C   UNL A   1      46.910  30.362  27.607  1.00  0.00     0.029 A 
ATOM     61  N   UNL A   1      44.806  30.174  28.305  1.00  0.00    -0.354 N 
ATOM     62  N   UNL A   1      42.331  31.119  29.585  1.00  0.00    -0.248 NA
ATOM     63  C   UNL A   1      41.193  32.706  30.862  1.00  0.00     0.031 C 
ATOM     64  C   UNL A   1      46.574  31.519  28.316  1.00  0.00     0.029 A 
ATOM     65  C   UNL A   1      45.254  31.414  28.728  1.00  0.00     0.049 A 
ATOM     66  H   UNL A   1      43.902  29.816  28.461  1.00  0.00     0.167 HD
ATOM     67  C   UNL A   1      43.176  32.193  29.834  1.00  0.00     0.074 A 
ATOM     68  C   UNL A   1      42.413  33.155  30.602  1.00  0.00     0.031 C 
ATOM     69  C   UNL A   1      44.466  32.370  29.460  1.00  0.00     0.037 A 
BRANCH  56  70
ATOM     70  C   UNL A   1      46.911  27.587  26.425  1.00  0.00     0.064 A 
ATOM     71  C   UNL A   1      47.848  26.841  27.154  1.00  0.00     0.173 A 
ATOM     72  C   UNL A   1      47.101  27.710  25.040  1.00  0.00     0.173 A 
ATOM     73  F   UNL A   1      47.718  26.707  28.482  1.00  0.00    -0.203 F 
ATOM     74  C   UNL A   1      48.939  26.249  26.521  1.00  0.00     0.198 A 
ATOM     75  C   UNL A   1      48.178  27.095  24.406  1.00  0.00     0.198 A 
ATOM     76  F   UNL A   1      46.232  28.412  24.298  1.00  0.00    -0.203 F 
ATOM     77  F   UNL A   1      49.841  25.567  27.240  1.00  0.00    -0.200 F 
ATOM     78  C   UNL A   1      49.098  26.369  25.147  1.00  0.00     0.200 A 
ATOM     79  F   UNL A   1      48.322  27.202  23.079  1.00  0.00    -0.200 F 
ATOM     80  F   UNL A   1      50.139  25.786  24.538  1.00  0.00    -0.200 F 
ENDBRANCH  56  70
BRANCH  57  81
ATOM     81  C   UNL A   1      38.700  31.175  30.867  1.00  0.00     0.064 A 
ATOM     82  C   UNL A   1      38.523  30.978  32.244  1.00  0.00     0.173 A 
ATOM     83  C   UNL A   1      37.687  31.854  30.172  1.00  0.00     0.173 A 
ATOM     84  F   UNL A   1      39.450  30.311  32.949  1.00  0.00    -0.203 F 
ATOM     85  C   UNL A   1      37.369  31.414  32.892  1.00  0.00     0.198 A 
ATOM     86  C   UNL A   1      36.548  32.316  30.827  1.00  0.00     0.198 A 
ATOM     87  F   UNL A   1      37.806  32.068  28.853  1.00  0.00    -0.203 F 
ATOM     88  F   UNL A   1      37.199  31.158  34.197  1.00  0.00    -0.200 F 
ATOM     89  C   UNL A   1      36.384  32.085  32.184  1.00  0.00     0.200 A 
ATOM     90  F   UNL A   1      35.604  32.974  30.140  1.00  0.00    -0.200 F 
ATOM     91  F   UNL A   1      35.271  32.498  32.806  1.00  0.00    -0.200 F 
ENDBRANCH  57  81
BRANCH  69  92
ATOM     92  C   UNL A   1      45.119  33.676  29.809  1.00  0.00     0.064 A 
ATOM     93  C   UNL A   1      45.850  33.845  30.993  1.00  0.00     0.173 A 
ATOM     94  C   UNL A   1      45.062  34.752  28.910  1.00  0.00     0.173 A 
ATOM     95  F   UNL A   1      45.922  32.850  31.889  1.00  0.00    -0.203 F 
ATOM     96  C   UNL A   1      46.487  35.051  31.272  1.00  0.00     0.198 A 
ATOM     97  C   UNL A   1      45.725  35.946  29.178  1.00  0.00     0.198 A 
ATOM     98  F   UNL A   1      44.383  34.637  27.759  1.00  0.00    -0.203 F 
ATOM     99  F   UNL A   1      47.149  35.205  32.428  1.00  0.00    -0.200 F 
ATOM    100  C   UNL A   1      46.432  36.096  30.362  1.00  0.00     0.200 A 
ATOM    101  F   UNL A   1      45.684  36.948  28.290  1.00  0.00    -0.200 F 
ATOM    102  F   UNL A   1      47.058  37.251  30.627  1.00  0.00    -0.200 F 
ENDBRANCH  69  92
ENDBRANCH  43  44
ENDBRANCH  36  38
ENDBRANCH  35  36
ENDBRANCH  34  35
ENDBRANCH  33  34
ENDBRANCH  32  33
ENDBRANCH   1  32
TORSDOF 19
ENDMDL
MODEL 3
REMARK VINA RESULT:     -11.5      2.249      8.817
REMARK SMILES COc1cc(/N=N/c2ccccc2)ccc1NC(=O)[C@H]1CC=CC[C@@H]1C(=O)OCCOCCOC(=O)c1ccc(-c2c3nc(c(-c4c(F)c(F)c(F)c(F)c4F)c4ccc([nH]4)c(-c4c(F)c(F)c(F)c(F)c4F)c4nc(c(-c5c(F)c(F)c(F)c(F)c5F)c5ccc2[nH]5)C=C4)C=C3)cc1
REMARK SMILES IDX 30 1 29 2 28 3 26 4 27 5 25 6 20 7 21 8 22 9 24 10 23 11
REMARK SMILES IDX 18 12 17 13 19 15 16 16 3 17 4 18 5 19 15 20 14 21 2 22 1 23
REMARK SMILES IDX 6 24 7 25 8 26 9 27 13 28 10 29 12 30 11 31 31 32 32 33
REMARK SMILES IDX 33 34 34 35 35 36 36 37 37 38 38 39 99 40 39 41 98 42 40 43
REMARK SMILES IDX 41 44 42 45 92 46 43 47 97 48 91 49 93 50 44 51 96 52 90 53
REMARK SMILES IDX 89 54 45 56 77 57 57 58 76 59 58 60 61 61 75 62 94 63 59 64
REMARK SMILES IDX 60 65 74 67 95 68 62 69 46 70 47 71 55 72 48 73 49 74 53 75
REMARK SMILES IDX 56 76 50 77 51 78 54 79 52 80 78 81 79 82 87 83 80 84 81 85
REMARK SMILES IDX 85 86 88 87 82 88 83 89 86 90 84 91 63 92 64 93 72 94 65 95
REMARK SMILES IDX 66 96 70 97 73 98 67 99 68 100 71 101 69 102
REMARK H PARENT 17 14 93 55 61 66
REMARK Flexibility Score: inf
ROOT
ATOM      1  C   UNL A   1      36.053  21.432  24.577  1.00  0.00     0.202 C 
ENDROOT
BRANCH   1   2
ATOM      2  C   UNL A   1      36.601  22.694  23.893  1.00  0.00     0.261 C 
BRANCH   2   3
ATOM      3  O   UNL A   1      35.612  23.490  23.235  1.00  0.00    -0.463 OA
BRANCH   3   4
ATOM      4  C   UNL A   1      34.807  24.182  24.096  1.00  0.00     0.310 C 
ATOM      5  O   UNL A   1      35.153  24.568  25.205  1.00  0.00    -0.252 OA
BRANCH   4   6
ATOM      6  C   UNL A   1      33.466  24.484  23.447  1.00  0.00     0.116 C 
ATOM      7  C   UNL A   1      32.353  24.554  24.530  1.00  0.00     0.097 C 
ATOM      8  C   UNL A   1      32.075  23.145  25.105  1.00  0.00     0.041 C 
ATOM      9  C   UNL A   1      32.222  22.008  24.139  1.00  0.00    -0.030 C 
ATOM     10  C   UNL A   1      33.157  23.460  22.349  1.00  0.00     0.043 C 
ATOM     11  C   UNL A   1      32.676  22.150  22.890  1.00  0.00    -0.030 C 
BRANCH   7  12
ATOM     12  C   UNL A   1      31.126  25.290  23.963  1.00  0.00     0.228 C 
ATOM     13  N   UNL A   1      30.782  26.560  24.327  1.00  0.00    -0.323 N 
ATOM     14  H   UNL A   1      29.910  26.862  23.985  1.00  0.00     0.170 HD
ATOM     15  O   UNL A   1      30.388  24.748  23.131  1.00  0.00    -0.274 OA
BRANCH  13  16
ATOM     16  C   UNL A   1      31.464  27.508  25.105  1.00  0.00     0.083 A 
ATOM     17  C   UNL A   1      32.157  28.578  24.506  1.00  0.00     0.144 A 
ATOM     18  C   UNL A   1      32.543  29.671  25.304  1.00  0.00     0.079 A 
ATOM     19  C   UNL A   1      32.315  29.682  26.684  1.00  0.00     0.090 A 
ATOM     20  C   UNL A   1      31.367  27.455  26.499  1.00  0.00     0.032 A 
ATOM     21  C   UNL A   1      31.787  28.531  27.279  1.00  0.00     0.033 A 
BRANCH  17  22
ATOM     22  O   UNL A   1      32.334  28.789  23.163  1.00  0.00    -0.494 OA
ATOM     23  C   UNL A   1      33.362  28.052  22.513  1.00  0.00     0.278 C 
ENDBRANCH  17  22
BRANCH  19  24
ATOM     24  N   UNL A   1      32.612  30.825  27.458  1.00  0.00    -0.150 NA
ATOM     25  N   UNL A   1      33.799  31.171  27.248  1.00  0.00    -0.151 NA
BRANCH  25  26
ATOM     26  C   UNL A   1      34.102  32.400  27.857  1.00  0.00     0.086 A 
ATOM     27  C   UNL A   1      35.373  32.595  28.414  1.00  0.00     0.030 A 
ATOM     28  C   UNL A   1      33.137  33.400  28.007  1.00  0.00     0.030 A 
ATOM     29  C   UNL A   1      35.682  33.778  29.089  1.00  0.00     0.002 A 
ATOM     30  C   UNL A   1      33.443  34.585  28.682  1.00  0.00     0.002 A 
ATOM     31  C   UNL A   1      34.715  34.773  29.222  1.00  0.00     0.000 A 
ENDBRANCH  25  26
ENDBRANCH  19  24
ENDBRANCH  13  16
ENDBRANCH   7  12
ENDBRANCH   4   6
ENDBRANCH   3   4
ENDBRANCH   2   3
ENDBRANCH   1   2
BRANCH   1  32
ATOM     32  O   UNL A   1      36.924  20.643  25.376  1.00  0.00    -0.374 OA
BRANCH  32  33
ATOM     33  C   UNL A   1      38.330  20.881  25.322  1.00  0.00     0.202 C 
BRANCH  33  34
ATOM     34  C   UNL A   1      39.289  19.689  25.401  1.00  0.00     0.261 C 
BRANCH  34  35
ATOM     35  O   UNL A   1      40.180  19.777  26.528  1.00  0.00    -0.460 OA
BRANCH  35  36
ATOM     36  C   UNL A   1      41.490  19.622  26.227  1.00  0.00     0.338 C 
ATOM     37  O   UNL A   1      42.036  18.639  25.742  1.00  0.00    -0.246 OA
BRANCH  36  38
ATOM     38  C   UNL A   1      42.195  20.899  26.396  1.00  0.00     0.060 A 
ATOM     39  C   UNL A   1      42.502  21.317  27.699  1.00  0.00     0.016 A 
ATOM     40  C   UNL A   1      42.435  21.730  25.303  1.00  0.00     0.016 A 
ATOM     41  C   UNL A   1      43.010  22.594  27.917  1.00  0.00     0.010 A 
ATOM     42  C   UNL A   1      42.930  23.016  25.524  1.00  0.00     0.010 A 
ATOM     43  C   UNL A   1      43.182  23.465  26.835  1.00  0.00    -0.014 A 
BRANCH  43  44
ATOM     44  C   UNL A   1      43.445  24.901  27.081  1.00  0.00     0.031 A 
ATOM     45  C   UNL A   1      44.821  25.435  26.797  1.00  0.00     0.074 A 
ATOM     46  C   UNL A   1      42.478  25.709  27.547  1.00  0.00     0.049 A 
ATOM     47  N   UNL A   1      45.318  26.622  27.034  1.00  0.00    -0.248 NA
ATOM     48  C   UNL A   1      45.767  24.502  26.163  1.00  0.00     0.031 C 
ATOM     49  C   UNL A   1      41.096  25.312  27.805  1.00  0.00     0.029 A 
ATOM     50  N   UNL A   1      42.522  27.033  27.902  1.00  0.00    -0.354 N 
ATOM     51  C   UNL A   1      46.635  26.571  26.599  1.00  0.00     0.074 A 
ATOM     52  C   UNL A   1      46.869  25.236  26.095  1.00  0.00     0.031 C 
ATOM     53  C   UNL A   1      40.426  26.368  28.299  1.00  0.00     0.029 A 
ATOM     54  C   UNL A   1      41.342  27.499  28.428  1.00  0.00     0.049 A 
ATOM     55  H   UNL A   1      43.323  27.596  27.791  1.00  0.00     0.167 HD
ATOM     56  C   UNL A   1      47.565  27.554  26.620  1.00  0.00     0.037 A 
ATOM     57  C   UNL A   1      41.054  28.694  28.979  1.00  0.00     0.037 A 
ATOM     58  C   UNL A   1      47.319  28.883  27.109  1.00  0.00     0.049 A 
ATOM     59  C   UNL A   1      42.129  29.749  29.051  1.00  0.00     0.074 A 
ATOM     60  C   UNL A   1      48.186  29.961  27.152  1.00  0.00     0.029 A 
ATOM     61  N   UNL A   1      46.115  29.315  27.645  1.00  0.00    -0.354 N 
ATOM     62  N   UNL A   1      43.366  29.702  28.620  1.00  0.00    -0.248 NA
ATOM     63  C   UNL A   1      41.767  31.023  29.689  1.00  0.00     0.031 C 
ATOM     64  C   UNL A   1      47.522  31.030  27.760  1.00  0.00     0.029 A 
ATOM     65  C   UNL A   1      46.223  30.636  28.043  1.00  0.00     0.049 A 
ATOM     66  H   UNL A   1      45.305  28.763  27.730  1.00  0.00     0.167 HD
ATOM     67  C   UNL A   1      43.915  30.949  28.893  1.00  0.00     0.074 A 
ATOM     68  C   UNL A   1      42.875  31.733  29.527  1.00  0.00     0.031 C 
ATOM     69  C   UNL A   1      45.164  31.407  28.640  1.00  0.00     0.037 A 
BRANCH  56  70
ATOM     70  C   UNL A   1      48.943  27.227  26.128  1.00  0.00     0.064 A 
ATOM     71  C   UNL A   1      49.954  26.789  26.995  1.00  0.00     0.173 A 
ATOM     72  C   UNL A   1      49.236  27.296  24.757  1.00  0.00     0.173 A 
ATOM     73  F   UNL A   1      49.727  26.719  28.315  1.00  0.00    -0.203 F 
ATOM     74  C   UNL A   1      51.213  26.444  26.509  1.00  0.00     0.198 A 
ATOM     75  C   UNL A   1      50.486  26.925  24.271  1.00  0.00     0.198 A 
ATOM     76  F   UNL A   1      48.302  27.707  23.886  1.00  0.00    -0.203 F 
ATOM     77  F   UNL A   1      52.175  26.059  27.358  1.00  0.00    -0.200 F 
ATOM     78  C   UNL A   1      51.475  26.503  25.147  1.00  0.00     0.200 A 
ATOM     79  F   UNL A   1      50.733  26.972  22.955  1.00  0.00    -0.200 F 
ATOM     80  F   UNL A   1      52.681  26.156  24.680  1.00  0.00    -0.200 F 
ENDBRANCH  56  70
BRANCH  57  81
ATOM     81  C   UNL A   1      39.698  28.959  29.529  1.00  0.00     0.064 A 
ATOM     82  C   UNL A   1      39.451  28.887  30.907  1.00  0.00     0.173 A 
ATOM     83  C   UNL A   1      38.613  29.247  28.688  1.00  0.00     0.173 A 
ATOM     84  F   UNL A   1      40.451  28.589  31.751  1.00  0.00    -0.203 F 
ATOM     85  C   UNL A   1      38.167  29.063  31.420  1.00  0.00     0.198 A 
ATOM     86  C   UNL A   1      37.335  29.454  29.204  1.00  0.00     0.198 A 
ATOM     87  F   UNL A   1      38.793  29.326  27.361  1.00  0.00    -0.203 F 
ATOM     88  F   UNL A   1      37.950  28.928  32.735  1.00  0.00    -0.200 F 
ATOM     89  C   UNL A   1      37.112  29.350  30.568  1.00  0.00     0.200 A 
ATOM     90  F   UNL A   1      36.320  29.740  28.378  1.00  0.00    -0.200 F 
ATOM     91  F   UNL A   1      35.875  29.512  31.061  1.00  0.00    -0.200 F 
ENDBRANCH  57  81
BRANCH  69  92
ATOM     92  C   UNL A   1      45.463  32.839  28.981  1.00  0.00     0.064 A 
ATOM     93  C   UNL A   1      46.068  33.200  30.192  1.00  0.00     0.173 A 
ATOM     94  C   UNL A   1      45.196  33.853  28.049  1.00  0.00     0.173 A 
ATOM     95  F   UNL A   1      46.331  32.268  31.120  1.00  0.00    -0.203 F 
ATOM     96  C   UNL A   1      46.380  34.529  30.466  1.00  0.00     0.198 A 
ATOM     97  C   UNL A   1      45.536  35.176  28.313  1.00  0.00     0.198 A 
ATOM     98  F   UNL A   1      44.627  33.557  26.871  1.00  0.00    -0.203 F 
ATOM     99  F   UNL A   1      46.923  34.859  31.646  1.00  0.00    -0.200 F 
ATOM    100  C   UNL A   1      46.123  35.514  29.523  1.00  0.00     0.200 A 
ATOM    101  F   UNL A   1      45.302  36.123  27.394  1.00  0.00    -0.200 F 
ATOM    102  F   UNL A   1      46.436  36.791  29.783  1.00  0.00    -0.200 F 
ENDBRANCH  69  92
ENDBRANCH  43  44
ENDBRANCH  36  38
ENDBRANCH  35  36
ENDBRANCH  34  35
ENDBRANCH  33  34
ENDBRANCH  32  33
ENDBRANCH   1  32
TORSDOF 19
ENDMDL
