MODEL 1
REMARK VINA RESULT:     -10.5      0.000      0.000
REMARK SMILES CC[C@@H](C)c1ccccc1OCC(C)(C)C(=O)OCCOCCOC(=O)c1ccc(-c2c3nc(c(-c4c(F)c(F)c(F)c(F)c4F)c4ccc([nH]4)c(-c4c(F)c(F)c(F)c(F)c4F)c4nc(c(-c5c(F)c(F)c(F)c(F)c5F)c5ccc2[nH]5)C=C4)C=C3)cc1
REMARK SMILES IDX 19 1 18 2 16 3 17 4 13 5 14 6 15 7 12 8 11 9 10 10 5 11 6 12
REMARK SMILES IDX 7 13 9 14 8 15 3 16 4 17 2 18 1 19 20 20 21 21 22 22 23 23
REMARK SMILES IDX 24 24 25 25 26 26 27 27 28 28 89 29 29 30 88 31 30 32 31 33
REMARK SMILES IDX 32 34 82 35 33 36 87 37 81 38 83 39 34 40 86 41 80 42 79 43
REMARK SMILES IDX 35 45 67 46 47 47 66 48 48 49 51 50 65 51 84 52 49 53 50 54
REMARK SMILES IDX 64 56 85 57 52 58 36 59 37 60 45 61 38 62 39 63 43 64 46 65
REMARK SMILES IDX 40 66 41 67 44 68 42 69 68 70 69 71 77 72 70 73 71 74 75 75
REMARK SMILES IDX 78 76 72 77 73 78 76 79 74 80 53 81 54 82 62 83 55 84 56 85
REMARK SMILES IDX 60 86 63 87 57 88 58 89 61 90 59 91
REMARK H PARENT 83 44 51 55
REMARK Flexibility Score: inf
ROOT
ATOM      1  C   UNL A   1      32.409  28.015  25.620  1.00  0.00     0.261 C 
ENDROOT
BRANCH   1   2
ATOM      2  O   UNL A   1      32.363  27.136  24.487  1.00  0.00    -0.463 OA
BRANCH   2   3
ATOM      3  C   UNL A   1      31.176  26.508  24.254  1.00  0.00     0.315 C 
ATOM      4  O   UNL A   1      30.126  27.083  24.008  1.00  0.00    -0.251 OA
BRANCH   3   5
ATOM      5  C   UNL A   1      31.333  24.995  24.379  1.00  0.00     0.096 C 
ATOM      6  C   UNL A   1      30.328  24.395  23.392  1.00  0.00     0.027 C 
ATOM      7  C   UNL A   1      30.971  24.491  25.800  1.00  0.00     0.027 C 
BRANCH   5   8
ATOM      8  C   UNL A   1      32.831  24.632  24.192  1.00  0.00     0.247 C 
BRANCH   8   9
ATOM      9  O   UNL A   1      33.240  23.623  23.276  1.00  0.00    -0.492 OA
BRANCH   9  10
ATOM     10  C   UNL A   1      33.582  22.403  23.771  1.00  0.00     0.122 A 
ATOM     11  C   UNL A   1      34.802  22.028  24.358  1.00  0.00    -0.003 A 
ATOM     12  C   UNL A   1      34.852  20.733  24.931  1.00  0.00     0.008 A 
ATOM     13  C   UNL A   1      33.786  19.833  24.842  1.00  0.00     0.001 A 
ATOM     14  C   UNL A   1      32.543  21.468  23.616  1.00  0.00     0.047 A 
ATOM     15  C   UNL A   1      32.638  20.190  24.151  1.00  0.00     0.004 A 
BRANCH  11  16
ATOM     16  C   UNL A   1      36.100  22.841  24.430  1.00  0.00     0.019 C 
ATOM     17  C   UNL A   1      36.762  22.990  23.052  1.00  0.00     0.013 C 
BRANCH  16  18
ATOM     18  C   UNL A   1      37.055  22.513  25.609  1.00  0.00     0.005 C 
ATOM     19  C   UNL A   1      37.887  23.675  26.145  1.00  0.00     0.004 C 
ENDBRANCH  16  18
ENDBRANCH  11  16
ENDBRANCH   9  10
ENDBRANCH   8   9
ENDBRANCH   5   8
ENDBRANCH   3   5
ENDBRANCH   2   3
ENDBRANCH   1   2
BRANCH   1  20
ATOM     20  C   UNL A   1      32.320  29.476  25.178  1.00  0.00     0.202 C 
BRANCH  20  21
ATOM     21  O   UNL A   1      32.698  30.452  26.146  1.00  0.00    -0.374 OA
BRANCH  21  22
ATOM     22  C   UNL A   1      31.685  31.319  26.656  1.00  0.00     0.202 C 
BRANCH  22  23
ATOM     23  C   UNL A   1      32.090  32.782  26.867  1.00  0.00     0.261 C 
BRANCH  23  24
ATOM     24  O   UNL A   1      32.786  32.971  28.116  1.00  0.00    -0.460 OA
BRANCH  24  25
ATOM     25  C   UNL A   1      33.879  33.764  28.042  1.00  0.00     0.338 C 
ATOM     26  O   UNL A   1      33.913  34.981  27.926  1.00  0.00    -0.246 OA
BRANCH  25  27
ATOM     27  C   UNL A   1      35.099  32.978  28.286  1.00  0.00     0.060 A 
ATOM     28  C   UNL A   1      34.942  31.642  28.674  1.00  0.00     0.016 A 
ATOM     29  C   UNL A   1      36.360  33.577  28.282  1.00  0.00     0.016 A 
ATOM     30  C   UNL A   1      36.042  30.911  29.113  1.00  0.00     0.010 A 
ATOM     31  C   UNL A   1      37.463  32.844  28.736  1.00  0.00     0.010 A 
ATOM     32  C   UNL A   1      37.299  31.523  29.193  1.00  0.00    -0.014 A 
BRANCH  32  33
ATOM     33  C   UNL A   1      38.387  30.834  29.926  1.00  0.00     0.031 A 
ATOM     34  C   UNL A   1      38.610  31.169  31.375  1.00  0.00     0.074 A 
ATOM     35  C   UNL A   1      39.127  29.884  29.330  1.00  0.00     0.049 A 
ATOM     36  N   UNL A   1      39.501  30.700  32.212  1.00  0.00    -0.248 NA
ATOM     37  C   UNL A   1      37.700  32.166  31.964  1.00  0.00     0.031 C 
ATOM     38  C   UNL A   1      38.967  29.435  27.949  1.00  0.00     0.029 A 
ATOM     39  N   UNL A   1      40.160  29.124  29.816  1.00  0.00    -0.354 N 
ATOM     40  C   UNL A   1      39.261  31.342  33.419  1.00  0.00     0.074 A 
ATOM     41  C   UNL A   1      38.159  32.256  33.203  1.00  0.00     0.031 C 
ATOM     42  C   UNL A   1      39.880  28.481  27.693  1.00  0.00     0.029 A 
ATOM     43  C   UNL A   1      40.704  28.275  28.884  1.00  0.00     0.049 A 
ATOM     44  H   UNL A   1      40.482  29.182  30.745  1.00  0.00     0.167 HD
ATOM     45  C   UNL A   1      39.896  31.178  34.604  1.00  0.00     0.037 A 
ATOM     46  C   UNL A   1      41.759  27.444  28.979  1.00  0.00     0.037 A 
ATOM     47  C   UNL A   1      40.990  30.269  34.816  1.00  0.00     0.049 A 
ATOM     48  C   UNL A   1      42.500  27.339  30.287  1.00  0.00     0.074 A 
ATOM     49  C   UNL A   1      41.694  30.022  35.982  1.00  0.00     0.029 A 
ATOM     50  N   UNL A   1      41.543  29.460  33.835  1.00  0.00    -0.354 N 
ATOM     51  N   UNL A   1      42.258  27.938  31.427  1.00  0.00    -0.248 NA
ATOM     52  C   UNL A   1      43.663  26.439  30.319  1.00  0.00     0.031 C 
ATOM     53  C   UNL A   1      42.703  29.097  35.695  1.00  0.00     0.029 A 
ATOM     54  C   UNL A   1      42.598  28.732  34.362  1.00  0.00     0.049 A 
ATOM     55  H   UNL A   1      41.233  29.410  32.902  1.00  0.00     0.167 HD
ATOM     56  C   UNL A   1      43.217  27.471  32.317  1.00  0.00     0.074 A 
ATOM     57  C   UNL A   1      44.040  26.530  31.586  1.00  0.00     0.031 C 
ATOM     58  C   UNL A   1      43.401  27.793  33.621  1.00  0.00     0.037 A 
BRANCH  45  59
ATOM     59  C   UNL A   1      39.439  32.023  35.755  1.00  0.00     0.064 A 
ATOM     60  C   UNL A   1      39.953  33.310  35.975  1.00  0.00     0.173 A 
ATOM     61  C   UNL A   1      38.451  31.552  36.633  1.00  0.00     0.173 A 
ATOM     62  F   UNL A   1      40.910  33.800  35.172  1.00  0.00    -0.203 F 
ATOM     63  C   UNL A   1      39.510  34.085  37.044  1.00  0.00     0.198 A 
ATOM     64  C   UNL A   1      37.992  32.339  37.685  1.00  0.00     0.198 A 
ATOM     65  F   UNL A   1      37.925  30.329  36.464  1.00  0.00    -0.203 F 
ATOM     66  F   UNL A   1      40.045  35.294  37.260  1.00  0.00    -0.200 F 
ATOM     67  C   UNL A   1      38.526  33.601  37.894  1.00  0.00     0.200 A 
ATOM     68  F   UNL A   1      37.034  31.875  38.499  1.00  0.00    -0.200 F 
ATOM     69  F   UNL A   1      38.096  34.351  38.919  1.00  0.00    -0.200 F 
ENDBRANCH  45  59
BRANCH  46  70
ATOM     70  C   UNL A   1      42.190  26.655  27.796  1.00  0.00     0.064 A 
ATOM     71  C   UNL A   1      43.178  27.133  26.926  1.00  0.00     0.173 A 
ATOM     72  C   UNL A   1      41.610  25.411  27.507  1.00  0.00     0.173 A 
ATOM     73  F   UNL A   1      43.743  28.328  27.147  1.00  0.00    -0.203 F 
ATOM     74  C   UNL A   1      43.560  26.404  25.802  1.00  0.00     0.198 A 
ATOM     75  C   UNL A   1      42.011  24.670  26.397  1.00  0.00     0.198 A 
ATOM     76  F   UNL A   1      40.656  24.911  28.307  1.00  0.00    -0.203 F 
ATOM     77  F   UNL A   1      44.477  26.902  24.962  1.00  0.00    -0.200 F 
ATOM     78  C   UNL A   1      42.981  25.170  25.542  1.00  0.00     0.200 A 
ATOM     79  F   UNL A   1      41.456  23.475  26.156  1.00  0.00    -0.200 F 
ATOM     80  F   UNL A   1      43.350  24.467  24.462  1.00  0.00    -0.200 F 
ENDBRANCH  46  70
BRANCH  58  81
ATOM     81  C   UNL A   1      44.513  27.101  34.352  1.00  0.00     0.064 A 
ATOM     82  C   UNL A   1      44.321  25.862  34.980  1.00  0.00     0.173 A 
ATOM     83  C   UNL A   1      45.799  27.663  34.385  1.00  0.00     0.173 A 
ATOM     84  F   UNL A   1      43.107  25.292  34.988  1.00  0.00    -0.203 F 
ATOM     85  C   UNL A   1      45.371  25.220  35.631  1.00  0.00     0.198 A 
ATOM     86  C   UNL A   1      46.852  27.005  35.013  1.00  0.00     0.198 A 
ATOM     87  F   UNL A   1      46.037  28.843  33.794  1.00  0.00    -0.203 F 
ATOM     88  F   UNL A   1      45.155  24.056  36.259  1.00  0.00    -0.200 F 
ATOM     89  C   UNL A   1      46.636  25.788  35.641  1.00  0.00     0.200 A 
ATOM     90  F   UNL A   1      48.077  27.549  35.011  1.00  0.00    -0.200 F 
ATOM     91  F   UNL A   1      47.647  25.163  36.261  1.00  0.00    -0.200 F 
ENDBRANCH  58  81
ENDBRANCH  32  33
ENDBRANCH  25  27
ENDBRANCH  24  25
ENDBRANCH  23  24
ENDBRANCH  22  23
ENDBRANCH  21  22
ENDBRANCH  20  21
ENDBRANCH   1  20
TORSDOF 19
ENDMDL
MODEL 2
REMARK VINA RESULT:     -10.4      4.198     10.277
REMARK SMILES CC[C@@H](C)c1ccccc1OCC(C)(C)C(=O)OCCOCCOC(=O)c1ccc(-c2c3nc(c(-c4c(F)c(F)c(F)c(F)c4F)c4ccc([nH]4)c(-c4c(F)c(F)c(F)c(F)c4F)c4nc(c(-c5c(F)c(F)c(F)c(F)c5F)c5ccc2[nH]5)C=C4)C=C3)cc1
REMARK SMILES IDX 19 1 18 2 16 3 17 4 13 5 14 6 15 7 12 8 11 9 10 10 5 11 6 12
REMARK SMILES IDX 7 13 9 14 8 15 3 16 4 17 2 18 1 19 20 20 21 21 22 22 23 23
REMARK SMILES IDX 24 24 25 25 26 26 27 27 28 28 89 29 29 30 88 31 30 32 31 33
REMARK SMILES IDX 32 34 82 35 33 36 87 37 81 38 83 39 34 40 86 41 80 42 79 43
REMARK SMILES IDX 35 45 67 46 47 47 66 48 48 49 51 50 65 51 84 52 49 53 50 54
REMARK SMILES IDX 64 56 85 57 52 58 36 59 37 60 45 61 38 62 39 63 43 64 46 65
REMARK SMILES IDX 40 66 41 67 44 68 42 69 68 70 69 71 77 72 70 73 71 74 75 75
REMARK SMILES IDX 78 76 72 77 73 78 76 79 74 80 53 81 54 82 62 83 55 84 56 85
REMARK SMILES IDX 60 86 63 87 57 88 58 89 61 90 59 91
REMARK H PARENT 83 44 51 55
REMARK Flexibility Score: inf
ROOT
ATOM      1  C   UNL A   1      34.364  23.048  26.341  1.00  0.00     0.261 C 
ENDROOT
BRANCH   1   2
ATOM      2  O   UNL A   1      33.393  23.851  25.654  1.00  0.00    -0.463 OA
BRANCH   2   3
ATOM      3  C   UNL A   1      32.168  23.956  26.243  1.00  0.00     0.315 C 
ATOM      4  O   UNL A   1      31.891  23.509  27.346  1.00  0.00    -0.251 OA
BRANCH   3   5
ATOM      5  C   UNL A   1      31.188  24.677  25.322  1.00  0.00     0.096 C 
ATOM      6  C   UNL A   1      29.907  24.854  26.143  1.00  0.00     0.027 C 
ATOM      7  C   UNL A   1      30.844  23.832  24.068  1.00  0.00     0.027 C 
BRANCH   5   8
ATOM      8  C   UNL A   1      31.872  25.957  24.769  1.00  0.00     0.247 C 
BRANCH   8   9
ATOM      9  O   UNL A   1      31.109  27.090  24.367  1.00  0.00    -0.492 OA
BRANCH   9  10
ATOM     10  C   UNL A   1      31.412  28.297  24.914  1.00  0.00     0.122 A 
ATOM     11  C   UNL A   1      30.824  29.540  24.627  1.00  0.00    -0.003 A 
ATOM     12  C   UNL A   1      31.220  30.627  25.445  1.00  0.00     0.008 A 
ATOM     13  C   UNL A   1      32.209  30.505  26.426  1.00  0.00     0.001 A 
ATOM     14  C   UNL A   1      32.461  28.198  25.846  1.00  0.00     0.047 A 
ATOM     15  C   UNL A   1      32.857  29.292  26.605  1.00  0.00     0.004 A 
BRANCH  11  16
ATOM     16  C   UNL A   1      29.823  29.872  23.514  1.00  0.00     0.019 C 
ATOM     17  C   UNL A   1      30.371  29.518  22.123  1.00  0.00     0.013 C 
BRANCH  16  18
ATOM     18  C   UNL A   1      29.093  31.237  23.627  1.00  0.00     0.005 C 
ATOM     19  C   UNL A   1      27.568  31.185  23.652  1.00  0.00     0.004 C 
ENDBRANCH  16  18
ENDBRANCH  11  16
ENDBRANCH   9  10
ENDBRANCH   8   9
ENDBRANCH   5   8
ENDBRANCH   3   5
ENDBRANCH   2   3
ENDBRANCH   1   2
BRANCH   1  20
ATOM     20  C   UNL A   1      35.447  22.561  25.377  1.00  0.00     0.202 C 
BRANCH  20  21
ATOM     21  O   UNL A   1      36.342  21.573  25.882  1.00  0.00    -0.374 OA
BRANCH  21  22
ATOM     22  C   UNL A   1      36.617  20.436  25.064  1.00  0.00     0.202 C 
BRANCH  22  23
ATOM     23  C   UNL A   1      38.067  19.939  25.060  1.00  0.00     0.261 C 
BRANCH  23  24
ATOM     24  O   UNL A   1      39.003  21.015  25.271  1.00  0.00    -0.460 OA
BRANCH  24  25
ATOM     25  C   UNL A   1      39.849  20.835  26.311  1.00  0.00     0.338 C 
ATOM     26  O   UNL A   1      40.437  19.810  26.628  1.00  0.00    -0.246 OA
BRANCH  25  27
ATOM     27  C   UNL A   1      40.128  22.120  26.972  1.00  0.00     0.060 A 
ATOM     28  C   UNL A   1      39.432  23.246  26.518  1.00  0.00     0.016 A 
ATOM     29  C   UNL A   1      41.154  22.245  27.910  1.00  0.00     0.016 A 
ATOM     30  C   UNL A   1      39.795  24.515  26.960  1.00  0.00     0.010 A 
ATOM     31  C   UNL A   1      41.527  23.522  28.345  1.00  0.00     0.010 A 
ATOM     32  C   UNL A   1      40.877  24.663  27.838  1.00  0.00    -0.014 A 
BRANCH  32  33
ATOM     33  C   UNL A   1      41.432  26.018  28.070  1.00  0.00     0.031 A 
ATOM     34  C   UNL A   1      42.803  26.338  27.542  1.00  0.00     0.074 A 
ATOM     35  C   UNL A   1      40.706  26.964  28.688  1.00  0.00     0.049 A 
ATOM     36  N   UNL A   1      43.491  27.449  27.630  1.00  0.00    -0.248 NA
ATOM     37  C   UNL A   1      43.492  25.262  26.810  1.00  0.00     0.031 C 
ATOM     38  C   UNL A   1      39.347  26.787  29.193  1.00  0.00     0.029 A 
ATOM     39  N   UNL A   1      41.015  28.266  28.993  1.00  0.00    -0.354 N 
ATOM     40  C   UNL A   1      44.687  27.205  26.969  1.00  0.00     0.074 A 
ATOM     41  C   UNL A   1      44.647  25.834  26.508  1.00  0.00     0.031 C 
ATOM     42  C   UNL A   1      38.939  27.939  29.756  1.00  0.00     0.029 A 
ATOM     43  C   UNL A   1      40.020  28.921  29.675  1.00  0.00     0.049 A 
ATOM     44  H   UNL A   1      41.869  28.689  28.746  1.00  0.00     0.167 HD
ATOM     45  C   UNL A   1      45.724  28.052  26.757  1.00  0.00     0.037 A 
ATOM     46  C   UNL A   1      39.996  30.164  30.191  1.00  0.00     0.037 A 
ATOM     47  C   UNL A   1      45.761  29.415  27.216  1.00  0.00     0.049 A 
ATOM     48  C   UNL A   1      41.194  31.061  30.012  1.00  0.00     0.074 A 
ATOM     49  C   UNL A   1      46.760  30.357  27.043  1.00  0.00     0.029 A 
ATOM     50  N   UNL A   1      44.753  30.028  27.944  1.00  0.00    -0.354 N 
ATOM     51  N   UNL A   1      42.315  30.829  29.373  1.00  0.00    -0.248 NA
ATOM     52  C   UNL A   1      41.122  32.395  30.626  1.00  0.00     0.031 C 
ATOM     53  C   UNL A   1      46.376  31.526  27.707  1.00  0.00     0.029 A 
ATOM     54  C   UNL A   1      45.117  31.329  28.253  1.00  0.00     0.049 A 
ATOM     55  H   UNL A   1      43.904  29.602  28.205  1.00  0.00     0.167 HD
ATOM     56  C   UNL A   1      43.068  31.990  29.486  1.00  0.00     0.074 A 
ATOM     57  C   UNL A   1      42.272  32.931  30.245  1.00  0.00     0.031 C 
ATOM     58  C   UNL A   1      44.308  32.254  29.004  1.00  0.00     0.037 A 
BRANCH  45  59
ATOM     59  C   UNL A   1      46.914  27.517  26.020  1.00  0.00     0.064 A 
ATOM     60  C   UNL A   1      47.068  27.698  24.637  1.00  0.00     0.173 A 
ATOM     61  C   UNL A   1      47.932  26.841  26.710  1.00  0.00     0.173 A 
ATOM     62  F   UNL A   1      46.115  28.324  23.929  1.00  0.00    -0.203 F 
ATOM     63  C   UNL A   1      48.186  27.203  23.970  1.00  0.00     0.198 A 
ATOM     64  C   UNL A   1      49.060  26.370  26.045  1.00  0.00     0.198 A 
ATOM     65  F   UNL A   1      47.834  26.645  28.035  1.00  0.00    -0.203 F 
ATOM     66  F   UNL A   1      48.291  27.350  22.642  1.00  0.00    -0.200 F 
ATOM     67  C   UNL A   1      49.183  26.546  24.675  1.00  0.00     0.200 A 
ATOM     68  F   UNL A   1      50.028  25.745  26.729  1.00  0.00    -0.200 F 
ATOM     69  F   UNL A   1      50.261  26.075  24.032  1.00  0.00    -0.200 F 
ENDBRANCH  45  59
BRANCH  46  70
ATOM     70  C   UNL A   1      38.803  30.632  30.942  1.00  0.00     0.064 A 
ATOM     71  C   UNL A   1      37.708  31.203  30.281  1.00  0.00     0.173 A 
ATOM     72  C   UNL A   1      38.742  30.528  32.340  1.00  0.00     0.173 A 
ATOM     73  F   UNL A   1      37.731  31.348  28.949  1.00  0.00    -0.203 F 
ATOM     74  C   UNL A   1      36.602  31.668  30.991  1.00  0.00     0.198 A 
ATOM     75  C   UNL A   1      37.625  30.968  33.046  1.00  0.00     0.198 A 
ATOM     76  F   UNL A   1      39.766  29.993  33.020  1.00  0.00    -0.203 F 
ATOM     77  F   UNL A   1      35.586  32.250  30.339  1.00  0.00    -0.200 F 
ATOM     78  C   UNL A   1      36.558  31.544  32.372  1.00  0.00     0.200 A 
ATOM     79  F   UNL A   1      37.583  30.838  34.379  1.00  0.00    -0.200 F 
ATOM     80  F   UNL A   1      35.494  31.988  33.054  1.00  0.00    -0.200 F 
ENDBRANCH  46  70
BRANCH  58  81
ATOM     81  C   UNL A   1      44.868  33.623  29.254  1.00  0.00     0.064 A 
ATOM     82  C   UNL A   1      44.612  34.692  28.384  1.00  0.00     0.173 A 
ATOM     83  C   UNL A   1      45.631  33.878  30.404  1.00  0.00     0.173 A 
ATOM     84  F   UNL A   1      43.900  34.495  27.264  1.00  0.00    -0.203 F 
ATOM     85  C   UNL A   1      45.118  35.963  28.646  1.00  0.00     0.198 A 
ATOM     86  C   UNL A   1      46.111  35.156  30.677  1.00  0.00     0.198 A 
ATOM     87  F   UNL A   1      45.898  32.891  31.272  1.00  0.00    -0.203 F 
ATOM     88  F   UNL A   1      44.896  36.962  27.779  1.00  0.00    -0.200 F 
ATOM     89  C   UNL A   1      45.859  36.195  29.795  1.00  0.00     0.200 A 
ATOM     90  F   UNL A   1      46.816  35.382  31.794  1.00  0.00    -0.200 F 
ATOM     91  F   UNL A   1      46.337  37.422  30.048  1.00  0.00    -0.200 F 
ENDBRANCH  58  81
ENDBRANCH  32  33
ENDBRANCH  25  27
ENDBRANCH  24  25
ENDBRANCH  23  24
ENDBRANCH  22  23
ENDBRANCH  21  22
ENDBRANCH  20  21
ENDBRANCH   1  20
TORSDOF 19
ENDMDL
MODEL 3
REMARK VINA RESULT:     -10.1      0.852      7.373
REMARK SMILES CC[C@@H](C)c1ccccc1OCC(C)(C)C(=O)OCCOCCOC(=O)c1ccc(-c2c3nc(c(-c4c(F)c(F)c(F)c(F)c4F)c4ccc([nH]4)c(-c4c(F)c(F)c(F)c(F)c4F)c4nc(c(-c5c(F)c(F)c(F)c(F)c5F)c5ccc2[nH]5)C=C4)C=C3)cc1
REMARK SMILES IDX 19 1 18 2 16 3 17 4 13 5 14 6 15 7 12 8 11 9 10 10 5 11 6 12
REMARK SMILES IDX 7 13 9 14 8 15 3 16 4 17 2 18 1 19 20 20 21 21 22 22 23 23
REMARK SMILES IDX 24 24 25 25 26 26 27 27 28 28 89 29 29 30 88 31 30 32 31 33
REMARK SMILES IDX 32 34 82 35 33 36 87 37 81 38 83 39 34 40 86 41 80 42 79 43
REMARK SMILES IDX 35 45 67 46 47 47 66 48 48 49 51 50 65 51 84 52 49 53 50 54
REMARK SMILES IDX 64 56 85 57 52 58 36 59 37 60 45 61 38 62 39 63 43 64 46 65
REMARK SMILES IDX 40 66 41 67 44 68 42 69 68 70 69 71 77 72 70 73 71 74 75 75
REMARK SMILES IDX 78 76 72 77 73 78 76 79 74 80 53 81 54 82 62 83 55 84 56 85
REMARK SMILES IDX 60 86 63 87 57 88 58 89 61 90 59 91
REMARK H PARENT 83 44 51 55
REMARK Flexibility Score: inf
ROOT
ATOM      1  C   UNL A   1      33.385  28.603  25.826  1.00  0.00     0.261 C 
ENDROOT
BRANCH   1   2
ATOM      2  O   UNL A   1      32.389  27.772  25.212  1.00  0.00    -0.463 OA
BRANCH   2   3
ATOM      3  C   UNL A   1      31.884  26.765  25.979  1.00  0.00     0.315 C 
ATOM      4  O   UNL A   1      31.000  26.906  26.811  1.00  0.00    -0.251 OA
BRANCH   3   5
ATOM      5  C   UNL A   1      32.597  25.449  25.679  1.00  0.00     0.096 C 
ATOM      6  C   UNL A   1      32.107  24.464  26.744  1.00  0.00     0.027 C 
ATOM      7  C   UNL A   1      34.136  25.580  25.817  1.00  0.00     0.027 C 
BRANCH   5   8
ATOM      8  C   UNL A   1      32.357  25.079  24.190  1.00  0.00     0.247 C 
BRANCH   8   9
ATOM      9  O   UNL A   1      33.292  24.291  23.462  1.00  0.00    -0.492 OA
BRANCH   9  10
ATOM     10  C   UNL A   1      33.485  23.001  23.847  1.00  0.00     0.122 A 
ATOM     11  C   UNL A   1      34.682  22.405  24.279  1.00  0.00    -0.003 A 
ATOM     12  C   UNL A   1      34.583  21.079  24.766  1.00  0.00     0.008 A 
ATOM     13  C   UNL A   1      33.386  20.358  24.738  1.00  0.00     0.001 A 
ATOM     14  C   UNL A   1      32.303  22.246  23.747  1.00  0.00     0.047 A 
ATOM     15  C   UNL A   1      32.247  20.932  24.194  1.00  0.00     0.004 A 
BRANCH  11  16
ATOM     16  C   UNL A   1      36.091  23.008  24.261  1.00  0.00     0.019 C 
ATOM     17  C   UNL A   1      36.740  22.912  22.872  1.00  0.00     0.013 C 
BRANCH  16  18
ATOM     18  C   UNL A   1      37.008  22.655  25.463  1.00  0.00     0.005 C 
ATOM     19  C   UNL A   1      37.617  23.834  26.215  1.00  0.00     0.004 C 
ENDBRANCH  16  18
ENDBRANCH  11  16
ENDBRANCH   9  10
ENDBRANCH   8   9
ENDBRANCH   5   8
ENDBRANCH   3   5
ENDBRANCH   2   3
ENDBRANCH   1   2
BRANCH   1  20
ATOM     20  C   UNL A   1      32.773  29.921  26.304  1.00  0.00     0.202 C 
BRANCH  20  21
ATOM     21  O   UNL A   1      31.569  30.328  25.659  1.00  0.00    -0.374 OA
BRANCH  21  22
ATOM     22  C   UNL A   1      31.090  31.650  25.905  1.00  0.00     0.202 C 
BRANCH  22  23
ATOM     23  C   UNL A   1      31.620  32.338  27.168  1.00  0.00     0.261 C 
BRANCH  23  24
ATOM     24  O   UNL A   1      32.734  33.208  26.878  1.00  0.00    -0.460 OA
BRANCH  24  25
ATOM     25  C   UNL A   1      33.315  33.765  27.964  1.00  0.00     0.338 C 
ATOM     26  O   UNL A   1      32.868  34.651  28.680  1.00  0.00    -0.246 OA
BRANCH  25  27
ATOM     27  C   UNL A   1      34.551  33.045  28.310  1.00  0.00     0.060 A 
ATOM     28  C   UNL A   1      34.421  31.762  28.855  1.00  0.00     0.016 A 
ATOM     29  C   UNL A   1      35.797  33.670  28.243  1.00  0.00     0.016 A 
ATOM     30  C   UNL A   1      35.534  31.116  29.387  1.00  0.00     0.010 A 
ATOM     31  C   UNL A   1      36.913  33.024  28.789  1.00  0.00     0.010 A 
ATOM     32  C   UNL A   1      36.775  31.764  29.401  1.00  0.00    -0.014 A 
BRANCH  32  33
ATOM     33  C   UNL A   1      37.872  31.195  30.219  1.00  0.00     0.031 A 
ATOM     34  C   UNL A   1      38.804  30.197  29.587  1.00  0.00     0.074 A 
ATOM     35  C   UNL A   1      38.073  31.601  31.484  1.00  0.00     0.049 A 
ATOM     36  N   UNL A   1      39.825  29.565  30.108  1.00  0.00    -0.248 NA
ATOM     37  C   UNL A   1      38.553  29.870  28.174  1.00  0.00     0.031 C 
ATOM     38  C   UNL A   1      37.270  32.602  32.183  1.00  0.00     0.029 A 
ATOM     39  N   UNL A   1      39.018  31.222  32.402  1.00  0.00    -0.354 N 
ATOM     40  C   UNL A   1      40.335  28.770  29.091  1.00  0.00     0.074 A 
ATOM     41  C   UNL A   1      39.496  28.974  27.929  1.00  0.00     0.031 C 
ATOM     42  C   UNL A   1      37.753  32.751  33.430  1.00  0.00     0.029 A 
ATOM     43  C   UNL A   1      38.877  31.836  33.622  1.00  0.00     0.049 A 
ATOM     44  H   UNL A   1      39.729  30.569  32.206  1.00  0.00     0.167 HD
ATOM     45  C   UNL A   1      41.412  27.949  29.120  1.00  0.00     0.037 A 
ATOM     46  C   UNL A   1      39.567  31.661  34.765  1.00  0.00     0.037 A 
ATOM     47  C   UNL A   1      42.245  27.747  30.276  1.00  0.00     0.049 A 
ATOM     48  C   UNL A   1      40.712  30.681  34.795  1.00  0.00     0.074 A 
ATOM     49  C   UNL A   1      43.365  26.945  30.404  1.00  0.00     0.029 A 
ATOM     50  N   UNL A   1      42.042  28.352  31.507  1.00  0.00    -0.354 N 
ATOM     51  N   UNL A   1      41.197  29.945  33.826  1.00  0.00    -0.248 NA
ATOM     52  C   UNL A   1      41.405  30.511  36.080  1.00  0.00     0.031 C 
ATOM     53  C   UNL A   1      43.813  27.029  31.726  1.00  0.00     0.029 A 
ATOM     54  C   UNL A   1      43.001  27.920  32.410  1.00  0.00     0.049 A 
ATOM     55  H   UNL A   1      41.323  28.994  31.711  1.00  0.00     0.167 HD
ATOM     56  C   UNL A   1      42.264  29.244  34.374  1.00  0.00     0.074 A 
ATOM     57  C   UNL A   1      42.363  29.653  35.759  1.00  0.00     0.031 C 
ATOM     58  C   UNL A   1      43.088  28.344  33.784  1.00  0.00     0.037 A 
BRANCH  45  59
ATOM     59  C   UNL A   1      41.733  27.185  27.871  1.00  0.00     0.064 A 
ATOM     60  C   UNL A   1      42.613  27.691  26.902  1.00  0.00     0.173 A 
ATOM     61  C   UNL A   1      41.179  25.914  27.654  1.00  0.00     0.173 A 
ATOM     62  F   UNL A   1      43.158  28.908  27.057  1.00  0.00    -0.203 F 
ATOM     63  C   UNL A   1      42.908  26.963  25.752  1.00  0.00     0.198 A 
ATOM     64  C   UNL A   1      41.496  25.178  26.515  1.00  0.00     0.198 A 
ATOM     65  F   UNL A   1      40.334  25.384  28.551  1.00  0.00    -0.203 F 
ATOM     66  F   UNL A   1      43.718  27.485  24.821  1.00  0.00    -0.200 F 
ATOM     67  C   UNL A   1      42.354  25.706  25.563  1.00  0.00     0.200 A 
ATOM     68  F   UNL A   1      40.968  23.959  26.339  1.00  0.00    -0.200 F 
ATOM     69  F   UNL A   1      42.644  25.004  24.458  1.00  0.00    -0.200 F 
ENDBRANCH  45  59
BRANCH  46  70
ATOM     70  C   UNL A   1      39.185  32.420  35.984  1.00  0.00     0.064 A 
ATOM     71  C   UNL A   1      38.292  31.885  36.921  1.00  0.00     0.173 A 
ATOM     72  C   UNL A   1      39.697  33.703  36.227  1.00  0.00     0.173 A 
ATOM     73  F   UNL A   1      37.755  30.673  36.719  1.00  0.00    -0.203 F 
ATOM     74  C   UNL A   1      37.913  32.610  38.049  1.00  0.00     0.198 A 
ATOM     75  C   UNL A   1      39.339  34.416  37.369  1.00  0.00     0.198 A 
ATOM     76  F   UNL A   1      40.552  34.261  35.358  1.00  0.00    -0.203 F 
ATOM     77  F   UNL A   1      37.024  32.094  38.909  1.00  0.00    -0.200 F 
ATOM     78  C   UNL A   1      38.442  33.873  38.276  1.00  0.00     0.200 A 
ATOM     79  F   UNL A   1      39.859  35.631  37.588  1.00  0.00    -0.200 F 
ATOM     80  F   UNL A   1      38.080  34.569  39.362  1.00  0.00    -0.200 F 
ENDBRANCH  46  70
BRANCH  58  81
ATOM     81  C   UNL A   1      44.188  27.762  34.622  1.00  0.00     0.064 A 
ATOM     82  C   UNL A   1      44.007  26.578  35.352  1.00  0.00     0.173 A 
ATOM     83  C   UNL A   1      45.452  28.371  34.657  1.00  0.00     0.173 A 
ATOM     84  F   UNL A   1      42.813  25.967  35.362  1.00  0.00    -0.203 F 
ATOM     85  C   UNL A   1      45.047  26.037  36.103  1.00  0.00     0.198 A 
ATOM     86  C   UNL A   1      46.497  27.812  35.386  1.00  0.00     0.198 A 
ATOM     87  F   UNL A   1      45.677  29.501  33.970  1.00  0.00    -0.203 F 
ATOM     88  F   UNL A   1      44.842  24.927  36.826  1.00  0.00    -0.200 F 
ATOM     89  C   UNL A   1      46.292  26.649  36.113  1.00  0.00     0.200 A 
ATOM     90  F   UNL A   1      47.702  28.397  35.384  1.00  0.00    -0.200 F 
ATOM     91  F   UNL A   1      47.293  26.120  36.830  1.00  0.00    -0.200 F 
ENDBRANCH  58  81
ENDBRANCH  32  33
ENDBRANCH  25  27
ENDBRANCH  24  25
ENDBRANCH  23  24
ENDBRANCH  22  23
ENDBRANCH  21  22
ENDBRANCH  20  21
ENDBRANCH   1  20
TORSDOF 19
ENDMDL
