MODEL 1
REMARK VINA RESULT:     -11.4      0.000      0.000
REMARK SMILES O=C(Cc1ccc(F)c(F)c1)NC1(C(=O)OCCOCCOC(=O)c2ccc(-c3c4nc(c(-c5c(F)c(F)c(F)c(F)c5F)c5ccc([nH]5)c(-c5c(F)c(F)c(F)c(F)c5F)c5nc(c(-c6c(F)c(F)c(F)c(F)c6F)c6ccc3[nH]6)C=C5)C=C4)cc2)CCCC1
REMARK SMILES IDX 18 1 17 2 16 3 14 4 15 5 13 6 88 7 91 8 89 9 90 10 12 11
REMARK SMILES IDX 1 12 2 13 3 15 4 16 5 17 11 18 6 19 9 20 7 21 10 22 8 23
REMARK SMILES IDX 19 24 20 25 21 26 22 27 23 28 24 29 25 30 26 31 87 32 27 33
REMARK SMILES IDX 86 34 28 35 29 36 30 37 80 38 31 39 85 40 79 41 81 42 32 43
REMARK SMILES IDX 84 44 78 45 77 46 33 48 65 49 45 50 64 51 46 52 49 53 63 54
REMARK SMILES IDX 82 55 47 56 48 57 62 59 83 60 50 61 34 62 35 63 43 64 36 65
REMARK SMILES IDX 37 66 41 67 44 68 38 69 39 70 42 71 40 72 66 73 67 74 75 75
REMARK SMILES IDX 68 76 69 77 73 78 76 79 70 80 71 81 74 82 72 83 51 84 52 85
REMARK SMILES IDX 60 86 53 87 54 88 58 89 61 90 55 91 56 92 59 93 57 94
REMARK H PARENT 12 14 81 47 49 58
REMARK Flexibility Score: inf
ROOT
ATOM      1  C   UNL A   1      33.206  29.680  25.901  1.00  0.00     0.202 C 
ENDROOT
BRANCH   1   2
ATOM      2  C   UNL A   1      33.035  28.743  27.099  1.00  0.00     0.261 C 
BRANCH   2   3
ATOM      3  O   UNL A   1      33.192  27.365  26.719  1.00  0.00    -0.461 OA
BRANCH   3   4
ATOM      4  C   UNL A   1      32.039  26.715  26.414  1.00  0.00     0.331 C 
ATOM      5  O   UNL A   1      30.929  27.033  26.837  1.00  0.00    -0.249 OA
BRANCH   4   6
ATOM      6  C   UNL A   1      32.219  25.540  25.417  1.00  0.00     0.138 C 
ATOM      7  C   UNL A   1      31.601  24.280  26.029  1.00  0.00     0.040 C 
ATOM      8  C   UNL A   1      33.675  25.135  25.129  1.00  0.00     0.040 C 
ATOM      9  C   UNL A   1      32.730  23.705  26.877  1.00  0.00     0.003 C 
ATOM     10  C   UNL A   1      34.002  23.993  26.093  1.00  0.00     0.003 C 
BRANCH   6  11
ATOM     11  N   UNL A   1      31.504  26.038  24.227  1.00  0.00    -0.340 N 
ATOM     12  O   UNL A   1      33.048  27.507  23.392  1.00  0.00    -0.275 OA
ATOM     13  C   UNL A   1      31.966  26.935  23.299  1.00  0.00     0.225 C 
ATOM     14  H   UNL A   1      30.595  25.687  24.083  1.00  0.00     0.164 HD
BRANCH  13  15
ATOM     15  C   UNL A   1      30.988  27.250  22.173  1.00  0.00     0.135 C 
BRANCH  15  16
ATOM     16  C   UNL A   1      29.952  28.309  22.495  1.00  0.00    -0.036 A 
ATOM     17  C   UNL A   1      28.753  27.959  23.141  1.00  0.00     0.007 A 
ATOM     18  C   UNL A   1      30.179  29.655  22.167  1.00  0.00     0.046 A 
ATOM     19  C   UNL A   1      27.796  28.933  23.439  1.00  0.00     0.043 A 
ATOM     20  C   UNL A   1      29.217  30.618  22.464  1.00  0.00     0.159 A 
ATOM     21  C   UNL A   1      28.032  30.260  23.095  1.00  0.00     0.158 A 
ATOM     22  F   UNL A   1      29.446  31.897  22.136  1.00  0.00    -0.204 F 
ATOM     23  F   UNL A   1      27.111  31.189  23.382  1.00  0.00    -0.204 F 
ENDBRANCH  15  16
ENDBRANCH  13  15
ENDBRANCH   6  11
ENDBRANCH   4   6
ENDBRANCH   3   4
ENDBRANCH   2   3
ENDBRANCH   1   2
BRANCH   1  24
ATOM     24  O   UNL A   1      32.079  30.485  25.560  1.00  0.00    -0.374 OA
BRANCH  24  25
ATOM     25  C   UNL A   1      31.451  31.226  26.607  1.00  0.00     0.202 C 
BRANCH  25  26
ATOM     26  C   UNL A   1      31.926  32.672  26.808  1.00  0.00     0.261 C 
BRANCH  26  27
ATOM     27  O   UNL A   1      32.725  32.829  27.996  1.00  0.00    -0.460 OA
BRANCH  27  28
ATOM     28  C   UNL A   1      33.813  33.621  27.847  1.00  0.00     0.338 C 
ATOM     29  O   UNL A   1      33.828  34.821  27.595  1.00  0.00    -0.246 OA
BRANCH  28  30
ATOM     30  C   UNL A   1      35.042  32.890  28.204  1.00  0.00     0.060 A 
ATOM     31  C   UNL A   1      34.896  31.568  28.645  1.00  0.00     0.016 A 
ATOM     32  C   UNL A   1      36.295  33.506  28.208  1.00  0.00     0.016 A 
ATOM     33  C   UNL A   1      35.996  30.873  29.143  1.00  0.00     0.010 A 
ATOM     34  C   UNL A   1      37.398  32.807  28.719  1.00  0.00     0.010 A 
ATOM     35  C   UNL A   1      37.245  31.503  29.222  1.00  0.00    -0.014 A 
BRANCH  35  36
ATOM     36  C   UNL A   1      38.345  30.841  29.967  1.00  0.00     0.031 A 
ATOM     37  C   UNL A   1      38.548  31.173  31.419  1.00  0.00     0.074 A 
ATOM     38  C   UNL A   1      39.117  29.914  29.374  1.00  0.00     0.049 A 
ATOM     39  N   UNL A   1      39.444  30.714  32.257  1.00  0.00    -0.248 NA
ATOM     40  C   UNL A   1      37.617  32.147  32.008  1.00  0.00     0.031 C 
ATOM     41  C   UNL A   1      38.986  29.471  27.989  1.00  0.00     0.029 A 
ATOM     42  N   UNL A   1      40.164  29.176  29.869  1.00  0.00    -0.354 N 
ATOM     43  C   UNL A   1      39.182  31.341  33.469  1.00  0.00     0.074 A 
ATOM     44  C   UNL A   1      38.064  32.234  33.253  1.00  0.00     0.031 C 
ATOM     45  C   UNL A   1      39.920  28.536  27.742  1.00  0.00     0.029 A 
ATOM     46  C   UNL A   1      40.731  28.336  28.943  1.00  0.00     0.049 A 
ATOM     47  H   UNL A   1      40.479  29.243  30.800  1.00  0.00     0.167 HD
ATOM     48  C   UNL A   1      39.811  31.178  34.656  1.00  0.00     0.037 A 
ATOM     49  C   UNL A   1      41.794  27.514  29.049  1.00  0.00     0.037 A 
ATOM     50  C   UNL A   1      40.919  30.286  34.875  1.00  0.00     0.049 A 
ATOM     51  C   UNL A   1      42.524  27.405  30.360  1.00  0.00     0.074 A 
ATOM     52  C   UNL A   1      41.609  30.043  36.050  1.00  0.00     0.029 A 
ATOM     53  N   UNL A   1      41.499  29.493  33.897  1.00  0.00    -0.354 N 
ATOM     54  N   UNL A   1      42.264  27.994  31.501  1.00  0.00    -0.248 NA
ATOM     55  C   UNL A   1      43.698  26.520  30.399  1.00  0.00     0.031 C 
ATOM     56  C   UNL A   1      42.637  29.137  35.772  1.00  0.00     0.029 A 
ATOM     57  C   UNL A   1      42.557  28.779  34.436  1.00  0.00     0.049 A 
ATOM     58  H   UNL A   1      41.203  29.445  32.959  1.00  0.00     0.167 HD
ATOM     59  C   UNL A   1      43.223  27.540  32.396  1.00  0.00     0.074 A 
ATOM     60  C   UNL A   1      44.069  26.616  31.669  1.00  0.00     0.031 C 
ATOM     61  C   UNL A   1      43.389  27.861  33.702  1.00  0.00     0.037 A 
BRANCH  48  62
ATOM     62  C   UNL A   1      39.327  31.989  35.820  1.00  0.00     0.064 A 
ATOM     63  C   UNL A   1      39.879  33.251  36.084  1.00  0.00     0.173 A 
ATOM     64  C   UNL A   1      38.370  31.487  36.714  1.00  0.00     0.173 A 
ATOM     65  F   UNL A   1      40.801  33.772  35.260  1.00  0.00    -0.203 F 
ATOM     66  C   UNL A   1      39.500  33.976  37.210  1.00  0.00     0.198 A 
ATOM     67  C   UNL A   1      37.977  32.226  37.827  1.00  0.00     0.198 A 
ATOM     68  F   UNL A   1      37.806  30.290  36.497  1.00  0.00    -0.203 F 
ATOM     69  F   UNL A   1      40.060  35.168  37.458  1.00  0.00    -0.200 F 
ATOM     70  C   UNL A   1      38.548  33.465  38.079  1.00  0.00     0.200 A 
ATOM     71  F   UNL A   1      37.042  31.739  38.656  1.00  0.00    -0.200 F 
ATOM     72  F   UNL A   1      38.180  34.166  39.159  1.00  0.00    -0.200 F 
ENDBRANCH  48  62
BRANCH  49  73
ATOM     73  C   UNL A   1      42.230  26.726  27.867  1.00  0.00     0.064 A 
ATOM     74  C   UNL A   1      43.181  27.233  26.968  1.00  0.00     0.173 A 
ATOM     75  C   UNL A   1      41.696  25.457  27.607  1.00  0.00     0.173 A 
ATOM     76  F   UNL A   1      43.722  28.442  27.175  1.00  0.00    -0.203 F 
ATOM     77  C   UNL A   1      43.565  26.508  25.843  1.00  0.00     0.198 A 
ATOM     78  C   UNL A   1      42.099  24.723  26.494  1.00  0.00     0.198 A 
ATOM     79  F   UNL A   1      40.805  24.920  28.452  1.00  0.00    -0.203 F 
ATOM     80  F   UNL A   1      44.452  27.029  24.984  1.00  0.00    -0.200 F 
ATOM     81  C   UNL A   1      43.026  25.252  25.607  1.00  0.00     0.200 A 
ATOM     82  F   UNL A   1      41.596  23.498  26.283  1.00  0.00    -0.200 F 
ATOM     83  F   UNL A   1      43.404  24.550  24.531  1.00  0.00    -0.200 F 
ENDBRANCH  49  73
BRANCH  61  84
ATOM     84  C   UNL A   1      44.514  27.206  34.448  1.00  0.00     0.064 A 
ATOM     85  C   UNL A   1      44.315  25.981  35.102  1.00  0.00     0.173 A 
ATOM     86  C   UNL A   1      45.760  27.833  34.587  1.00  0.00     0.173 A 
ATOM     87  F   UNL A   1      43.138  25.346  35.006  1.00  0.00    -0.203 F 
ATOM     88  C   UNL A   1      45.320  25.416  35.884  1.00  0.00     0.198 A 
ATOM     89  C   UNL A   1      46.770  27.254  35.350  1.00  0.00     0.198 A 
ATOM     90  F   UNL A   1      46.000  29.000  33.971  1.00  0.00    -0.203 F 
ATOM     91  F   UNL A   1      45.096  24.262  36.529  1.00  0.00    -0.200 F 
ATOM     92  C   UNL A   1      46.545  26.051  36.006  1.00  0.00     0.200 A 
ATOM     93  F   UNL A   1      47.961  27.858  35.452  1.00  0.00    -0.200 F 
ATOM     94  F   UNL A   1      47.513  25.505  36.756  1.00  0.00    -0.200 F 
ENDBRANCH  61  84
ENDBRANCH  35  36
ENDBRANCH  28  30
ENDBRANCH  27  28
ENDBRANCH  26  27
ENDBRANCH  25  26
ENDBRANCH  24  25
ENDBRANCH   1  24
TORSDOF 17
ENDMDL
MODEL 2
REMARK VINA RESULT:     -11.4      5.436      9.469
REMARK SMILES O=C(Cc1ccc(F)c(F)c1)NC1(C(=O)OCCOCCOC(=O)c2ccc(-c3c4nc(c(-c5c(F)c(F)c(F)c(F)c5F)c5ccc([nH]5)c(-c5c(F)c(F)c(F)c(F)c5F)c5nc(c(-c6c(F)c(F)c(F)c(F)c6F)c6ccc3[nH]6)C=C5)C=C4)cc2)CCCC1
REMARK SMILES IDX 18 1 17 2 16 3 14 4 15 5 13 6 88 7 91 8 89 9 90 10 12 11
REMARK SMILES IDX 1 12 2 13 3 15 4 16 5 17 11 18 6 19 9 20 7 21 10 22 8 23
REMARK SMILES IDX 19 24 20 25 21 26 22 27 23 28 24 29 25 30 26 31 87 32 27 33
REMARK SMILES IDX 86 34 28 35 29 36 30 37 80 38 31 39 85 40 79 41 81 42 32 43
REMARK SMILES IDX 84 44 78 45 77 46 33 48 65 49 45 50 64 51 46 52 49 53 63 54
REMARK SMILES IDX 82 55 47 56 48 57 62 59 83 60 50 61 34 62 35 63 43 64 36 65
REMARK SMILES IDX 37 66 41 67 44 68 38 69 39 70 42 71 40 72 66 73 67 74 75 75
REMARK SMILES IDX 68 76 69 77 73 78 76 79 70 80 71 81 74 82 72 83 51 84 52 85
REMARK SMILES IDX 60 86 53 87 54 88 58 89 61 90 55 91 56 92 59 93 57 94
REMARK H PARENT 12 14 81 47 49 58
REMARK Flexibility Score: inf
ROOT
ATOM      1  C   UNL A   1      38.250  23.269  26.267  1.00  0.00     0.202 C 
ENDROOT
BRANCH   1   2
ATOM      2  C   UNL A   1      37.454  23.595  25.001  1.00  0.00     0.261 C 
BRANCH   2   3
ATOM      3  O   UNL A   1      36.101  23.975  25.310  1.00  0.00    -0.461 OA
BRANCH   3   4
ATOM      4  C   UNL A   1      35.259  24.027  24.246  1.00  0.00     0.331 C 
ATOM      5  O   UNL A   1      35.578  23.748  23.092  1.00  0.00    -0.249 OA
BRANCH   4   6
ATOM      6  C   UNL A   1      33.803  24.420  24.610  1.00  0.00     0.138 C 
ATOM      7  C   UNL A   1      33.168  25.118  23.404  1.00  0.00     0.040 C 
ATOM      8  C   UNL A   1      33.660  25.445  25.748  1.00  0.00     0.040 C 
ATOM      9  C   UNL A   1      33.582  26.575  23.578  1.00  0.00     0.003 C 
ATOM     10  C   UNL A   1      33.561  26.817  25.081  1.00  0.00     0.003 C 
BRANCH   6  11
ATOM     11  N   UNL A   1      33.203  23.109  24.925  1.00  0.00    -0.340 N 
ATOM     12  O   UNL A   1      32.643  22.387  22.826  1.00  0.00    -0.275 OA
ATOM     13  C   UNL A   1      32.710  22.190  24.035  1.00  0.00     0.225 C 
ATOM     14  H   UNL A   1      33.151  22.869  25.879  1.00  0.00     0.164 HD
BRANCH  13  15
ATOM     15  C   UNL A   1      32.154  20.921  24.672  1.00  0.00     0.135 C 
BRANCH  15  16
ATOM     16  C   UNL A   1      32.761  19.626  24.166  1.00  0.00    -0.036 A 
ATOM     17  C   UNL A   1      32.146  18.912  23.123  1.00  0.00     0.007 A 
ATOM     18  C   UNL A   1      33.951  19.129  24.721  1.00  0.00     0.046 A 
ATOM     19  C   UNL A   1      32.703  17.718  22.655  1.00  0.00     0.043 A 
ATOM     20  C   UNL A   1      34.495  17.936  24.251  1.00  0.00     0.159 A 
ATOM     21  C   UNL A   1      33.875  17.234  23.225  1.00  0.00     0.158 A 
ATOM     22  F   UNL A   1      35.627  17.470  24.798  1.00  0.00    -0.204 F 
ATOM     23  F   UNL A   1      34.403  16.089  22.773  1.00  0.00    -0.204 F 
ENDBRANCH  15  16
ENDBRANCH  13  15
ENDBRANCH   6  11
ENDBRANCH   4   6
ENDBRANCH   3   4
ENDBRANCH   2   3
ENDBRANCH   1   2
BRANCH   1  24
ATOM     24  O   UNL A   1      38.969  22.037  26.264  1.00  0.00    -0.374 OA
BRANCH  24  25
ATOM     25  C   UNL A   1      38.518  21.008  25.383  1.00  0.00     0.202 C 
BRANCH  25  26
ATOM     26  C   UNL A   1      39.205  19.641  25.512  1.00  0.00     0.261 C 
BRANCH  26  27
ATOM     27  O   UNL A   1      40.122  19.588  26.622  1.00  0.00    -0.460 OA
BRANCH  27  28
ATOM     28  C   UNL A   1      41.417  19.395  26.278  1.00  0.00     0.338 C 
ATOM     29  O   UNL A   1      41.904  18.401  25.751  1.00  0.00    -0.246 OA
BRANCH  28  30
ATOM     30  C   UNL A   1      42.193  20.635  26.457  1.00  0.00     0.060 A 
ATOM     31  C   UNL A   1      42.279  21.157  27.754  1.00  0.00     0.016 A 
ATOM     32  C   UNL A   1      42.740  21.329  25.375  1.00  0.00     0.016 A 
ATOM     33  C   UNL A   1      42.865  22.402  27.969  1.00  0.00     0.010 A 
ATOM     34  C   UNL A   1      43.319  22.586  25.592  1.00  0.00     0.010 A 
ATOM     35  C   UNL A   1      43.350  23.144  26.883  1.00  0.00    -0.014 A 
BRANCH  35  36
ATOM     36  C   UNL A   1      43.752  24.557  27.092  1.00  0.00     0.031 A 
ATOM     37  C   UNL A   1      42.743  25.531  27.635  1.00  0.00     0.074 A 
ATOM     38  C   UNL A   1      45.014  24.956  26.857  1.00  0.00     0.049 A 
ATOM     39  N   UNL A   1      42.879  26.807  27.895  1.00  0.00    -0.248 NA
ATOM     40  C   UNL A   1      41.405  24.997  27.930  1.00  0.00     0.031 C 
ATOM     41  C   UNL A   1      46.093  24.096  26.379  1.00  0.00     0.029 A 
ATOM     42  N   UNL A   1      45.599  26.190  26.995  1.00  0.00    -0.354 N 
ATOM     43  C   UNL A   1      41.649  27.226  28.383  1.00  0.00     0.074 A 
ATOM     44  C   UNL A   1      40.768  26.078  28.358  1.00  0.00     0.031 C 
ATOM     45  C   UNL A   1      47.213  24.830  26.260  1.00  0.00     0.029 A 
ATOM     46  C   UNL A   1      46.922  26.216  26.627  1.00  0.00     0.049 A 
ATOM     47  H   UNL A   1      45.117  26.983  27.325  1.00  0.00     0.167 HD
ATOM     48  C   UNL A   1      41.289  28.455  28.822  1.00  0.00     0.037 A 
ATOM     49  C   UNL A   1      47.793  27.243  26.578  1.00  0.00     0.037 A 
ATOM     50  C   UNL A   1      42.164  29.597  28.855  1.00  0.00     0.049 A 
ATOM     51  C   UNL A   1      47.347  28.618  27.001  1.00  0.00     0.074 A 
ATOM     52  C   UNL A   1      41.891  30.878  29.299  1.00  0.00     0.029 A 
ATOM     53  N   UNL A   1      43.481  29.594  28.422  1.00  0.00    -0.354 N 
ATOM     54  N   UNL A   1      46.185  29.001  27.470  1.00  0.00    -0.248 NA
ATOM     55  C   UNL A   1      48.333  29.703  26.886  1.00  0.00     0.031 C 
ATOM     56  C   UNL A   1      43.029  31.663  29.093  1.00  0.00     0.029 A 
ATOM     57  C   UNL A   1      44.026  30.859  28.565  1.00  0.00     0.049 A 
ATOM     58  H   UNL A   1      43.958  28.809  28.066  1.00  0.00     0.167 HD
ATOM     59  C   UNL A   1      46.303  30.361  27.724  1.00  0.00     0.074 A 
ATOM     60  C   UNL A   1      47.656  30.737  27.367  1.00  0.00     0.031 C 
ATOM     61  C   UNL A   1      45.375  31.220  28.209  1.00  0.00     0.037 A 
BRANCH  48  62
ATOM     62  C   UNL A   1      39.880  28.642  29.299  1.00  0.00     0.064 A 
ATOM     63  C   UNL A   1      38.891  29.111  28.423  1.00  0.00     0.173 A 
ATOM     64  C   UNL A   1      39.527  28.425  30.639  1.00  0.00     0.173 A 
ATOM     65  F   UNL A   1      39.182  29.337  27.133  1.00  0.00    -0.203 F 
ATOM     66  C   UNL A   1      37.600  29.370  28.875  1.00  0.00     0.198 A 
ATOM     67  C   UNL A   1      38.228  28.663  31.082  1.00  0.00     0.198 A 
ATOM     68  F   UNL A   1      40.436  27.964  31.511  1.00  0.00    -0.203 F 
ATOM     69  F   UNL A   1      36.677  29.844  28.027  1.00  0.00    -0.200 F 
ATOM     70  C   UNL A   1      37.269  29.143  30.202  1.00  0.00     0.200 A 
ATOM     71  F   UNL A   1      37.904  28.425  32.361  1.00  0.00    -0.200 F 
ATOM     72  F   UNL A   1      36.025  29.388  30.634  1.00  0.00    -0.200 F 
ENDBRANCH  48  62
BRANCH  49  73
ATOM     73  C   UNL A   1      49.180  27.006  26.104  1.00  0.00     0.064 A 
ATOM     74  C   UNL A   1      49.508  27.100  24.742  1.00  0.00     0.173 A 
ATOM     75  C   UNL A   1      50.202  26.667  27.000  1.00  0.00     0.173 A 
ATOM     76  F   UNL A   1      48.565  27.424  23.846  1.00  0.00    -0.203 F 
ATOM     77  C   UNL A   1      50.802  26.845  24.295  1.00  0.00     0.198 A 
ATOM     78  C   UNL A   1      51.501  26.434  26.553  1.00  0.00     0.198 A 
ATOM     79  F   UNL A   1      49.943  26.590  28.313  1.00  0.00    -0.203 F 
ATOM     80  F   UNL A   1      51.080  26.913  22.986  1.00  0.00    -0.200 F 
ATOM     81  C   UNL A   1      51.798  26.514  25.200  1.00  0.00     0.200 A 
ATOM     82  F   UNL A   1      52.468  26.140  27.434  1.00  0.00    -0.200 F 
ATOM     83  F   UNL A   1      53.045  26.279  24.770  1.00  0.00    -0.200 F 
ENDBRANCH  49  73
BRANCH  61  84
ATOM     84  C   UNL A   1      45.776  32.652  28.400  1.00  0.00     0.064 A 
ATOM     85  C   UNL A   1      45.612  33.582  27.363  1.00  0.00     0.173 A 
ATOM     86  C   UNL A   1      46.403  33.083  29.578  1.00  0.00     0.173 A 
ATOM     87  F   UNL A   1      45.026  33.216  26.213  1.00  0.00    -0.203 F 
ATOM     88  C   UNL A   1      46.077  34.888  27.491  1.00  0.00     0.198 A 
ATOM     89  C   UNL A   1      46.845  34.397  29.712  1.00  0.00     0.198 A 
ATOM     90  F   UNL A   1      46.573  32.234  30.602  1.00  0.00    -0.203 F 
ATOM     91  F   UNL A   1      45.941  35.750  26.473  1.00  0.00    -0.200 F 
ATOM     92  C   UNL A   1      46.691  35.295  28.665  1.00  0.00     0.200 A 
ATOM     93  F   UNL A   1      47.421  34.795  30.854  1.00  0.00    -0.200 F 
ATOM     94  F   UNL A   1      47.135  36.553  28.789  1.00  0.00    -0.200 F 
ENDBRANCH  61  84
ENDBRANCH  35  36
ENDBRANCH  28  30
ENDBRANCH  27  28
ENDBRANCH  26  27
ENDBRANCH  25  26
ENDBRANCH  24  25
ENDBRANCH   1  24
TORSDOF 17
ENDMDL
MODEL 3
REMARK VINA RESULT:     -11.3      4.641     10.080
REMARK SMILES O=C(Cc1ccc(F)c(F)c1)NC1(C(=O)OCCOCCOC(=O)c2ccc(-c3c4nc(c(-c5c(F)c(F)c(F)c(F)c5F)c5ccc([nH]5)c(-c5c(F)c(F)c(F)c(F)c5F)c5nc(c(-c6c(F)c(F)c(F)c(F)c6F)c6ccc3[nH]6)C=C5)C=C4)cc2)CCCC1
REMARK SMILES IDX 18 1 17 2 16 3 14 4 15 5 13 6 88 7 91 8 89 9 90 10 12 11
REMARK SMILES IDX 1 12 2 13 3 15 4 16 5 17 11 18 6 19 9 20 7 21 10 22 8 23
REMARK SMILES IDX 19 24 20 25 21 26 22 27 23 28 24 29 25 30 26 31 87 32 27 33
REMARK SMILES IDX 86 34 28 35 29 36 30 37 80 38 31 39 85 40 79 41 81 42 32 43
REMARK SMILES IDX 84 44 78 45 77 46 33 48 65 49 45 50 64 51 46 52 49 53 63 54
REMARK SMILES IDX 82 55 47 56 48 57 62 59 83 60 50 61 34 62 35 63 43 64 36 65
REMARK SMILES IDX 37 66 41 67 44 68 38 69 39 70 42 71 40 72 66 73 67 74 75 75
REMARK SMILES IDX 68 76 69 77 73 78 76 79 70 80 71 81 74 82 72 83 51 84 52 85
REMARK SMILES IDX 60 86 53 87 54 88 58 89 61 90 55 91 56 92 59 93 57 94
REMARK H PARENT 12 14 81 47 49 58
REMARK Flexibility Score: inf
ROOT
ATOM      1  C   UNL A   1      36.883  22.046  24.429  1.00  0.00     0.202 C 
ENDROOT
BRANCH   1   2
ATOM      2  C   UNL A   1      36.856  23.462  25.012  1.00  0.00     0.261 C 
BRANCH   2   3
ATOM      3  O   UNL A   1      35.584  24.098  24.798  1.00  0.00    -0.461 OA
BRANCH   3   4
ATOM      4  C   UNL A   1      34.584  23.678  25.614  1.00  0.00     0.331 C 
ATOM      5  O   UNL A   1      34.744  23.305  26.775  1.00  0.00    -0.249 OA
BRANCH   4   6
ATOM      6  C   UNL A   1      33.172  23.758  24.977  1.00  0.00     0.138 C 
ATOM      7  C   UNL A   1      32.480  22.402  25.148  1.00  0.00     0.040 C 
ATOM      8  C   UNL A   1      33.145  23.997  23.458  1.00  0.00     0.040 C 
ATOM      9  C   UNL A   1      32.956  21.604  23.940  1.00  0.00     0.003 C 
ATOM     10  C   UNL A   1      33.048  22.616  22.806  1.00  0.00     0.003 C 
BRANCH   6  11
ATOM     11  N   UNL A   1      32.549  24.848  25.751  1.00  0.00    -0.340 N 
ATOM     12  O   UNL A   1      33.488  26.674  24.740  1.00  0.00    -0.275 OA
ATOM     13  C   UNL A   1      32.715  26.196  25.564  1.00  0.00     0.225 C 
ATOM     14  H   UNL A   1      31.948  24.577  26.484  1.00  0.00     0.164 HD
BRANCH  13  15
ATOM     15  C   UNL A   1      31.929  27.076  26.530  1.00  0.00     0.135 C 
BRANCH  15  16
ATOM     16  C   UNL A   1      32.543  28.433  26.812  1.00  0.00    -0.036 A 
ATOM     17  C   UNL A   1      33.871  28.534  27.260  1.00  0.00     0.007 A 
ATOM     18  C   UNL A   1      31.800  29.609  26.616  1.00  0.00     0.046 A 
ATOM     19  C   UNL A   1      34.440  29.785  27.522  1.00  0.00     0.043 A 
ATOM     20  C   UNL A   1      32.374  30.850  26.883  1.00  0.00     0.159 A 
ATOM     21  C   UNL A   1      33.685  30.938  27.334  1.00  0.00     0.158 A 
ATOM     22  F   UNL A   1      31.649  31.962  26.700  1.00  0.00    -0.204 F 
ATOM     23  F   UNL A   1      34.235  32.133  27.587  1.00  0.00    -0.204 F 
ENDBRANCH  15  16
ENDBRANCH  13  15
ENDBRANCH   6  11
ENDBRANCH   4   6
ENDBRANCH   3   4
ENDBRANCH   2   3
ENDBRANCH   1   2
BRANCH   1  24
ATOM     24  O   UNL A   1      37.003  20.977  25.366  1.00  0.00    -0.374 OA
BRANCH  24  25
ATOM     25  C   UNL A   1      37.612  19.767  24.917  1.00  0.00     0.202 C 
BRANCH  25  26
ATOM     26  C   UNL A   1      38.973  19.410  25.532  1.00  0.00     0.261 C 
BRANCH  26  27
ATOM     27  O   UNL A   1      39.799  20.570  25.747  1.00  0.00    -0.460 OA
BRANCH  27  28
ATOM     28  C   UNL A   1      40.540  20.535  26.881  1.00  0.00     0.338 C 
ATOM     29  O   UNL A   1      41.075  19.555  27.386  1.00  0.00    -0.246 OA
BRANCH  28  30
ATOM     30  C   UNL A   1      40.792  21.898  27.380  1.00  0.00     0.060 A 
ATOM     31  C   UNL A   1      40.085  22.945  26.772  1.00  0.00     0.016 A 
ATOM     32  C   UNL A   1      41.765  22.166  28.345  1.00  0.00     0.016 A 
ATOM     33  C   UNL A   1      40.386  24.267  27.089  1.00  0.00     0.010 A 
ATOM     34  C   UNL A   1      42.073  23.497  28.654  1.00  0.00     0.010 A 
ATOM     35  C   UNL A   1      41.412  24.553  28.001  1.00  0.00    -0.014 A 
BRANCH  35  36
ATOM     36  C   UNL A   1      41.880  25.953  28.150  1.00  0.00     0.031 A 
ATOM     37  C   UNL A   1      43.211  26.344  27.569  1.00  0.00     0.074 A 
ATOM     38  C   UNL A   1      41.107  26.878  28.744  1.00  0.00     0.049 A 
ATOM     39  N   UNL A   1      43.812  27.507  27.583  1.00  0.00    -0.248 NA
ATOM     40  C   UNL A   1      43.963  25.287  26.876  1.00  0.00     0.031 C 
ATOM     41  C   UNL A   1      39.779  26.634  29.300  1.00  0.00     0.029 A 
ATOM     42  N   UNL A   1      41.330  28.213  28.972  1.00  0.00    -0.354 N 
ATOM     43  C   UNL A   1      45.008  27.322  26.902  1.00  0.00     0.074 A 
ATOM     44  C   UNL A   1      45.064  25.930  26.512  1.00  0.00     0.031 C 
ATOM     45  C   UNL A   1      39.303  27.783  29.809  1.00  0.00     0.029 A 
ATOM     46  C   UNL A   1      40.304  28.836  29.639  1.00  0.00     0.049 A 
ATOM     47  H   UNL A   1      42.148  28.681  28.686  1.00  0.00     0.167 HD
ATOM     48  C   UNL A   1      45.967  28.234  26.619  1.00  0.00     0.037 A 
ATOM     49  C   UNL A   1      40.193  30.106  30.077  1.00  0.00     0.037 A 
ATOM     50  C   UNL A   1      45.912  29.620  26.999  1.00  0.00     0.049 A 
ATOM     51  C   UNL A   1      41.308  31.084  29.815  1.00  0.00     0.074 A 
ATOM     52  C   UNL A   1      46.831  30.622  26.741  1.00  0.00     0.029 A 
ATOM     53  N   UNL A   1      44.880  30.199  27.723  1.00  0.00    -0.354 N 
ATOM     54  N   UNL A   1      42.430  30.901  29.162  1.00  0.00    -0.248 NA
ATOM     55  C   UNL A   1      41.143  32.443  30.352  1.00  0.00     0.031 C 
ATOM     56  C   UNL A   1      46.378  31.797  27.347  1.00  0.00     0.029 A 
ATOM     57  C   UNL A   1      45.153  31.539  27.942  1.00  0.00     0.049 A 
ATOM     58  H   UNL A   1      44.074  29.727  28.034  1.00  0.00     0.167 HD
ATOM     59  C   UNL A   1      43.094  32.120  29.192  1.00  0.00     0.074 A 
ATOM     60  C   UNL A   1      42.245  33.041  29.919  1.00  0.00     0.031 C 
ATOM     61  C   UNL A   1      44.298  32.446  28.665  1.00  0.00     0.037 A 
BRANCH  48  62
ATOM     62  C   UNL A   1      47.175  27.766  25.865  1.00  0.00     0.064 A 
ATOM     63  C   UNL A   1      48.337  27.387  26.552  1.00  0.00     0.173 A 
ATOM     64  C   UNL A   1      47.206  27.761  24.462  1.00  0.00     0.173 A 
ATOM     65  F   UNL A   1      48.359  27.379  27.893  1.00  0.00    -0.203 F 
ATOM     66  C   UNL A   1      49.493  27.032  25.862  1.00  0.00     0.198 A 
ATOM     67  C   UNL A   1      48.357  27.383  23.775  1.00  0.00     0.198 A 
ATOM     68  F   UNL A   1      46.115  28.103  23.762  1.00  0.00    -0.203 F 
ATOM     69  F   UNL A   1      50.601  26.700  26.538  1.00  0.00    -0.200 F 
ATOM     70  C   UNL A   1      49.501  27.028  24.475  1.00  0.00     0.200 A 
ATOM     71  F   UNL A   1      48.358  27.360  22.435  1.00  0.00    -0.200 F 
ATOM     72  F   UNL A   1      50.613  26.681  23.812  1.00  0.00    -0.200 F 
ENDBRANCH  48  62
BRANCH  49  73
ATOM     73  C   UNL A   1      38.973  30.523  30.814  1.00  0.00     0.064 A 
ATOM     74  C   UNL A   1      37.832  30.972  30.132  1.00  0.00     0.173 A 
ATOM     75  C   UNL A   1      38.928  30.494  32.213  1.00  0.00     0.173 A 
ATOM     76  F   UNL A   1      37.825  31.016  28.791  1.00  0.00    -0.203 F 
ATOM     77  C   UNL A   1      36.700  31.395  30.824  1.00  0.00     0.198 A 
ATOM     78  C   UNL A   1      37.786  30.894  32.904  1.00  0.00     0.198 A 
ATOM     79  F   UNL A   1      39.985  30.047  32.908  1.00  0.00    -0.203 F 
ATOM     80  F   UNL A   1      35.635  31.847  30.149  1.00  0.00    -0.200 F 
ATOM     81  C   UNL A   1      36.676  31.354  32.210  1.00  0.00     0.200 A 
ATOM     82  F   UNL A   1      37.758  30.829  34.243  1.00  0.00    -0.200 F 
ATOM     83  F   UNL A   1      35.583  31.750  32.875  1.00  0.00    -0.200 F 
ENDBRANCH  49  73
BRANCH  61  84
ATOM     84  C   UNL A   1      44.780  33.856  28.834  1.00  0.00     0.064 A 
ATOM     85  C   UNL A   1      44.468  34.834  27.878  1.00  0.00     0.173 A 
ATOM     86  C   UNL A   1      45.621  34.218  29.896  1.00  0.00     0.173 A 
ATOM     87  F   UNL A   1      43.674  34.535  26.839  1.00  0.00    -0.203 F 
ATOM     88  C   UNL A   1      44.996  36.119  27.969  1.00  0.00     0.198 A 
ATOM     89  C   UNL A   1      46.128  35.511  29.997  1.00  0.00     0.198 A 
ATOM     90  F   UNL A   1      45.938  33.321  30.841  1.00  0.00    -0.203 F 
ATOM     91  F   UNL A   1      44.713  37.027  27.024  1.00  0.00    -0.200 F 
ATOM     92  C   UNL A   1      45.823  36.457  29.029  1.00  0.00     0.200 A 
ATOM     93  F   UNL A   1      46.911  35.843  31.032  1.00  0.00    -0.200 F 
ATOM     94  F   UNL A   1      46.328  37.696  29.118  1.00  0.00    -0.200 F 
ENDBRANCH  61  84
ENDBRANCH  35  36
ENDBRANCH  28  30
ENDBRANCH  27  28
ENDBRANCH  26  27
ENDBRANCH  25  26
ENDBRANCH  24  25
ENDBRANCH   1  24
TORSDOF 17
ENDMDL
