MODEL 1
REMARK VINA RESULT:     -11.2      0.000      0.000
REMARK SMILES COc1cccc(CC(=O)N[C@@](C)(C(=O)OCCOCCOC(=O)c2ccc(-c3c4nc(c(-c5c(F)c(F)c(F)c(F)c5F)c5ccc([nH]5)c(-c5c(F)c(F)c(F)c(F)c5F)c5nc(c(-c6c(F)c(F)c(F)c(F)c6F)c6ccc3[nH]6)C=C5)C=C4)cc2)C(F)(F)F)c1
REMARK SMILES IDX 18 1 17 2 16 3 14 4 15 5 12 6 13 7 11 8 9 9 10 10 8 12 7 13
REMARK SMILES IDX 3 14 4 15 92 16 5 17 6 18 2 19 1 20 88 21 89 22 90 23 91 24
REMARK SMILES IDX 19 25 20 26 21 27 22 28 23 29 24 30 25 31 26 32 87 33 27 34
REMARK SMILES IDX 86 35 28 36 29 37 30 38 80 39 31 40 85 41 79 42 81 43 32 44
REMARK SMILES IDX 84 45 78 46 77 47 33 49 65 50 45 51 64 52 46 53 49 54 63 55
REMARK SMILES IDX 82 56 47 57 48 58 62 60 83 61 50 62 34 63 35 64 43 65 36 66
REMARK SMILES IDX 37 67 41 68 44 69 38 70 39 71 42 72 40 73 66 74 67 75 75 76
REMARK SMILES IDX 68 77 69 78 73 79 76 80 70 81 71 82 74 83 72 84 51 85 52 86
REMARK SMILES IDX 60 87 53 88 54 89 58 90 61 91 55 92 56 93 59 94 57 95
REMARK H PARENT 11 11 81 48 49 59
REMARK Flexibility Score: inf
ROOT
ATOM      1  C   UNL A   1      33.340  29.108  24.513  1.00  0.00     0.202 C 
ENDROOT
BRANCH   1   2
ATOM      2  C   UNL A   1      33.479  27.637  24.096  1.00  0.00     0.261 C 
BRANCH   2   3
ATOM      3  O   UNL A   1      32.217  26.955  24.043  1.00  0.00    -0.461 OA
BRANCH   3   4
ATOM      4  C   UNL A   1      32.008  26.050  25.040  1.00  0.00     0.341 C 
ATOM      5  O   UNL A   1      32.679  26.012  26.065  1.00  0.00    -0.249 OA
BRANCH   4   6
ATOM      6  C   UNL A   1      30.822  25.109  24.753  1.00  0.00     0.231 C 
ATOM      7  C   UNL A   1      29.682  26.016  24.263  1.00  0.00     0.058 C 
BRANCH   6   8
ATOM      8  N   UNL A   1      30.353  24.447  26.030  1.00  0.00    -0.333 N 
ATOM      9  C   UNL A   1      30.781  23.468  26.869  1.00  0.00     0.225 C 
ATOM     10  O   UNL A   1      29.897  22.943  27.558  1.00  0.00    -0.275 OA
ATOM     11  H   UNL A   1      29.501  24.832  26.339  1.00  0.00     0.164 HD
BRANCH   9  12
ATOM     12  C   UNL A   1      32.234  23.120  27.136  1.00  0.00     0.135 C 
BRANCH  12  13
ATOM     13  C   UNL A   1      32.894  22.140  26.208  1.00  0.00    -0.035 A 
ATOM     14  C   UNL A   1      32.759  20.031  25.003  1.00  0.00     0.119 A 
ATOM     15  C   UNL A   1      34.098  20.162  24.638  1.00  0.00     0.046 A 
ATOM     16  C   UNL A   1      32.140  21.060  25.713  1.00  0.00     0.050 A 
ATOM     17  C   UNL A   1      34.825  21.290  25.022  1.00  0.00     0.004 A 
ATOM     18  C   UNL A   1      34.229  22.274  25.812  1.00  0.00     0.004 A 
BRANCH  14  19
ATOM     19  O   UNL A   1      32.151  18.856  24.658  1.00  0.00    -0.497 OA
ATOM     20  C   UNL A   1      32.532  17.720  25.436  1.00  0.00     0.278 C 
ENDBRANCH  14  19
ENDBRANCH  12  13
ENDBRANCH   9  12
ENDBRANCH   6   8
BRANCH   6  21
ATOM     21  C   UNL A   1      31.342  24.234  23.605  1.00  0.00     0.422 C 
ATOM     22  F   UNL A   1      30.768  23.008  23.605  1.00  0.00    -0.168 F 
ATOM     23  F   UNL A   1      31.088  24.819  22.416  1.00  0.00    -0.168 F 
ATOM     24  F   UNL A   1      32.677  24.027  23.610  1.00  0.00    -0.168 F 
ENDBRANCH   6  21
ENDBRANCH   4   6
ENDBRANCH   3   4
ENDBRANCH   2   3
ENDBRANCH   1   2
BRANCH   1  25
ATOM     25  O   UNL A   1      32.088  29.738  24.270  1.00  0.00    -0.374 OA
BRANCH  25  26
ATOM     26  C   UNL A   1      31.238  30.013  25.386  1.00  0.00     0.202 C 
BRANCH  26  27
ATOM     27  C   UNL A   1      31.581  31.205  26.292  1.00  0.00     0.261 C 
BRANCH  27  28
ATOM     28  O   UNL A   1      32.631  30.916  27.237  1.00  0.00    -0.460 OA
BRANCH  28  29
ATOM     29  C   UNL A   1      33.440  31.966  27.514  1.00  0.00     0.338 C 
ATOM     30  O   UNL A   1      33.119  33.144  27.626  1.00  0.00    -0.246 OA
BRANCH  29  31
ATOM     31  C   UNL A   1      34.798  31.513  27.854  1.00  0.00     0.060 A 
ATOM     32  C   UNL A   1      34.989  30.142  28.074  1.00  0.00     0.016 A 
ATOM     33  C   UNL A   1      35.814  32.427  28.137  1.00  0.00     0.016 A 
ATOM     34  C   UNL A   1      36.174  29.685  28.643  1.00  0.00     0.010 A 
ATOM     35  C   UNL A   1      37.002  31.968  28.719  1.00  0.00     0.010 A 
ATOM     36  C   UNL A   1      37.164  30.603  29.022  1.00  0.00    -0.014 A 
BRANCH  36  37
ATOM     37  C   UNL A   1      38.252  30.147  29.923  1.00  0.00     0.031 A 
ATOM     38  C   UNL A   1      39.278  29.185  29.387  1.00  0.00     0.074 A 
ATOM     39  C   UNL A   1      38.369  30.633  31.171  1.00  0.00     0.049 A 
ATOM     40  N   UNL A   1      40.331  28.675  29.975  1.00  0.00    -0.248 NA
ATOM     41  C   UNL A   1      39.096  28.743  27.995  1.00  0.00     0.031 C 
ATOM     42  C   UNL A   1      37.472  31.606  31.785  1.00  0.00     0.029 A 
ATOM     43  N   UNL A   1      39.306  30.375  32.141  1.00  0.00    -0.354 N 
ATOM     44  C   UNL A   1      40.933  27.856  29.028  1.00  0.00     0.074 A 
ATOM     45  C   UNL A   1      40.113  27.909  27.838  1.00  0.00     0.031 C 
ATOM     46  C   UNL A   1      37.900  31.866  33.033  1.00  0.00     0.029 A 
ATOM     47  C   UNL A   1      39.089  31.061  33.310  1.00  0.00     0.049 A 
ATOM     48  H   UNL A   1      40.061  29.757  32.011  1.00  0.00     0.167 HD
ATOM     49  C   UNL A   1      42.075  27.136  29.134  1.00  0.00     0.037 A 
ATOM     50  C   UNL A   1      39.771  31.033  34.471  1.00  0.00     0.037 A 
ATOM     51  C   UNL A   1      42.891  27.078  30.317  1.00  0.00     0.049 A 
ATOM     52  C   UNL A   1      41.000  30.168  34.588  1.00  0.00     0.074 A 
ATOM     53  C   UNL A   1      44.061  26.370  30.529  1.00  0.00     0.029 A 
ATOM     54  N   UNL A   1      42.615  27.758  31.495  1.00  0.00    -0.354 N 
ATOM     55  N   UNL A   1      41.568  29.409  33.684  1.00  0.00    -0.248 NA
ATOM     56  C   UNL A   1      41.685  30.164  35.888  1.00  0.00     0.031 C 
ATOM     57  C   UNL A   1      44.472  26.589  31.848  1.00  0.00     0.029 A 
ATOM     58  C   UNL A   1      43.585  27.473  32.443  1.00  0.00     0.049 A 
ATOM     59  H   UNL A   1      41.845  28.354  31.636  1.00  0.00     0.167 HD
ATOM     60  C   UNL A   1      42.695  28.867  34.291  1.00  0.00     0.074 A 
ATOM     61  C   UNL A   1      42.732  29.390  35.641  1.00  0.00     0.031 C 
ATOM     62  C   UNL A   1      43.618  28.017  33.775  1.00  0.00     0.037 A 
BRANCH  49  63
ATOM     63  C   UNL A   1      42.493  26.331  27.938  1.00  0.00     0.064 A 
ATOM     64  C   UNL A   1      41.995  25.039  27.711  1.00  0.00     0.173 A 
ATOM     65  C   UNL A   1      43.393  26.862  27.001  1.00  0.00     0.173 A 
ATOM     66  F   UNL A   1      41.143  24.481  28.584  1.00  0.00    -0.203 F 
ATOM     67  C   UNL A   1      42.404  24.298  26.605  1.00  0.00     0.198 A 
ATOM     68  C   UNL A   1      43.779  26.129  25.883  1.00  0.00     0.198 A 
ATOM     69  F   UNL A   1      43.897  28.093  27.171  1.00  0.00    -0.203 F 
ATOM     70  F   UNL A   1      41.954  23.047  26.434  1.00  0.00    -0.200 F 
ATOM     71  C   UNL A   1      43.293  24.845  25.690  1.00  0.00     0.200 A 
ATOM     72  F   UNL A   1      44.630  26.662  24.995  1.00  0.00    -0.200 F 
ATOM     73  F   UNL A   1      43.685  24.131  24.626  1.00  0.00    -0.200 F 
ENDBRANCH  49  63
BRANCH  50  74
ATOM     74  C   UNL A   1      39.315  31.859  35.619  1.00  0.00     0.064 A 
ATOM     75  C   UNL A   1      38.399  31.356  36.553  1.00  0.00     0.173 A 
ATOM     76  C   UNL A   1      39.774  33.172  35.796  1.00  0.00     0.173 A 
ATOM     77  F   UNL A   1      37.913  30.114  36.412  1.00  0.00    -0.203 F 
ATOM     78  C   UNL A   1      37.946  32.141  37.612  1.00  0.00     0.198 A 
ATOM     79  C   UNL A   1      39.340  33.948  36.869  1.00  0.00     0.198 A 
ATOM     80  F   UNL A   1      40.649  33.701  34.927  1.00  0.00    -0.203 F 
ATOM     81  F   UNL A   1      37.038  31.651  38.465  1.00  0.00    -0.200 F 
ATOM     82  C   UNL A   1      38.422  33.434  37.772  1.00  0.00     0.200 A 
ATOM     83  F   UNL A   1      39.810  35.193  37.026  1.00  0.00    -0.200 F 
ATOM     84  F   UNL A   1      37.988  34.188  38.791  1.00  0.00    -0.200 F 
ENDBRANCH  50  74
BRANCH  62  85
ATOM     85  C   UNL A   1      44.775  27.640  34.654  1.00  0.00     0.064 A 
ATOM     86  C   UNL A   1      45.967  28.379  34.664  1.00  0.00     0.173 A 
ATOM     87  C   UNL A   1      44.670  26.548  35.529  1.00  0.00     0.173 A 
ATOM     88  F   UNL A   1      46.121  29.424  33.837  1.00  0.00    -0.203 F 
ATOM     89  C   UNL A   1      47.022  28.021  35.499  1.00  0.00     0.198 A 
ATOM     90  C   UNL A   1      45.717  26.210  36.383  1.00  0.00     0.198 A 
ATOM     91  F   UNL A   1      43.548  25.814  35.563  1.00  0.00    -0.203 F 
ATOM     92  F   UNL A   1      48.169  28.712  35.459  1.00  0.00    -0.200 F 
ATOM     93  C   UNL A   1      46.894  26.942  36.362  1.00  0.00     0.200 A 
ATOM     94  F   UNL A   1      45.586  25.175  37.224  1.00  0.00    -0.200 F 
ATOM     95  F   UNL A   1      47.910  26.602  37.168  1.00  0.00    -0.200 F 
ENDBRANCH  62  85
ENDBRANCH  36  37
ENDBRANCH  29  31
ENDBRANCH  28  29
ENDBRANCH  27  28
ENDBRANCH  26  27
ENDBRANCH  25  26
ENDBRANCH   1  25
TORSDOF 19
ENDMDL
MODEL 2
REMARK VINA RESULT:     -11.2      1.462      7.370
REMARK SMILES COc1cccc(CC(=O)N[C@@](C)(C(=O)OCCOCCOC(=O)c2ccc(-c3c4nc(c(-c5c(F)c(F)c(F)c(F)c5F)c5ccc([nH]5)c(-c5c(F)c(F)c(F)c(F)c5F)c5nc(c(-c6c(F)c(F)c(F)c(F)c6F)c6ccc3[nH]6)C=C5)C=C4)cc2)C(F)(F)F)c1
REMARK SMILES IDX 18 1 17 2 16 3 14 4 15 5 12 6 13 7 11 8 9 9 10 10 8 12 7 13
REMARK SMILES IDX 3 14 4 15 92 16 5 17 6 18 2 19 1 20 88 21 89 22 90 23 91 24
REMARK SMILES IDX 19 25 20 26 21 27 22 28 23 29 24 30 25 31 26 32 87 33 27 34
REMARK SMILES IDX 86 35 28 36 29 37 30 38 80 39 31 40 85 41 79 42 81 43 32 44
REMARK SMILES IDX 84 45 78 46 77 47 33 49 65 50 45 51 64 52 46 53 49 54 63 55
REMARK SMILES IDX 82 56 47 57 48 58 62 60 83 61 50 62 34 63 35 64 43 65 36 66
REMARK SMILES IDX 37 67 41 68 44 69 38 70 39 71 42 72 40 73 66 74 67 75 75 76
REMARK SMILES IDX 68 77 69 78 73 79 76 80 70 81 71 82 74 83 72 84 51 85 52 86
REMARK SMILES IDX 60 87 53 88 54 89 58 90 61 91 55 92 56 93 59 94 57 95
REMARK H PARENT 11 11 81 48 49 59
REMARK Flexibility Score: inf
ROOT
ATOM      1  C   UNL A   1      33.087  29.513  26.030  1.00  0.00     0.202 C 
ENDROOT
BRANCH   1   2
ATOM      2  C   UNL A   1      33.656  28.478  25.049  1.00  0.00     0.261 C 
BRANCH   2   3
ATOM      3  O   UNL A   1      32.671  27.994  24.123  1.00  0.00    -0.461 OA
BRANCH   3   4
ATOM      4  C   UNL A   1      32.008  26.872  24.522  1.00  0.00     0.341 C 
ATOM      5  O   UNL A   1      32.181  26.340  25.612  1.00  0.00    -0.249 OA
BRANCH   4   6
ATOM      6  C   UNL A   1      31.000  26.370  23.470  1.00  0.00     0.231 C 
ATOM      7  C   UNL A   1      30.293  25.167  24.113  1.00  0.00     0.058 C 
BRANCH   6   8
ATOM      8  N   UNL A   1      31.728  25.861  22.244  1.00  0.00    -0.333 N 
ATOM      9  C   UNL A   1      32.954  25.365  21.938  1.00  0.00     0.225 C 
ATOM     10  O   UNL A   1      33.283  25.470  20.749  1.00  0.00    -0.275 OA
ATOM     11  H   UNL A   1      31.152  25.902  21.446  1.00  0.00     0.164 HD
BRANCH   9  12
ATOM     12  C   UNL A   1      33.831  24.561  22.881  1.00  0.00     0.135 C 
BRANCH  12  13
ATOM     13  C   UNL A   1      33.340  23.204  23.299  1.00  0.00    -0.035 A 
ATOM     14  C   UNL A   1      33.369  21.421  24.953  1.00  0.00     0.119 A 
ATOM     15  C   UNL A   1      32.636  20.613  24.086  1.00  0.00     0.046 A 
ATOM     16  C   UNL A   1      33.643  22.740  24.592  1.00  0.00     0.050 A 
ATOM     17  C   UNL A   1      32.223  21.105  22.846  1.00  0.00     0.004 A 
ATOM     18  C   UNL A   1      32.580  22.394  22.448  1.00  0.00     0.004 A 
BRANCH  14  19
ATOM     19  O   UNL A   1      33.804  20.829  26.107  1.00  0.00    -0.497 OA
ATOM     20  C   UNL A   1      33.951  21.706  27.225  1.00  0.00     0.278 C 
ENDBRANCH  14  19
ENDBRANCH  12  13
ENDBRANCH   9  12
ENDBRANCH   6   8
BRANCH   6  21
ATOM     21  C   UNL A   1      30.029  27.549  23.326  1.00  0.00     0.422 C 
ATOM     22  F   UNL A   1      30.083  28.380  24.394  1.00  0.00    -0.168 F 
ATOM     23  F   UNL A   1      30.320  28.265  22.220  1.00  0.00    -0.168 F 
ATOM     24  F   UNL A   1      28.732  27.202  23.182  1.00  0.00    -0.168 F 
ENDBRANCH   6  21
ENDBRANCH   4   6
ENDBRANCH   3   4
ENDBRANCH   2   3
ENDBRANCH   1   2
BRANCH   1  25
ATOM     25  O   UNL A   1      32.138  30.442  25.518  1.00  0.00    -0.374 OA
BRANCH  25  26
ATOM     26  C   UNL A   1      31.403  31.243  26.446  1.00  0.00     0.202 C 
BRANCH  26  27
ATOM     27  C   UNL A   1      31.982  32.604  26.858  1.00  0.00     0.261 C 
BRANCH  27  28
ATOM     28  O   UNL A   1      32.866  32.525  27.995  1.00  0.00    -0.460 OA
BRANCH  28  29
ATOM     29  C   UNL A   1      33.887  33.414  27.973  1.00  0.00     0.338 C 
ATOM     30  O   UNL A   1      33.809  34.638  27.978  1.00  0.00    -0.246 OA
BRANCH  29  31
ATOM     31  C   UNL A   1      35.183  32.735  28.122  1.00  0.00     0.060 A 
ATOM     32  C   UNL A   1      35.173  31.343  28.283  1.00  0.00     0.016 A 
ATOM     33  C   UNL A   1      36.363  33.462  28.291  1.00  0.00     0.016 A 
ATOM     34  C   UNL A   1      36.329  30.678  28.681  1.00  0.00     0.010 A 
ATOM     35  C   UNL A   1      37.523  32.794  28.701  1.00  0.00     0.010 A 
ATOM     36  C   UNL A   1      37.496  31.408  28.948  1.00  0.00    -0.014 A 
BRANCH  36  37
ATOM     37  C   UNL A   1      38.598  30.745  29.689  1.00  0.00     0.031 A 
ATOM     38  C   UNL A   1      38.804  31.091  31.140  1.00  0.00     0.074 A 
ATOM     39  C   UNL A   1      39.357  29.801  29.107  1.00  0.00     0.049 A 
ATOM     40  N   UNL A   1      39.677  30.621  31.994  1.00  0.00    -0.248 NA
ATOM     41  C   UNL A   1      37.896  32.102  31.705  1.00  0.00     0.031 C 
ATOM     42  C   UNL A   1      39.222  29.342  27.728  1.00  0.00     0.029 A 
ATOM     43  N   UNL A   1      40.389  29.051  29.615  1.00  0.00    -0.354 N 
ATOM     44  C   UNL A   1      39.423  31.276  33.193  1.00  0.00     0.074 A 
ATOM     45  C   UNL A   1      38.338  32.201  32.950  1.00  0.00     0.031 C 
ATOM     46  C   UNL A   1      40.138  28.386  27.496  1.00  0.00     0.029 A 
ATOM     47  C   UNL A   1      40.937  28.183  28.704  1.00  0.00     0.049 A 
ATOM     48  H   UNL A   1      40.705  29.129  30.544  1.00  0.00     0.167 HD
ATOM     49  C   UNL A   1      40.028  31.111  34.393  1.00  0.00     0.037 A 
ATOM     50  C   UNL A   1      41.970  27.329  28.833  1.00  0.00     0.037 A 
ATOM     51  C   UNL A   1      41.110  30.194  34.637  1.00  0.00     0.049 A 
ATOM     52  C   UNL A   1      42.675  27.215  30.161  1.00  0.00     0.074 A 
ATOM     53  C   UNL A   1      41.799  29.960  35.814  1.00  0.00     0.029 A 
ATOM     54  N   UNL A   1      41.664  29.359  33.677  1.00  0.00    -0.354 N 
ATOM     55  N   UNL A   1      42.420  27.827  31.291  1.00  0.00    -0.248 NA
ATOM     56  C   UNL A   1      43.810  26.283  30.229  1.00  0.00     0.031 C 
ATOM     57  C   UNL A   1      42.795  29.013  35.557  1.00  0.00     0.029 A 
ATOM     58  C   UNL A   1      42.696  28.620  34.232  1.00  0.00     0.049 A 
ATOM     59  H   UNL A   1      41.367  29.301  32.740  1.00  0.00     0.167 HD
ATOM     60  C   UNL A   1      43.334  27.330  32.212  1.00  0.00     0.074 A 
ATOM     61  C   UNL A   1      44.148  26.360  31.509  1.00  0.00     0.031 C 
ATOM     62  C   UNL A   1      43.482  27.645  33.523  1.00  0.00     0.037 A 
BRANCH  49  63
ATOM     63  C   UNL A   1      39.545  31.964  35.529  1.00  0.00     0.064 A 
ATOM     64  C   UNL A   1      38.549  31.519  36.411  1.00  0.00     0.173 A 
ATOM     65  C   UNL A   1      40.093  33.238  35.746  1.00  0.00     0.173 A 
ATOM     66  F   UNL A   1      37.983  30.315  36.238  1.00  0.00    -0.203 F 
ATOM     67  C   UNL A   1      38.100  32.329  37.452  1.00  0.00     0.198 A 
ATOM     68  C   UNL A   1      39.661  34.034  36.803  1.00  0.00     0.198 A 
ATOM     69  F   UNL A   1      41.050  33.710  34.933  1.00  0.00    -0.203 F 
ATOM     70  F   UNL A   1      37.112  31.903  38.252  1.00  0.00    -0.200 F 
ATOM     71  C   UNL A   1      38.658  33.584  37.649  1.00  0.00     0.200 A 
ATOM     72  F   UNL A   1      40.208  35.241  36.998  1.00  0.00    -0.200 F 
ATOM     73  F   UNL A   1      38.225  34.362  38.650  1.00  0.00    -0.200 F 
ENDBRANCH  49  63
BRANCH  50  74
ATOM     74  C   UNL A   1      42.399  26.502  27.676  1.00  0.00     0.064 A 
ATOM     75  C   UNL A   1      41.823  25.248  27.431  1.00  0.00     0.173 A 
ATOM     76  C   UNL A   1      43.405  26.942  26.802  1.00  0.00     0.173 A 
ATOM     77  F   UNL A   1      40.875  24.774  28.253  1.00  0.00    -0.203 F 
ATOM     78  C   UNL A   1      42.247  24.457  26.364  1.00  0.00     0.198 A 
ATOM     79  C   UNL A   1      43.810  26.161  25.721  1.00  0.00     0.198 A 
ATOM     80  F   UNL A   1      43.989  28.133  26.996  1.00  0.00    -0.203 F 
ATOM     81  F   UNL A   1      41.711  23.244  26.178  1.00  0.00    -0.200 F 
ATOM     82  C   UNL A   1      43.237  24.917  25.507  1.00  0.00     0.200 A 
ATOM     83  F   UNL A   1      44.759  26.614  24.890  1.00  0.00    -0.200 F 
ATOM     84  F   UNL A   1      43.643  24.158  24.481  1.00  0.00    -0.200 F 
ENDBRANCH  50  74
BRANCH  62  85
ATOM     85  C   UNL A   1      44.528  26.897  34.297  1.00  0.00     0.064 A 
ATOM     86  C   UNL A   1      45.834  27.388  34.442  1.00  0.00     0.173 A 
ATOM     87  C   UNL A   1      44.204  25.691  34.939  1.00  0.00     0.173 A 
ATOM     88  F   UNL A   1      46.197  28.529  33.837  1.00  0.00    -0.203 F 
ATOM     89  C   UNL A   1      46.784  26.685  35.178  1.00  0.00     0.198 A 
ATOM     90  C   UNL A   1      45.149  25.006  35.698  1.00  0.00     0.198 A 
ATOM     91  F   UNL A   1      42.966  25.183  34.838  1.00  0.00    -0.203 F 
ATOM     92  F   UNL A   1      48.038  27.149  35.264  1.00  0.00    -0.200 F 
ATOM     93  C   UNL A   1      46.439  25.499  35.810  1.00  0.00     0.200 A 
ATOM     94  F   UNL A   1      44.810  23.867  36.318  1.00  0.00    -0.200 F 
ATOM     95  F   UNL A   1      47.355  24.828  36.522  1.00  0.00    -0.200 F 
ENDBRANCH  62  85
ENDBRANCH  36  37
ENDBRANCH  29  31
ENDBRANCH  28  29
ENDBRANCH  27  28
ENDBRANCH  26  27
ENDBRANCH  25  26
ENDBRANCH   1  25
TORSDOF 19
ENDMDL
MODEL 3
REMARK VINA RESULT:     -11.1      1.276      7.455
REMARK SMILES COc1cccc(CC(=O)N[C@@](C)(C(=O)OCCOCCOC(=O)c2ccc(-c3c4nc(c(-c5c(F)c(F)c(F)c(F)c5F)c5ccc([nH]5)c(-c5c(F)c(F)c(F)c(F)c5F)c5nc(c(-c6c(F)c(F)c(F)c(F)c6F)c6ccc3[nH]6)C=C5)C=C4)cc2)C(F)(F)F)c1
REMARK SMILES IDX 18 1 17 2 16 3 14 4 15 5 12 6 13 7 11 8 9 9 10 10 8 12 7 13
REMARK SMILES IDX 3 14 4 15 92 16 5 17 6 18 2 19 1 20 88 21 89 22 90 23 91 24
REMARK SMILES IDX 19 25 20 26 21 27 22 28 23 29 24 30 25 31 26 32 87 33 27 34
REMARK SMILES IDX 86 35 28 36 29 37 30 38 80 39 31 40 85 41 79 42 81 43 32 44
REMARK SMILES IDX 84 45 78 46 77 47 33 49 65 50 45 51 64 52 46 53 49 54 63 55
REMARK SMILES IDX 82 56 47 57 48 58 62 60 83 61 50 62 34 63 35 64 43 65 36 66
REMARK SMILES IDX 37 67 41 68 44 69 38 70 39 71 42 72 40 73 66 74 67 75 75 76
REMARK SMILES IDX 68 77 69 78 73 79 76 80 70 81 71 82 74 83 72 84 51 85 52 86
REMARK SMILES IDX 60 87 53 88 54 89 58 90 61 91 55 92 56 93 59 94 57 95
REMARK H PARENT 11 11 81 48 49 59
REMARK Flexibility Score: inf
ROOT
ATOM      1  C   UNL A   1      31.392  27.391  25.913  1.00  0.00     0.202 C 
ENDROOT
BRANCH   1   2
ATOM      2  C   UNL A   1      30.973  26.844  24.541  1.00  0.00     0.261 C 
BRANCH   2   3
ATOM      3  O   UNL A   1      32.007  26.068  23.917  1.00  0.00    -0.461 OA
BRANCH   3   4
ATOM      4  C   UNL A   1      31.632  24.818  23.524  1.00  0.00     0.341 C 
ATOM      5  O   UNL A   1      30.658  24.601  22.813  1.00  0.00    -0.249 OA
BRANCH   4   6
ATOM      6  C   UNL A   1      32.581  23.720  24.041  1.00  0.00     0.231 C 
ATOM      7  C   UNL A   1      32.010  22.395  23.513  1.00  0.00     0.058 C 
BRANCH   6   8
ATOM      8  N   UNL A   1      32.539  23.657  25.553  1.00  0.00    -0.333 N 
ATOM      9  C   UNL A   1      32.669  22.714  26.522  1.00  0.00     0.225 C 
ATOM     10  O   UNL A   1      32.143  22.999  27.606  1.00  0.00    -0.275 OA
ATOM     11  H   UNL A   1      32.369  24.545  25.943  1.00  0.00     0.164 HD
BRANCH   9  12
ATOM     12  C   UNL A   1      33.534  21.471  26.422  1.00  0.00     0.135 C 
BRANCH  12  13
ATOM     13  C   UNL A   1      34.969  21.656  26.014  1.00  0.00    -0.035 A 
ATOM     14  C   UNL A   1      36.939  23.082  25.997  1.00  0.00     0.119 A 
ATOM     15  C   UNL A   1      37.576  22.181  25.146  1.00  0.00     0.046 A 
ATOM     16  C   UNL A   1      35.673  22.775  26.495  1.00  0.00     0.050 A 
ATOM     17  C   UNL A   1      36.932  21.005  24.757  1.00  0.00     0.004 A 
ATOM     18  C   UNL A   1      35.628  20.745  25.183  1.00  0.00     0.004 A 
BRANCH  14  19
ATOM     19  O   UNL A   1      37.609  24.246  26.255  1.00  0.00    -0.497 OA
ATOM     20  C   UNL A   1      38.995  24.097  26.563  1.00  0.00     0.278 C 
ENDBRANCH  14  19
ENDBRANCH  12  13
ENDBRANCH   9  12
ENDBRANCH   6   8
BRANCH   6  21
ATOM     21  C   UNL A   1      33.908  24.050  23.345  1.00  0.00     0.422 C 
ATOM     22  F   UNL A   1      34.580  22.931  22.985  1.00  0.00    -0.168 F 
ATOM     23  F   UNL A   1      33.686  24.784  22.235  1.00  0.00    -0.168 F 
ATOM     24  F   UNL A   1      34.767  24.787  24.081  1.00  0.00    -0.168 F 
ENDBRANCH   6  21
ENDBRANCH   4   6
ENDBRANCH   3   4
ENDBRANCH   2   3
ENDBRANCH   1   2
BRANCH   1  25
ATOM     25  O   UNL A   1      32.693  27.956  26.020  1.00  0.00    -0.374 OA
BRANCH  25  26
ATOM     26  C   UNL A   1      32.906  29.273  25.506  1.00  0.00     0.202 C 
BRANCH  26  27
ATOM     27  C   UNL A   1      32.258  30.459  26.236  1.00  0.00     0.261 C 
BRANCH  27  28
ATOM     28  O   UNL A   1      32.782  30.662  27.565  1.00  0.00    -0.460 OA
BRANCH  28  29
ATOM     29  C   UNL A   1      33.628  31.713  27.678  1.00  0.00     0.338 C 
ATOM     30  O   UNL A   1      33.333  32.899  27.770  1.00  0.00    -0.246 OA
BRANCH  29  31
ATOM     31  C   UNL A   1      35.015  31.258  27.861  1.00  0.00     0.060 A 
ATOM     32  C   UNL A   1      35.227  29.889  28.072  1.00  0.00     0.016 A 
ATOM     33  C   UNL A   1      36.059  32.172  28.014  1.00  0.00     0.016 A 
ATOM     34  C   UNL A   1      36.470  29.434  28.503  1.00  0.00     0.010 A 
ATOM     35  C   UNL A   1      37.306  31.714  28.457  1.00  0.00     0.010 A 
ATOM     36  C   UNL A   1      37.500  30.352  28.753  1.00  0.00    -0.014 A 
BRANCH  36  37
ATOM     37  C   UNL A   1      38.685  29.902  29.526  1.00  0.00     0.031 A 
ATOM     38  C   UNL A   1      38.880  30.431  30.922  1.00  0.00     0.074 A 
ATOM     39  C   UNL A   1      39.532  28.985  29.027  1.00  0.00     0.049 A 
ATOM     40  N   UNL A   1      39.817  30.159  31.794  1.00  0.00    -0.248 NA
ATOM     41  C   UNL A   1      37.876  31.394  31.402  1.00  0.00     0.031 C 
ATOM     42  C   UNL A   1      39.422  28.361  27.713  1.00  0.00     0.029 A 
ATOM     43  N   UNL A   1      40.652  28.416  29.581  1.00  0.00    -0.354 N 
ATOM     44  C   UNL A   1      39.516  30.913  32.921  1.00  0.00     0.074 A 
ATOM     45  C   UNL A   1      38.330  31.681  32.613  1.00  0.00     0.031 C 
ATOM     46  C   UNL A   1      40.435  27.491  27.558  1.00  0.00     0.029 A 
ATOM     47  C   UNL A   1      41.275  27.514  28.754  1.00  0.00     0.049 A 
ATOM     48  H   UNL A   1      40.977  28.633  30.485  1.00  0.00     0.167 HD
ATOM     49  C   UNL A   1      40.161  30.953  34.112  1.00  0.00     0.037 A 
ATOM     50  C   UNL A   1      42.401  26.799  28.943  1.00  0.00     0.037 A 
ATOM     51  C   UNL A   1      41.344  30.194  34.420  1.00  0.00     0.049 A 
ATOM     52  C   UNL A   1      43.141  26.914  30.251  1.00  0.00     0.074 A 
ATOM     53  C   UNL A   1      42.078  30.171  35.592  1.00  0.00     0.029 A 
ATOM     54  N   UNL A   1      41.967  29.320  33.540  1.00  0.00    -0.354 N 
ATOM     55  N   UNL A   1      42.842  27.619  31.314  1.00  0.00    -0.248 NA
ATOM     56  C   UNL A   1      44.374  26.125  30.385  1.00  0.00     0.031 C 
ATOM     57  C   UNL A   1      43.169  29.315  35.409  1.00  0.00     0.029 A 
ATOM     58  C   UNL A   1      43.087  28.766  34.139  1.00  0.00     0.049 A 
ATOM     59  H   UNL A   1      41.660  29.124  32.626  1.00  0.00     0.167 HD
ATOM     60  C   UNL A   1      43.824  27.332  32.254  1.00  0.00     0.074 A 
ATOM     61  C   UNL A   1      44.727  26.383  31.636  1.00  0.00     0.031 C 
ATOM     62  C   UNL A   1      43.963  27.808  33.517  1.00  0.00     0.037 A 
BRANCH  49  63
ATOM     63  C   UNL A   1      39.608  31.872  35.161  1.00  0.00     0.064 A 
ATOM     64  C   UNL A   1      38.740  31.408  36.161  1.00  0.00     0.173 A 
ATOM     65  C   UNL A   1      39.961  33.230  35.176  1.00  0.00     0.173 A 
ATOM     66  F   UNL A   1      38.360  30.122  36.182  1.00  0.00    -0.203 F 
ATOM     67  C   UNL A   1      38.222  32.277  37.119  1.00  0.00     0.198 A 
ATOM     68  C   UNL A   1      39.464  34.090  36.151  1.00  0.00     0.198 A 
ATOM     69  F   UNL A   1      40.790  33.723  34.244  1.00  0.00    -0.203 F 
ATOM     70  F   UNL A   1      37.355  31.823  38.035  1.00  0.00    -0.200 F 
ATOM     71  C   UNL A   1      38.588  33.615  37.116  1.00  0.00     0.200 A 
ATOM     72  F   UNL A   1      39.825  35.380  36.153  1.00  0.00    -0.200 F 
ATOM     73  F   UNL A   1      38.090  34.450  38.039  1.00  0.00    -0.200 F 
ENDBRANCH  49  63
BRANCH  50  74
ATOM     74  C   UNL A   1      42.896  25.898  27.871  1.00  0.00     0.064 A 
ATOM     75  C   UNL A   1      43.756  26.370  26.869  1.00  0.00     0.173 A 
ATOM     76  C   UNL A   1      42.505  24.552  27.816  1.00  0.00     0.173 A 
ATOM     77  F   UNL A   1      44.137  27.656  26.865  1.00  0.00    -0.203 F 
ATOM     78  C   UNL A   1      44.195  25.533  25.845  1.00  0.00     0.198 A 
ATOM     79  C   UNL A   1      42.965  23.709  26.805  1.00  0.00     0.198 A 
ATOM     80  F   UNL A   1      41.681  24.053  28.749  1.00  0.00    -0.203 F 
ATOM     81  F   UNL A   1      44.981  26.020  24.876  1.00  0.00    -0.200 F 
ATOM     82  C   UNL A   1      43.804  24.203  25.817  1.00  0.00     0.200 A 
ATOM     83  F   UNL A   1      42.593  22.423  26.788  1.00  0.00    -0.200 F 
ATOM     84  F   UNL A   1      44.227  23.398  24.833  1.00  0.00    -0.200 F 
ENDBRANCH  50  74
BRANCH  62  85
ATOM     85  C   UNL A   1      45.102  27.271  34.334  1.00  0.00     0.064 A 
ATOM     86  C   UNL A   1      46.352  27.907  34.368  1.00  0.00     0.173 A 
ATOM     87  C   UNL A   1      44.923  26.127  35.128  1.00  0.00     0.173 A 
ATOM     88  F   UNL A   1      46.576  28.996  33.617  1.00  0.00    -0.203 F 
ATOM     89  C   UNL A   1      47.390  27.401  35.146  1.00  0.00     0.198 A 
ATOM     90  C   UNL A   1      45.955  25.641  35.926  1.00  0.00     0.198 A 
ATOM     91  F   UNL A   1      43.745  25.487  35.136  1.00  0.00    -0.203 F 
ATOM     92  F   UNL A   1      48.589  27.997  35.128  1.00  0.00    -0.200 F 
ATOM     93  C   UNL A   1      47.189  26.273  35.929  1.00  0.00     0.200 A 
ATOM     94  F   UNL A   1      45.755  24.558  36.691  1.00  0.00    -0.200 F 
ATOM     95  F   UNL A   1      48.189  25.791  36.680  1.00  0.00    -0.200 F 
ENDBRANCH  62  85
ENDBRANCH  36  37
ENDBRANCH  29  31
ENDBRANCH  28  29
ENDBRANCH  27  28
ENDBRANCH  26  27
ENDBRANCH  25  26
ENDBRANCH   1  25
TORSDOF 19
ENDMDL
