MODEL 1
REMARK VINA RESULT:     -12.1      0.000      0.000
REMARK SMILES CC(C)Cc1cc2c(cc1Cl)C=C(C(=O)OCCOCCOC(=O)c1ccc(-c3c4nc(c(-c5c(F)c(F)c(F)c(F)c5F)c5ccc([nH]5)c(-c5c(F)c(F)c(F)c(F)c5F)c5nc(c(-c6c(F)c(F)c(F)c(F)c6F)c6ccc3[nH]6)C=C5)C=C4)cc1)[C@@H](C(F)(F)F)O2
REMARK SMILES IDX 19 1 18 2 17 3 16 4 14 5 15 6 13 7 5 8 6 9 10 10 7 11 9 12
REMARK SMILES IDX 11 13 8 14 93 15 12 16 88 17 4 18 2 19 1 20 3 21 89 22 90 23
REMARK SMILES IDX 91 24 92 25 20 26 21 27 22 28 23 29 24 30 25 31 26 32 87 33
REMARK SMILES IDX 27 34 86 35 28 36 29 37 30 38 80 39 31 40 85 41 79 42 81 43
REMARK SMILES IDX 32 44 84 45 78 46 77 47 33 49 65 50 45 51 64 52 46 53 49 54
REMARK SMILES IDX 63 55 82 56 47 57 48 58 62 60 83 61 50 62 34 63 35 64 43 65
REMARK SMILES IDX 36 66 37 67 41 68 44 69 38 70 39 71 42 72 40 73 66 74 67 75
REMARK SMILES IDX 75 76 68 77 69 78 73 79 76 80 70 81 71 82 74 83 72 84 51 85
REMARK SMILES IDX 52 86 60 87 53 88 54 89 58 90 61 91 55 92 56 93 59 94 57 95
REMARK H PARENT 81 48 49 59
REMARK Flexibility Score: inf
ROOT
ATOM      1  O   UNL A   1      34.334  20.355  24.632  1.00  0.00    -0.374 OA
ENDROOT
BRANCH   1   2
ATOM      2  C   UNL A   1      33.152  20.973  24.130  1.00  0.00     0.202 C 
BRANCH   2   3
ATOM      3  C   UNL A   1      32.164  21.552  25.145  1.00  0.00     0.261 C 
BRANCH   3   4
ATOM      4  O   UNL A   1      31.657  22.831  24.737  1.00  0.00    -0.460 OA
BRANCH   4   5
ATOM      5  C   UNL A   1      32.336  23.885  25.247  1.00  0.00     0.338 C 
ATOM      6  O   UNL A   1      33.303  23.839  25.991  1.00  0.00    -0.246 OA
BRANCH   5   7
ATOM      7  C   UNL A   1      31.824  25.142  24.673  1.00  0.00     0.087 C 
ATOM      8  C   UNL A   1      28.743  28.618  22.771  1.00  0.00    -0.025 A 
ATOM      9  C   UNL A   1      30.140  28.429  22.763  1.00  0.00     0.052 A 
ATOM     10  C   UNL A   1      27.953  27.731  23.519  1.00  0.00     0.045 A 
ATOM     11  C   UNL A   1      30.727  27.375  23.465  1.00  0.00     0.128 A 
ATOM     12  C   UNL A   1      28.542  26.691  24.239  1.00  0.00     0.032 A 
ATOM     13  Cl  UNL A   1      26.228  27.840  23.564  1.00  0.00    -0.084 Cl
ATOM     14  C   UNL A   1      29.926  26.502  24.198  1.00  0.00     0.019 A 
ATOM     15  O   UNL A   1      32.087  27.269  23.391  1.00  0.00    -0.475 OA
ATOM     16  C   UNL A   1      30.518  25.361  24.861  1.00  0.00     0.027 C 
ATOM     17  C   UNL A   1      32.728  26.064  23.901  1.00  0.00     0.316 C 
BRANCH   8  18
ATOM     18  C   UNL A   1      28.154  29.768  21.985  1.00  0.00     0.040 C 
BRANCH  18  19
ATOM     19  C   UNL A   1      28.514  31.156  22.550  1.00  0.00    -0.013 C 
ATOM     20  C   UNL A   1      28.337  32.265  21.510  1.00  0.00     0.008 C 
ATOM     21  C   UNL A   1      27.658  31.453  23.781  1.00  0.00     0.008 C 
ENDBRANCH  18  19
ENDBRANCH   8  18
BRANCH  17  22
ATOM     22  C   UNL A   1      33.432  25.348  22.739  1.00  0.00     0.430 C 
ATOM     23  F   UNL A   1      34.512  24.654  23.171  1.00  0.00    -0.167 F 
ATOM     24  F   UNL A   1      32.615  24.452  22.134  1.00  0.00    -0.167 F 
ATOM     25  F   UNL A   1      33.856  26.212  21.790  1.00  0.00    -0.167 F 
ENDBRANCH  17  22
ENDBRANCH   5   7
ENDBRANCH   4   5
ENDBRANCH   3   4
ENDBRANCH   2   3
ENDBRANCH   1   2
BRANCH   1  26
ATOM     26  C   UNL A   1      35.440  21.181  24.988  1.00  0.00     0.202 C 
BRANCH  26  27
ATOM     27  C   UNL A   1      36.828  20.536  25.090  1.00  0.00     0.261 C 
BRANCH  27  28
ATOM     28  O   UNL A   1      37.899  21.495  25.089  1.00  0.00    -0.460 OA
BRANCH  28  29
ATOM     29  C   UNL A   1      38.943  21.179  25.893  1.00  0.00     0.338 C 
ATOM     30  O   UNL A   1      39.464  20.082  26.037  1.00  0.00    -0.246 OA
BRANCH  29  31
ATOM     31  C   UNL A   1      39.514  22.411  26.466  1.00  0.00     0.060 A 
ATOM     32  C   UNL A   1      40.570  22.364  27.377  1.00  0.00     0.016 A 
ATOM     33  C   UNL A   1      38.996  23.642  26.039  1.00  0.00     0.016 A 
ATOM     34  C   UNL A   1      41.122  23.558  27.842  1.00  0.00     0.010 A 
ATOM     35  C   UNL A   1      39.558  24.834  26.498  1.00  0.00     0.010 A 
ATOM     36  C   UNL A   1      40.636  24.802  27.392  1.00  0.00    -0.014 A 
BRANCH  36  37
ATOM     37  C   UNL A   1      41.339  26.048  27.786  1.00  0.00     0.031 A 
ATOM     38  C   UNL A   1      42.747  26.322  27.353  1.00  0.00     0.074 A 
ATOM     39  C   UNL A   1      40.674  26.951  28.533  1.00  0.00     0.049 A 
ATOM     40  N   UNL A   1      43.447  27.421  27.488  1.00  0.00    -0.248 NA
ATOM     41  C   UNL A   1      43.468  25.226  26.692  1.00  0.00     0.031 C 
ATOM     42  C   UNL A   1      39.322  26.765  29.061  1.00  0.00     0.029 A 
ATOM     43  N   UNL A   1      41.031  28.206  28.959  1.00  0.00    -0.354 N 
ATOM     44  C   UNL A   1      44.678  27.159  26.904  1.00  0.00     0.074 A 
ATOM     45  C   UNL A   1      44.655  25.778  26.473  1.00  0.00     0.031 C 
ATOM     46  C   UNL A   1      38.942  27.886  29.693  1.00  0.00     0.029 A 
ATOM     47  C   UNL A   1      40.031  28.857  29.640  1.00  0.00     0.049 A 
ATOM     48  H   UNL A   1      41.917  28.600  28.792  1.00  0.00     0.167 HD
ATOM     49  C   UNL A   1      45.718  28.008  26.720  1.00  0.00     0.037 A 
ATOM     50  C   UNL A   1      39.990  30.104  30.150  1.00  0.00     0.037 A 
ATOM     51  C   UNL A   1      45.735  29.379  27.161  1.00  0.00     0.049 A 
ATOM     52  C   UNL A   1      41.178  31.009  29.972  1.00  0.00     0.074 A 
ATOM     53  C   UNL A   1      46.720  30.332  26.971  1.00  0.00     0.029 A 
ATOM     54  N   UNL A   1      44.727  29.988  27.894  1.00  0.00    -0.354 N 
ATOM     55  N   UNL A   1      42.292  30.790  29.317  1.00  0.00    -0.248 NA
ATOM     56  C   UNL A   1      41.104  32.336  30.602  1.00  0.00     0.031 C 
ATOM     57  C   UNL A   1      46.337  31.498  27.640  1.00  0.00     0.029 A 
ATOM     58  C   UNL A   1      45.088  31.291  28.204  1.00  0.00     0.049 A 
ATOM     59  H   UNL A   1      43.881  29.559  28.158  1.00  0.00     0.167 HD
ATOM     60  C   UNL A   1      43.046  31.947  29.449  1.00  0.00     0.074 A 
ATOM     61  C   UNL A   1      42.252  32.880  30.220  1.00  0.00     0.031 C 
ATOM     62  C   UNL A   1      44.291  32.208  28.979  1.00  0.00     0.037 A 
BRANCH  49  63
ATOM     63  C   UNL A   1      46.923  27.493  25.987  1.00  0.00     0.064 A 
ATOM     64  C   UNL A   1      47.031  27.611  24.592  1.00  0.00     0.173 A 
ATOM     65  C   UNL A   1      48.015  26.957  26.686  1.00  0.00     0.173 A 
ATOM     66  F   UNL A   1      46.014  28.115  23.877  1.00  0.00    -0.203 F 
ATOM     67  C   UNL A   1      48.179  27.195  23.925  1.00  0.00     0.198 A 
ATOM     68  C   UNL A   1      49.173  26.568  26.017  1.00  0.00     0.198 A 
ATOM     69  F   UNL A   1      47.969  26.832  28.020  1.00  0.00    -0.203 F 
ATOM     70  F   UNL A   1      48.245  27.288  22.589  1.00  0.00    -0.200 F 
ATOM     71  C   UNL A   1      49.253  26.683  24.638  1.00  0.00     0.200 A 
ATOM     72  F   UNL A   1      50.216  26.090  26.709  1.00  0.00    -0.200 F 
ATOM     73  F   UNL A   1      50.364  26.300  23.994  1.00  0.00    -0.200 F 
ENDBRANCH  49  63
BRANCH  50  74
ATOM     74  C   UNL A   1      38.762  30.575  30.841  1.00  0.00     0.064 A 
ATOM     75  C   UNL A   1      38.640  30.481  32.234  1.00  0.00     0.173 A 
ATOM     76  C   UNL A   1      37.699  31.150  30.131  1.00  0.00     0.173 A 
ATOM     77  F   UNL A   1      39.622  29.921  32.956  1.00  0.00    -0.203 F 
ATOM     78  C   UNL A   1      37.498  30.935  32.889  1.00  0.00     0.198 A 
ATOM     79  C   UNL A   1      36.569  31.632  30.789  1.00  0.00     0.198 A 
ATOM     80  F   UNL A   1      37.767  31.268  28.796  1.00  0.00    -0.203 F 
ATOM     81  F   UNL A   1      37.391  30.801  34.218  1.00  0.00    -0.200 F 
ATOM     82  C   UNL A   1      36.467  31.519  32.167  1.00  0.00     0.200 A 
ATOM     83  F   UNL A   1      35.584  32.210  30.089  1.00  0.00    -0.200 F 
ATOM     84  F   UNL A   1      35.374  31.969  32.799  1.00  0.00    -0.200 F 
ENDBRANCH  50  74
BRANCH  62  85
ATOM     85  C   UNL A   1      44.896  33.545  29.299  1.00  0.00     0.064 A 
ATOM     86  C   UNL A   1      44.635  34.667  28.500  1.00  0.00     0.173 A 
ATOM     87  C   UNL A   1      45.651  33.730  30.467  1.00  0.00     0.173 A 
ATOM     88  F   UNL A   1      43.931  34.539  27.365  1.00  0.00    -0.203 F 
ATOM     89  C   UNL A   1      45.109  35.927  28.858  1.00  0.00     0.198 A 
ATOM     90  C   UNL A   1      46.098  34.997  30.838  1.00  0.00     0.198 A 
ATOM     91  F   UNL A   1      45.923  32.690  31.270  1.00  0.00    -0.203 F 
ATOM     92  F   UNL A   1      44.866  36.981  28.068  1.00  0.00    -0.200 F 
ATOM     93  C   UNL A   1      45.827  36.092  30.033  1.00  0.00     0.200 A 
ATOM     94  F   UNL A   1      46.775  35.157  31.983  1.00  0.00    -0.200 F 
ATOM     95  F   UNL A   1      46.256  37.310  30.391  1.00  0.00    -0.200 F 
ENDBRANCH  62  85
ENDBRANCH  36  37
ENDBRANCH  29  31
ENDBRANCH  28  29
ENDBRANCH  27  28
ENDBRANCH  26  27
ENDBRANCH   1  26
TORSDOF 17
ENDMDL
MODEL 2
REMARK VINA RESULT:     -11.9      4.225      9.893
REMARK SMILES CC(C)Cc1cc2c(cc1Cl)C=C(C(=O)OCCOCCOC(=O)c1ccc(-c3c4nc(c(-c5c(F)c(F)c(F)c(F)c5F)c5ccc([nH]5)c(-c5c(F)c(F)c(F)c(F)c5F)c5nc(c(-c6c(F)c(F)c(F)c(F)c6F)c6ccc3[nH]6)C=C5)C=C4)cc1)[C@@H](C(F)(F)F)O2
REMARK SMILES IDX 19 1 18 2 17 3 16 4 14 5 15 6 13 7 5 8 6 9 10 10 7 11 9 12
REMARK SMILES IDX 11 13 8 14 93 15 12 16 88 17 4 18 2 19 1 20 3 21 89 22 90 23
REMARK SMILES IDX 91 24 92 25 20 26 21 27 22 28 23 29 24 30 25 31 26 32 87 33
REMARK SMILES IDX 27 34 86 35 28 36 29 37 30 38 80 39 31 40 85 41 79 42 81 43
REMARK SMILES IDX 32 44 84 45 78 46 77 47 33 49 65 50 45 51 64 52 46 53 49 54
REMARK SMILES IDX 63 55 82 56 47 57 48 58 62 60 83 61 50 62 34 63 35 64 43 65
REMARK SMILES IDX 36 66 37 67 41 68 44 69 38 70 39 71 42 72 40 73 66 74 67 75
REMARK SMILES IDX 75 76 68 77 69 78 73 79 76 80 70 81 71 82 74 83 72 84 51 85
REMARK SMILES IDX 52 86 60 87 53 88 54 89 58 90 61 91 55 92 56 93 59 94 57 95
REMARK H PARENT 81 48 49 59
REMARK Flexibility Score: inf
ROOT
ATOM      1  O   UNL A   1      30.541  28.989  23.988  1.00  0.00    -0.374 OA
ENDROOT
BRANCH   1   2
ATOM      2  C   UNL A   1      30.126  27.730  23.466  1.00  0.00     0.202 C 
BRANCH   2   3
ATOM      3  C   UNL A   1      31.018  27.065  22.414  1.00  0.00     0.261 C 
BRANCH   3   4
ATOM      4  O   UNL A   1      31.358  25.716  22.768  1.00  0.00    -0.460 OA
BRANCH   4   5
ATOM      5  C   UNL A   1      32.604  25.576  23.278  1.00  0.00     0.338 C 
ATOM      6  O   UNL A   1      33.454  26.446  23.381  1.00  0.00    -0.246 OA
BRANCH   5   7
ATOM      7  C   UNL A   1      32.774  24.221  23.832  1.00  0.00     0.087 C 
ATOM      8  C   UNL A   1      32.542  19.243  24.432  1.00  0.00    -0.025 A 
ATOM      9  C   UNL A   1      32.811  20.327  25.292  1.00  0.00     0.052 A 
ATOM     10  C   UNL A   1      32.362  19.502  23.064  1.00  0.00     0.045 A 
ATOM     11  C   UNL A   1      32.880  21.633  24.802  1.00  0.00     0.128 A 
ATOM     12  C   UNL A   1      32.454  20.805  22.572  1.00  0.00     0.032 A 
ATOM     13  Cl  UNL A   1      31.982  18.257  21.928  1.00  0.00    -0.084 Cl
ATOM     14  C   UNL A   1      32.694  21.871  23.442  1.00  0.00     0.019 A 
ATOM     15  O   UNL A   1      33.138  22.618  25.713  1.00  0.00    -0.475 OA
ATOM     16  C   UNL A   1      32.684  23.228  22.940  1.00  0.00     0.027 C 
ATOM     17  C   UNL A   1      32.987  24.009  25.306  1.00  0.00     0.316 C 
BRANCH   8  18
ATOM     18  C   UNL A   1      32.465  17.849  25.013  1.00  0.00     0.040 C 
BRANCH  18  19
ATOM     19  C   UNL A   1      33.535  16.886  24.459  1.00  0.00    -0.013 C 
ATOM     20  C   UNL A   1      34.935  17.502  24.491  1.00  0.00     0.008 C 
ATOM     21  C   UNL A   1      33.519  15.580  25.254  1.00  0.00     0.008 C 
ENDBRANCH  18  19
ENDBRANCH   8  18
BRANCH  17  22
ATOM     22  C   UNL A   1      31.879  24.654  26.152  1.00  0.00     0.430 C 
ATOM     23  F   UNL A   1      30.680  24.587  25.525  1.00  0.00    -0.167 F 
ATOM     24  F   UNL A   1      31.727  24.023  27.341  1.00  0.00    -0.167 F 
ATOM     25  F   UNL A   1      32.131  25.955  26.414  1.00  0.00    -0.167 F 
ENDBRANCH  17  22
ENDBRANCH   5   7
ENDBRANCH   4   5
ENDBRANCH   3   4
ENDBRANCH   2   3
ENDBRANCH   1   2
BRANCH   1  26
ATOM     26  C   UNL A   1      31.445  29.010  25.089  1.00  0.00     0.202 C 
BRANCH  26  27
ATOM     27  C   UNL A   1      31.783  30.363  25.729  1.00  0.00     0.261 C 
BRANCH  27  28
ATOM     28  O   UNL A   1      32.645  30.248  26.874  1.00  0.00    -0.460 OA
BRANCH  28  29
ATOM     29  C   UNL A   1      33.284  31.393  27.219  1.00  0.00     0.338 C 
ATOM     30  O   UNL A   1      32.818  32.522  27.248  1.00  0.00    -0.246 OA
BRANCH  29  31
ATOM     31  C   UNL A   1      34.620  31.070  27.750  1.00  0.00     0.060 A 
ATOM     32  C   UNL A   1      35.567  32.068  27.980  1.00  0.00     0.016 A 
ATOM     33  C   UNL A   1      34.904  29.732  28.060  1.00  0.00     0.016 A 
ATOM     34  C   UNL A   1      36.796  31.724  28.546  1.00  0.00     0.010 A 
ATOM     35  C   UNL A   1      36.129  29.393  28.636  1.00  0.00     0.010 A 
ATOM     36  C   UNL A   1      37.079  30.389  28.899  1.00  0.00    -0.014 A 
BRANCH  36  37
ATOM     37  C   UNL A   1      38.330  30.076  29.634  1.00  0.00     0.031 A 
ATOM     38  C   UNL A   1      38.588  30.623  31.005  1.00  0.00     0.074 A 
ATOM     39  C   UNL A   1      39.233  29.265  29.050  1.00  0.00     0.049 A 
ATOM     40  N   UNL A   1      39.556  30.329  31.837  1.00  0.00    -0.248 NA
ATOM     41  C   UNL A   1      37.648  31.634  31.508  1.00  0.00     0.031 C 
ATOM     42  C   UNL A   1      39.115  28.722  27.697  1.00  0.00     0.029 A 
ATOM     43  N   UNL A   1      40.410  28.740  29.521  1.00  0.00    -0.354 N 
ATOM     44  C   UNL A   1      39.327  31.095  32.970  1.00  0.00     0.074 A 
ATOM     45  C   UNL A   1      38.167  31.917  32.697  1.00  0.00     0.031 C 
ATOM     46  C   UNL A   1      40.148  27.897  27.465  1.00  0.00     0.029 A 
ATOM     47  C   UNL A   1      41.014  27.875  28.641  1.00  0.00     0.049 A 
ATOM     48  H   UNL A   1      40.785  28.962  30.403  1.00  0.00     0.167 HD
ATOM     49  C   UNL A   1      40.007  31.086  34.142  1.00  0.00     0.037 A 
ATOM     50  C   UNL A   1      42.131  27.134  28.772  1.00  0.00     0.037 A 
ATOM     51  C   UNL A   1      41.166  30.271  34.402  1.00  0.00     0.049 A 
ATOM     52  C   UNL A   1      42.895  27.180  30.068  1.00  0.00     0.074 A 
ATOM     53  C   UNL A   1      41.890  30.152  35.576  1.00  0.00     0.029 A 
ATOM     54  N   UNL A   1      41.781  29.448  33.470  1.00  0.00    -0.354 N 
ATOM     55  N   UNL A   1      42.604  27.819  31.174  1.00  0.00    -0.248 NA
ATOM     56  C   UNL A   1      44.140  26.401  30.135  1.00  0.00     0.031 C 
ATOM     57  C   UNL A   1      42.976  29.306  35.337  1.00  0.00     0.029 A 
ATOM     58  C   UNL A   1      42.902  28.853  34.029  1.00  0.00     0.049 A 
ATOM     59  H   UNL A   1      41.469  29.307  32.546  1.00  0.00     0.167 HD
ATOM     60  C   UNL A   1      43.621  27.516  32.069  1.00  0.00     0.074 A 
ATOM     61  C   UNL A   1      44.522  26.610  31.388  1.00  0.00     0.031 C 
ATOM     62  C   UNL A   1      43.795  27.958  33.338  1.00  0.00     0.037 A 
BRANCH  49  63
ATOM     63  C   UNL A   1      39.508  31.966  35.250  1.00  0.00     0.064 A 
ATOM     64  C   UNL A   1      39.846  33.328  35.307  1.00  0.00     0.173 A 
ATOM     65  C   UNL A   1      38.617  31.472  36.216  1.00  0.00     0.173 A 
ATOM     66  F   UNL A   1      40.696  33.849  34.410  1.00  0.00    -0.203 F 
ATOM     67  C   UNL A   1      39.325  34.155  36.297  1.00  0.00     0.198 A 
ATOM     68  C   UNL A   1      38.077  32.310  37.187  1.00  0.00     0.198 A 
ATOM     69  F   UNL A   1      38.252  30.182  36.201  1.00  0.00    -0.203 F 
ATOM     70  F   UNL A   1      39.689  35.444  36.349  1.00  0.00    -0.200 F 
ATOM     71  C   UNL A   1      38.434  33.649  37.231  1.00  0.00     0.200 A 
ATOM     72  F   UNL A   1      37.201  31.823  38.079  1.00  0.00    -0.200 F 
ATOM     73  F   UNL A   1      37.921  34.452  38.172  1.00  0.00    -0.200 F 
ENDBRANCH  49  63
BRANCH  50  74
ATOM     74  C   UNL A   1      42.567  26.257  27.655  1.00  0.00     0.064 A 
ATOM     75  C   UNL A   1      42.025  24.975  27.493  1.00  0.00     0.173 A 
ATOM     76  C   UNL A   1      43.513  26.689  26.713  1.00  0.00     0.173 A 
ATOM     77  F   UNL A   1      41.132  24.509  28.378  1.00  0.00    -0.203 F 
ATOM     78  C   UNL A   1      42.419  24.154  26.438  1.00  0.00     0.198 A 
ATOM     79  C   UNL A   1      43.884  25.879  25.641  1.00  0.00     0.198 A 
ATOM     80  F   UNL A   1      44.058  27.909  26.820  1.00  0.00    -0.203 F 
ATOM     81  F   UNL A   1      41.912  22.919  26.327  1.00  0.00    -0.200 F 
ATOM     82  C   UNL A   1      43.341  24.611  25.508  1.00  0.00     0.200 A 
ATOM     83  F   UNL A   1      44.762  26.331  24.736  1.00  0.00    -0.200 F 
ATOM     84  F   UNL A   1      43.710  23.826  24.486  1.00  0.00    -0.200 F 
ENDBRANCH  50  74
BRANCH  62  85
ATOM     85  C   UNL A   1      45.017  27.496  34.081  1.00  0.00     0.064 A 
ATOM     86  C   UNL A   1      46.191  28.262  34.090  1.00  0.00     0.173 A 
ATOM     87  C   UNL A   1      44.980  26.337  34.872  1.00  0.00     0.173 A 
ATOM     88  F   UNL A   1      46.281  29.369  33.338  1.00  0.00    -0.203 F 
ATOM     89  C   UNL A   1      47.286  27.885  34.865  1.00  0.00     0.198 A 
ATOM     90  C   UNL A   1      46.065  25.980  35.669  1.00  0.00     0.198 A 
ATOM     91  F   UNL A   1      43.877  25.573  34.903  1.00  0.00    -0.203 F 
ATOM     92  F   UNL A   1      48.405  28.620  34.841  1.00  0.00    -0.200 F 
ATOM     93  C   UNL A   1      47.216  26.753  35.664  1.00  0.00     0.200 A 
ATOM     94  F   UNL A   1      45.990  24.897  36.454  1.00  0.00    -0.200 F 
ATOM     95  F   UNL A   1      48.259  26.409  36.431  1.00  0.00    -0.200 F 
ENDBRANCH  62  85
ENDBRANCH  36  37
ENDBRANCH  29  31
ENDBRANCH  28  29
ENDBRANCH  27  28
ENDBRANCH  26  27
ENDBRANCH   1  26
TORSDOF 17
ENDMDL
MODEL 3
REMARK VINA RESULT:     -11.9      4.554     10.333
REMARK SMILES CC(C)Cc1cc2c(cc1Cl)C=C(C(=O)OCCOCCOC(=O)c1ccc(-c3c4nc(c(-c5c(F)c(F)c(F)c(F)c5F)c5ccc([nH]5)c(-c5c(F)c(F)c(F)c(F)c5F)c5nc(c(-c6c(F)c(F)c(F)c(F)c6F)c6ccc3[nH]6)C=C5)C=C4)cc1)[C@@H](C(F)(F)F)O2
REMARK SMILES IDX 19 1 18 2 17 3 16 4 14 5 15 6 13 7 5 8 6 9 10 10 7 11 9 12
REMARK SMILES IDX 11 13 8 14 93 15 12 16 88 17 4 18 2 19 1 20 3 21 89 22 90 23
REMARK SMILES IDX 91 24 92 25 20 26 21 27 22 28 23 29 24 30 25 31 26 32 87 33
REMARK SMILES IDX 27 34 86 35 28 36 29 37 30 38 80 39 31 40 85 41 79 42 81 43
REMARK SMILES IDX 32 44 84 45 78 46 77 47 33 49 65 50 45 51 64 52 46 53 49 54
REMARK SMILES IDX 63 55 82 56 47 57 48 58 62 60 83 61 50 62 34 63 35 64 43 65
REMARK SMILES IDX 36 66 37 67 41 68 44 69 38 70 39 71 42 72 40 73 66 74 67 75
REMARK SMILES IDX 75 76 68 77 69 78 73 79 76 80 70 81 71 82 74 83 72 84 51 85
REMARK SMILES IDX 52 86 60 87 53 88 54 89 58 90 61 91 55 92 56 93 59 94 57 95
REMARK H PARENT 81 48 49 59
REMARK Flexibility Score: inf
ROOT
ATOM      1  O   UNL A   1      32.035  30.525  27.090  1.00  0.00    -0.374 OA
ENDROOT
BRANCH   1   2
ATOM      2  C   UNL A   1      32.781  29.599  26.305  1.00  0.00     0.202 C 
BRANCH   2   3
ATOM      3  C   UNL A   1      32.238  28.174  26.175  1.00  0.00     0.261 C 
BRANCH   3   4
ATOM      4  O   UNL A   1      33.287  27.194  26.175  1.00  0.00    -0.460 OA
BRANCH   4   5
ATOM      5  C   UNL A   1      33.543  26.657  24.959  1.00  0.00     0.338 C 
ATOM      6  O   UNL A   1      33.948  27.248  23.971  1.00  0.00    -0.246 OA
BRANCH   5   7
ATOM      7  C   UNL A   1      33.388  25.192  25.010  1.00  0.00     0.087 C 
ATOM      8  C   UNL A   1      34.361  20.275  24.755  1.00  0.00    -0.025 A 
ATOM      9  C   UNL A   1      33.182  21.047  24.757  1.00  0.00     0.052 A 
ATOM     10  C   UNL A   1      35.589  20.929  24.940  1.00  0.00     0.045 A 
ATOM     11  C   UNL A   1      33.230  22.433  24.920  1.00  0.00     0.128 A 
ATOM     12  C   UNL A   1      35.635  22.312  25.126  1.00  0.00     0.032 A 
ATOM     13  Cl  UNL A   1      37.100  20.089  24.910  1.00  0.00    -0.084 Cl
ATOM     14  C   UNL A   1      34.459  23.065  25.098  1.00  0.00     0.019 A 
ATOM     15  O   UNL A   1      32.035  23.095  24.901  1.00  0.00    -0.475 OA
ATOM     16  C   UNL A   1      34.524  24.507  25.187  1.00  0.00     0.027 C 
ATOM     17  C   UNL A   1      32.040  24.551  24.828  1.00  0.00     0.316 C 
BRANCH   8  18
ATOM     18  C   UNL A   1      34.257  18.778  24.563  1.00  0.00     0.040 C 
BRANCH  18  19
ATOM     19  C   UNL A   1      32.819  18.283  24.309  1.00  0.00    -0.013 C 
ATOM     20  C   UNL A   1      32.613  17.832  22.861  1.00  0.00     0.008 C 
ATOM     21  C   UNL A   1      32.489  17.137  25.266  1.00  0.00     0.008 C 
ENDBRANCH  18  19
ENDBRANCH   8  18
BRANCH  17  22
ATOM     22  C   UNL A   1      31.363  24.982  23.519  1.00  0.00     0.430 C 
ATOM     23  F   UNL A   1      30.803  26.210  23.637  1.00  0.00    -0.167 F 
ATOM     24  F   UNL A   1      32.251  25.061  22.499  1.00  0.00    -0.167 F 
ATOM     25  F   UNL A   1      30.390  24.124  23.141  1.00  0.00    -0.167 F 
ENDBRANCH  17  22
ENDBRANCH   5   7
ENDBRANCH   4   5
ENDBRANCH   3   4
ENDBRANCH   2   3
ENDBRANCH   1   2
BRANCH   1  26
ATOM     26  C   UNL A   1      31.392  31.616  26.435  1.00  0.00     0.202 C 
BRANCH  26  27
ATOM     27  C   UNL A   1      31.720  33.041  26.901  1.00  0.00     0.261 C 
BRANCH  27  28
ATOM     28  O   UNL A   1      33.131  33.299  26.983  1.00  0.00    -0.460 OA
BRANCH  28  29
ATOM     29  C   UNL A   1      33.533  33.889  28.136  1.00  0.00     0.338 C 
ATOM     30  O   UNL A   1      32.929  34.726  28.790  1.00  0.00    -0.246 OA
BRANCH  29  31
ATOM     31  C   UNL A   1      34.762  33.236  28.620  1.00  0.00     0.060 A 
ATOM     32  C   UNL A   1      35.989  33.900  28.603  1.00  0.00     0.016 A 
ATOM     33  C   UNL A   1      34.661  31.938  29.143  1.00  0.00     0.016 A 
ATOM     34  C   UNL A   1      37.113  33.267  29.134  1.00  0.00     0.010 A 
ATOM     35  C   UNL A   1      35.786  31.312  29.682  1.00  0.00     0.010 A 
ATOM     36  C   UNL A   1      37.018  31.978  29.696  1.00  0.00    -0.014 A 
BRANCH  36  37
ATOM     37  C   UNL A   1      38.194  31.392  30.386  1.00  0.00     0.031 A 
ATOM     38  C   UNL A   1      38.519  31.737  31.807  1.00  0.00     0.074 A 
ATOM     39  C   UNL A   1      38.965  30.517  29.711  1.00  0.00     0.049 A 
ATOM     40  N   UNL A   1      39.419  31.203  32.596  1.00  0.00    -0.248 NA
ATOM     41  C   UNL A   1      37.745  32.823  32.425  1.00  0.00     0.031 C 
ATOM     42  C   UNL A   1      38.779  30.151  28.307  1.00  0.00     0.029 A 
ATOM     43  N   UNL A   1      40.038  29.763  30.115  1.00  0.00    -0.354 N 
ATOM     44  C   UNL A   1      39.299  31.867  33.809  1.00  0.00     0.074 A 
ATOM     45  C   UNL A   1      38.288  32.887  33.635  1.00  0.00     0.031 C 
ATOM     46  C   UNL A   1      39.671  29.203  27.980  1.00  0.00     0.029 A 
ATOM     47  C   UNL A   1      40.508  28.915  29.141  1.00  0.00     0.049 A 
ATOM     48  H   UNL A   1      40.432  29.824  31.014  1.00  0.00     0.167 HD
ATOM     49  C   UNL A   1      39.955  31.621  34.969  1.00  0.00     0.037 A 
ATOM     50  C   UNL A   1      41.492  27.996  29.184  1.00  0.00     0.037 A 
ATOM     51  C   UNL A   1      40.967  30.609  35.130  1.00  0.00     0.049 A 
ATOM     52  C   UNL A   1      42.238  27.778  30.472  1.00  0.00     0.074 A 
ATOM     53  C   UNL A   1      41.648  30.248  36.280  1.00  0.00     0.029 A 
ATOM     54  N   UNL A   1      41.456  29.806  34.110  1.00  0.00    -0.354 N 
ATOM     55  N   UNL A   1      42.039  28.330  31.644  1.00  0.00    -0.248 NA
ATOM     56  C   UNL A   1      43.343  26.808  30.446  1.00  0.00     0.031 C 
ATOM     57  C   UNL A   1      42.590  29.272  35.944  1.00  0.00     0.029 A 
ATOM     58  C   UNL A   1      42.461  28.983  34.595  1.00  0.00     0.049 A 
ATOM     59  H   UNL A   1      41.137  29.819  33.178  1.00  0.00     0.167 HD
ATOM     60  C   UNL A   1      42.984  27.772  32.494  1.00  0.00     0.074 A 
ATOM     61  C   UNL A   1      43.738  26.815  31.712  1.00  0.00     0.031 C 
ATOM     62  C   UNL A   1      43.210  28.039  33.804  1.00  0.00     0.037 A 
BRANCH  49  63
ATOM     63  C   UNL A   1      39.588  32.441  36.170  1.00  0.00     0.064 A 
ATOM     64  C   UNL A   1      40.251  33.645  36.460  1.00  0.00     0.173 A 
ATOM     65  C   UNL A   1      38.512  32.073  36.992  1.00  0.00     0.173 A 
ATOM     66  F   UNL A   1      41.288  34.041  35.707  1.00  0.00    -0.203 F 
ATOM     67  C   UNL A   1      39.862  34.437  37.536  1.00  0.00     0.198 A 
ATOM     68  C   UNL A   1      38.108  32.884  38.050  1.00  0.00     0.198 A 
ATOM     69  F   UNL A   1      37.836  30.940  36.753  1.00  0.00    -0.203 F 
ATOM     70  F   UNL A   1      40.532  35.565  37.811  1.00  0.00    -0.200 F 
ATOM     71  C   UNL A   1      38.785  34.061  38.324  1.00  0.00     0.200 A 
ATOM     72  F   UNL A   1      37.055  32.528  38.800  1.00  0.00    -0.200 F 
ATOM     73  F   UNL A   1      38.401  34.835  39.348  1.00  0.00    -0.200 F 
ENDBRANCH  49  63
BRANCH  50  74
ATOM     74  C   UNL A   1      41.798  27.189  27.974  1.00  0.00     0.064 A 
ATOM     75  C   UNL A   1      42.696  27.657  27.006  1.00  0.00     0.173 A 
ATOM     76  C   UNL A   1      41.221  25.927  27.773  1.00  0.00     0.173 A 
ATOM     77  F   UNL A   1      43.259  28.866  27.143  1.00  0.00    -0.203 F 
ATOM     78  C   UNL A   1      42.998  26.897  25.877  1.00  0.00     0.198 A 
ATOM     79  C   UNL A   1      41.546  25.155  26.659  1.00  0.00     0.198 A 
ATOM     80  F   UNL A   1      40.358  25.431  28.673  1.00  0.00    -0.203 F 
ATOM     81  F   UNL A   1      43.833  27.383  24.948  1.00  0.00    -0.200 F 
ATOM     82  C   UNL A   1      42.430  25.643  25.710  1.00  0.00     0.200 A 
ATOM     83  F   UNL A   1      41.007  23.937  26.511  1.00  0.00    -0.200 F 
ATOM     84  F   UNL A   1      42.731  24.907  24.630  1.00  0.00    -0.200 F 
ENDBRANCH  50  74
BRANCH  62  85
ATOM     85  C   UNL A   1      44.334  27.310  34.484  1.00  0.00     0.064 A 
ATOM     86  C   UNL A   1      45.611  27.879  34.582  1.00  0.00     0.173 A 
ATOM     87  C   UNL A   1      44.107  26.086  35.132  1.00  0.00     0.173 A 
ATOM     88  F   UNL A   1      45.883  29.040  33.967  1.00  0.00    -0.203 F 
ATOM     89  C   UNL A   1      46.622  27.250  35.305  1.00  0.00     0.198 A 
ATOM     90  C   UNL A   1      45.111  25.474  35.879  1.00  0.00     0.198 A 
ATOM     91  F   UNL A   1      42.900  25.503  35.074  1.00  0.00    -0.203 F 
ATOM     92  F   UNL A   1      47.841  27.801  35.368  1.00  0.00    -0.200 F 
ATOM     93  C   UNL A   1      46.366  26.056  35.964  1.00  0.00     0.200 A 
ATOM     94  F   UNL A   1      44.857  24.331  36.530  1.00  0.00    -0.200 F 
ATOM     95  F   UNL A   1      47.332  25.468  36.683  1.00  0.00    -0.200 F 
ENDBRANCH  62  85
ENDBRANCH  36  37
ENDBRANCH  29  31
ENDBRANCH  28  29
ENDBRANCH  27  28
ENDBRANCH  26  27
ENDBRANCH   1  26
TORSDOF 17
ENDMDL
