MODEL 1
REMARK VINA RESULT:     -11.1      0.000      0.000
REMARK SMILES CCCOc1ccc(Nc2snc(C)c2C(=O)OCCOCCOC(=O)c2ccc(-c3c4nc(c(-c5c(F)c(F)c(F)c(F)c5F)c5ccc([nH]5)c(-c5c(F)c(F)c(F)c(F)c5F)c5nc(c(-c6c(F)c(F)c(F)c(F)c6F)c6ccc3[nH]6)C=C5)C=C4)cc2)cc1
REMARK SMILES IDX 19 1 18 2 16 3 17 4 15 5 10 6 11 7 12 8 13 9 14 10 9 11 8 13
REMARK SMILES IDX 5 14 6 15 91 16 7 17 90 18 4 19 3 20 2 21 1 22 20 23 21 24
REMARK SMILES IDX 22 25 23 26 24 27 25 28 26 29 27 30 28 31 89 32 29 33 88 34
REMARK SMILES IDX 30 35 31 36 32 37 82 38 33 39 87 40 81 41 83 42 34 43 86 44
REMARK SMILES IDX 80 45 79 46 35 48 67 49 47 50 66 51 48 52 51 53 65 54 84 55
REMARK SMILES IDX 49 56 50 57 64 59 85 60 52 61 36 62 37 63 45 64 38 65 39 66
REMARK SMILES IDX 43 67 46 68 40 69 41 70 44 71 42 72 68 73 69 74 77 75 70 76
REMARK SMILES IDX 71 77 75 78 78 79 72 80 73 81 76 82 74 83 53 84 54 85 62 86
REMARK SMILES IDX 55 87 56 88 60 89 63 90 57 91 58 92 61 93 59 94
REMARK H PARENT 9 12 83 47 51 58
REMARK Flexibility Score: inf
ROOT
ATOM      1  C   UNL A   1      33.348  26.741  25.784  1.00  0.00     0.261 C 
ENDROOT
BRANCH   1   2
ATOM      2  O   UNL A   1      31.923  26.750  25.616  1.00  0.00    -0.460 OA
BRANCH   2   3
ATOM      3  C   UNL A   1      31.478  27.270  24.431  1.00  0.00     0.343 C 
ATOM      4  O   UNL A   1      30.697  28.200  24.329  1.00  0.00    -0.246 OA
BRANCH   3   5
ATOM      5  C   UNL A   1      32.141  26.687  23.278  1.00  0.00     0.117 A 
ATOM      6  C   UNL A   1      31.961  25.406  22.771  1.00  0.00     0.128 A 
ATOM      7  S   UNL A   1      33.096  25.204  21.481  1.00  0.00    -0.017 S 
ATOM      8  N   UNL A   1      33.705  26.729  21.511  1.00  0.00    -0.195 NA
ATOM      9  C   UNL A   1      33.121  27.411  22.493  1.00  0.00     0.068 A 
ATOM     10  C   UNL A   1      33.571  28.821  22.697  1.00  0.00     0.069 C 
BRANCH   6  11
ATOM     11  N   UNL A   1      31.156  24.353  23.077  1.00  0.00    -0.345 N 
ATOM     12  H   UNL A   1      30.214  24.478  22.822  1.00  0.00     0.167 HD
BRANCH  11  13
ATOM     13  C   UNL A   1      31.428  23.118  23.691  1.00  0.00     0.039 A 
ATOM     14  C   UNL A   1      32.326  20.706  24.831  1.00  0.00     0.119 A 
ATOM     15  C   UNL A   1      31.695  21.653  25.625  1.00  0.00     0.048 A 
ATOM     16  C   UNL A   1      32.389  20.893  23.457  1.00  0.00     0.048 A 
ATOM     17  C   UNL A   1      31.220  22.836  25.044  1.00  0.00     0.030 A 
ATOM     18  C   UNL A   1      31.991  22.107  22.900  1.00  0.00     0.030 A 
BRANCH  14  19
ATOM     19  O   UNL A   1      32.799  19.562  25.403  1.00  0.00    -0.494 OA
BRANCH  19  20
ATOM     20  C   UNL A   1      33.742  18.873  24.558  1.00  0.00     0.229 C 
BRANCH  20  21
ATOM     21  C   UNL A   1      33.544  17.354  24.603  1.00  0.00     0.038 C 
ATOM     22  C   UNL A   1      34.001  16.653  23.325  1.00  0.00     0.007 C 
ENDBRANCH  20  21
ENDBRANCH  19  20
ENDBRANCH  14  19
ENDBRANCH  11  13
ENDBRANCH   6  11
ENDBRANCH   3   5
ENDBRANCH   2   3
ENDBRANCH   1   2
BRANCH   1  23
ATOM     23  C   UNL A   1      33.891  28.080  26.286  1.00  0.00     0.202 C 
BRANCH  23  24
ATOM     24  O   UNL A   1      33.097  29.256  26.133  1.00  0.00    -0.374 OA
BRANCH  24  25
ATOM     25  C   UNL A   1      32.729  30.034  27.262  1.00  0.00     0.202 C 
BRANCH  25  26
ATOM     26  C   UNL A   1      33.518  31.290  27.599  1.00  0.00     0.261 C 
BRANCH  26  27
ATOM     27  O   UNL A   1      34.910  31.152  27.365  1.00  0.00    -0.460 OA
BRANCH  27  28
ATOM     28  C   UNL A   1      35.652  32.028  28.080  1.00  0.00     0.338 C 
ATOM     29  O   UNL A   1      35.734  33.232  27.914  1.00  0.00    -0.246 OA
BRANCH  28  30
ATOM     30  C   UNL A   1      36.550  31.275  28.958  1.00  0.00     0.060 A 
ATOM     31  C   UNL A   1      37.686  31.975  29.361  1.00  0.00     0.016 A 
ATOM     32  C   UNL A   1      36.476  29.874  28.994  1.00  0.00     0.016 A 
ATOM     33  C   UNL A   1      38.847  31.265  29.519  1.00  0.00     0.010 A 
ATOM     34  C   UNL A   1      37.642  29.165  29.152  1.00  0.00     0.010 A 
ATOM     35  C   UNL A   1      38.825  29.878  29.310  1.00  0.00    -0.014 A 
BRANCH  35  36
ATOM     36  C   UNL A   1      40.086  29.185  29.415  1.00  0.00     0.031 A 
ATOM     37  C   UNL A   1      40.525  29.081  30.822  1.00  0.00     0.074 A 
ATOM     38  C   UNL A   1      40.744  28.675  28.360  1.00  0.00     0.049 A 
ATOM     39  N   UNL A   1      41.520  29.690  31.370  1.00  0.00    -0.248 NA
ATOM     40  C   UNL A   1      39.624  28.407  31.771  1.00  0.00     0.031 C 
ATOM     41  C   UNL A   1      40.296  28.530  26.974  1.00  0.00     0.029 A 
ATOM     42  N   UNL A   1      41.975  28.096  28.343  1.00  0.00    -0.354 N 
ATOM     43  C   UNL A   1      41.487  29.319  32.708  1.00  0.00     0.074 A 
ATOM     44  C   UNL A   1      40.210  28.698  32.933  1.00  0.00     0.031 C 
ATOM     45  C   UNL A   1      41.141  27.701  26.317  1.00  0.00     0.029 A 
ATOM     46  C   UNL A   1      42.252  27.369  27.192  1.00  0.00     0.049 A 
ATOM     47  H   UNL A   1      42.615  28.185  29.085  1.00  0.00     0.167 HD
ATOM     48  C   UNL A   1      42.630  29.312  33.443  1.00  0.00     0.037 A 
ATOM     49  C   UNL A   1      43.287  26.501  27.041  1.00  0.00     0.037 A 
ATOM     50  C   UNL A   1      43.634  30.156  32.844  1.00  0.00     0.049 A 
ATOM     51  C   UNL A   1      44.304  26.845  28.073  1.00  0.00     0.074 A 
ATOM     52  C   UNL A   1      43.709  31.505  32.552  1.00  0.00     0.029 A 
ATOM     53  N   UNL A   1      44.614  29.556  32.093  1.00  0.00    -0.354 N 
ATOM     54  N   UNL A   1      45.005  27.945  28.050  1.00  0.00    -0.248 NA
ATOM     55  C   UNL A   1      44.183  26.210  29.378  1.00  0.00     0.031 C 
ATOM     56  C   UNL A   1      44.393  31.576  31.303  1.00  0.00     0.029 A 
ATOM     57  C   UNL A   1      44.758  30.281  30.938  1.00  0.00     0.049 A 
ATOM     58  H   UNL A   1      45.122  28.750  32.339  1.00  0.00     0.167 HD
ATOM     59  C   UNL A   1      45.033  28.371  29.369  1.00  0.00     0.074 A 
ATOM     60  C   UNL A   1      44.567  27.228  30.152  1.00  0.00     0.031 C 
ATOM     61  C   UNL A   1      45.145  29.696  29.676  1.00  0.00     0.037 A 
BRANCH  48  62
ATOM     62  C   UNL A   1      42.963  28.223  34.431  1.00  0.00     0.064 A 
ATOM     63  C   UNL A   1      43.296  28.588  35.748  1.00  0.00     0.173 A 
ATOM     64  C   UNL A   1      43.281  26.893  34.068  1.00  0.00     0.173 A 
ATOM     65  F   UNL A   1      43.048  29.827  36.197  1.00  0.00    -0.203 F 
ATOM     66  C   UNL A   1      43.984  27.721  36.600  1.00  0.00     0.198 A 
ATOM     67  C   UNL A   1      43.919  26.016  34.937  1.00  0.00     0.198 A 
ATOM     68  F   UNL A   1      43.098  26.418  32.831  1.00  0.00    -0.203 F 
ATOM     69  F   UNL A   1      44.403  28.160  37.794  1.00  0.00    -0.200 F 
ATOM     70  C   UNL A   1      44.304  26.440  36.189  1.00  0.00     0.200 A 
ATOM     71  F   UNL A   1      44.235  24.784  34.512  1.00  0.00    -0.200 F 
ATOM     72  F   UNL A   1      45.026  25.632  36.976  1.00  0.00    -0.200 F 
ENDBRANCH  48  62
BRANCH  49  73
ATOM     73  C   UNL A   1      43.293  25.199  26.330  1.00  0.00     0.064 A 
ATOM     74  C   UNL A   1      44.205  24.941  25.292  1.00  0.00     0.173 A 
ATOM     75  C   UNL A   1      42.603  24.082  26.842  1.00  0.00     0.173 A 
ATOM     76  F   UNL A   1      44.942  25.938  24.780  1.00  0.00    -0.203 F 
ATOM     77  C   UNL A   1      44.431  23.645  24.814  1.00  0.00     0.198 A 
ATOM     78  C   UNL A   1      42.825  22.791  26.361  1.00  0.00     0.198 A 
ATOM     79  F   UNL A   1      41.773  24.205  27.888  1.00  0.00    -0.203 F 
ATOM     80  F   UNL A   1      45.355  23.432  23.867  1.00  0.00    -0.200 F 
ATOM     81  C   UNL A   1      43.747  22.570  25.357  1.00  0.00     0.200 A 
ATOM     82  F   UNL A   1      42.187  21.754  26.925  1.00  0.00    -0.200 F 
ATOM     83  F   UNL A   1      44.008  21.321  24.946  1.00  0.00    -0.200 F 
ENDBRANCH  49  73
BRANCH  61  84
ATOM     84  C   UNL A   1      45.483  30.647  28.563  1.00  0.00     0.064 A 
ATOM     85  C   UNL A   1      44.536  31.215  27.693  1.00  0.00     0.173 A 
ATOM     86  C   UNL A   1      46.802  31.112  28.470  1.00  0.00     0.173 A 
ATOM     87  F   UNL A   1      43.237  30.900  27.787  1.00  0.00    -0.203 F 
ATOM     88  C   UNL A   1      44.905  32.169  26.744  1.00  0.00     0.198 A 
ATOM     89  C   UNL A   1      47.160  32.092  27.550  1.00  0.00     0.198 A 
ATOM     90  F   UNL A   1      47.738  30.648  29.314  1.00  0.00    -0.203 F 
ATOM     91  F   UNL A   1      43.985  32.686  25.917  1.00  0.00    -0.200 F 
ATOM     92  C   UNL A   1      46.215  32.612  26.679  1.00  0.00     0.200 A 
ATOM     93  F   UNL A   1      48.419  32.553  27.526  1.00  0.00    -0.200 F 
ATOM     94  F   UNL A   1      46.564  33.558  25.798  1.00  0.00    -0.200 F 
ENDBRANCH  61  84
ENDBRANCH  35  36
ENDBRANCH  28  30
ENDBRANCH  27  28
ENDBRANCH  26  27
ENDBRANCH  25  26
ENDBRANCH  24  25
ENDBRANCH  23  24
ENDBRANCH   1  23
TORSDOF 19
ENDMDL
MODEL 2
REMARK VINA RESULT:     -11.0      3.008      7.964
REMARK SMILES CCCOc1ccc(Nc2snc(C)c2C(=O)OCCOCCOC(=O)c2ccc(-c3c4nc(c(-c5c(F)c(F)c(F)c(F)c5F)c5ccc([nH]5)c(-c5c(F)c(F)c(F)c(F)c5F)c5nc(c(-c6c(F)c(F)c(F)c(F)c6F)c6ccc3[nH]6)C=C5)C=C4)cc2)cc1
REMARK SMILES IDX 19 1 18 2 16 3 17 4 15 5 10 6 11 7 12 8 13 9 14 10 9 11 8 13
REMARK SMILES IDX 5 14 6 15 91 16 7 17 90 18 4 19 3 20 2 21 1 22 20 23 21 24
REMARK SMILES IDX 22 25 23 26 24 27 25 28 26 29 27 30 28 31 89 32 29 33 88 34
REMARK SMILES IDX 30 35 31 36 32 37 82 38 33 39 87 40 81 41 83 42 34 43 86 44
REMARK SMILES IDX 80 45 79 46 35 48 67 49 47 50 66 51 48 52 51 53 65 54 84 55
REMARK SMILES IDX 49 56 50 57 64 59 85 60 52 61 36 62 37 63 45 64 38 65 39 66
REMARK SMILES IDX 43 67 46 68 40 69 41 70 44 71 42 72 68 73 69 74 77 75 70 76
REMARK SMILES IDX 71 77 75 78 78 79 72 80 73 81 76 82 74 83 53 84 54 85 62 86
REMARK SMILES IDX 55 87 56 88 60 89 63 90 57 91 58 92 61 93 59 94
REMARK H PARENT 9 12 83 47 51 58
REMARK Flexibility Score: inf
ROOT
ATOM      1  C   UNL A   1      35.132  23.873  24.206  1.00  0.00     0.261 C 
ENDROOT
BRANCH   1   2
ATOM      2  O   UNL A   1      34.831  25.119  24.850  1.00  0.00    -0.460 OA
BRANCH   2   3
ATOM      3  C   UNL A   1      33.804  25.831  24.292  1.00  0.00     0.343 C 
ATOM      4  O   UNL A   1      33.866  26.423  23.227  1.00  0.00    -0.246 OA
BRANCH   3   5
ATOM      5  C   UNL A   1      32.563  25.704  25.034  1.00  0.00     0.117 A 
ATOM      6  C   UNL A   1      31.590  24.726  24.870  1.00  0.00     0.128 A 
ATOM      7  S   UNL A   1      30.275  25.135  25.918  1.00  0.00    -0.017 S 
ATOM      8  N   UNL A   1      30.980  26.442  26.621  1.00  0.00    -0.195 NA
ATOM      9  C   UNL A   1      32.179  26.634  26.077  1.00  0.00     0.068 A 
ATOM     10  C   UNL A   1      32.966  27.805  26.571  1.00  0.00     0.069 C 
BRANCH   6  11
ATOM     11  N   UNL A   1      31.459  23.617  24.094  1.00  0.00    -0.345 N 
ATOM     12  H   UNL A   1      31.004  23.776  23.236  1.00  0.00     0.167 HD
BRANCH  11  13
ATOM     13  C   UNL A   1      31.859  22.284  24.296  1.00  0.00     0.039 A 
ATOM     14  C   UNL A   1      32.952  19.697  24.488  1.00  0.00     0.119 A 
ATOM     15  C   UNL A   1      32.771  20.458  25.634  1.00  0.00     0.048 A 
ATOM     16  C   UNL A   1      32.469  20.161  23.272  1.00  0.00     0.048 A 
ATOM     17  C   UNL A   1      32.195  21.731  25.535  1.00  0.00     0.030 A 
ATOM     18  C   UNL A   1      31.975  21.461  23.168  1.00  0.00     0.030 A 
BRANCH  14  19
ATOM     19  O   UNL A   1      33.526  18.464  24.587  1.00  0.00    -0.494 OA
BRANCH  19  20
ATOM     20  C   UNL A   1      32.800  17.587  25.471  1.00  0.00     0.229 C 
BRANCH  20  21
ATOM     21  C   UNL A   1      33.494  16.229  25.625  1.00  0.00     0.038 C 
ATOM     22  C   UNL A   1      32.547  15.048  25.420  1.00  0.00     0.007 C 
ENDBRANCH  20  21
ENDBRANCH  19  20
ENDBRANCH  14  19
ENDBRANCH  11  13
ENDBRANCH   6  11
ENDBRANCH   3   5
ENDBRANCH   2   3
ENDBRANCH   1   2
BRANCH   1  23
ATOM     23  C   UNL A   1      36.627  23.551  24.213  1.00  0.00     0.202 C 
BRANCH  23  24
ATOM     24  O   UNL A   1      37.054  22.217  23.940  1.00  0.00    -0.374 OA
BRANCH  24  25
ATOM     25  C   UNL A   1      37.357  21.323  25.002  1.00  0.00     0.202 C 
BRANCH  25  26
ATOM     26  C   UNL A   1      38.733  21.363  25.649  1.00  0.00     0.261 C 
BRANCH  26  27
ATOM     27  O   UNL A   1      38.854  22.376  26.634  1.00  0.00    -0.460 OA
BRANCH  27  28
ATOM     28  C   UNL A   1      40.069  22.387  27.229  1.00  0.00     0.338 C 
ATOM     29  O   UNL A   1      40.547  21.526  27.946  1.00  0.00    -0.246 OA
BRANCH  28  30
ATOM     30  C   UNL A   1      40.653  23.721  27.078  1.00  0.00     0.060 A 
ATOM     31  C   UNL A   1      41.749  23.969  27.902  1.00  0.00     0.016 A 
ATOM     32  C   UNL A   1      39.895  24.752  26.501  1.00  0.00     0.016 A 
ATOM     33  C   UNL A   1      41.906  25.242  28.386  1.00  0.00     0.010 A 
ATOM     34  C   UNL A   1      40.053  26.027  26.989  1.00  0.00     0.010 A 
ATOM     35  C   UNL A   1      40.988  26.229  27.998  1.00  0.00    -0.014 A 
BRANCH  35  36
ATOM     36  C   UNL A   1      41.149  27.535  28.591  1.00  0.00     0.031 A 
ATOM     37  C   UNL A   1      42.381  28.194  28.110  1.00  0.00     0.074 A 
ATOM     38  C   UNL A   1      40.263  28.079  29.443  1.00  0.00     0.049 A 
ATOM     39  N   UNL A   1      43.448  28.434  28.791  1.00  0.00    -0.248 NA
ATOM     40  C   UNL A   1      42.525  28.399  26.659  1.00  0.00     0.031 C 
ATOM     41  C   UNL A   1      38.924  27.612  29.805  1.00  0.00     0.029 A 
ATOM     42  N   UNL A   1      40.372  29.251  30.126  1.00  0.00    -0.354 N 
ATOM     43  C   UNL A   1      44.339  29.005  27.892  1.00  0.00     0.074 A 
ATOM     44  C   UNL A   1      43.799  28.783  26.578  1.00  0.00     0.031 C 
ATOM     45  C   UNL A   1      38.266  28.605  30.450  1.00  0.00     0.029 A 
ATOM     46  C   UNL A   1      39.178  29.716  30.661  1.00  0.00     0.049 A 
ATOM     47  H   UNL A   1      41.226  29.729  30.230  1.00  0.00     0.167 HD
ATOM     48  C   UNL A   1      45.306  29.852  28.333  1.00  0.00     0.037 A 
ATOM     49  C   UNL A   1      38.972  30.966  31.155  1.00  0.00     0.037 A 
ATOM     50  C   UNL A   1      45.563  29.655  29.738  1.00  0.00     0.049 A 
ATOM     51  C   UNL A   1      40.309  31.534  31.484  1.00  0.00     0.074 A 
ATOM     52  C   UNL A   1      46.008  28.589  30.496  1.00  0.00     0.029 A 
ATOM     53  N   UNL A   1      44.984  30.529  30.626  1.00  0.00    -0.354 N 
ATOM     54  N   UNL A   1      41.057  31.091  32.457  1.00  0.00    -0.248 NA
ATOM     55  C   UNL A   1      41.015  32.250  30.431  1.00  0.00     0.031 C 
ATOM     56  C   UNL A   1      45.257  28.654  31.706  1.00  0.00     0.029 A 
ATOM     57  C   UNL A   1      44.451  29.791  31.650  1.00  0.00     0.049 A 
ATOM     58  H   UNL A   1      44.957  31.509  30.542  1.00  0.00     0.167 HD
ATOM     59  C   UNL A   1      42.341  31.076  31.934  1.00  0.00     0.074 A 
ATOM     60  C   UNL A   1      42.264  31.864  30.705  1.00  0.00     0.031 C 
ATOM     61  C   UNL A   1      43.272  30.185  32.384  1.00  0.00     0.037 A 
BRANCH  48  62
ATOM     62  C   UNL A   1      45.684  31.116  27.604  1.00  0.00     0.064 A 
ATOM     63  C   UNL A   1      47.037  31.328  27.282  1.00  0.00     0.173 A 
ATOM     64  C   UNL A   1      44.847  32.251  27.499  1.00  0.00     0.173 A 
ATOM     65  F   UNL A   1      47.922  30.323  27.355  1.00  0.00    -0.203 F 
ATOM     66  C   UNL A   1      47.530  32.599  26.978  1.00  0.00     0.198 A 
ATOM     67  C   UNL A   1      45.333  33.505  27.144  1.00  0.00     0.198 A 
ATOM     68  F   UNL A   1      43.555  32.232  27.844  1.00  0.00    -0.203 F 
ATOM     69  F   UNL A   1      48.847  32.777  26.815  1.00  0.00    -0.200 F 
ATOM     70  C   UNL A   1      46.679  33.687  26.920  1.00  0.00     0.200 A 
ATOM     71  F   UNL A   1      44.492  34.549  27.112  1.00  0.00    -0.200 F 
ATOM     72  F   UNL A   1      47.160  34.918  26.700  1.00  0.00    -0.200 F 
ENDBRANCH  48  62
BRANCH  49  73
ATOM     73  C   UNL A   1      37.764  31.817  31.020  1.00  0.00     0.064 A 
ATOM     74  C   UNL A   1      37.364  32.318  29.769  1.00  0.00     0.173 A 
ATOM     75  C   UNL A   1      36.820  31.919  32.060  1.00  0.00     0.173 A 
ATOM     76  F   UNL A   1      38.181  32.216  28.710  1.00  0.00    -0.203 F 
ATOM     77  C   UNL A   1      36.091  32.864  29.567  1.00  0.00     0.198 A 
ATOM     78  C   UNL A   1      35.554  32.468  31.860  1.00  0.00     0.198 A 
ATOM     79  F   UNL A   1      37.071  31.397  33.270  1.00  0.00    -0.203 F 
ATOM     80  F   UNL A   1      35.724  33.273  28.345  1.00  0.00    -0.200 F 
ATOM     81  C   UNL A   1      35.183  32.929  30.611  1.00  0.00     0.200 A 
ATOM     82  F   UNL A   1      34.670  32.486  32.869  1.00  0.00    -0.200 F 
ATOM     83  F   UNL A   1      33.943  33.391  30.405  1.00  0.00    -0.200 F 
ENDBRANCH  49  73
BRANCH  61  84
ATOM     84  C   UNL A   1      42.946  29.397  33.621  1.00  0.00     0.064 A 
ATOM     85  C   UNL A   1      42.206  28.200  33.624  1.00  0.00     0.173 A 
ATOM     86  C   UNL A   1      43.531  29.794  34.831  1.00  0.00     0.173 A 
ATOM     87  F   UNL A   1      41.701  27.700  32.488  1.00  0.00    -0.203 F 
ATOM     88  C   UNL A   1      42.024  27.465  34.795  1.00  0.00     0.198 A 
ATOM     89  C   UNL A   1      43.382  29.037  35.988  1.00  0.00     0.198 A 
ATOM     90  F   UNL A   1      44.296  30.896  34.875  1.00  0.00    -0.203 F 
ATOM     91  F   UNL A   1      41.304  26.334  34.774  1.00  0.00    -0.200 F 
ATOM     92  C   UNL A   1      42.619  27.880  35.974  1.00  0.00     0.200 A 
ATOM     93  F   UNL A   1      44.002  29.417  37.115  1.00  0.00    -0.200 F 
ATOM     94  F   UNL A   1      42.482  27.153  37.091  1.00  0.00    -0.200 F 
ENDBRANCH  61  84
ENDBRANCH  35  36
ENDBRANCH  28  30
ENDBRANCH  27  28
ENDBRANCH  26  27
ENDBRANCH  25  26
ENDBRANCH  24  25
ENDBRANCH  23  24
ENDBRANCH   1  23
TORSDOF 19
ENDMDL
MODEL 3
REMARK VINA RESULT:     -11.0      1.543      3.603
REMARK SMILES CCCOc1ccc(Nc2snc(C)c2C(=O)OCCOCCOC(=O)c2ccc(-c3c4nc(c(-c5c(F)c(F)c(F)c(F)c5F)c5ccc([nH]5)c(-c5c(F)c(F)c(F)c(F)c5F)c5nc(c(-c6c(F)c(F)c(F)c(F)c6F)c6ccc3[nH]6)C=C5)C=C4)cc2)cc1
REMARK SMILES IDX 19 1 18 2 16 3 17 4 15 5 10 6 11 7 12 8 13 9 14 10 9 11 8 13
REMARK SMILES IDX 5 14 6 15 91 16 7 17 90 18 4 19 3 20 2 21 1 22 20 23 21 24
REMARK SMILES IDX 22 25 23 26 24 27 25 28 26 29 27 30 28 31 89 32 29 33 88 34
REMARK SMILES IDX 30 35 31 36 32 37 82 38 33 39 87 40 81 41 83 42 34 43 86 44
REMARK SMILES IDX 80 45 79 46 35 48 67 49 47 50 66 51 48 52 51 53 65 54 84 55
REMARK SMILES IDX 49 56 50 57 64 59 85 60 52 61 36 62 37 63 45 64 38 65 39 66
REMARK SMILES IDX 43 67 46 68 40 69 41 70 44 71 42 72 68 73 69 74 77 75 70 76
REMARK SMILES IDX 71 77 75 78 78 79 72 80 73 81 76 82 74 83 53 84 54 85 62 86
REMARK SMILES IDX 55 87 56 88 60 89 63 90 57 91 58 92 61 93 59 94
REMARK H PARENT 9 12 83 47 51 58
REMARK Flexibility Score: inf
ROOT
ATOM      1  C   UNL A   1      32.160  27.371  26.722  1.00  0.00     0.261 C 
ENDROOT
BRANCH   1   2
ATOM      2  O   UNL A   1      32.979  26.223  26.457  1.00  0.00    -0.460 OA
BRANCH   2   3
ATOM      3  C   UNL A   1      32.328  25.020  26.499  1.00  0.00     0.343 C 
ATOM      4  O   UNL A   1      31.396  24.759  27.241  1.00  0.00    -0.246 OA
BRANCH   3   5
ATOM      5  C   UNL A   1      32.769  24.106  25.461  1.00  0.00     0.117 A 
ATOM      6  C   UNL A   1      32.820  24.356  24.095  1.00  0.00     0.128 A 
ATOM      7  S   UNL A   1      33.292  22.881  23.324  1.00  0.00    -0.017 S 
ATOM      8  N   UNL A   1      33.523  22.005  24.694  1.00  0.00    -0.195 NA
ATOM      9  C   UNL A   1      33.221  22.759  25.748  1.00  0.00     0.068 A 
ATOM     10  C   UNL A   1      33.341  22.120  27.093  1.00  0.00     0.069 C 
BRANCH   6  11
ATOM     11  N   UNL A   1      32.567  25.432  23.303  1.00  0.00    -0.345 N 
ATOM     12  H   UNL A   1      33.333  25.719  22.756  1.00  0.00     0.167 HD
BRANCH  11  13
ATOM     13  C   UNL A   1      31.408  26.207  23.123  1.00  0.00     0.039 A 
ATOM     14  C   UNL A   1      29.105  27.826  23.127  1.00  0.00     0.119 A 
ATOM     15  C   UNL A   1      30.204  28.188  22.360  1.00  0.00     0.048 A 
ATOM     16  C   UNL A   1      29.097  26.601  23.780  1.00  0.00     0.048 A 
ATOM     17  C   UNL A   1      31.333  27.360  22.336  1.00  0.00     0.030 A 
ATOM     18  C   UNL A   1      30.253  25.825  23.820  1.00  0.00     0.030 A 
BRANCH  14  19
ATOM     19  O   UNL A   1      28.013  28.643  23.159  1.00  0.00    -0.494 OA
BRANCH  19  20
ATOM     20  C   UNL A   1      28.254  29.911  22.518  1.00  0.00     0.229 C 
BRANCH  20  21
ATOM     21  C   UNL A   1      28.775  30.960  23.506  1.00  0.00     0.038 C 
ATOM     22  C   UNL A   1      28.401  32.389  23.114  1.00  0.00     0.007 C 
ENDBRANCH  20  21
ENDBRANCH  19  20
ENDBRANCH  14  19
ENDBRANCH  11  13
ENDBRANCH   6  11
ENDBRANCH   3   5
ENDBRANCH   2   3
ENDBRANCH   1   2
BRANCH   1  23
ATOM     23  C   UNL A   1      32.434  28.526  25.758  1.00  0.00     0.202 C 
BRANCH  23  24
ATOM     24  O   UNL A   1      31.819  29.792  25.994  1.00  0.00    -0.374 OA
BRANCH  24  25
ATOM     25  C   UNL A   1      32.416  30.734  26.874  1.00  0.00     0.202 C 
BRANCH  25  26
ATOM     26  C   UNL A   1      33.906  30.645  27.170  1.00  0.00     0.261 C 
BRANCH  26  27
ATOM     27  O   UNL A   1      34.258  31.212  28.421  1.00  0.00    -0.460 OA
BRANCH  27  28
ATOM     28  C   UNL A   1      35.440  31.868  28.386  1.00  0.00     0.338 C 
ATOM     29  O   UNL A   1      35.764  32.765  27.629  1.00  0.00    -0.246 OA
BRANCH  28  30
ATOM     30  C   UNL A   1      36.389  31.171  29.257  1.00  0.00     0.060 A 
ATOM     31  C   UNL A   1      37.569  31.871  29.505  1.00  0.00     0.016 A 
ATOM     32  C   UNL A   1      36.287  29.782  29.428  1.00  0.00     0.016 A 
ATOM     33  C   UNL A   1      38.723  31.145  29.637  1.00  0.00     0.010 A 
ATOM     34  C   UNL A   1      37.447  29.056  29.558  1.00  0.00     0.010 A 
ATOM     35  C   UNL A   1      38.654  29.746  29.558  1.00  0.00    -0.014 A 
BRANCH  35  36
ATOM     36  C   UNL A   1      39.903  29.028  29.628  1.00  0.00     0.031 A 
ATOM     37  C   UNL A   1      40.387  28.928  31.020  1.00  0.00     0.074 A 
ATOM     38  C   UNL A   1      40.516  28.496  28.556  1.00  0.00     0.049 A 
ATOM     39  N   UNL A   1      41.411  29.522  31.529  1.00  0.00    -0.248 NA
ATOM     40  C   UNL A   1      39.505  28.281  32.005  1.00  0.00     0.031 C 
ATOM     41  C   UNL A   1      40.018  28.348  27.187  1.00  0.00     0.029 A 
ATOM     42  N   UNL A   1      41.734  27.892  28.504  1.00  0.00    -0.354 N 
ATOM     43  C   UNL A   1      41.416  29.163  32.871  1.00  0.00     0.074 A 
ATOM     44  C   UNL A   1      40.135  28.570  33.144  1.00  0.00     0.031 C 
ATOM     45  C   UNL A   1      40.825  27.496  26.510  1.00  0.00     0.029 A 
ATOM     46  C   UNL A   1      41.958  27.149  27.352  1.00  0.00     0.049 A 
ATOM     47  H   UNL A   1      42.400  27.974  29.224  1.00  0.00     0.167 HD
ATOM     48  C   UNL A   1      42.582  29.140  33.568  1.00  0.00     0.037 A 
ATOM     49  C   UNL A   1      42.969  26.259  27.175  1.00  0.00     0.037 A 
ATOM     50  C   UNL A   1      43.582  29.959  32.928  1.00  0.00     0.049 A 
ATOM     51  C   UNL A   1      44.027  26.592  28.169  1.00  0.00     0.074 A 
ATOM     52  C   UNL A   1      43.675  31.303  32.620  1.00  0.00     0.029 A 
ATOM     53  N   UNL A   1      44.525  29.332  32.150  1.00  0.00    -0.354 N 
ATOM     54  N   UNL A   1      44.749  27.677  28.112  1.00  0.00    -0.248 NA
ATOM     55  C   UNL A   1      43.937  25.971  29.483  1.00  0.00     0.031 C 
ATOM     56  C   UNL A   1      44.317  31.349  31.348  1.00  0.00     0.029 A 
ATOM     57  C   UNL A   1      44.644  30.043  30.984  1.00  0.00     0.049 A 
ATOM     58  H   UNL A   1      45.025  28.518  32.387  1.00  0.00     0.167 HD
ATOM     59  C   UNL A   1      44.829  28.115  29.425  1.00  0.00     0.074 A 
ATOM     60  C   UNL A   1      44.367  26.988  30.234  1.00  0.00     0.031 C 
ATOM     61  C   UNL A   1      44.977  29.440  29.716  1.00  0.00     0.037 A 
BRANCH  48  62
ATOM     62  C   UNL A   1      42.927  28.054  34.554  1.00  0.00     0.064 A 
ATOM     63  C   UNL A   1      43.285  28.423  35.864  1.00  0.00     0.173 A 
ATOM     64  C   UNL A   1      43.231  26.721  34.192  1.00  0.00     0.173 A 
ATOM     65  F   UNL A   1      43.053  29.666  36.311  1.00  0.00    -0.203 F 
ATOM     66  C   UNL A   1      43.984  27.555  36.707  1.00  0.00     0.198 A 
ATOM     67  C   UNL A   1      43.879  25.843  35.054  1.00  0.00     0.198 A 
ATOM     68  F   UNL A   1      43.023  26.241  32.961  1.00  0.00    -0.203 F 
ATOM     69  F   UNL A   1      44.426  27.997  37.891  1.00  0.00    -0.200 F 
ATOM     70  C   UNL A   1      44.289  26.271  36.297  1.00  0.00     0.200 A 
ATOM     71  F   UNL A   1      44.180  24.608  34.628  1.00  0.00    -0.200 F 
ATOM     72  F   UNL A   1      45.020  25.463  37.074  1.00  0.00    -0.200 F 
ENDBRANCH  48  62
BRANCH  49  73
ATOM     73  C   UNL A   1      42.926  24.950  26.477  1.00  0.00     0.064 A 
ATOM     74  C   UNL A   1      43.777  24.676  25.392  1.00  0.00     0.173 A 
ATOM     75  C   UNL A   1      42.257  23.844  27.036  1.00  0.00     0.173 A 
ATOM     76  F   UNL A   1      44.492  25.662  24.831  1.00  0.00    -0.203 F 
ATOM     77  C   UNL A   1      43.966  23.374  24.915  1.00  0.00     0.198 A 
ATOM     78  C   UNL A   1      42.441  22.547  26.556  1.00  0.00     0.198 A 
ATOM     79  F   UNL A   1      41.487  23.984  28.125  1.00  0.00    -0.203 F 
ATOM     80  F   UNL A   1      44.834  23.145  23.920  1.00  0.00    -0.200 F 
ATOM     81  C   UNL A   1      43.305  22.309  25.504  1.00  0.00     0.200 A 
ATOM     82  F   UNL A   1      41.827  21.521  27.164  1.00  0.00    -0.200 F 
ATOM     83  F   UNL A   1      43.533  21.055  25.091  1.00  0.00    -0.200 F 
ENDBRANCH  49  73
BRANCH  61  84
ATOM     84  C   UNL A   1      45.297  30.374  28.583  1.00  0.00     0.064 A 
ATOM     85  C   UNL A   1      44.332  30.954  27.739  1.00  0.00     0.173 A 
ATOM     86  C   UNL A   1      46.621  30.810  28.441  1.00  0.00     0.173 A 
ATOM     87  F   UNL A   1      43.032  30.666  27.881  1.00  0.00    -0.203 F 
ATOM     88  C   UNL A   1      44.689  31.891  26.770  1.00  0.00     0.198 A 
ATOM     89  C   UNL A   1      46.968  31.775  27.500  1.00  0.00     0.198 A 
ATOM     90  F   UNL A   1      47.575  30.334  29.257  1.00  0.00    -0.203 F 
ATOM     91  F   UNL A   1      43.752  32.420  25.969  1.00  0.00    -0.200 F 
ATOM     92  C   UNL A   1      46.005  32.306  26.657  1.00  0.00     0.200 A 
ATOM     93  F   UNL A   1      48.234  32.209  27.429  1.00  0.00    -0.200 F 
ATOM     94  F   UNL A   1      46.343  33.237  25.755  1.00  0.00    -0.200 F 
ENDBRANCH  61  84
ENDBRANCH  35  36
ENDBRANCH  28  30
ENDBRANCH  27  28
ENDBRANCH  26  27
ENDBRANCH  25  26
ENDBRANCH  24  25
ENDBRANCH  23  24
ENDBRANCH   1  23
TORSDOF 19
ENDMDL
