MODEL 1
REMARK VINA RESULT:     -11.6      0.000      0.000
REMARK SMILES CO[C@H](C)c1noc(C[C@](C)(C(=O)OCCOCCOC(=O)c2ccc(-c3c4nc(c(-c5c(F)c(F)c(F)c(F)c5F)c5ccc([nH]5)c(-c5c(F)c(F)c(F)c(F)c5F)c5nc(c(-c6c(F)c(F)c(F)c(F)c6F)c6ccc3[nH]6)C=C5)C=C4)cc2)c2ccccc2)n1
REMARK SMILES IDX 16 1 15 2 14 3 12 4 13 5 10 6 11 7 9 8 8 9 5 10 6 11 92 12
REMARK SMILES IDX 7 13 3 14 4 15 2 16 1 17 86 18 87 19 91 20 88 21 90 22 89 23
REMARK SMILES IDX 17 24 18 25 19 26 20 27 21 28 22 29 23 30 24 31 85 32 25 33
REMARK SMILES IDX 84 34 26 35 27 36 28 37 78 38 29 39 83 40 77 41 79 42 30 43
REMARK SMILES IDX 82 44 76 45 75 46 31 48 63 49 43 50 62 51 44 52 47 53 61 54
REMARK SMILES IDX 80 55 45 56 46 57 60 59 81 60 48 61 32 62 33 63 41 64 34 65
REMARK SMILES IDX 35 66 39 67 42 68 36 69 37 70 40 71 38 72 64 73 65 74 73 75
REMARK SMILES IDX 66 76 67 77 71 78 74 79 68 80 69 81 72 82 70 83 49 84 50 85
REMARK SMILES IDX 58 86 51 87 52 88 56 89 59 90 53 91 54 92 57 93 55 94
REMARK H PARENT 79 47 47 58
REMARK Flexibility Score: inf
ROOT
ATOM      1  C   UNL A   1      34.153  21.800  24.835  1.00  0.00     0.202 C 
ENDROOT
BRANCH   1   2
ATOM      2  C   UNL A   1      33.421  22.207  26.117  1.00  0.00     0.261 C 
BRANCH   2   3
ATOM      3  O   UNL A   1      33.543  23.620  26.384  1.00  0.00    -0.463 OA
BRANCH   3   4
ATOM      4  C   UNL A   1      32.362  24.301  26.425  1.00  0.00     0.316 C 
ATOM      5  O   UNL A   1      31.448  24.012  27.188  1.00  0.00    -0.251 OA
BRANCH   4   6
ATOM      6  C   UNL A   1      32.312  25.453  25.388  1.00  0.00     0.099 C 
ATOM      7  C   UNL A   1      33.432  25.295  24.329  1.00  0.00     0.029 C 
BRANCH   6   8
ATOM      8  C   UNL A   1      30.959  25.292  24.642  1.00  0.00     0.123 C 
BRANCH   8   9
ATOM      9  C   UNL A   1      30.566  26.441  23.786  1.00  0.00     0.228 A 
ATOM     10  C   UNL A   1      29.706  28.107  22.865  1.00  0.00     0.200 A 
ATOM     11  N   UNL A   1      30.676  27.752  22.011  1.00  0.00    -0.060 NA
ATOM     12  N   UNL A   1      29.621  27.328  23.994  1.00  0.00    -0.193 NA
ATOM     13  O   UNL A   1      31.256  26.648  22.629  1.00  0.00    -0.339 OA
BRANCH  10  14
ATOM     14  C   UNL A   1      28.845  29.311  22.630  1.00  0.00     0.186 C 
ATOM     15  C   UNL A   1      29.283  30.473  23.517  1.00  0.00     0.047 C 
BRANCH  14  16
ATOM     16  O   UNL A   1      28.884  29.785  21.267  1.00  0.00    -0.374 OA
ATOM     17  C   UNL A   1      28.066  30.930  21.063  1.00  0.00     0.195 C 
ENDBRANCH  14  16
ENDBRANCH  10  14
ENDBRANCH   8   9
ENDBRANCH   6   8
BRANCH   6  18
ATOM     18  C   UNL A   1      32.546  26.811  26.094  1.00  0.00    -0.030 A 
ATOM     19  C   UNL A   1      31.578  27.305  26.995  1.00  0.00     0.005 A 
ATOM     20  C   UNL A   1      33.660  27.627  25.845  1.00  0.00     0.005 A 
ATOM     21  C   UNL A   1      31.653  28.594  27.520  1.00  0.00     0.000 A 
ATOM     22  C   UNL A   1      33.733  28.924  26.365  1.00  0.00     0.000 A 
ATOM     23  C   UNL A   1      32.721  29.414  27.185  1.00  0.00     0.000 A 
ENDBRANCH   6  18
ENDBRANCH   4   6
ENDBRANCH   3   4
ENDBRANCH   2   3
ENDBRANCH   1   2
BRANCH   1  24
ATOM     24  O   UNL A   1      34.517  20.425  24.713  1.00  0.00    -0.374 OA
BRANCH  24  25
ATOM     25  C   UNL A   1      35.877  20.093  24.975  1.00  0.00     0.202 C 
BRANCH  25  26
ATOM     26  C   UNL A   1      36.909  21.185  24.681  1.00  0.00     0.261 C 
BRANCH  26  27
ATOM     27  O   UNL A   1      37.426  21.744  25.899  1.00  0.00    -0.460 OA
BRANCH  27  28
ATOM     28  C   UNL A   1      38.752  21.546  26.080  1.00  0.00     0.338 C 
ATOM     29  O   UNL A   1      39.428  20.612  25.673  1.00  0.00    -0.246 OA
BRANCH  28  30
ATOM     30  C   UNL A   1      39.353  22.738  26.702  1.00  0.00     0.060 A 
ATOM     31  C   UNL A   1      38.814  23.981  26.344  1.00  0.00     0.016 A 
ATOM     32  C   UNL A   1      40.446  22.658  27.568  1.00  0.00     0.016 A 
ATOM     33  C   UNL A   1      39.408  25.154  26.796  1.00  0.00     0.010 A 
ATOM     34  C   UNL A   1      41.050  23.838  28.013  1.00  0.00     0.010 A 
ATOM     35  C   UNL A   1      40.560  25.087  27.592  1.00  0.00    -0.014 A 
BRANCH  35  36
ATOM     36  C   UNL A   1      41.352  26.320  27.809  1.00  0.00     0.031 A 
ATOM     37  C   UNL A   1      40.725  27.445  28.587  1.00  0.00     0.074 A 
ATOM     38  C   UNL A   1      42.622  26.411  27.381  1.00  0.00     0.049 A 
ATOM     39  N   UNL A   1      41.209  28.623  28.884  1.00  0.00    -0.248 NA
ATOM     40  C   UNL A   1      39.368  27.205  29.106  1.00  0.00     0.031 C 
ATOM     41  C   UNL A   1      43.354  25.362  26.675  1.00  0.00     0.029 A 
ATOM     42  N   UNL A   1      43.522  27.442  27.483  1.00  0.00    -0.354 N 
ATOM     43  C   UNL A   1      40.224  29.258  29.629  1.00  0.00     0.074 A 
ATOM     44  C   UNL A   1      39.099  28.353  29.709  1.00  0.00     0.031 C 
ATOM     45  C   UNL A   1      44.592  25.808  26.397  1.00  0.00     0.029 A 
ATOM     46  C   UNL A   1      44.726  27.182  26.875  1.00  0.00     0.049 A 
ATOM     47  H   UNL A   1      43.325  28.287  27.947  1.00  0.00     0.167 HD
ATOM     48  C   UNL A   1      40.263  30.480  30.210  1.00  0.00     0.037 A 
ATOM     49  C   UNL A   1      45.800  27.978  26.709  1.00  0.00     0.037 A 
ATOM     50  C   UNL A   1      41.379  31.382  30.120  1.00  0.00     0.049 A 
ATOM     51  C   UNL A   1      45.773  29.376  27.274  1.00  0.00     0.074 A 
ATOM     52  C   UNL A   1      41.508  32.654  30.648  1.00  0.00     0.029 A 
ATOM     53  N   UNL A   1      42.563  31.101  29.455  1.00  0.00    -0.354 N 
ATOM     54  N   UNL A   1      44.838  29.970  27.976  1.00  0.00    -0.248 NA
ATOM     55  C   UNL A   1      46.954  30.215  27.021  1.00  0.00     0.031 C 
ATOM     56  C   UNL A   1      42.755  33.159  30.269  1.00  0.00     0.029 A 
ATOM     57  C   UNL A   1      43.421  32.184  29.545  1.00  0.00     0.049 A 
ATOM     58  H   UNL A   1      42.764  30.258  28.988  1.00  0.00     0.167 HD
ATOM     59  C   UNL A   1      45.329  31.234  28.275  1.00  0.00     0.074 A 
ATOM     60  C   UNL A   1      46.651  31.319  27.690  1.00  0.00     0.031 C 
ATOM     61  C   UNL A   1      44.741  32.237  28.971  1.00  0.00     0.037 A 
BRANCH  48  62
ATOM     62  C   UNL A   1      39.054  30.918  30.983  1.00  0.00     0.064 A 
ATOM     63  C   UNL A   1      37.967  31.538  30.349  1.00  0.00     0.173 A 
ATOM     64  C   UNL A   1      38.964  30.679  32.361  1.00  0.00     0.173 A 
ATOM     65  F   UNL A   1      38.014  31.803  29.034  1.00  0.00    -0.203 F 
ATOM     66  C   UNL A   1      36.839  31.916  31.071  1.00  0.00     0.198 A 
ATOM     67  C   UNL A   1      37.823  31.035  33.076  1.00  0.00     0.198 A 
ATOM     68  F   UNL A   1      39.977  30.090  33.014  1.00  0.00    -0.203 F 
ATOM     69  F   UNL A   1      35.827  32.539  30.452  1.00  0.00    -0.200 F 
ATOM     70  C   UNL A   1      36.763  31.657  32.431  1.00  0.00     0.200 A 
ATOM     71  F   UNL A   1      37.749  30.776  34.389  1.00  0.00    -0.200 F 
ATOM     72  F   UNL A   1      35.673  32.012  33.124  1.00  0.00    -0.200 F 
ENDBRANCH  48  62
BRANCH  49  73
ATOM     73  C   UNL A   1      46.985  27.493  25.953  1.00  0.00     0.064 A 
ATOM     74  C   UNL A   1      48.075  26.907  26.611  1.00  0.00     0.173 A 
ATOM     75  C   UNL A   1      47.072  27.651  24.562  1.00  0.00     0.173 A 
ATOM     76  F   UNL A   1      48.052  26.758  27.944  1.00  0.00    -0.203 F 
ATOM     77  C   UNL A   1      49.219  26.525  25.911  1.00  0.00     0.198 A 
ATOM     78  C   UNL A   1      48.203  27.241  23.860  1.00  0.00     0.198 A 
ATOM     79  F   UNL A   1      46.058  28.208  23.884  1.00  0.00    -0.203 F 
ATOM     80  F   UNL A   1      50.270  26.024  26.573  1.00  0.00    -0.200 F 
ATOM     81  C   UNL A   1      49.280  26.689  24.536  1.00  0.00     0.200 A 
ATOM     82  F   UNL A   1      48.253  27.392  22.528  1.00  0.00    -0.200 F 
ATOM     83  F   UNL A   1      50.382  26.329  23.863  1.00  0.00    -0.200 F 
ENDBRANCH  49  73
BRANCH  61  84
ATOM     84  C   UNL A   1      45.536  33.494  29.177  1.00  0.00     0.064 A 
ATOM     85  C   UNL A   1      45.454  34.571  28.283  1.00  0.00     0.173 A 
ATOM     86  C   UNL A   1      46.354  33.637  30.308  1.00  0.00     0.173 A 
ATOM     87  F   UNL A   1      44.696  34.475  27.179  1.00  0.00    -0.203 F 
ATOM     88  C   UNL A   1      46.180  35.738  28.502  1.00  0.00     0.198 A 
ATOM     89  C   UNL A   1      47.056  34.817  30.538  1.00  0.00     0.198 A 
ATOM     90  F   UNL A   1      46.460  32.638  31.198  1.00  0.00    -0.203 F 
ATOM     91  F   UNL A   1      46.121  36.738  27.611  1.00  0.00    -0.200 F 
ATOM     92  C   UNL A   1      46.975  35.862  29.632  1.00  0.00     0.200 A 
ATOM     93  F   UNL A   1      47.812  34.941  31.638  1.00  0.00    -0.200 F 
ATOM     94  F   UNL A   1      47.666  36.991  29.845  1.00  0.00    -0.200 F 
ENDBRANCH  61  84
ENDBRANCH  35  36
ENDBRANCH  28  30
ENDBRANCH  27  28
ENDBRANCH  26  27
ENDBRANCH  25  26
ENDBRANCH  24  25
ENDBRANCH   1  24
TORSDOF 19
ENDMDL
MODEL 2
REMARK VINA RESULT:     -11.5      4.252      7.589
REMARK SMILES CO[C@H](C)c1noc(C[C@](C)(C(=O)OCCOCCOC(=O)c2ccc(-c3c4nc(c(-c5c(F)c(F)c(F)c(F)c5F)c5ccc([nH]5)c(-c5c(F)c(F)c(F)c(F)c5F)c5nc(c(-c6c(F)c(F)c(F)c(F)c6F)c6ccc3[nH]6)C=C5)C=C4)cc2)c2ccccc2)n1
REMARK SMILES IDX 16 1 15 2 14 3 12 4 13 5 10 6 11 7 9 8 8 9 5 10 6 11 92 12
REMARK SMILES IDX 7 13 3 14 4 15 2 16 1 17 86 18 87 19 91 20 88 21 90 22 89 23
REMARK SMILES IDX 17 24 18 25 19 26 20 27 21 28 22 29 23 30 24 31 85 32 25 33
REMARK SMILES IDX 84 34 26 35 27 36 28 37 78 38 29 39 83 40 77 41 79 42 30 43
REMARK SMILES IDX 82 44 76 45 75 46 31 48 63 49 43 50 62 51 44 52 47 53 61 54
REMARK SMILES IDX 80 55 45 56 46 57 60 59 81 60 48 61 32 62 33 63 41 64 34 65
REMARK SMILES IDX 35 66 39 67 42 68 36 69 37 70 40 71 38 72 64 73 65 74 73 75
REMARK SMILES IDX 66 76 67 77 71 78 74 79 68 80 69 81 72 82 70 83 49 84 50 85
REMARK SMILES IDX 58 86 51 87 52 88 56 89 59 90 53 91 54 92 57 93 55 94
REMARK H PARENT 79 47 47 58
REMARK Flexibility Score: inf
ROOT
ATOM      1  C   UNL A   1      32.693  29.809  27.186  1.00  0.00     0.202 C 
ENDROOT
BRANCH   1   2
ATOM      2  C   UNL A   1      31.747  28.623  26.976  1.00  0.00     0.261 C 
BRANCH   2   3
ATOM      3  O   UNL A   1      32.036  27.912  25.755  1.00  0.00    -0.463 OA
BRANCH   3   4
ATOM      4  C   UNL A   1      30.974  27.251  25.210  1.00  0.00     0.316 C 
ATOM      5  O   UNL A   1      30.231  26.525  25.861  1.00  0.00    -0.251 OA
BRANCH   4   6
ATOM      6  C   UNL A   1      30.839  27.510  23.687  1.00  0.00     0.099 C 
ATOM      7  C   UNL A   1      32.147  28.106  23.108  1.00  0.00     0.029 C 
BRANCH   6   8
ATOM      8  C   UNL A   1      30.652  26.113  23.035  1.00  0.00     0.123 C 
BRANCH   8   9
ATOM      9  C   UNL A   1      31.894  25.312  22.884  1.00  0.00     0.228 A 
ATOM     10  C   UNL A   1      33.618  24.150  23.090  1.00  0.00     0.200 A 
ATOM     11  N   UNL A   1      33.600  24.443  21.782  1.00  0.00    -0.060 NA
ATOM     12  N   UNL A   1      32.558  24.655  23.806  1.00  0.00    -0.193 NA
ATOM     13  O   UNL A   1      32.446  25.209  21.642  1.00  0.00    -0.339 OA
BRANCH  10  14
ATOM     14  C   UNL A   1      34.672  23.272  23.691  1.00  0.00     0.186 C 
ATOM     15  C   UNL A   1      34.110  21.888  24.008  1.00  0.00     0.047 C 
BRANCH  14  16
ATOM     16  O   UNL A   1      35.813  23.075  22.828  1.00  0.00    -0.374 OA
ATOM     17  C   UNL A   1      36.905  22.458  23.499  1.00  0.00     0.195 C 
ENDBRANCH  14  16
ENDBRANCH  10  14
ENDBRANCH   8   9
ENDBRANCH   6   8
BRANCH   6  18
ATOM     18  C   UNL A   1      29.716  28.543  23.424  1.00  0.00    -0.030 A 
ATOM     19  C   UNL A   1      29.986  29.920  23.573  1.00  0.00     0.005 A 
ATOM     20  C   UNL A   1      28.400  28.183  23.093  1.00  0.00     0.005 A 
ATOM     21  C   UNL A   1      28.973  30.878  23.521  1.00  0.00     0.000 A 
ATOM     22  C   UNL A   1      27.382  29.142  23.048  1.00  0.00     0.000 A 
ATOM     23  C   UNL A   1      27.664  30.485  23.282  1.00  0.00     0.000 A 
ENDBRANCH   6  18
ENDBRANCH   4   6
ENDBRANCH   3   4
ENDBRANCH   2   3
ENDBRANCH   1   2
BRANCH   1  24
ATOM     24  O   UNL A   1      32.560  30.904  26.279  1.00  0.00    -0.374 OA
BRANCH  24  25
ATOM     25  C   UNL A   1      31.485  31.809  26.513  1.00  0.00     0.202 C 
BRANCH  25  26
ATOM     26  C   UNL A   1      31.852  33.138  27.178  1.00  0.00     0.261 C 
BRANCH  26  27
ATOM     27  O   UNL A   1      33.268  33.371  27.113  1.00  0.00    -0.460 OA
BRANCH  27  28
ATOM     28  C   UNL A   1      33.814  33.795  28.275  1.00  0.00     0.338 C 
ATOM     29  O   UNL A   1      33.331  34.577  29.083  1.00  0.00    -0.246 OA
BRANCH  28  30
ATOM     30  C   UNL A   1      35.039  33.028  28.561  1.00  0.00     0.060 A 
ATOM     31  C   UNL A   1      34.873  31.710  29.008  1.00  0.00     0.016 A 
ATOM     32  C   UNL A   1      36.313  33.588  28.450  1.00  0.00     0.016 A 
ATOM     33  C   UNL A   1      35.976  30.968  29.412  1.00  0.00     0.010 A 
ATOM     34  C   UNL A   1      37.422  32.845  28.868  1.00  0.00     0.010 A 
ATOM     35  C   UNL A   1      37.251  31.551  29.391  1.00  0.00    -0.014 A 
BRANCH  35  36
ATOM     36  C   UNL A   1      38.359  30.872  30.100  1.00  0.00     0.031 A 
ATOM     37  C   UNL A   1      38.607  31.222  31.542  1.00  0.00     0.074 A 
ATOM     38  C   UNL A   1      39.089  29.919  29.495  1.00  0.00     0.049 A 
ATOM     39  N   UNL A   1      39.527  30.780  32.360  1.00  0.00    -0.248 NA
ATOM     40  C   UNL A   1      37.684  32.198  32.146  1.00  0.00     0.031 C 
ATOM     41  C   UNL A   1      38.898  29.453  28.123  1.00  0.00     0.029 A 
ATOM     42  N   UNL A   1      40.139  29.172  29.964  1.00  0.00    -0.354 N 
ATOM     43  C   UNL A   1      39.289  31.415  33.572  1.00  0.00     0.074 A 
ATOM     44  C   UNL A   1      38.163  32.302  33.376  1.00  0.00     0.031 C 
ATOM     45  C   UNL A   1      39.812  28.502  27.857  1.00  0.00     0.029 A 
ATOM     46  C   UNL A   1      40.669  28.320  29.026  1.00  0.00     0.049 A 
ATOM     47  H   UNL A   1      40.481  29.239  30.885  1.00  0.00     0.167 HD
ATOM     48  C   UNL A   1      39.941  31.260  34.748  1.00  0.00     0.037 A 
ATOM     49  C   UNL A   1      41.739  27.505  29.105  1.00  0.00     0.037 A 
ATOM     50  C   UNL A   1      41.067  30.385  34.937  1.00  0.00     0.049 A 
ATOM     51  C   UNL A   1      42.514  27.432  30.397  1.00  0.00     0.074 A 
ATOM     52  C   UNL A   1      41.816  30.176  36.081  1.00  0.00     0.029 A 
ATOM     53  N   UNL A   1      41.604  29.573  33.951  1.00  0.00    -0.354 N 
ATOM     54  N   UNL A   1      42.284  28.037  31.538  1.00  0.00    -0.248 NA
ATOM     55  C   UNL A   1      43.700  26.563  30.409  1.00  0.00     0.031 C 
ATOM     56  C   UNL A   1      42.833  29.266  35.776  1.00  0.00     0.029 A 
ATOM     57  C   UNL A   1      42.687  28.873  34.455  1.00  0.00     0.049 A 
ATOM     58  H   UNL A   1      41.266  29.504  33.028  1.00  0.00     0.167 HD
ATOM     59  C   UNL A   1      43.272  27.597  32.409  1.00  0.00     0.074 A 
ATOM     60  C   UNL A   1      44.097  26.665  31.670  1.00  0.00     0.031 C 
ATOM     61  C   UNL A   1      43.481  27.934  33.705  1.00  0.00     0.037 A 
BRANCH  48  62
ATOM     62  C   UNL A   1      39.460  32.064  35.919  1.00  0.00     0.064 A 
ATOM     63  C   UNL A   1      39.965  33.346  36.181  1.00  0.00     0.173 A 
ATOM     64  C   UNL A   1      38.457  31.567  36.763  1.00  0.00     0.173 A 
ATOM     65  F   UNL A   1      40.939  33.858  35.412  1.00  0.00    -0.203 F 
ATOM     66  C   UNL A   1      39.493  34.096  37.255  1.00  0.00     0.198 A 
ATOM     67  C   UNL A   1      37.968  32.330  37.820  1.00  0.00     0.198 A 
ATOM     68  F   UNL A   1      37.941  30.346  36.555  1.00  0.00    -0.203 F 
ATOM     69  F   UNL A   1      40.015  35.304  37.508  1.00  0.00    -0.200 F 
ATOM     70  C   UNL A   1      38.489  33.592  38.068  1.00  0.00     0.200 A 
ATOM     71  F   UNL A   1      36.991  31.844  38.599  1.00  0.00    -0.200 F 
ATOM     72  F   UNL A   1      38.027  34.318  39.095  1.00  0.00    -0.200 F 
ENDBRANCH  48  62
BRANCH  49  73
ATOM     73  C   UNL A   1      42.166  26.709  27.924  1.00  0.00     0.064 A 
ATOM     74  C   UNL A   1      43.041  27.242  26.968  1.00  0.00     0.173 A 
ATOM     75  C   UNL A   1      41.668  25.417  27.702  1.00  0.00     0.173 A 
ATOM     76  F   UNL A   1      43.525  28.484  27.120  1.00  0.00    -0.203 F 
ATOM     77  C   UNL A   1      43.378  26.525  25.820  1.00  0.00     0.198 A 
ATOM     78  C   UNL A   1      42.029  24.689  26.570  1.00  0.00     0.198 A 
ATOM     79  F   UNL A   1      40.824  24.861  28.585  1.00  0.00    -0.203 F 
ATOM     80  F   UNL A   1      44.168  27.082  24.893  1.00  0.00    -0.200 F 
ATOM     81  C   UNL A   1      42.874  25.248  25.625  1.00  0.00     0.200 A 
ATOM     82  F   UNL A   1      41.547  23.451  26.391  1.00  0.00    -0.200 F 
ATOM     83  F   UNL A   1      43.192  24.562  24.519  1.00  0.00    -0.200 F 
ENDBRANCH  49  73
BRANCH  61  84
ATOM     84  C   UNL A   1      44.615  27.260  34.420  1.00  0.00     0.064 A 
ATOM     85  C   UNL A   1      45.883  27.852  34.510  1.00  0.00     0.173 A 
ATOM     86  C   UNL A   1      44.417  26.027  35.061  1.00  0.00     0.173 A 
ATOM     87  F   UNL A   1      46.126  29.023  33.901  1.00  0.00    -0.203 F 
ATOM     88  C   UNL A   1      46.918  27.223  35.197  1.00  0.00     0.198 A 
ATOM     89  C   UNL A   1      45.445  25.416  35.771  1.00  0.00     0.198 A 
ATOM     90  F   UNL A   1      43.219  25.424  35.011  1.00  0.00    -0.203 F 
ATOM     91  F   UNL A   1      48.134  27.786  35.234  1.00  0.00    -0.200 F 
ATOM     92  C   UNL A   1      46.697  26.010  35.833  1.00  0.00     0.200 A 
ATOM     93  F   UNL A   1      45.226  24.251  36.396  1.00  0.00    -0.200 F 
ATOM     94  F   UNL A   1      47.692  25.411  36.501  1.00  0.00    -0.200 F 
ENDBRANCH  61  84
ENDBRANCH  35  36
ENDBRANCH  28  30
ENDBRANCH  27  28
ENDBRANCH  26  27
ENDBRANCH  25  26
ENDBRANCH  24  25
ENDBRANCH   1  24
TORSDOF 19
ENDMDL
MODEL 3
REMARK VINA RESULT:     -11.4      4.268      9.908
REMARK SMILES CO[C@H](C)c1noc(C[C@](C)(C(=O)OCCOCCOC(=O)c2ccc(-c3c4nc(c(-c5c(F)c(F)c(F)c(F)c5F)c5ccc([nH]5)c(-c5c(F)c(F)c(F)c(F)c5F)c5nc(c(-c6c(F)c(F)c(F)c(F)c6F)c6ccc3[nH]6)C=C5)C=C4)cc2)c2ccccc2)n1
REMARK SMILES IDX 16 1 15 2 14 3 12 4 13 5 10 6 11 7 9 8 8 9 5 10 6 11 92 12
REMARK SMILES IDX 7 13 3 14 4 15 2 16 1 17 86 18 87 19 91 20 88 21 90 22 89 23
REMARK SMILES IDX 17 24 18 25 19 26 20 27 21 28 22 29 23 30 24 31 85 32 25 33
REMARK SMILES IDX 84 34 26 35 27 36 28 37 78 38 29 39 83 40 77 41 79 42 30 43
REMARK SMILES IDX 82 44 76 45 75 46 31 48 63 49 43 50 62 51 44 52 47 53 61 54
REMARK SMILES IDX 80 55 45 56 46 57 60 59 81 60 48 61 32 62 33 63 41 64 34 65
REMARK SMILES IDX 35 66 39 67 42 68 36 69 37 70 40 71 38 72 64 73 65 74 73 75
REMARK SMILES IDX 66 76 67 77 71 78 74 79 68 80 69 81 72 82 70 83 49 84 50 85
REMARK SMILES IDX 58 86 51 87 52 88 56 89 59 90 53 91 54 92 57 93 55 94
REMARK H PARENT 79 47 47 58
REMARK Flexibility Score: inf
ROOT
ATOM      1  C   UNL A   1      33.858  28.508  23.314  1.00  0.00     0.202 C 
ENDROOT
BRANCH   1   2
ATOM      2  C   UNL A   1      32.982  27.327  22.884  1.00  0.00     0.261 C 
BRANCH   2   3
ATOM      3  O   UNL A   1      33.489  26.070  23.379  1.00  0.00    -0.463 OA
BRANCH   3   4
ATOM      4  C   UNL A   1      32.665  25.001  23.180  1.00  0.00     0.316 C 
ATOM      5  O   UNL A   1      31.897  24.914  22.230  1.00  0.00    -0.251 OA
BRANCH   4   6
ATOM      6  C   UNL A   1      32.804  23.936  24.300  1.00  0.00     0.099 C 
ATOM      7  C   UNL A   1      32.391  24.521  25.674  1.00  0.00     0.029 C 
BRANCH   6   8
ATOM      8  C   UNL A   1      31.777  22.824  23.955  1.00  0.00     0.123 C 
BRANCH   8   9
ATOM      9  C   UNL A   1      32.176  21.448  24.348  1.00  0.00     0.228 A 
ATOM     10  C   UNL A   1      32.721  19.436  24.488  1.00  0.00     0.200 A 
ATOM     11  N   UNL A   1      32.632  19.819  25.769  1.00  0.00    -0.060 NA
ATOM     12  N   UNL A   1      32.466  20.430  23.572  1.00  0.00    -0.193 NA
ATOM     13  O   UNL A   1      32.279  21.162  25.676  1.00  0.00    -0.339 OA
BRANCH  10  14
ATOM     14  C   UNL A   1      33.145  18.052  24.102  1.00  0.00     0.186 C 
ATOM     15  C   UNL A   1      34.652  17.879  24.273  1.00  0.00     0.047 C 
BRANCH  14  16
ATOM     16  O   UNL A   1      32.512  17.019  24.888  1.00  0.00    -0.374 OA
ATOM     17  C   UNL A   1      33.217  15.785  24.837  1.00  0.00     0.195 C 
ENDBRANCH  14  16
ENDBRANCH  10  14
ENDBRANCH   8   9
ENDBRANCH   6   8
BRANCH   6  18
ATOM     18  C   UNL A   1      34.281  23.489  24.424  1.00  0.00    -0.030 A 
ATOM     19  C   UNL A   1      34.933  23.575  25.673  1.00  0.00     0.005 A 
ATOM     20  C   UNL A   1      35.046  23.046  23.334  1.00  0.00     0.005 A 
ATOM     21  C   UNL A   1      36.304  23.353  25.802  1.00  0.00     0.000 A 
ATOM     22  C   UNL A   1      36.422  22.831  23.461  1.00  0.00     0.000 A 
ATOM     23  C   UNL A   1      37.055  23.004  24.689  1.00  0.00     0.000 A 
ENDBRANCH   6  18
ENDBRANCH   4   6
ENDBRANCH   3   4
ENDBRANCH   2   3
ENDBRANCH   1   2
BRANCH   1  24
ATOM     24  O   UNL A   1      33.454  29.211  24.489  1.00  0.00    -0.374 OA
BRANCH  24  25
ATOM     25  C   UNL A   1      32.054  29.382  24.688  1.00  0.00     0.202 C 
BRANCH  25  26
ATOM     26  C   UNL A   1      31.641  30.357  25.794  1.00  0.00     0.261 C 
BRANCH  26  27
ATOM     27  O   UNL A   1      32.529  30.264  26.919  1.00  0.00    -0.460 OA
BRANCH  27  28
ATOM     28  C   UNL A   1      33.169  31.417  27.218  1.00  0.00     0.338 C 
ATOM     29  O   UNL A   1      32.697  32.545  27.244  1.00  0.00    -0.246 OA
BRANCH  28  30
ATOM     30  C   UNL A   1      34.525  31.121  27.710  1.00  0.00     0.060 A 
ATOM     31  C   UNL A   1      34.825  29.778  27.976  1.00  0.00     0.016 A 
ATOM     32  C   UNL A   1      35.465  32.124  27.958  1.00  0.00     0.016 A 
ATOM     33  C   UNL A   1      36.042  29.439  28.556  1.00  0.00     0.010 A 
ATOM     34  C   UNL A   1      36.684  31.783  28.553  1.00  0.00     0.010 A 
ATOM     35  C   UNL A   1      36.956  30.446  28.894  1.00  0.00    -0.014 A 
BRANCH  35  36
ATOM     36  C   UNL A   1      38.096  30.111  29.777  1.00  0.00     0.031 A 
ATOM     37  C   UNL A   1      39.157  29.181  29.255  1.00  0.00     0.074 A 
ATOM     38  C   UNL A   1      38.219  30.672  30.992  1.00  0.00     0.049 A 
ATOM     39  N   UNL A   1      40.230  28.725  29.847  1.00  0.00    -0.248 NA
ATOM     40  C   UNL A   1      38.986  28.705  27.871  1.00  0.00     0.031 C 
ATOM     41  C   UNL A   1      37.289  31.635  31.577  1.00  0.00     0.029 A 
ATOM     42  N   UNL A   1      39.186  30.509  31.953  1.00  0.00    -0.354 N 
ATOM     43  C   UNL A   1      40.864  27.920  28.909  1.00  0.00     0.074 A 
ATOM     44  C   UNL A   1      40.040  27.917  27.721  1.00  0.00     0.031 C 
ATOM     45  C   UNL A   1      37.726  31.970  32.804  1.00  0.00     0.029 A 
ATOM     46  C   UNL A   1      38.945  31.222  33.101  1.00  0.00     0.049 A 
ATOM     47  H   UNL A   1      39.977  29.935  31.830  1.00  0.00     0.167 HD
ATOM     48  C   UNL A   1      42.039  27.258  29.024  1.00  0.00     0.037 A 
ATOM     49  C   UNL A   1      39.625  31.244  34.264  1.00  0.00     0.037 A 
ATOM     50  C   UNL A   1      42.852  27.255  30.210  1.00  0.00     0.049 A 
ATOM     51  C   UNL A   1      40.873  30.410  34.401  1.00  0.00     0.074 A 
ATOM     52  C   UNL A   1      44.045  26.593  30.439  1.00  0.00     0.029 A 
ATOM     53  N   UNL A   1      42.551  27.952  31.370  1.00  0.00    -0.354 N 
ATOM     54  N   UNL A   1      41.467  29.650  33.511  1.00  0.00    -0.248 NA
ATOM     55  C   UNL A   1      41.547  30.436  35.707  1.00  0.00     0.031 C 
ATOM     56  C   UNL A   1      44.446  26.857  31.751  1.00  0.00     0.029 A 
ATOM     57  C   UNL A   1      43.527  27.722  32.324  1.00  0.00     0.049 A 
ATOM     58  H   UNL A   1      41.760  28.524  31.496  1.00  0.00     0.167 HD
ATOM     59  C   UNL A   1      42.595  29.137  34.136  1.00  0.00     0.074 A 
ATOM     60  C   UNL A   1      42.613  29.681  35.478  1.00  0.00     0.031 C 
ATOM     61  C   UNL A   1      43.534  28.291  33.647  1.00  0.00     0.037 A 
BRANCH  48  62
ATOM     62  C   UNL A   1      42.508  26.469  27.838  1.00  0.00     0.064 A 
ATOM     63  C   UNL A   1      42.065  25.158  27.611  1.00  0.00     0.173 A 
ATOM     64  C   UNL A   1      43.375  27.042  26.897  1.00  0.00     0.173 A 
ATOM     65  F   UNL A   1      41.248  24.560  28.492  1.00  0.00    -0.203 F 
ATOM     66  C   UNL A   1      42.485  24.443  26.493  1.00  0.00     0.198 A 
ATOM     67  C   UNL A   1      43.773  26.334  25.766  1.00  0.00     0.198 A 
ATOM     68  F   UNL A   1      43.828  28.293  27.068  1.00  0.00    -0.203 F 
ATOM     69  F   UNL A   1      42.077  23.179  26.314  1.00  0.00    -0.200 F 
ATOM     70  C   UNL A   1      43.331  25.034  25.566  1.00  0.00     0.200 A 
ATOM     71  F   UNL A   1      44.584  26.910  24.867  1.00  0.00    -0.200 F 
ATOM     72  F   UNL A   1      43.727  24.350  24.485  1.00  0.00    -0.200 F 
ENDBRANCH  48  62
BRANCH  49  73
ATOM     73  C   UNL A   1      39.133  32.058  35.407  1.00  0.00     0.064 A 
ATOM     74  C   UNL A   1      39.473  33.412  35.531  1.00  0.00     0.173 A 
ATOM     75  C   UNL A   1      38.355  31.486  36.423  1.00  0.00     0.173 A 
ATOM     76  F   UNL A   1      40.238  34.000  34.600  1.00  0.00    -0.203 F 
ATOM     77  C   UNL A   1      39.078  34.154  36.643  1.00  0.00     0.198 A 
ATOM     78  C   UNL A   1      37.935  32.236  37.519  1.00  0.00     0.198 A 
ATOM     79  F   UNL A   1      38.004  30.193  36.354  1.00  0.00    -0.203 F 
ATOM     80  F   UNL A   1      39.468  35.430  36.768  1.00  0.00    -0.200 F 
ATOM     81  C   UNL A   1      38.306  33.566  37.634  1.00  0.00     0.200 A 
ATOM     82  F   UNL A   1      37.180  31.666  38.469  1.00  0.00    -0.200 F 
ATOM     83  F   UNL A   1      37.932  34.278  38.707  1.00  0.00    -0.200 F 
ENDBRANCH  49  73
BRANCH  61  84
ATOM     84  C   UNL A   1      44.681  27.937  34.548  1.00  0.00     0.064 A 
ATOM     85  C   UNL A   1      44.632  26.820  35.395  1.00  0.00     0.173 A 
ATOM     86  C   UNL A   1      45.860  28.698  34.528  1.00  0.00     0.173 A 
ATOM     87  F   UNL A   1      43.522  26.070  35.461  1.00  0.00    -0.203 F 
ATOM     88  C   UNL A   1      45.715  26.493  36.207  1.00  0.00     0.198 A 
ATOM     89  C   UNL A   1      46.950  28.350  35.319  1.00  0.00     0.198 A 
ATOM     90  F   UNL A   1      45.958  29.770  33.727  1.00  0.00    -0.203 F 
ATOM     91  F   UNL A   1      45.631  25.447  37.043  1.00  0.00    -0.200 F 
ATOM     92  C   UNL A   1      46.874  27.253  36.164  1.00  0.00     0.200 A 
ATOM     93  F   UNL A   1      48.074  29.077  35.265  1.00  0.00    -0.200 F 
ATOM     94  F   UNL A   1      47.918  26.931  36.940  1.00  0.00    -0.200 F 
ENDBRANCH  61  84
ENDBRANCH  35  36
ENDBRANCH  28  30
ENDBRANCH  27  28
ENDBRANCH  26  27
ENDBRANCH  25  26
ENDBRANCH  24  25
ENDBRANCH   1  24
TORSDOF 19
ENDMDL
