MODEL 1
REMARK VINA RESULT:     -11.9      0.000      0.000
REMARK SMILES CC(C)(C)OC(=O)Nc1ccc(-c2cccc(Cl)c2C(=O)OCCOCCOC(=O)c2ccc(-c3c4nc(c(-c5c(F)c(F)c(F)c(F)c5F)c5ccc([nH]5)c(-c5c(F)c(F)c(F)c(F)c5F)c5nc(c(-c6c(F)c(F)c(F)c(F)c6F)c6ccc3[nH]6)C=C5)C=C4)cc2)cc1
REMARK SMILES IDX 24 1 23 2 22 3 20 4 21 5 19 6 13 7 14 8 15 9 17 10 16 11
REMARK SMILES IDX 18 12 12 13 9 14 10 15 95 16 11 17 94 18 8 19 6 20 7 21 5 23
REMARK SMILES IDX 2 24 1 25 3 26 4 27 25 28 26 29 27 30 28 31 29 32 30 33
REMARK SMILES IDX 31 34 32 35 93 36 33 37 92 38 34 39 35 40 36 41 86 42 37 43
REMARK SMILES IDX 91 44 85 45 87 46 38 47 90 48 84 49 83 50 39 52 71 53 51 54
REMARK SMILES IDX 70 55 52 56 55 57 69 58 88 59 53 60 54 61 68 63 89 64 56 65
REMARK SMILES IDX 40 66 41 67 49 68 42 69 43 70 47 71 50 72 44 73 45 74 48 75
REMARK SMILES IDX 46 76 72 77 73 78 81 79 74 80 75 81 79 82 82 83 76 84 77 85
REMARK SMILES IDX 80 86 78 87 57 88 58 89 66 90 59 91 60 92 64 93 67 94 61 95
REMARK SMILES IDX 62 96 65 97 63 98
REMARK H PARENT 8 22 87 51 55 62
REMARK Flexibility Score: inf
ROOT
ATOM      1  C   UNL A   1      32.970  30.185  26.241  1.00  0.00     0.202 C 
ENDROOT
BRANCH   1   2
ATOM      2  C   UNL A   1      32.869  29.460  24.901  1.00  0.00     0.261 C 
BRANCH   2   3
ATOM      3  O   UNL A   1      31.583  28.841  24.772  1.00  0.00    -0.460 OA
BRANCH   3   4
ATOM      4  C   UNL A   1      31.291  28.342  23.551  1.00  0.00     0.340 C 
ATOM      5  O   UNL A   1      32.091  28.074  22.671  1.00  0.00    -0.246 OA
BRANCH   4   6
ATOM      6  C   UNL A   1      29.827  28.142  23.403  1.00  0.00     0.086 A 
ATOM      7  C   UNL A   1      29.166  26.995  23.910  1.00  0.00    -0.002 A 
ATOM      8  C   UNL A   1      27.755  27.002  23.934  1.00  0.00     0.010 A 
ATOM      9  C   UNL A   1      27.021  28.059  23.403  1.00  0.00     0.002 A 
ATOM     10  C   UNL A   1      29.080  29.171  22.805  1.00  0.00     0.056 A 
ATOM     11  C   UNL A   1      27.683  29.122  22.803  1.00  0.00     0.021 A 
ATOM     12  Cl  UNL A   1      29.813  30.490  21.957  1.00  0.00    -0.083 Cl
BRANCH   7  13
ATOM     13  C   UNL A   1      29.859  25.782  24.371  1.00  0.00    -0.017 A 
ATOM     14  C   UNL A   1      31.231  23.467  25.218  1.00  0.00     0.044 A 
ATOM     15  C   UNL A   1      31.076  23.718  23.860  1.00  0.00     0.027 A 
ATOM     16  C   UNL A   1      30.783  24.418  26.136  1.00  0.00     0.027 A 
ATOM     17  C   UNL A   1      30.400  24.868  23.442  1.00  0.00     0.011 A 
ATOM     18  C   UNL A   1      30.049  25.522  25.727  1.00  0.00     0.011 A 
BRANCH  14  19
ATOM     19  N   UNL A   1      31.800  22.245  25.614  1.00  0.00    -0.291 N 
ATOM     20  C   UNL A   1      33.097  22.023  26.001  1.00  0.00     0.412 C 
ATOM     21  O   UNL A   1      33.492  20.898  26.283  1.00  0.00    -0.224 OA
ATOM     22  H   UNL A   1      31.202  21.463  25.613  1.00  0.00     0.173 HD
BRANCH  20  23
ATOM     23  O   UNL A   1      33.830  23.153  26.086  1.00  0.00    -0.444 OA
BRANCH  23  24
ATOM     24  C   UNL A   1      34.836  23.556  25.135  1.00  0.00     0.106 C 
ATOM     25  C   UNL A   1      34.509  25.019  24.815  1.00  0.00     0.056 C 
ATOM     26  C   UNL A   1      34.684  22.740  23.849  1.00  0.00     0.056 C 
ATOM     27  C   UNL A   1      36.228  23.494  25.750  1.00  0.00     0.056 C 
ENDBRANCH  23  24
ENDBRANCH  20  23
ENDBRANCH  14  19
ENDBRANCH   7  13
ENDBRANCH   4   6
ENDBRANCH   3   4
ENDBRANCH   2   3
ENDBRANCH   1   2
BRANCH   1  28
ATOM     28  O   UNL A   1      31.749  30.594  26.854  1.00  0.00    -0.374 OA
BRANCH  28  29
ATOM     29  C   UNL A   1      31.218  31.875  26.521  1.00  0.00     0.202 C 
BRANCH  29  30
ATOM     30  C   UNL A   1      32.129  33.105  26.665  1.00  0.00     0.261 C 
BRANCH  30  31
ATOM     31  O   UNL A   1      32.533  33.417  28.010  1.00  0.00    -0.460 OA
BRANCH  31  32
ATOM     32  C   UNL A   1      33.706  34.096  28.096  1.00  0.00     0.338 C 
ATOM     33  O   UNL A   1      33.868  35.303  28.034  1.00  0.00    -0.246 OA
BRANCH  32  34
ATOM     34  C   UNL A   1      34.822  33.184  28.407  1.00  0.00     0.060 A 
ATOM     35  C   UNL A   1      34.522  31.946  28.990  1.00  0.00     0.016 A 
ATOM     36  C   UNL A   1      36.147  33.601  28.287  1.00  0.00     0.016 A 
ATOM     37  C   UNL A   1      35.543  31.137  29.494  1.00  0.00     0.010 A 
ATOM     38  C   UNL A   1      37.170  32.785  28.791  1.00  0.00     0.010 A 
ATOM     39  C   UNL A   1      36.876  31.562  29.429  1.00  0.00    -0.014 A 
BRANCH  39  40
ATOM     40  C   UNL A   1      37.948  30.822  30.156  1.00  0.00     0.031 A 
ATOM     41  C   UNL A   1      38.281  31.209  31.572  1.00  0.00     0.074 A 
ATOM     42  C   UNL A   1      38.606  29.780  29.614  1.00  0.00     0.049 A 
ATOM     43  N   UNL A   1      39.252  30.786  32.343  1.00  0.00    -0.248 NA
ATOM     44  C   UNL A   1      37.382  32.180  32.217  1.00  0.00     0.031 C 
ATOM     45  C   UNL A   1      38.305  29.160  28.330  1.00  0.00     0.029 A 
ATOM     46  N   UNL A   1      39.698  29.076  30.075  1.00  0.00    -0.354 N 
ATOM     47  C   UNL A   1      39.068  31.414  33.565  1.00  0.00     0.074 A 
ATOM     48  C   UNL A   1      37.933  32.302  33.416  1.00  0.00     0.031 C 
ATOM     49  C   UNL A   1      39.233  28.220  28.076  1.00  0.00     0.029 A 
ATOM     50  C   UNL A   1      40.223  28.222  29.136  1.00  0.00     0.049 A 
ATOM     51  H   UNL A   1      40.064  29.176  30.984  1.00  0.00     0.167 HD
ATOM     52  C   UNL A   1      39.759  31.238  34.717  1.00  0.00     0.037 A 
ATOM     53  C   UNL A   1      41.390  27.553  29.095  1.00  0.00     0.037 A 
ATOM     54  C   UNL A   1      40.880  30.346  34.872  1.00  0.00     0.049 A 
ATOM     55  C   UNL A   1      42.281  27.558  30.293  1.00  0.00     0.074 A 
ATOM     56  C   UNL A   1      41.608  30.069  36.018  1.00  0.00     0.029 A 
ATOM     57  N   UNL A   1      41.451  29.600  33.852  1.00  0.00    -0.354 N 
ATOM     58  N   UNL A   1      42.110  28.160  31.440  1.00  0.00    -0.248 NA
ATOM     59  C   UNL A   1      43.493  26.732  30.209  1.00  0.00     0.031 C 
ATOM     60  C   UNL A   1      42.662  29.216  35.676  1.00  0.00     0.029 A 
ATOM     61  C   UNL A   1      42.549  28.901  34.334  1.00  0.00     0.049 A 
ATOM     62  H   UNL A   1      41.125  29.570  32.924  1.00  0.00     0.167 HD
ATOM     63  C   UNL A   1      43.156  27.735  32.242  1.00  0.00     0.074 A 
ATOM     64  C   UNL A   1      43.971  26.847  31.440  1.00  0.00     0.031 C 
ATOM     65  C   UNL A   1      43.380  28.028  33.544  1.00  0.00     0.037 A 
BRANCH  52  66
ATOM     66  C   UNL A   1      39.330  32.041  35.908  1.00  0.00     0.064 A 
ATOM     67  C   UNL A   1      39.834  33.327  36.157  1.00  0.00     0.173 A 
ATOM     68  C   UNL A   1      38.361  31.535  36.788  1.00  0.00     0.173 A 
ATOM     69  F   UNL A   1      40.770  33.854  35.353  1.00  0.00    -0.203 F 
ATOM     70  C   UNL A   1      39.403  34.065  37.257  1.00  0.00     0.198 A 
ATOM     71  C   UNL A   1      37.908  32.288  37.868  1.00  0.00     0.198 A 
ATOM     72  F   UNL A   1      37.843  30.312  36.593  1.00  0.00    -0.203 F 
ATOM     73  F   UNL A   1      39.933  35.270  37.502  1.00  0.00    -0.200 F 
ATOM     74  C   UNL A   1      38.435  33.549  38.105  1.00  0.00     0.200 A 
ATOM     75  F   UNL A   1      36.961  31.794  38.676  1.00  0.00    -0.200 F 
ATOM     76  F   UNL A   1      38.013  34.264  39.156  1.00  0.00    -0.200 F 
ENDBRANCH  52  66
BRANCH  53  77
ATOM     77  C   UNL A   1      41.822  26.840  27.869  1.00  0.00     0.064 A 
ATOM     78  C   UNL A   1      41.506  25.496  27.651  1.00  0.00     0.173 A 
ATOM     79  C   UNL A   1      42.640  27.485  26.931  1.00  0.00     0.173 A 
ATOM     80  F   UNL A   1      40.789  24.822  28.561  1.00  0.00    -0.203 F 
ATOM     81  C   UNL A   1      41.972  24.826  26.521  1.00  0.00     0.198 A 
ATOM     82  C   UNL A   1      43.091  26.819  25.793  1.00  0.00     0.198 A 
ATOM     83  F   UNL A   1      43.031  28.749  27.141  1.00  0.00    -0.203 F 
ATOM     84  F   UNL A   1      41.690  23.527  26.350  1.00  0.00    -0.200 F 
ATOM     85  C   UNL A   1      42.752  25.491  25.587  1.00  0.00     0.200 A 
ATOM     86  F   UNL A   1      43.862  27.457  24.903  1.00  0.00    -0.200 F 
ATOM     87  F   UNL A   1      43.196  24.847  24.498  1.00  0.00    -0.200 F 
ENDBRANCH  53  77
BRANCH  65  88
ATOM     88  C   UNL A   1      44.522  27.323  34.207  1.00  0.00     0.064 A 
ATOM     89  C   UNL A   1      45.804  27.887  34.282  1.00  0.00     0.173 A 
ATOM     90  C   UNL A   1      44.330  26.050  34.766  1.00  0.00     0.173 A 
ATOM     91  F   UNL A   1      46.046  29.087  33.736  1.00  0.00    -0.203 F 
ATOM     92  C   UNL A   1      46.858  27.187  34.863  1.00  0.00     0.198 A 
ATOM     93  C   UNL A   1      45.378  25.370  35.379  1.00  0.00     0.198 A 
ATOM     94  F   UNL A   1      43.125  25.463  34.715  1.00  0.00    -0.203 F 
ATOM     95  F   UNL A   1      48.090  27.716  34.861  1.00  0.00    -0.200 F 
ATOM     96  C   UNL A   1      46.642  25.935  35.417  1.00  0.00     0.200 A 
ATOM     97  F   UNL A   1      45.163  24.163  35.922  1.00  0.00    -0.200 F 
ATOM     98  F   UNL A   1      47.659  25.263  35.976  1.00  0.00    -0.200 F 
ENDBRANCH  65  88
ENDBRANCH  39  40
ENDBRANCH  32  34
ENDBRANCH  31  32
ENDBRANCH  30  31
ENDBRANCH  29  30
ENDBRANCH  28  29
ENDBRANCH   1  28
TORSDOF 18
ENDMDL
MODEL 2
REMARK VINA RESULT:     -11.7      1.108      7.099
REMARK SMILES CC(C)(C)OC(=O)Nc1ccc(-c2cccc(Cl)c2C(=O)OCCOCCOC(=O)c2ccc(-c3c4nc(c(-c5c(F)c(F)c(F)c(F)c5F)c5ccc([nH]5)c(-c5c(F)c(F)c(F)c(F)c5F)c5nc(c(-c6c(F)c(F)c(F)c(F)c6F)c6ccc3[nH]6)C=C5)C=C4)cc2)cc1
REMARK SMILES IDX 24 1 23 2 22 3 20 4 21 5 19 6 13 7 14 8 15 9 17 10 16 11
REMARK SMILES IDX 18 12 12 13 9 14 10 15 95 16 11 17 94 18 8 19 6 20 7 21 5 23
REMARK SMILES IDX 2 24 1 25 3 26 4 27 25 28 26 29 27 30 28 31 29 32 30 33
REMARK SMILES IDX 31 34 32 35 93 36 33 37 92 38 34 39 35 40 36 41 86 42 37 43
REMARK SMILES IDX 91 44 85 45 87 46 38 47 90 48 84 49 83 50 39 52 71 53 51 54
REMARK SMILES IDX 70 55 52 56 55 57 69 58 88 59 53 60 54 61 68 63 89 64 56 65
REMARK SMILES IDX 40 66 41 67 49 68 42 69 43 70 47 71 50 72 44 73 45 74 48 75
REMARK SMILES IDX 46 76 72 77 73 78 81 79 74 80 75 81 79 82 82 83 76 84 77 85
REMARK SMILES IDX 80 86 78 87 57 88 58 89 66 90 59 91 60 92 64 93 67 94 61 95
REMARK SMILES IDX 62 96 65 97 63 98
REMARK H PARENT 8 22 87 51 55 62
REMARK Flexibility Score: inf
ROOT
ATOM      1  C   UNL A   1      32.949  30.165  26.274  1.00  0.00     0.202 C 
ENDROOT
BRANCH   1   2
ATOM      2  C   UNL A   1      32.741  29.121  25.179  1.00  0.00     0.261 C 
BRANCH   2   3
ATOM      3  O   UNL A   1      31.416  29.228  24.643  1.00  0.00    -0.460 OA
BRANCH   3   4
ATOM      4  C   UNL A   1      31.167  28.490  23.539  1.00  0.00     0.340 C 
ATOM      5  O   UNL A   1      31.999  28.044  22.767  1.00  0.00    -0.246 OA
BRANCH   4   6
ATOM      6  C   UNL A   1      29.708  28.270  23.373  1.00  0.00     0.086 A 
ATOM      7  C   UNL A   1      29.057  27.113  23.870  1.00  0.00    -0.002 A 
ATOM      8  C   UNL A   1      27.646  27.100  23.878  1.00  0.00     0.010 A 
ATOM      9  C   UNL A   1      26.904  28.147  23.339  1.00  0.00     0.002 A 
ATOM     10  C   UNL A   1      28.954  29.289  22.769  1.00  0.00     0.056 A 
ATOM     11  C   UNL A   1      27.558  29.221  22.750  1.00  0.00     0.021 A 
ATOM     12  Cl  UNL A   1      29.679  30.620  21.931  1.00  0.00    -0.083 Cl
BRANCH   7  13
ATOM     13  C   UNL A   1      29.762  25.908  24.337  1.00  0.00    -0.017 A 
ATOM     14  C   UNL A   1      31.156  23.611  25.196  1.00  0.00     0.044 A 
ATOM     15  C   UNL A   1      31.019  23.866  23.837  1.00  0.00     0.027 A 
ATOM     16  C   UNL A   1      30.679  24.551  26.111  1.00  0.00     0.027 A 
ATOM     17  C   UNL A   1      30.332  25.007  23.413  1.00  0.00     0.011 A 
ATOM     18  C   UNL A   1      29.935  25.645  25.695  1.00  0.00     0.011 A 
BRANCH  14  19
ATOM     19  N   UNL A   1      31.738  22.396  25.596  1.00  0.00    -0.291 N 
ATOM     20  C   UNL A   1      33.035  22.190  25.989  1.00  0.00     0.412 C 
ATOM     21  O   UNL A   1      33.443  21.070  26.274  1.00  0.00    -0.224 OA
ATOM     22  H   UNL A   1      31.149  21.608  25.594  1.00  0.00     0.173 HD
BRANCH  20  23
ATOM     23  O   UNL A   1      33.755  23.329  26.075  1.00  0.00    -0.444 OA
BRANCH  23  24
ATOM     24  C   UNL A   1      34.756  23.744  25.125  1.00  0.00     0.106 C 
ATOM     25  C   UNL A   1      34.402  25.199  24.794  1.00  0.00     0.056 C 
ATOM     26  C   UNL A   1      34.625  22.917  23.844  1.00  0.00     0.056 C 
ATOM     27  C   UNL A   1      36.148  23.714  25.745  1.00  0.00     0.056 C 
ENDBRANCH  23  24
ENDBRANCH  20  23
ENDBRANCH  14  19
ENDBRANCH   7  13
ENDBRANCH   4   6
ENDBRANCH   3   4
ENDBRANCH   2   3
ENDBRANCH   1   2
BRANCH   1  28
ATOM     28  O   UNL A   1      31.782  30.726  26.871  1.00  0.00    -0.374 OA
BRANCH  28  29
ATOM     29  C   UNL A   1      31.558  32.128  26.738  1.00  0.00     0.202 C 
BRANCH  29  30
ATOM     30  C   UNL A   1      32.639  33.094  27.251  1.00  0.00     0.261 C 
BRANCH  30  31
ATOM     31  O   UNL A   1      32.153  34.206  28.024  1.00  0.00    -0.460 OA
BRANCH  31  32
ATOM     32  C   UNL A   1      33.128  34.931  28.630  1.00  0.00     0.338 C 
ATOM     33  O   UNL A   1      33.085  36.109  28.945  1.00  0.00    -0.246 OA
BRANCH  32  34
ATOM     34  C   UNL A   1      34.272  34.076  28.996  1.00  0.00     0.060 A 
ATOM     35  C   UNL A   1      34.077  33.097  29.978  1.00  0.00     0.016 A 
ATOM     36  C   UNL A   1      35.552  34.340  28.511  1.00  0.00     0.016 A 
ATOM     37  C   UNL A   1      35.168  32.405  30.510  1.00  0.00     0.010 A 
ATOM     38  C   UNL A   1      36.645  33.642  29.045  1.00  0.00     0.010 A 
ATOM     39  C   UNL A   1      36.467  32.693  30.074  1.00  0.00    -0.014 A 
BRANCH  39  40
ATOM     40  C   UNL A   1      37.652  32.130  30.784  1.00  0.00     0.031 A 
ATOM     41  C   UNL A   1      38.390  30.966  30.179  1.00  0.00     0.074 A 
ATOM     42  C   UNL A   1      38.125  32.652  31.931  1.00  0.00     0.049 A 
ATOM     43  N   UNL A   1      39.363  30.247  30.682  1.00  0.00    -0.248 NA
ATOM     44  C   UNL A   1      38.002  30.579  28.814  1.00  0.00     0.031 C 
ATOM     45  C   UNL A   1      37.649  33.873  32.569  1.00  0.00     0.029 A 
ATOM     46  N   UNL A   1      39.106  32.193  32.784  1.00  0.00    -0.354 N 
ATOM     47  C   UNL A   1      39.719  29.345  29.692  1.00  0.00     0.074 A 
ATOM     48  C   UNL A   1      38.814  29.558  28.582  1.00  0.00     0.031 C 
ATOM     49  C   UNL A   1      38.287  34.023  33.744  1.00  0.00     0.029 A 
ATOM     50  C   UNL A   1      39.156  32.884  33.970  1.00  0.00     0.049 A 
ATOM     51  H   UNL A   1      39.709  31.445  32.565  1.00  0.00     0.167 HD
ATOM     52  C   UNL A   1      40.734  28.447  29.694  1.00  0.00     0.037 A 
ATOM     53  C   UNL A   1      39.780  32.615  35.130  1.00  0.00     0.037 A 
ATOM     54  C   UNL A   1      41.645  28.242  30.792  1.00  0.00     0.049 A 
ATOM     55  C   UNL A   1      40.726  31.463  35.206  1.00  0.00     0.074 A 
ATOM     56  C   UNL A   1      42.733  27.387  30.859  1.00  0.00     0.029 A 
ATOM     57  N   UNL A   1      41.569  28.881  32.020  1.00  0.00    -0.354 N 
ATOM     58  N   UNL A   1      41.051  30.606  34.274  1.00  0.00    -0.248 NA
ATOM     59  C   UNL A   1      41.440  31.285  36.477  1.00  0.00     0.031 C 
ATOM     60  C   UNL A   1      43.268  27.454  32.150  1.00  0.00     0.029 A 
ATOM     61  C   UNL A   1      42.561  28.403  32.865  1.00  0.00     0.049 A 
ATOM     62  H   UNL A   1      40.908  29.572  32.257  1.00  0.00     0.167 HD
ATOM     63  C   UNL A   1      42.059  29.829  34.819  1.00  0.00     0.074 A 
ATOM     64  C   UNL A   1      42.268  30.296  36.174  1.00  0.00     0.031 C 
ATOM     65  C   UNL A   1      42.770  28.846  34.220  1.00  0.00     0.037 A 
BRANCH  52  66
ATOM     66  C   UNL A   1      40.908  27.600  28.468  1.00  0.00     0.064 A 
ATOM     67  C   UNL A   1      40.202  26.400  28.290  1.00  0.00     0.173 A 
ATOM     68  C   UNL A   1      41.757  28.022  27.434  1.00  0.00     0.173 A 
ATOM     69  F   UNL A   1      39.386  25.946  29.252  1.00  0.00    -0.203 F 
ATOM     70  C   UNL A   1      40.362  25.642  27.132  1.00  0.00     0.198 A 
ATOM     71  C   UNL A   1      41.889  27.278  26.265  1.00  0.00     0.198 A 
ATOM     72  F   UNL A   1      42.452  29.165  27.553  1.00  0.00    -0.203 F 
ATOM     73  F   UNL A   1      39.715  24.475  27.004  1.00  0.00    -0.200 F 
ATOM     74  C   UNL A   1      41.197  26.086  26.119  1.00  0.00     0.200 A 
ATOM     75  F   UNL A   1      42.684  27.718  25.281  1.00  0.00    -0.200 F 
ATOM     76  F   UNL A   1      41.340  25.362  25.001  1.00  0.00    -0.200 F 
ENDBRANCH  52  66
BRANCH  53  77
ATOM     77  C   UNL A   1      39.518  33.423  36.347  1.00  0.00     0.064 A 
ATOM     78  C   UNL A   1      38.576  33.028  37.301  1.00  0.00     0.173 A 
ATOM     79  C   UNL A   1      40.157  34.657  36.523  1.00  0.00     0.173 A 
ATOM     80  F   UNL A   1      37.889  31.891  37.132  1.00  0.00    -0.203 F 
ATOM     81  C   UNL A   1      38.301  33.830  38.408  1.00  0.00     0.198 A 
ATOM     82  C   UNL A   1      39.893  35.450  37.639  1.00  0.00     0.198 A 
ATOM     83  F   UNL A   1      41.008  35.109  35.593  1.00  0.00    -0.203 F 
ATOM     84  F   UNL A   1      37.366  33.452  39.291  1.00  0.00    -0.200 F 
ATOM     85  C   UNL A   1      38.968  35.033  38.583  1.00  0.00     0.200 A 
ATOM     86  F   UNL A   1      40.525  36.621  37.794  1.00  0.00    -0.200 F 
ATOM     87  F   UNL A   1      38.707  35.801  39.649  1.00  0.00    -0.200 F 
ENDBRANCH  53  77
BRANCH  65  88
ATOM     88  C   UNL A   1      43.897  28.252  35.007  1.00  0.00     0.064 A 
ATOM     89  C   UNL A   1      45.181  28.816  35.009  1.00  0.00     0.173 A 
ATOM     90  C   UNL A   1      43.688  27.087  35.762  1.00  0.00     0.173 A 
ATOM     91  F   UNL A   1      45.439  29.911  34.280  1.00  0.00    -0.203 F 
ATOM     92  C   UNL A   1      46.222  28.216  35.713  1.00  0.00     0.198 A 
ATOM     93  C   UNL A   1      44.722  26.512  36.493  1.00  0.00     0.198 A 
ATOM     94  F   UNL A   1      42.480  26.505  35.788  1.00  0.00    -0.203 F 
ATOM     95  F   UNL A   1      47.457  28.731  35.645  1.00  0.00    -0.200 F 
ATOM     96  C   UNL A   1      45.990  27.070  36.459  1.00  0.00     0.200 A 
ATOM     97  F   UNL A   1      44.492  25.410  37.222  1.00  0.00    -0.200 F 
ATOM     98  F   UNL A   1      46.994  26.494  37.136  1.00  0.00    -0.200 F 
ENDBRANCH  65  88
ENDBRANCH  39  40
ENDBRANCH  32  34
ENDBRANCH  31  32
ENDBRANCH  30  31
ENDBRANCH  29  30
ENDBRANCH  28  29
ENDBRANCH   1  28
TORSDOF 18
ENDMDL
MODEL 3
REMARK VINA RESULT:     -11.7      0.779      7.154
REMARK SMILES CC(C)(C)OC(=O)Nc1ccc(-c2cccc(Cl)c2C(=O)OCCOCCOC(=O)c2ccc(-c3c4nc(c(-c5c(F)c(F)c(F)c(F)c5F)c5ccc([nH]5)c(-c5c(F)c(F)c(F)c(F)c5F)c5nc(c(-c6c(F)c(F)c(F)c(F)c6F)c6ccc3[nH]6)C=C5)C=C4)cc2)cc1
REMARK SMILES IDX 24 1 23 2 22 3 20 4 21 5 19 6 13 7 14 8 15 9 17 10 16 11
REMARK SMILES IDX 18 12 12 13 9 14 10 15 95 16 11 17 94 18 8 19 6 20 7 21 5 23
REMARK SMILES IDX 2 24 1 25 3 26 4 27 25 28 26 29 27 30 28 31 29 32 30 33
REMARK SMILES IDX 31 34 32 35 93 36 33 37 92 38 34 39 35 40 36 41 86 42 37 43
REMARK SMILES IDX 91 44 85 45 87 46 38 47 90 48 84 49 83 50 39 52 71 53 51 54
REMARK SMILES IDX 70 55 52 56 55 57 69 58 88 59 53 60 54 61 68 63 89 64 56 65
REMARK SMILES IDX 40 66 41 67 49 68 42 69 43 70 47 71 50 72 44 73 45 74 48 75
REMARK SMILES IDX 46 76 72 77 73 78 81 79 74 80 75 81 79 82 82 83 76 84 77 85
REMARK SMILES IDX 80 86 78 87 57 88 58 89 66 90 59 91 60 92 64 93 67 94 61 95
REMARK SMILES IDX 62 96 65 97 63 98
REMARK H PARENT 8 22 87 51 55 62
REMARK Flexibility Score: inf
ROOT
ATOM      1  C   UNL A   1      32.950  29.358  26.570  1.00  0.00     0.202 C 
ENDROOT
BRANCH   1   2
ATOM      2  C   UNL A   1      32.902  29.007  25.085  1.00  0.00     0.261 C 
BRANCH   2   3
ATOM      3  O   UNL A   1      31.553  29.072  24.607  1.00  0.00    -0.460 OA
BRANCH   3   4
ATOM      4  C   UNL A   1      31.280  28.329  23.513  1.00  0.00     0.340 C 
ATOM      5  O   UNL A   1      32.096  27.859  22.738  1.00  0.00    -0.246 OA
BRANCH   4   6
ATOM      6  C   UNL A   1      29.815  28.135  23.363  1.00  0.00     0.086 A 
ATOM      7  C   UNL A   1      29.144  27.005  23.895  1.00  0.00    -0.002 A 
ATOM      8  C   UNL A   1      27.733  27.021  23.912  1.00  0.00     0.010 A 
ATOM      9  C   UNL A   1      27.009  28.070  23.351  1.00  0.00     0.002 A 
ATOM     10  C   UNL A   1      29.078  29.153  22.736  1.00  0.00     0.056 A 
ATOM     11  C   UNL A   1      27.681  29.113  22.728  1.00  0.00     0.021 A 
ATOM     12  Cl  UNL A   1      29.824  30.446  21.859  1.00  0.00    -0.083 Cl
BRANCH   7  13
ATOM     13  C   UNL A   1      29.827  25.799  24.389  1.00  0.00    -0.017 A 
ATOM     14  C   UNL A   1      31.091  23.474  25.367  1.00  0.00     0.044 A 
ATOM     15  C   UNL A   1      30.507  24.368  26.257  1.00  0.00     0.027 A 
ATOM     16  C   UNL A   1      30.957  23.701  23.997  1.00  0.00     0.027 A 
ATOM     17  C   UNL A   1      29.877  25.516  25.770  1.00  0.00     0.011 A 
ATOM     18  C   UNL A   1      30.397  24.875  23.514  1.00  0.00     0.011 A 
BRANCH  14  19
ATOM     19  N   UNL A   1      31.827  22.396  25.885  1.00  0.00    -0.291 N 
ATOM     20  C   UNL A   1      33.173  22.362  26.145  1.00  0.00     0.412 C 
ATOM     21  O   UNL A   1      33.716  21.343  26.558  1.00  0.00    -0.224 OA
ATOM     22  H   UNL A   1      31.321  21.575  26.084  1.00  0.00     0.173 HD
BRANCH  20  23
ATOM     23  O   UNL A   1      33.784  23.551  25.957  1.00  0.00    -0.444 OA
BRANCH  23  24
ATOM     24  C   UNL A   1      34.753  23.825  24.925  1.00  0.00     0.106 C 
ATOM     25  C   UNL A   1      34.426  25.245  24.447  1.00  0.00     0.056 C 
ATOM     26  C   UNL A   1      34.541  22.865  23.752  1.00  0.00     0.056 C 
ATOM     27  C   UNL A   1      36.169  23.817  25.487  1.00  0.00     0.056 C 
ENDBRANCH  23  24
ENDBRANCH  20  23
ENDBRANCH  14  19
ENDBRANCH   7  13
ENDBRANCH   4   6
ENDBRANCH   3   4
ENDBRANCH   2   3
ENDBRANCH   1   2
BRANCH   1  28
ATOM     28  O   UNL A   1      33.093  30.736  26.910  1.00  0.00    -0.374 OA
BRANCH  28  29
ATOM     29  C   UNL A   1      31.942  31.575  26.839  1.00  0.00     0.202 C 
BRANCH  29  30
ATOM     30  C   UNL A   1      32.144  33.099  26.885  1.00  0.00     0.261 C 
BRANCH  30  31
ATOM     31  O   UNL A   1      32.275  33.662  28.202  1.00  0.00    -0.460 OA
BRANCH  31  32
ATOM     32  C   UNL A   1      33.376  34.438  28.369  1.00  0.00     0.338 C 
ATOM     33  O   UNL A   1      33.435  35.656  28.340  1.00  0.00    -0.246 OA
BRANCH  32  34
ATOM     34  C   UNL A   1      34.549  33.618  28.726  1.00  0.00     0.060 A 
ATOM     35  C   UNL A   1      34.356  32.524  29.579  1.00  0.00     0.016 A 
ATOM     36  C   UNL A   1      35.839  34.014  28.372  1.00  0.00     0.016 A 
ATOM     37  C   UNL A   1      35.453  31.844  30.114  1.00  0.00     0.010 A 
ATOM     38  C   UNL A   1      36.938  33.328  28.908  1.00  0.00     0.010 A 
ATOM     39  C   UNL A   1      36.756  32.259  29.811  1.00  0.00    -0.014 A 
BRANCH  39  40
ATOM     40  C   UNL A   1      37.926  31.693  30.544  1.00  0.00     0.031 A 
ATOM     41  C   UNL A   1      38.733  30.593  29.908  1.00  0.00     0.074 A 
ATOM     42  C   UNL A   1      38.325  32.159  31.742  1.00  0.00     0.049 A 
ATOM     43  N   UNL A   1      39.706  29.877  30.414  1.00  0.00    -0.248 NA
ATOM     44  C   UNL A   1      38.424  30.278  28.504  1.00  0.00     0.031 C 
ATOM     45  C   UNL A   1      37.776  33.322  32.428  1.00  0.00     0.029 A 
ATOM     46  N   UNL A   1      39.280  31.680  32.613  1.00  0.00    -0.354 N 
ATOM     47  C   UNL A   1      40.141  29.050  29.390  1.00  0.00     0.074 A 
ATOM     48  C   UNL A   1      39.282  29.301  28.251  1.00  0.00     0.031 C 
ATOM     49  C   UNL A   1      38.351  33.420  33.640  1.00  0.00     0.029 A 
ATOM     50  C   UNL A   1      39.249  32.298  33.839  1.00  0.00     0.049 A 
ATOM     51  H   UNL A   1      39.919  30.968  32.380  1.00  0.00     0.167 HD
ATOM     52  C   UNL A   1      41.186  28.188  29.388  1.00  0.00     0.037 A 
ATOM     53  C   UNL A   1      39.827  31.978  35.011  1.00  0.00     0.037 A 
ATOM     54  C   UNL A   1      42.051  27.945  30.515  1.00  0.00     0.049 A 
ATOM     55  C   UNL A   1      40.809  30.856  35.064  1.00  0.00     0.074 A 
ATOM     56  C   UNL A   1      43.165  27.124  30.585  1.00  0.00     0.029 A 
ATOM     57  N   UNL A   1      41.894  28.505  31.774  1.00  0.00    -0.354 N 
ATOM     58  N   UNL A   1      41.209  30.070  34.099  1.00  0.00    -0.248 NA
ATOM     59  C   UNL A   1      41.468  30.623  36.356  1.00  0.00     0.031 C 
ATOM     60  C   UNL A   1      43.635  27.129  31.902  1.00  0.00     0.029 A 
ATOM     61  C   UNL A   1      42.861  28.009  32.638  1.00  0.00     0.049 A 
ATOM     62  H   UNL A   1      41.199  29.157  32.019  1.00  0.00     0.167 HD
ATOM     63  C   UNL A   1      42.217  29.294  34.646  1.00  0.00     0.074 A 
ATOM     64  C   UNL A   1      42.345  29.683  36.035  1.00  0.00     0.031 C 
ATOM     65  C   UNL A   1      42.990  28.373  34.025  1.00  0.00     0.037 A 
BRANCH  52  66
ATOM     66  C   UNL A   1      41.448  27.424  28.124  1.00  0.00     0.064 A 
ATOM     67  C   UNL A   1      42.341  27.890  27.147  1.00  0.00     0.173 A 
ATOM     68  C   UNL A   1      40.832  26.182  27.912  1.00  0.00     0.173 A 
ATOM     69  F   UNL A   1      42.948  29.077  27.296  1.00  0.00    -0.203 F 
ATOM     70  C   UNL A   1      42.586  27.151  25.992  1.00  0.00     0.198 A 
ATOM     71  C   UNL A   1      41.105  25.431  26.772  1.00  0.00     0.198 A 
ATOM     72  F   UNL A   1      39.973  25.689  28.818  1.00  0.00    -0.203 F 
ATOM     73  F   UNL A   1      43.405  27.637  25.049  1.00  0.00    -0.200 F 
ATOM     74  C   UNL A   1      41.976  25.920  25.810  1.00  0.00     0.200 A 
ATOM     75  F   UNL A   1      40.527  24.234  26.607  1.00  0.00    -0.200 F 
ATOM     76  F   UNL A   1      42.222  25.205  24.704  1.00  0.00    -0.200 F 
ENDBRANCH  52  66
BRANCH  53  77
ATOM     77  C   UNL A   1      39.479  32.700  36.260  1.00  0.00     0.064 A 
ATOM     78  C   UNL A   1      40.207  33.813  36.692  1.00  0.00     0.173 A 
ATOM     79  C   UNL A   1      38.452  32.224  37.086  1.00  0.00     0.173 A 
ATOM     80  F   UNL A   1      41.245  34.255  35.968  1.00  0.00    -0.203 F 
ATOM     81  C   UNL A   1      39.903  34.442  37.898  1.00  0.00     0.198 A 
ATOM     82  C   UNL A   1      38.138  32.864  38.283  1.00  0.00     0.198 A 
ATOM     83  F   UNL A   1      37.781  31.115  36.748  1.00  0.00    -0.203 F 
ATOM     84  F   UNL A   1      40.638  35.483  38.313  1.00  0.00    -0.200 F 
ATOM     85  C   UNL A   1      38.861  33.976  38.686  1.00  0.00     0.200 A 
ATOM     86  F   UNL A   1      37.144  32.399  39.052  1.00  0.00    -0.200 F 
ATOM     87  F   UNL A   1      38.566  34.584  39.843  1.00  0.00    -0.200 F 
ENDBRANCH  53  77
BRANCH  65  88
ATOM     88  C   UNL A   1      44.100  27.770  34.830  1.00  0.00     0.064 A 
ATOM     89  C   UNL A   1      43.928  26.592  35.570  1.00  0.00     0.173 A 
ATOM     90  C   UNL A   1      45.355  28.396  34.872  1.00  0.00     0.173 A 
ATOM     91  F   UNL A   1      42.738  25.973  35.587  1.00  0.00    -0.203 F 
ATOM     92  C   UNL A   1      44.963  26.080  36.347  1.00  0.00     0.198 A 
ATOM     93  C   UNL A   1      46.398  27.861  35.620  1.00  0.00     0.198 A 
ATOM     94  F   UNL A   1      45.570  29.530  34.188  1.00  0.00    -0.203 F 
ATOM     95  F   UNL A   1      44.756  24.991  37.100  1.00  0.00    -0.200 F 
ATOM     96  C   UNL A   1      46.198  26.710  36.365  1.00  0.00     0.200 A 
ATOM     97  F   UNL A   1      47.594  28.467  35.627  1.00  0.00    -0.200 F 
ATOM     98  F   UNL A   1      47.194  26.215  37.114  1.00  0.00    -0.200 F 
ENDBRANCH  65  88
ENDBRANCH  39  40
ENDBRANCH  32  34
ENDBRANCH  31  32
ENDBRANCH  30  31
ENDBRANCH  29  30
ENDBRANCH  28  29
ENDBRANCH   1  28
TORSDOF 18
ENDMDL
