MODEL 1
REMARK VINA RESULT:     -13.8      0.000      0.000
REMARK SMILES C[C@]1(C(=O)OCCOCCOC(=O)c2ccc(-c3c4nc(c(-c5c(F)c(F)c(F)c(F)c5F)c5ccc([nH]5)c(-c5c(F)c(F)c(F)c(F)c5F)c5nc(c(-c6c(F)c(F)c(F)c(F)c6F)c6ccc3[nH]6)C=C5)C=C4)cc2)[NH2+]C2(C(=O)c3ccccc3C2=O)[C@@H]2C(=O)N(c3ccccc3)C(=O)[C@H]21
REMARK SMILES IDX 9 1 8 2 7 3 6 4 5 5 3 6 4 7 2 8 1 9 77 10 101 11 78 12 89 15
REMARK SMILES IDX 99 16 79 17 87 18 90 19 92 20 100 21 80 22 81 23 86 24 88 25
REMARK SMILES IDX 91 26 82 27 85 28 83 29 84 30 93 31 94 32 98 33 95 34 97 35
REMARK SMILES IDX 96 36 10 37 11 38 12 39 13 40 14 41 15 42 76 43 16 44 75 45
REMARK SMILES IDX 17 46 18 47 19 48 69 49 20 50 74 51 68 52 70 53 21 54 73 55
REMARK SMILES IDX 67 56 66 57 22 59 54 60 34 61 53 62 35 63 38 64 52 65 71 66
REMARK SMILES IDX 36 67 37 68 51 70 72 71 39 72 23 73 24 74 32 75 25 76 26 77
REMARK SMILES IDX 30 78 33 79 27 80 28 81 31 82 29 83 55 84 56 85 64 86 57 87
REMARK SMILES IDX 58 88 62 89 65 90 59 91 60 92 63 93 61 94 40 95 41 96 49 97
REMARK SMILES IDX 42 98 43 99 47 100 50 101 44 102 45 103 48 104 46 105
REMARK H PARENT 77 13 77 14 70 58 38 69
REMARK Flexibility Score: inf
ROOT
ATOM      1  C   UNL A   1      42.221  20.999  26.365  1.00  0.00     0.202 C 
ENDROOT
BRANCH   1   2
ATOM      2  O   UNL A   1      40.959  20.757  25.750  1.00  0.00    -0.374 OA
BRANCH   2   3
ATOM      3  C   UNL A   1      39.809  21.428  26.253  1.00  0.00     0.202 C 
BRANCH   3   4
ATOM      4  C   UNL A   1      38.543  21.450  25.396  1.00  0.00     0.261 C 
BRANCH   4   5
ATOM      5  O   UNL A   1      37.979  22.759  25.250  1.00  0.00    -0.459 OA
BRANCH   5   6
ATOM      6  C   UNL A   1      36.862  22.833  24.470  1.00  0.00     0.368 C 
ATOM      7  O   UNL A   1      36.783  22.363  23.341  1.00  0.00    -0.245 OA
BRANCH   6   8
ATOM      8  C   UNL A   1      35.713  23.616  25.164  1.00  0.00     0.205 C 
ATOM      9  C   UNL A   1      36.280  24.208  26.457  1.00  0.00     0.093 C 
ATOM     10  N   UNL A   1      35.119  24.756  24.329  1.00  0.00    -0.313 N 
ATOM     11  C   UNL A   1      34.528  22.710  25.372  1.00  0.00     0.172 C 
ATOM     12  C   UNL A   1      33.657  24.415  24.054  1.00  0.00     0.237 C 
ATOM     13  H   UNL A   1      35.628  24.843  23.450  1.00  0.00     0.348 HD
ATOM     14  H   UNL A   1      35.191  25.641  24.832  1.00  0.00     0.348 HD
ATOM     15  C   UNL A   1      33.739  22.930  24.090  1.00  0.00     0.177 C 
ATOM     16  C   UNL A   1      34.590  21.223  25.399  1.00  0.00     0.244 C 
ATOM     17  C   UNL A   1      32.706  25.073  25.056  1.00  0.00     0.232 C 
ATOM     18  C   UNL A   1      33.200  25.006  22.721  1.00  0.00     0.232 C 
ATOM     19  C   UNL A   1      32.714  21.864  24.219  1.00  0.00     0.245 C 
ATOM     20  N   UNL A   1      33.419  20.795  24.779  1.00  0.00    -0.250 N 
ATOM     21  O   UNL A   1      35.499  20.585  25.901  1.00  0.00    -0.273 OA
ATOM     22  O   UNL A   1      32.719  24.975  26.271  1.00  0.00    -0.286 OA
ATOM     23  C   UNL A   1      31.782  25.939  24.328  1.00  0.00     0.036 A 
ATOM     24  C   UNL A   1      32.087  25.926  22.975  1.00  0.00     0.036 A 
ATOM     25  O   UNL A   1      33.634  24.783  21.604  1.00  0.00    -0.286 OA
ATOM     26  O   UNL A   1      31.580  21.936  23.783  1.00  0.00    -0.273 OA
ATOM     27  C   UNL A   1      30.756  26.715  24.839  1.00  0.00     0.013 A 
ATOM     28  C   UNL A   1      31.388  26.709  22.072  1.00  0.00     0.013 A 
ATOM     29  C   UNL A   1      30.032  27.502  23.940  1.00  0.00     0.001 A 
ATOM     30  C   UNL A   1      30.350  27.505  22.568  1.00  0.00     0.001 A 
BRANCH  20  31
ATOM     31  C   UNL A   1      33.127  19.427  24.591  1.00  0.00     0.052 A 
ATOM     32  C   UNL A   1      32.807  18.609  25.684  1.00  0.00     0.027 A 
ATOM     33  C   UNL A   1      33.293  18.834  23.333  1.00  0.00     0.027 A 
ATOM     34  C   UNL A   1      32.676  17.229  25.533  1.00  0.00     0.002 A 
ATOM     35  C   UNL A   1      33.196  17.447  23.191  1.00  0.00     0.002 A 
ATOM     36  C   UNL A   1      32.888  16.645  24.289  1.00  0.00     0.000 A 
ENDBRANCH  20  31
ENDBRANCH   6   8
ENDBRANCH   5   6
ENDBRANCH   4   5
ENDBRANCH   3   4
ENDBRANCH   2   3
ENDBRANCH   1   2
BRANCH   1  37
ATOM     37  C   UNL A   1      43.244  21.875  25.633  1.00  0.00     0.261 C 
BRANCH  37  38
ATOM     38  O   UNL A   1      42.670  23.053  25.049  1.00  0.00    -0.460 OA
BRANCH  38  39
ATOM     39  C   UNL A   1      43.423  24.174  25.157  1.00  0.00     0.338 C 
ATOM     40  O   UNL A   1      44.411  24.471  24.508  1.00  0.00    -0.246 OA
BRANCH  39  41
ATOM     41  C   UNL A   1      42.766  25.119  26.078  1.00  0.00     0.060 A 
ATOM     42  C   UNL A   1      41.729  24.708  26.914  1.00  0.00     0.016 A 
ATOM     43  C   UNL A   1      43.264  26.426  26.151  1.00  0.00     0.016 A 
ATOM     44  C   UNL A   1      41.208  25.603  27.850  1.00  0.00     0.010 A 
ATOM     45  C   UNL A   1      42.748  27.318  27.090  1.00  0.00     0.010 A 
ATOM     46  C   UNL A   1      41.735  26.904  27.966  1.00  0.00    -0.014 A 
BRANCH  46  47
ATOM     47  C   UNL A   1      41.334  27.767  29.103  1.00  0.00     0.031 A 
ATOM     48  C   UNL A   1      40.153  28.684  29.020  1.00  0.00     0.074 A 
ATOM     49  C   UNL A   1      42.082  27.729  30.222  1.00  0.00     0.049 A 
ATOM     50  N   UNL A   1      39.634  29.440  29.955  1.00  0.00    -0.248 NA
ATOM     51  C   UNL A   1      39.472  28.778  27.722  1.00  0.00     0.031 C 
ATOM     52  C   UNL A   1      43.287  26.917  30.395  1.00  0.00     0.029 A 
ATOM     53  N   UNL A   1      41.942  28.378  31.424  1.00  0.00    -0.354 N 
ATOM     54  C   UNL A   1      38.552  30.079  29.370  1.00  0.00     0.074 A 
ATOM     55  C   UNL A   1      38.527  29.675  27.980  1.00  0.00     0.031 C 
ATOM     56  C   UNL A   1      43.753  27.083  31.641  1.00  0.00     0.029 A 
ATOM     57  C   UNL A   1      42.901  28.037  32.345  1.00  0.00     0.049 A 
ATOM     58  H   UNL A   1      41.223  29.025  31.606  1.00  0.00     0.167 HD
ATOM     59  C   UNL A   1      37.650  30.907  29.951  1.00  0.00     0.037 A 
ATOM     60  C   UNL A   1      43.071  28.439  33.619  1.00  0.00     0.037 A 
ATOM     61  C   UNL A   1      37.702  31.326  31.329  1.00  0.00     0.049 A 
ATOM     62  C   UNL A   1      42.085  29.400  34.222  1.00  0.00     0.074 A 
ATOM     63  C   UNL A   1      36.812  32.134  32.017  1.00  0.00     0.029 A 
ATOM     64  N   UNL A   1      38.705  30.987  32.227  1.00  0.00    -0.354 N 
ATOM     65  N   UNL A   1      41.006  29.920  33.690  1.00  0.00    -0.248 NA
ATOM     66  C   UNL A   1      42.334  29.824  35.608  1.00  0.00     0.031 C 
ATOM     67  C   UNL A   1      37.309  32.335  33.308  1.00  0.00     0.029 A 
ATOM     68  C   UNL A   1      38.473  31.598  33.450  1.00  0.00     0.049 A 
ATOM     69  H   UNL A   1      39.468  30.399  32.025  1.00  0.00     0.167 HD
ATOM     70  C   UNL A   1      40.436  30.710  34.678  1.00  0.00     0.074 A 
ATOM     71  C   UNL A   1      41.278  30.589  35.849  1.00  0.00     0.031 C 
ATOM     72  C   UNL A   1      39.314  31.468  34.615  1.00  0.00     0.037 A 
BRANCH  59  73
ATOM     73  C   UNL A   1      36.510  31.407  29.112  1.00  0.00     0.064 A 
ATOM     74  C   UNL A   1      35.441  30.567  28.763  1.00  0.00     0.173 A 
ATOM     75  C   UNL A   1      36.431  32.756  28.735  1.00  0.00     0.173 A 
ATOM     76  F   UNL A   1      35.472  29.266  29.086  1.00  0.00    -0.203 F 
ATOM     77  C   UNL A   1      34.345  31.055  28.057  1.00  0.00     0.198 A 
ATOM     78  C   UNL A   1      35.319  33.247  28.054  1.00  0.00     0.198 A 
ATOM     79  F   UNL A   1      37.420  33.606  29.050  1.00  0.00    -0.203 F 
ATOM     80  F   UNL A   1      33.355  30.224  27.703  1.00  0.00    -0.200 F 
ATOM     81  C   UNL A   1      34.280  32.396  27.713  1.00  0.00     0.200 A 
ATOM     82  F   UNL A   1      35.250  34.548  27.736  1.00  0.00    -0.200 F 
ATOM     83  F   UNL A   1      33.216  32.867  27.046  1.00  0.00    -0.200 F 
ENDBRANCH  59  73
BRANCH  60  84
ATOM     84  C   UNL A   1      44.198  27.890  34.416  1.00  0.00     0.064 A 
ATOM     85  C   UNL A   1      45.418  28.576  34.501  1.00  0.00     0.173 A 
ATOM     86  C   UNL A   1      44.073  26.692  35.133  1.00  0.00     0.173 A 
ATOM     87  F   UNL A   1      45.592  29.719  33.820  1.00  0.00    -0.203 F 
ATOM     88  C   UNL A   1      46.471  28.080  35.265  1.00  0.00     0.198 A 
ATOM     89  C   UNL A   1      45.116  26.212  35.921  1.00  0.00     0.198 A 
ATOM     90  F   UNL A   1      42.924  26.000  35.090  1.00  0.00    -0.203 F 
ATOM     91  F   UNL A   1      47.638  28.738  35.300  1.00  0.00    -0.200 F 
ATOM     92  C   UNL A   1      46.317  26.903  35.982  1.00  0.00     0.200 A 
ATOM     93  F   UNL A   1      44.956  25.084  36.626  1.00  0.00    -0.200 F 
ATOM     94  F   UNL A   1      47.326  26.434  36.727  1.00  0.00    -0.200 F 
ENDBRANCH  60  84
BRANCH  72  95
ATOM     95  C   UNL A   1      38.907  32.221  35.850  1.00  0.00     0.064 A 
ATOM     96  C   UNL A   1      38.184  31.604  36.881  1.00  0.00     0.173 A 
ATOM     97  C   UNL A   1      39.320  33.548  36.042  1.00  0.00     0.173 A 
ATOM     98  F   UNL A   1      37.754  30.341  36.743  1.00  0.00    -0.203 F 
ATOM     99  C   UNL A   1      37.877  32.292  38.052  1.00  0.00     0.198 A 
ATOM    100  C   UNL A   1      39.041  34.223  37.228  1.00  0.00     0.198 A 
ATOM    101  F   UNL A   1      40.021  34.184  35.091  1.00  0.00    -0.203 F 
ATOM    102  F   UNL A   1      37.156  31.695  39.010  1.00  0.00    -0.200 F 
ATOM    103  C   UNL A   1      38.317  33.596  38.230  1.00  0.00     0.200 A 
ATOM    104  F   UNL A   1      39.483  35.476  37.405  1.00  0.00    -0.200 F 
ATOM    105  F   UNL A   1      38.042  34.249  39.368  1.00  0.00    -0.200 F 
ENDBRANCH  72  95
ENDBRANCH  46  47
ENDBRANCH  39  41
ENDBRANCH  38  39
ENDBRANCH  37  38
ENDBRANCH   1  37
TORSDOF 15
ENDMDL
MODEL 2
REMARK VINA RESULT:     -13.1      0.441      6.870
REMARK SMILES C[C@]1(C(=O)OCCOCCOC(=O)c2ccc(-c3c4nc(c(-c5c(F)c(F)c(F)c(F)c5F)c5ccc([nH]5)c(-c5c(F)c(F)c(F)c(F)c5F)c5nc(c(-c6c(F)c(F)c(F)c(F)c6F)c6ccc3[nH]6)C=C5)C=C4)cc2)[NH2+]C2(C(=O)c3ccccc3C2=O)[C@@H]2C(=O)N(c3ccccc3)C(=O)[C@H]21
REMARK SMILES IDX 9 1 8 2 7 3 6 4 5 5 3 6 4 7 2 8 1 9 77 10 101 11 78 12 89 15
REMARK SMILES IDX 99 16 79 17 87 18 90 19 92 20 100 21 80 22 81 23 86 24 88 25
REMARK SMILES IDX 91 26 82 27 85 28 83 29 84 30 93 31 94 32 98 33 95 34 97 35
REMARK SMILES IDX 96 36 10 37 11 38 12 39 13 40 14 41 15 42 76 43 16 44 75 45
REMARK SMILES IDX 17 46 18 47 19 48 69 49 20 50 74 51 68 52 70 53 21 54 73 55
REMARK SMILES IDX 67 56 66 57 22 59 54 60 34 61 53 62 35 63 38 64 52 65 71 66
REMARK SMILES IDX 36 67 37 68 51 70 72 71 39 72 23 73 24 74 32 75 25 76 26 77
REMARK SMILES IDX 30 78 33 79 27 80 28 81 31 82 29 83 55 84 56 85 64 86 57 87
REMARK SMILES IDX 58 88 62 89 65 90 59 91 60 92 63 93 61 94 40 95 41 96 49 97
REMARK SMILES IDX 42 98 43 99 47 100 50 101 44 102 45 103 48 104 46 105
REMARK H PARENT 77 13 77 14 70 58 38 69
REMARK Flexibility Score: inf
ROOT
ATOM      1  C   UNL A   1      42.336  21.410  26.160  1.00  0.00     0.202 C 
ENDROOT
BRANCH   1   2
ATOM      2  O   UNL A   1      41.065  21.315  25.523  1.00  0.00    -0.374 OA
BRANCH   2   3
ATOM      3  C   UNL A   1      39.904  21.717  26.241  1.00  0.00     0.202 C 
BRANCH   3   4
ATOM      4  C   UNL A   1      38.547  21.635  25.541  1.00  0.00     0.261 C 
BRANCH   4   5
ATOM      5  O   UNL A   1      37.917  22.912  25.375  1.00  0.00    -0.459 OA
BRANCH   5   6
ATOM      6  C   UNL A   1      36.801  22.916  24.589  1.00  0.00     0.368 C 
ATOM      7  O   UNL A   1      36.741  22.395  23.482  1.00  0.00    -0.245 OA
BRANCH   6   8
ATOM      8  C   UNL A   1      35.626  23.694  25.244  1.00  0.00     0.205 C 
ATOM      9  C   UNL A   1      36.152  24.304  26.546  1.00  0.00     0.093 C 
ATOM     10  N   UNL A   1      35.042  24.818  24.383  1.00  0.00    -0.313 N 
ATOM     11  C   UNL A   1      34.446  22.776  25.430  1.00  0.00     0.172 C 
ATOM     12  C   UNL A   1      33.591  24.459  24.072  1.00  0.00     0.237 C 
ATOM     13  H   UNL A   1      35.572  24.903  23.517  1.00  0.00     0.348 HD
ATOM     14  H   UNL A   1      35.091  25.709  24.878  1.00  0.00     0.348 HD
ATOM     15  C   UNL A   1      33.688  22.975  24.126  1.00  0.00     0.177 C 
ATOM     16  C   UNL A   1      34.522  21.291  25.473  1.00  0.00     0.244 C 
ATOM     17  C   UNL A   1      32.607  25.116  25.043  1.00  0.00     0.232 C 
ATOM     18  C   UNL A   1      33.163  25.032  22.722  1.00  0.00     0.232 C 
ATOM     19  C   UNL A   1      32.672  21.899  24.238  1.00  0.00     0.245 C 
ATOM     20  N   UNL A   1      33.373  20.844  24.827  1.00  0.00    -0.250 N 
ATOM     21  O   UNL A   1      35.425  20.668  26.006  1.00  0.00    -0.273 OA
ATOM     22  O   UNL A   1      32.589  25.029  26.259  1.00  0.00    -0.286 OA
ATOM     23  C   UNL A   1      31.693  25.965  24.282  1.00  0.00     0.036 A 
ATOM     24  C   UNL A   1      32.034  25.942  22.938  1.00  0.00     0.036 A 
ATOM     25  O   UNL A   1      33.629  24.803  21.619  1.00  0.00    -0.286 OA
ATOM     26  O   UNL A   1      31.549  21.954  23.773  1.00  0.00    -0.273 OA
ATOM     27  C   UNL A   1      30.645  26.734  24.758  1.00  0.00     0.013 A 
ATOM     28  C   UNL A   1      31.351  26.708  22.009  1.00  0.00     0.013 A 
ATOM     29  C   UNL A   1      29.937  27.504  23.832  1.00  0.00     0.001 A 
ATOM     30  C   UNL A   1      30.291  27.497  22.470  1.00  0.00     0.001 A 
BRANCH  20  31
ATOM     31  C   UNL A   1      33.102  19.470  24.645  1.00  0.00     0.052 A 
ATOM     32  C   UNL A   1      32.793  18.653  25.742  1.00  0.00     0.027 A 
ATOM     33  C   UNL A   1      33.275  18.875  23.390  1.00  0.00     0.027 A 
ATOM     34  C   UNL A   1      32.682  17.271  25.597  1.00  0.00     0.002 A 
ATOM     35  C   UNL A   1      33.198  17.485  23.255  1.00  0.00     0.002 A 
ATOM     36  C   UNL A   1      32.903  16.684  24.356  1.00  0.00     0.000 A 
ENDBRANCH  20  31
ENDBRANCH   6   8
ENDBRANCH   5   6
ENDBRANCH   4   5
ENDBRANCH   3   4
ENDBRANCH   2   3
ENDBRANCH   1   2
BRANCH   1  37
ATOM     37  C   UNL A   1      43.465  22.160  25.446  1.00  0.00     0.261 C 
BRANCH  37  38
ATOM     38  O   UNL A   1      43.049  23.410  24.879  1.00  0.00    -0.460 OA
BRANCH  38  39
ATOM     39  C   UNL A   1      43.847  24.466  25.166  1.00  0.00     0.338 C 
ATOM     40  O   UNL A   1      44.894  24.776  24.625  1.00  0.00    -0.246 OA
BRANCH  39  41
ATOM     41  C   UNL A   1      43.172  25.340  26.144  1.00  0.00     0.060 A 
ATOM     42  C   UNL A   1      42.002  24.934  26.784  1.00  0.00     0.016 A 
ATOM     43  C   UNL A   1      43.780  26.557  26.476  1.00  0.00     0.016 A 
ATOM     44  C   UNL A   1      41.454  25.741  27.784  1.00  0.00     0.010 A 
ATOM     45  C   UNL A   1      43.237  27.358  27.478  1.00  0.00     0.010 A 
ATOM     46  C   UNL A   1      42.085  26.942  28.159  1.00  0.00    -0.014 A 
BRANCH  46  47
ATOM     47  C   UNL A   1      41.627  27.674  29.365  1.00  0.00     0.031 A 
ATOM     48  C   UNL A   1      42.334  27.549  30.679  1.00  0.00     0.074 A 
ATOM     49  C   UNL A   1      40.528  28.444  29.260  1.00  0.00     0.049 A 
ATOM     50  N   UNL A   1      42.099  28.184  31.801  1.00  0.00    -0.248 NA
ATOM     51  C   UNL A   1      43.436  26.581  30.755  1.00  0.00     0.031 C 
ATOM     52  C   UNL A   1      39.726  28.595  28.045  1.00  0.00     0.029 A 
ATOM     53  N   UNL A   1      39.898  29.247  30.178  1.00  0.00    -0.354 N 
ATOM     54  C   UNL A   1      43.037  27.715  32.707  1.00  0.00     0.074 A 
ATOM     55  C   UNL A   1      43.804  26.693  32.026  1.00  0.00     0.031 C 
ATOM     56  C   UNL A   1      38.737  29.469  28.278  1.00  0.00     0.029 A 
ATOM     57  C   UNL A   1      38.813  29.916  29.666  1.00  0.00     0.049 A 
ATOM     58  H   UNL A   1      40.196  29.335  31.112  1.00  0.00     0.167 HD
ATOM     59  C   UNL A   1      43.252  28.123  33.982  1.00  0.00     0.037 A 
ATOM     60  C   UNL A   1      37.977  30.797  30.247  1.00  0.00     0.037 A 
ATOM     61  C   UNL A   1      42.463  29.121  34.659  1.00  0.00     0.049 A 
ATOM     62  C   UNL A   1      38.206  31.192  31.679  1.00  0.00     0.074 A 
ATOM     63  C   UNL A   1      42.627  29.624  35.939  1.00  0.00     0.029 A 
ATOM     64  N   UNL A   1      41.351  29.755  34.122  1.00  0.00    -0.354 N 
ATOM     65  N   UNL A   1      39.160  30.818  32.497  1.00  0.00    -0.248 NA
ATOM     66  C   UNL A   1      37.248  32.138  32.269  1.00  0.00     0.031 C 
ATOM     67  C   UNL A   1      41.580  30.514  36.198  1.00  0.00     0.029 A 
ATOM     68  C   UNL A   1      40.801  30.618  35.058  1.00  0.00     0.049 A 
ATOM     69  H   UNL A   1      41.005  29.613  33.212  1.00  0.00     0.167 HD
ATOM     70  C   UNL A   1      38.933  31.498  33.685  1.00  0.00     0.074 A 
ATOM     71  C   UNL A   1      37.761  32.323  33.477  1.00  0.00     0.031 C 
ATOM     72  C   UNL A   1      39.636  31.441  34.843  1.00  0.00     0.037 A 
BRANCH  59  73
ATOM     73  C   UNL A   1      44.397  27.509  34.734  1.00  0.00     0.064 A 
ATOM     74  C   UNL A   1      44.226  26.341  35.492  1.00  0.00     0.173 A 
ATOM     75  C   UNL A   1      45.695  28.031  34.621  1.00  0.00     0.173 A 
ATOM     76  F   UNL A   1      43.005  25.808  35.645  1.00  0.00    -0.203 F 
ATOM     77  C   UNL A   1      45.307  25.728  36.120  1.00  0.00     0.198 A 
ATOM     78  C   UNL A   1      46.778  27.398  35.227  1.00  0.00     0.198 A 
ATOM     79  F   UNL A   1      45.918  29.140  33.900  1.00  0.00    -0.203 F 
ATOM     80  F   UNL A   1      45.111  24.634  36.869  1.00  0.00    -0.200 F 
ATOM     81  C   UNL A   1      46.583  26.249  35.978  1.00  0.00     0.200 A 
ATOM     82  F   UNL A   1      48.014  27.895  35.074  1.00  0.00    -0.200 F 
ATOM     83  F   UNL A   1      47.624  25.648  36.570  1.00  0.00    -0.200 F 
ENDBRANCH  59  73
BRANCH  60  84
ATOM     84  C   UNL A   1      36.877  31.398  29.449  1.00  0.00     0.064 A 
ATOM     85  C   UNL A   1      35.754  30.640  29.090  1.00  0.00     0.173 A 
ATOM     86  C   UNL A   1      36.907  32.745  29.059  1.00  0.00     0.173 A 
ATOM     87  F   UNL A   1      35.687  29.343  29.427  1.00  0.00    -0.203 F 
ATOM     88  C   UNL A   1      34.709  31.203  28.362  1.00  0.00     0.198 A 
ATOM     89  C   UNL A   1      35.848  33.315  28.357  1.00  0.00     0.198 A 
ATOM     90  F   UNL A   1      37.957  33.515  29.382  1.00  0.00    -0.203 F 
ATOM     91  F   UNL A   1      33.664  30.446  28.001  1.00  0.00    -0.200 F 
ATOM     92  C   UNL A   1      34.752  32.542  28.004  1.00  0.00     0.200 A 
ATOM     93  F   UNL A   1      35.885  34.613  28.029  1.00  0.00    -0.200 F 
ATOM     94  F   UNL A   1      33.739  33.086  27.315  1.00  0.00    -0.200 F 
ENDBRANCH  60  84
BRANCH  72  95
ATOM     95  C   UNL A   1      39.177  32.305  35.983  1.00  0.00     0.064 A 
ATOM     96  C   UNL A   1      38.301  31.822  36.965  1.00  0.00     0.173 A 
ATOM     97  C   UNL A   1      39.689  33.603  36.141  1.00  0.00     0.173 A 
ATOM     98  F   UNL A   1      37.774  30.594  36.854  1.00  0.00    -0.203 F 
ATOM     99  C   UNL A   1      37.943  32.610  38.056  1.00  0.00     0.198 A 
ATOM    100  C   UNL A   1      39.354  34.376  37.250  1.00  0.00     0.198 A 
ATOM    101  F   UNL A   1      40.537  34.112  35.235  1.00  0.00    -0.203 F 
ATOM    102  F   UNL A   1      37.077  32.140  38.964  1.00  0.00    -0.200 F 
ATOM    103  C   UNL A   1      38.480  33.880  38.204  1.00  0.00     0.200 A 
ATOM    104  F   UNL A   1      39.889  35.595  37.402  1.00  0.00    -0.200 F 
ATOM    105  F   UNL A   1      38.152  34.628  39.268  1.00  0.00    -0.200 F 
ENDBRANCH  72  95
ENDBRANCH  46  47
ENDBRANCH  39  41
ENDBRANCH  38  39
ENDBRANCH  37  38
ENDBRANCH   1  37
TORSDOF 15
ENDMDL
MODEL 3
REMARK VINA RESULT:     -13.0      3.375      9.076
REMARK SMILES C[C@]1(C(=O)OCCOCCOC(=O)c2ccc(-c3c4nc(c(-c5c(F)c(F)c(F)c(F)c5F)c5ccc([nH]5)c(-c5c(F)c(F)c(F)c(F)c5F)c5nc(c(-c6c(F)c(F)c(F)c(F)c6F)c6ccc3[nH]6)C=C5)C=C4)cc2)[NH2+]C2(C(=O)c3ccccc3C2=O)[C@@H]2C(=O)N(c3ccccc3)C(=O)[C@H]21
REMARK SMILES IDX 9 1 8 2 7 3 6 4 5 5 3 6 4 7 2 8 1 9 77 10 101 11 78 12 89 15
REMARK SMILES IDX 99 16 79 17 87 18 90 19 92 20 100 21 80 22 81 23 86 24 88 25
REMARK SMILES IDX 91 26 82 27 85 28 83 29 84 30 93 31 94 32 98 33 95 34 97 35
REMARK SMILES IDX 96 36 10 37 11 38 12 39 13 40 14 41 15 42 76 43 16 44 75 45
REMARK SMILES IDX 17 46 18 47 19 48 69 49 20 50 74 51 68 52 70 53 21 54 73 55
REMARK SMILES IDX 67 56 66 57 22 59 54 60 34 61 53 62 35 63 38 64 52 65 71 66
REMARK SMILES IDX 36 67 37 68 51 70 72 71 39 72 23 73 24 74 32 75 25 76 26 77
REMARK SMILES IDX 30 78 33 79 27 80 28 81 31 82 29 83 55 84 56 85 64 86 57 87
REMARK SMILES IDX 58 88 62 89 65 90 59 91 60 92 63 93 61 94 40 95 41 96 49 97
REMARK SMILES IDX 42 98 43 99 47 100 50 101 44 102 45 103 48 104 46 105
REMARK H PARENT 77 13 77 14 70 58 38 69
REMARK Flexibility Score: inf
ROOT
ATOM      1  C   UNL A   1      34.077  34.356  28.613  1.00  0.00     0.202 C 
ENDROOT
BRANCH   1   2
ATOM      2  O   UNL A   1      33.398  33.384  27.823  1.00  0.00    -0.374 OA
BRANCH   2   3
ATOM      3  C   UNL A   1      33.793  32.020  27.920  1.00  0.00     0.202 C 
BRANCH   3   4
ATOM      4  C   UNL A   1      32.908  30.955  27.271  1.00  0.00     0.261 C 
BRANCH   4   5
ATOM      5  O   UNL A   1      33.408  29.623  27.441  1.00  0.00    -0.459 OA
BRANCH   5   6
ATOM      6  C   UNL A   1      32.559  28.626  27.057  1.00  0.00     0.368 C 
ATOM      7  O   UNL A   1      31.398  28.531  27.436  1.00  0.00    -0.245 OA
BRANCH   6   8
ATOM      8  C   UNL A   1      33.247  27.602  26.112  1.00  0.00     0.205 C 
ATOM      9  C   UNL A   1      34.732  27.970  26.044  1.00  0.00     0.093 C 
ATOM     10  N   UNL A   1      33.130  26.140  26.556  1.00  0.00    -0.313 N 
ATOM     11  C   UNL A   1      32.555  27.595  24.774  1.00  0.00     0.172 C 
ATOM     12  C   UNL A   1      32.332  25.395  25.490  1.00  0.00     0.237 C 
ATOM     13  H   UNL A   1      32.647  26.088  27.452  1.00  0.00     0.348 HD
ATOM     14  H   UNL A   1      34.056  25.725  26.665  1.00  0.00     0.348 HD
ATOM     15  C   UNL A   1      31.502  26.516  24.974  1.00  0.00     0.177 C 
ATOM     16  C   UNL A   1      31.712  28.702  24.247  1.00  0.00     0.244 C 
ATOM     17  C   UNL A   1      33.234  24.687  24.475  1.00  0.00     0.232 C 
ATOM     18  C   UNL A   1      31.547  24.237  26.105  1.00  0.00     0.232 C 
ATOM     19  C   UNL A   1      30.697  26.694  23.739  1.00  0.00     0.245 C 
ATOM     20  N   UNL A   1      30.677  28.079  23.555  1.00  0.00    -0.250 N 
ATOM     21  O   UNL A   1      31.956  29.885  24.409  1.00  0.00    -0.273 OA
ATOM     22  O   UNL A   1      34.103  25.181  23.779  1.00  0.00    -0.286 OA
ATOM     23  C   UNL A   1      32.949  23.255  24.512  1.00  0.00     0.036 A 
ATOM     24  C   UNL A   1      31.991  22.987  25.480  1.00  0.00     0.036 A 
ATOM     25  O   UNL A   1      30.680  24.279  26.960  1.00  0.00    -0.286 OA
ATOM     26  O   UNL A   1      30.109  25.799  23.160  1.00  0.00    -0.273 OA
ATOM     27  C   UNL A   1      33.525  22.249  23.756  1.00  0.00     0.013 A 
ATOM     28  C   UNL A   1      31.583  21.692  25.749  1.00  0.00     0.013 A 
ATOM     29  C   UNL A   1      33.116  20.936  24.007  1.00  0.00     0.001 A 
ATOM     30  C   UNL A   1      32.158  20.659  25.001  1.00  0.00     0.001 A 
BRANCH  20  31
ATOM     31  C   UNL A   1      29.646  28.811  22.928  1.00  0.00     0.052 A 
ATOM     32  C   UNL A   1      29.949  29.806  21.987  1.00  0.00     0.027 A 
ATOM     33  C   UNL A   1      28.317  28.657  23.340  1.00  0.00     0.027 A 
ATOM     34  C   UNL A   1      28.954  30.643  21.483  1.00  0.00     0.002 A 
ATOM     35  C   UNL A   1      27.327  29.520  22.860  1.00  0.00     0.002 A 
ATOM     36  C   UNL A   1      27.645  30.513  21.933  1.00  0.00     0.000 A 
ENDBRANCH  20  31
ENDBRANCH   6   8
ENDBRANCH   5   6
ENDBRANCH   4   5
ENDBRANCH   3   4
ENDBRANCH   2   3
ENDBRANCH   1   2
BRANCH   1  37
ATOM     37  C   UNL A   1      33.255  35.442  29.315  1.00  0.00     0.261 C 
BRANCH  37  38
ATOM     38  O   UNL A   1      32.523  34.958  30.449  1.00  0.00    -0.460 OA
BRANCH  38  39
ATOM     39  C   UNL A   1      32.773  35.601  31.615  1.00  0.00     0.338 C 
ATOM     40  O   UNL A   1      32.108  36.480  32.136  1.00  0.00    -0.246 OA
BRANCH  39  41
ATOM     41  C   UNL A   1      33.909  34.956  32.298  1.00  0.00     0.060 A 
ATOM     42  C   UNL A   1      33.772  33.705  32.897  1.00  0.00     0.016 A 
ATOM     43  C   UNL A   1      35.154  35.596  32.262  1.00  0.00     0.016 A 
ATOM     44  C   UNL A   1      34.896  33.078  33.437  1.00  0.00     0.010 A 
ATOM     45  C   UNL A   1      36.278  34.968  32.796  1.00  0.00     0.010 A 
ATOM     46  C   UNL A   1      36.162  33.691  33.362  1.00  0.00    -0.014 A 
BRANCH  46  47
ATOM     47  C   UNL A   1      37.378  32.927  33.732  1.00  0.00     0.031 A 
ATOM     48  C   UNL A   1      37.942  31.862  32.843  1.00  0.00     0.074 A 
ATOM     49  C   UNL A   1      37.959  33.195  34.916  1.00  0.00     0.049 A 
ATOM     50  N   UNL A   1      39.039  31.164  32.994  1.00  0.00    -0.248 NA
ATOM     51  C   UNL A   1      37.174  31.525  31.636  1.00  0.00     0.031 C 
ATOM     52  C   UNL A   1      37.464  34.170  35.889  1.00  0.00     0.029 A 
ATOM     53  N   UNL A   1      39.089  32.683  35.503  1.00  0.00    -0.354 N 
ATOM     54  C   UNL A   1      39.110  30.325  31.892  1.00  0.00     0.074 A 
ATOM     55  C   UNL A   1      37.911  30.552  31.113  1.00  0.00     0.031 C 
ATOM     56  C   UNL A   1      38.306  34.217  36.931  1.00  0.00     0.029 A 
ATOM     57  C   UNL A   1      39.382  33.253  36.718  1.00  0.00     0.049 A 
ATOM     58  H   UNL A   1      39.637  31.975  35.093  1.00  0.00     0.167 HD
ATOM     59  C   UNL A   1      40.101  29.464  31.554  1.00  0.00     0.037 A 
ATOM     60  C   UNL A   1      40.407  33.032  37.562  1.00  0.00     0.037 A 
ATOM     61  C   UNL A   1      41.277  29.224  32.352  1.00  0.00     0.049 A 
ATOM     62  C   UNL A   1      41.464  32.032  37.187  1.00  0.00     0.074 A 
ATOM     63  C   UNL A   1      42.352  28.396  32.074  1.00  0.00     0.029 A 
ATOM     64  N   UNL A   1      41.526  29.794  33.593  1.00  0.00    -0.354 N 
ATOM     65  N   UNL A   1      41.575  31.317  36.093  1.00  0.00    -0.248 NA
ATOM     66  C   UNL A   1      42.546  31.813  38.158  1.00  0.00     0.031 C 
ATOM     67  C   UNL A   1      43.218  28.418  33.170  1.00  0.00     0.029 A 
ATOM     68  C   UNL A   1      42.720  29.310  34.106  1.00  0.00     0.049 A 
ATOM     69  H   UNL A   1      40.942  30.447  34.041  1.00  0.00     0.167 HD
ATOM     70  C   UNL A   1      42.745  30.584  36.232  1.00  0.00     0.074 A 
ATOM     71  C   UNL A   1      43.320  30.953  37.509  1.00  0.00     0.031 C 
ATOM     72  C   UNL A   1      43.290  29.686  35.376  1.00  0.00     0.037 A 
BRANCH  59  73
ATOM     73  C   UNL A   1      39.977  28.724  30.253  1.00  0.00     0.064 A 
ATOM     74  C   UNL A   1      40.550  29.226  29.074  1.00  0.00     0.173 A 
ATOM     75  C   UNL A   1      39.371  27.460  30.198  1.00  0.00     0.173 A 
ATOM     76  F   UNL A   1      41.130  30.435  29.067  1.00  0.00    -0.203 F 
ATOM     77  C   UNL A   1      40.507  28.498  27.888  1.00  0.00     0.198 A 
ATOM     78  C   UNL A   1      39.355  26.722  29.017  1.00  0.00     0.198 A 
ATOM     79  F   UNL A   1      38.816  26.927  31.298  1.00  0.00    -0.203 F 
ATOM     80  F   UNL A   1      41.028  29.015  26.768  1.00  0.00    -0.200 F 
ATOM     81  C   UNL A   1      39.920  27.242  27.863  1.00  0.00     0.200 A 
ATOM     82  F   UNL A   1      38.801  25.501  28.999  1.00  0.00    -0.200 F 
ATOM     83  F   UNL A   1      39.893  26.537  26.724  1.00  0.00    -0.200 F 
ENDBRANCH  59  73
BRANCH  60  84
ATOM     84  C   UNL A   1      40.499  33.813  38.823  1.00  0.00     0.064 A 
ATOM     85  C   UNL A   1      41.276  34.977  38.890  1.00  0.00     0.173 A 
ATOM     86  C   UNL A   1      39.791  33.434  39.972  1.00  0.00     0.173 A 
ATOM     87  F   UNL A   1      41.985  35.372  37.821  1.00  0.00    -0.203 F 
ATOM     88  C   UNL A   1      41.349  35.727  40.062  1.00  0.00     0.198 A 
ATOM     89  C   UNL A   1      39.840  34.200  41.134  1.00  0.00     0.198 A 
ATOM     90  F   UNL A   1      39.028  32.330  39.958  1.00  0.00    -0.203 F 
ATOM     91  F   UNL A   1      42.128  36.817  40.109  1.00  0.00    -0.200 F 
ATOM     92  C   UNL A   1      40.624  35.343  41.180  1.00  0.00     0.200 A 
ATOM     93  F   UNL A   1      39.125  33.836  42.206  1.00  0.00    -0.200 F 
ATOM     94  F   UNL A   1      40.685  36.073  42.302  1.00  0.00    -0.200 F 
ENDBRANCH  60  84
BRANCH  72  95
ATOM     95  C   UNL A   1      44.589  29.042  35.770  1.00  0.00     0.064 A 
ATOM     96  C   UNL A   1      45.823  29.646  35.491  1.00  0.00     0.173 A 
ATOM     97  C   UNL A   1      44.595  27.850  36.511  1.00  0.00     0.173 A 
ATOM     98  F   UNL A   1      45.874  30.779  34.775  1.00  0.00    -0.203 F 
ATOM     99  C   UNL A   1      47.016  29.074  35.927  1.00  0.00     0.198 A 
ATOM    100  C   UNL A   1      45.787  27.298  36.974  1.00  0.00     0.198 A 
ATOM    101  F   UNL A   1      43.442  27.234  36.813  1.00  0.00    -0.203 F 
ATOM    102  F   UNL A   1      48.185  29.650  35.620  1.00  0.00    -0.200 F 
ATOM    103  C   UNL A   1      46.995  27.909  36.680  1.00  0.00     0.200 A 
ATOM    104  F   UNL A   1      45.763  26.182  37.717  1.00  0.00    -0.200 F 
ATOM    105  F   UNL A   1      48.143  27.372  37.119  1.00  0.00    -0.200 F 
ENDBRANCH  72  95
ENDBRANCH  46  47
ENDBRANCH  39  41
ENDBRANCH  38  39
ENDBRANCH  37  38
ENDBRANCH   1  37
TORSDOF 15
ENDMDL
