MODEL 1
REMARK VINA RESULT:     -12.1      0.000      0.000
REMARK SMILES CCOc1ccc(-n2nnc(-c3nc(C)c(C(=O)OCCOCCOC(=O)c4ccc(-c5c6nc(c(-c7c(F)c(F)c(F)c(F)c7F)c7ccc([nH]7)c(-c7c(F)c(F)c(F)c(F)c7F)c7nc(c(-c8c(F)c(F)c(F)c(F)c8F)c8ccc5[nH]8)C=C7)C=C6)cc4)s3)c2C)cc1
REMARK SMILES IDX 21 1 20 2 19 3 17 4 18 5 16 6 12 7 13 8 91 9 14 10 15 11
REMARK SMILES IDX 11 12 8 13 9 14 92 15 10 16 93 17 7 18 4 19 5 20 95 21 6 22
REMARK SMILES IDX 94 23 3 24 2 25 1 26 22 27 23 28 24 29 25 30 26 31 27 32
REMARK SMILES IDX 28 33 29 34 90 35 30 36 89 37 31 38 32 39 33 40 83 41 34 42
REMARK SMILES IDX 88 43 82 44 84 45 35 46 87 47 81 48 80 49 36 51 68 52 48 53
REMARK SMILES IDX 67 54 49 55 52 56 66 57 85 58 50 59 51 60 65 62 86 63 53 64
REMARK SMILES IDX 37 65 38 66 46 67 39 68 40 69 44 70 47 71 41 72 42 73 45 74
REMARK SMILES IDX 43 75 69 76 70 77 78 78 71 79 72 80 76 81 79 82 73 83 74 84
REMARK SMILES IDX 77 85 75 86 54 87 55 88 63 89 56 90 57 91 61 92 64 93 58 94
REMARK SMILES IDX 59 95 62 96 60 97
REMARK H PARENT 84 50 52 61
REMARK Flexibility Score: inf
ROOT
ATOM      1  C   UNL A   1      34.348  32.457  27.804  1.00  0.00     0.202 C 
ENDROOT
BRANCH   1   2
ATOM      2  C   UNL A   1      34.025  30.961  27.815  1.00  0.00     0.261 C 
BRANCH   2   3
ATOM      3  O   UNL A   1      33.653  30.521  26.504  1.00  0.00    -0.459 OA
BRANCH   3   4
ATOM      4  C   UNL A   1      32.471  29.842  26.406  1.00  0.00     0.350 C 
ATOM      5  O   UNL A   1      31.513  30.003  27.128  1.00  0.00    -0.245 OA
BRANCH   4   6
ATOM      6  C   UNL A   1      32.499  29.001  25.229  1.00  0.00     0.135 A 
ATOM      7  C   UNL A   1      32.891  27.178  23.723  1.00  0.00     0.146 A 
ATOM      8  N   UNL A   1      31.791  27.798  23.350  1.00  0.00    -0.239 NA
ATOM      9  S   UNL A   1      33.852  28.032  24.861  1.00  0.00    -0.105 S 
ATOM     10  C   UNL A   1      31.555  28.864  24.220  1.00  0.00     0.064 A 
ATOM     11  C   UNL A   1      30.343  29.704  24.011  1.00  0.00     0.068 C 
BRANCH   7  12
ATOM     12  C   UNL A   1      33.230  25.763  23.408  1.00  0.00     0.145 A 
ATOM     13  N   UNL A   1      33.581  23.642  23.699  1.00  0.00    -0.217 N 
ATOM     14  N   UNL A   1      34.317  24.047  22.636  1.00  0.00    -0.061 NA
ATOM     15  C   UNL A   1      32.931  24.721  24.267  1.00  0.00     0.072 A 
ATOM     16  N   UNL A   1      34.026  25.324  22.393  1.00  0.00    -0.127 NA
ATOM     17  C   UNL A   1      32.199  24.729  25.565  1.00  0.00     0.069 C 
BRANCH  13  18
ATOM     18  C   UNL A   1      33.596  22.317  24.177  1.00  0.00     0.067 A 
ATOM     19  C   UNL A   1      33.841  19.606  24.741  1.00  0.00     0.119 A 
ATOM     20  C   UNL A   1      32.645  20.103  24.218  1.00  0.00     0.048 A 
ATOM     21  C   UNL A   1      34.905  20.465  24.998  1.00  0.00     0.048 A 
ATOM     22  C   UNL A   1      32.505  21.472  23.954  1.00  0.00     0.032 A 
ATOM     23  C   UNL A   1      34.774  21.824  24.747  1.00  0.00     0.032 A 
BRANCH  19  24
ATOM     24  O   UNL A   1      33.994  18.253  24.854  1.00  0.00    -0.494 OA
BRANCH  24  25
ATOM     25  C   UNL A   1      32.774  17.552  25.132  1.00  0.00     0.226 C 
ATOM     26  C   UNL A   1      32.907  16.041  25.004  1.00  0.00     0.049 C 
ENDBRANCH  24  25
ENDBRANCH  19  24
ENDBRANCH  13  18
ENDBRANCH   7  12
ENDBRANCH   4   6
ENDBRANCH   3   4
ENDBRANCH   2   3
ENDBRANCH   1   2
BRANCH   1  27
ATOM     27  O   UNL A   1      33.750  33.260  28.821  1.00  0.00    -0.374 OA
BRANCH  27  28
ATOM     28  C   UNL A   1      34.184  34.598  29.026  1.00  0.00     0.202 C 
BRANCH  28  29
ATOM     29  C   UNL A   1      33.360  35.503  29.926  1.00  0.00     0.261 C 
BRANCH  29  30
ATOM     30  O   UNL A   1      32.916  34.845  31.105  1.00  0.00    -0.460 OA
BRANCH  30  31
ATOM     31  C   UNL A   1      33.528  35.287  32.227  1.00  0.00     0.338 C 
ATOM     32  O   UNL A   1      33.336  36.343  32.803  1.00  0.00    -0.246 OA
BRANCH  31  33
ATOM     33  C   UNL A   1      34.626  34.374  32.555  1.00  0.00     0.060 A 
ATOM     34  C   UNL A   1      35.888  34.958  32.669  1.00  0.00     0.016 A 
ATOM     35  C   UNL A   1      34.456  32.984  32.456  1.00  0.00     0.016 A 
ATOM     36  C   UNL A   1      36.991  34.162  32.470  1.00  0.00     0.010 A 
ATOM     37  C   UNL A   1      35.562  32.189  32.256  1.00  0.00     0.010 A 
ATOM     38  C   UNL A   1      36.807  32.802  32.182  1.00  0.00    -0.014 A 
BRANCH  38  39
ATOM     39  C   UNL A   1      37.993  32.023  31.910  1.00  0.00     0.031 A 
ATOM     40  C   UNL A   1      38.804  31.789  33.124  1.00  0.00     0.074 A 
ATOM     41  C   UNL A   1      38.304  31.536  30.696  1.00  0.00     0.049 A 
ATOM     42  N   UNL A   1      39.967  32.282  33.391  1.00  0.00    -0.248 NA
ATOM     43  C   UNL A   1      38.173  31.076  34.244  1.00  0.00     0.031 C 
ATOM     44  C   UNL A   1      37.490  31.480  29.483  1.00  0.00     0.029 A 
ATOM     45  N   UNL A   1      39.450  30.908  30.324  1.00  0.00    -0.354 N 
ATOM     46  C   UNL A   1      40.298  31.795  34.648  1.00  0.00     0.074 A 
ATOM     47  C   UNL A   1      39.104  31.201  35.189  1.00  0.00     0.031 C 
ATOM     48  C   UNL A   1      38.084  30.655  28.587  1.00  0.00     0.029 A 
ATOM     49  C   UNL A   1      39.377  30.244  29.107  1.00  0.00     0.049 A 
ATOM     50  H   UNL A   1      40.268  30.923  30.872  1.00  0.00     0.167 HD
ATOM     51  C   UNL A   1      41.598  31.711  35.037  1.00  0.00     0.037 A 
ATOM     52  C   UNL A   1      40.300  29.371  28.628  1.00  0.00     0.037 A 
ATOM     53  C   UNL A   1      42.435  32.592  34.263  1.00  0.00     0.049 A 
ATOM     54  C   UNL A   1      41.576  29.643  29.344  1.00  0.00     0.074 A 
ATOM     55  C   UNL A   1      42.463  33.961  34.065  1.00  0.00     0.029 A 
ATOM     56  N   UNL A   1      43.175  32.058  33.236  1.00  0.00    -0.354 N 
ATOM     57  N   UNL A   1      42.281  30.727  29.175  1.00  0.00    -0.248 NA
ATOM     58  C   UNL A   1      41.815  28.929  30.592  1.00  0.00     0.031 C 
ATOM     59  C   UNL A   1      42.776  34.128  32.683  1.00  0.00     0.029 A 
ATOM     60  C   UNL A   1      42.987  32.862  32.140  1.00  0.00     0.049 A 
ATOM     61  H   UNL A   1      43.735  31.250  33.280  1.00  0.00     0.167 HD
ATOM     62  C   UNL A   1      42.712  31.067  30.449  1.00  0.00     0.074 A 
ATOM     63  C   UNL A   1      42.456  29.885  31.269  1.00  0.00     0.031 C 
ATOM     64  C   UNL A   1      42.963  32.365  30.786  1.00  0.00     0.037 A 
BRANCH  51  65
ATOM     65  C   UNL A   1      42.141  30.557  35.837  1.00  0.00     0.064 A 
ATOM     66  C   UNL A   1      43.041  30.814  36.887  1.00  0.00     0.173 A 
ATOM     67  C   UNL A   1      42.053  29.207  35.426  1.00  0.00     0.173 A 
ATOM     68  F   UNL A   1      43.220  32.064  37.342  1.00  0.00    -0.203 F 
ATOM     69  C   UNL A   1      43.848  29.811  37.427  1.00  0.00     0.198 A 
ATOM     70  C   UNL A   1      42.819  28.200  36.004  1.00  0.00     0.198 A 
ATOM     71  F   UNL A   1      41.317  28.823  34.376  1.00  0.00    -0.203 F 
ATOM     72  F   UNL A   1      44.782  30.125  38.334  1.00  0.00    -0.200 F 
ATOM     73  C   UNL A   1      43.740  28.505  36.981  1.00  0.00     0.200 A 
ATOM     74  F   UNL A   1      42.713  26.946  35.541  1.00  0.00    -0.200 F 
ATOM     75  F   UNL A   1      44.557  27.554  37.451  1.00  0.00    -0.200 F 
ENDBRANCH  51  65
BRANCH  52  76
ATOM     76  C   UNL A   1      40.080  28.112  27.876  1.00  0.00     0.064 A 
ATOM     77  C   UNL A   1      40.776  27.858  26.681  1.00  0.00     0.173 A 
ATOM     78  C   UNL A   1      39.424  27.011  28.460  1.00  0.00     0.173 A 
ATOM     79  F   UNL A   1      41.463  28.840  26.077  1.00  0.00    -0.203 F 
ATOM     80  C   UNL A   1      40.847  26.574  26.128  1.00  0.00     0.198 A 
ATOM     81  C   UNL A   1      39.490  25.732  27.905  1.00  0.00     0.198 A 
ATOM     82  F   UNL A   1      38.791  27.131  29.635  1.00  0.00    -0.203 F 
ATOM     83  F   UNL A   1      41.582  26.358  25.028  1.00  0.00    -0.200 F 
ATOM     84  C   UNL A   1      40.215  25.510  26.749  1.00  0.00     0.200 A 
ATOM     85  F   UNL A   1      38.905  24.703  28.535  1.00  0.00    -0.200 F 
ATOM     86  F   UNL A   1      40.341  24.267  26.261  1.00  0.00    -0.200 F 
ENDBRANCH  52  76
BRANCH  64  87
ATOM     87  C   UNL A   1      42.988  33.385  29.680  1.00  0.00     0.064 A 
ATOM     88  C   UNL A   1      41.903  34.217  29.349  1.00  0.00     0.173 A 
ATOM     89  C   UNL A   1      44.202  33.622  29.023  1.00  0.00     0.173 A 
ATOM     90  F   UNL A   1      40.739  34.128  30.004  1.00  0.00    -0.203 F 
ATOM     91  C   UNL A   1      42.018  35.203  28.369  1.00  0.00     0.198 A 
ATOM     92  C   UNL A   1      44.326  34.631  28.072  1.00  0.00     0.198 A 
ATOM     93  F   UNL A   1      45.288  32.897  29.335  1.00  0.00    -0.203 F 
ATOM     94  F   UNL A   1      40.964  35.972  28.060  1.00  0.00    -0.200 F 
ATOM     95  C   UNL A   1      43.233  35.413  27.737  1.00  0.00     0.200 A 
ATOM     96  F   UNL A   1      45.515  34.864  27.500  1.00  0.00    -0.200 F 
ATOM     97  F   UNL A   1      43.357  36.386  26.823  1.00  0.00    -0.200 F 
ENDBRANCH  64  87
ENDBRANCH  38  39
ENDBRANCH  31  33
ENDBRANCH  30  31
ENDBRANCH  29  30
ENDBRANCH  28  29
ENDBRANCH  27  28
ENDBRANCH   1  27
TORSDOF 18
ENDMDL
MODEL 2
REMARK VINA RESULT:     -11.7      2.485      3.665
REMARK SMILES CCOc1ccc(-n2nnc(-c3nc(C)c(C(=O)OCCOCCOC(=O)c4ccc(-c5c6nc(c(-c7c(F)c(F)c(F)c(F)c7F)c7ccc([nH]7)c(-c7c(F)c(F)c(F)c(F)c7F)c7nc(c(-c8c(F)c(F)c(F)c(F)c8F)c8ccc5[nH]8)C=C7)C=C6)cc4)s3)c2C)cc1
REMARK SMILES IDX 21 1 20 2 19 3 17 4 18 5 16 6 12 7 13 8 91 9 14 10 15 11
REMARK SMILES IDX 11 12 8 13 9 14 92 15 10 16 93 17 7 18 4 19 5 20 95 21 6 22
REMARK SMILES IDX 94 23 3 24 2 25 1 26 22 27 23 28 24 29 25 30 26 31 27 32
REMARK SMILES IDX 28 33 29 34 90 35 30 36 89 37 31 38 32 39 33 40 83 41 34 42
REMARK SMILES IDX 88 43 82 44 84 45 35 46 87 47 81 48 80 49 36 51 68 52 48 53
REMARK SMILES IDX 67 54 49 55 52 56 66 57 85 58 50 59 51 60 65 62 86 63 53 64
REMARK SMILES IDX 37 65 38 66 46 67 39 68 40 69 44 70 47 71 41 72 42 73 45 74
REMARK SMILES IDX 43 75 69 76 70 77 78 78 71 79 72 80 76 81 79 82 73 83 74 84
REMARK SMILES IDX 77 85 75 86 54 87 55 88 63 89 56 90 57 91 61 92 64 93 58 94
REMARK SMILES IDX 59 95 62 96 60 97
REMARK H PARENT 84 50 52 61
REMARK Flexibility Score: inf
ROOT
ATOM      1  C   UNL A   1      34.588  31.020  27.527  1.00  0.00     0.202 C 
ENDROOT
BRANCH   1   2
ATOM      2  C   UNL A   1      33.116  30.712  27.246  1.00  0.00     0.261 C 
BRANCH   2   3
ATOM      3  O   UNL A   1      32.997  29.820  26.132  1.00  0.00    -0.459 OA
BRANCH   3   4
ATOM      4  C   UNL A   1      31.896  29.988  25.339  1.00  0.00     0.350 C 
ATOM      5  O   UNL A   1      31.077  30.870  25.461  1.00  0.00    -0.245 OA
BRANCH   4   6
ATOM      6  C   UNL A   1      31.936  29.027  24.257  1.00  0.00     0.135 A 
ATOM      7  C   UNL A   1      32.412  27.092  22.927  1.00  0.00     0.146 A 
ATOM      8  N   UNL A   1      31.239  27.567  22.566  1.00  0.00    -0.239 NA
ATOM      9  S   UNL A   1      33.351  28.146  23.902  1.00  0.00    -0.105 S 
ATOM     10  C   UNL A   1      30.953  28.698  23.333  1.00  0.00     0.064 A 
ATOM     11  C   UNL A   1      29.657  29.400  23.120  1.00  0.00     0.068 C 
BRANCH   7  12
ATOM     12  C   UNL A   1      32.865  25.685  22.739  1.00  0.00     0.145 A 
ATOM     13  N   UNL A   1      33.262  23.599  23.185  1.00  0.00    -0.217 N 
ATOM     14  N   UNL A   1      34.144  24.002  22.239  1.00  0.00    -0.061 NA
ATOM     15  C   UNL A   1      32.477  24.663  23.587  1.00  0.00     0.072 A 
ATOM     16  N   UNL A   1      33.838  25.251  21.890  1.00  0.00    -0.127 NA
ATOM     17  C   UNL A   1      31.541  24.683  24.746  1.00  0.00     0.069 C 
BRANCH  13  18
ATOM     18  C   UNL A   1      33.260  22.297  23.722  1.00  0.00     0.067 A 
ATOM     19  C   UNL A   1      32.877  19.850  24.985  1.00  0.00     0.119 A 
ATOM     20  C   UNL A   1      33.755  20.788  25.535  1.00  0.00     0.048 A 
ATOM     21  C   UNL A   1      32.207  20.129  23.798  1.00  0.00     0.048 A 
ATOM     22  C   UNL A   1      33.972  22.013  24.892  1.00  0.00     0.032 A 
ATOM     23  C   UNL A   1      32.421  21.337  23.149  1.00  0.00     0.032 A 
BRANCH  19  24
ATOM     24  O   UNL A   1      32.580  18.729  25.707  1.00  0.00    -0.494 OA
BRANCH  24  25
ATOM     25  C   UNL A   1      32.607  17.520  24.936  1.00  0.00     0.226 C 
ATOM     26  C   UNL A   1      34.016  17.059  24.590  1.00  0.00     0.049 C 
ENDBRANCH  24  25
ENDBRANCH  19  24
ENDBRANCH  13  18
ENDBRANCH   7  12
ENDBRANCH   4   6
ENDBRANCH   3   4
ENDBRANCH   2   3
ENDBRANCH   1   2
BRANCH   1  27
ATOM     27  O   UNL A   1      34.957  32.394  27.639  1.00  0.00    -0.374 OA
BRANCH  27  28
ATOM     28  C   UNL A   1      34.091  33.318  28.285  1.00  0.00     0.202 C 
BRANCH  28  29
ATOM     29  C   UNL A   1      34.213  33.506  29.788  1.00  0.00     0.261 C 
BRANCH  29  30
ATOM     30  O   UNL A   1      35.546  33.343  30.253  1.00  0.00    -0.460 OA
BRANCH  30  31
ATOM     31  C   UNL A   1      35.725  32.217  30.978  1.00  0.00     0.338 C 
ATOM     32  O   UNL A   1      35.252  31.961  32.072  1.00  0.00    -0.246 OA
BRANCH  31  33
ATOM     33  C   UNL A   1      36.757  31.400  30.334  1.00  0.00     0.060 A 
ATOM     34  C   UNL A   1      36.665  30.024  30.549  1.00  0.00     0.016 A 
ATOM     35  C   UNL A   1      37.912  31.995  29.802  1.00  0.00     0.016 A 
ATOM     36  C   UNL A   1      37.809  29.271  30.430  1.00  0.00     0.010 A 
ATOM     37  C   UNL A   1      39.057  31.239  29.684  1.00  0.00     0.010 A 
ATOM     38  C   UNL A   1      39.010  29.908  30.080  1.00  0.00    -0.014 A 
BRANCH  38  39
ATOM     39  C   UNL A   1      40.198  29.086  30.036  1.00  0.00     0.031 A 
ATOM     40  C   UNL A   1      40.810  28.908  31.369  1.00  0.00     0.074 A 
ATOM     41  C   UNL A   1      40.672  28.520  28.912  1.00  0.00     0.049 A 
ATOM     42  N   UNL A   1      41.935  29.390  31.782  1.00  0.00    -0.248 NA
ATOM     43  C   UNL A   1      39.997  28.278  32.420  1.00  0.00     0.031 C 
ATOM     44  C   UNL A   1      40.047  28.410  27.595  1.00  0.00     0.029 A 
ATOM     45  N   UNL A   1      41.840  27.845  28.754  1.00  0.00    -0.354 N 
ATOM     46  C   UNL A   1      42.059  28.972  33.100  1.00  0.00     0.074 A 
ATOM     47  C   UNL A   1      40.778  28.439  33.486  1.00  0.00     0.031 C 
ATOM     48  C   UNL A   1      40.742  27.518  26.847  1.00  0.00     0.029 A 
ATOM     49  C   UNL A   1      41.929  27.110  27.580  1.00  0.00     0.049 A 
ATOM     50  H   UNL A   1      42.566  27.873  29.417  1.00  0.00     0.167 HD
ATOM     51  C   UNL A   1      43.282  28.881  33.685  1.00  0.00     0.037 A 
ATOM     52  C   UNL A   1      42.885  26.189  27.295  1.00  0.00     0.037 A 
ATOM     53  C   UNL A   1      44.253  29.695  32.998  1.00  0.00     0.049 A 
ATOM     54  C   UNL A   1      44.047  26.474  28.180  1.00  0.00     0.074 A 
ATOM     55  C   UNL A   1      44.355  31.048  32.730  1.00  0.00     0.029 A 
ATOM     56  N   UNL A   1      45.121  29.083  32.127  1.00  0.00    -0.354 N 
ATOM     57  N   UNL A   1      44.804  27.530  28.059  1.00  0.00    -0.248 NA
ATOM     58  C   UNL A   1      44.073  25.831  29.487  1.00  0.00     0.031 C 
ATOM     59  C   UNL A   1      44.876  31.124  31.404  1.00  0.00     0.029 A 
ATOM     60  C   UNL A   1      45.125  29.823  30.972  1.00  0.00     0.049 A 
ATOM     61  H   UNL A   1      45.642  28.266  32.301  1.00  0.00     0.167 HD
ATOM     62  C   UNL A   1      45.049  27.936  29.363  1.00  0.00     0.074 A 
ATOM     63  C   UNL A   1      44.636  26.812  30.199  1.00  0.00     0.031 C 
ATOM     64  C   UNL A   1      45.288  29.246  29.660  1.00  0.00     0.037 A 
BRANCH  51  65
ATOM     65  C   UNL A   1      43.662  27.765  34.622  1.00  0.00     0.064 A 
ATOM     66  C   UNL A   1      43.548  26.434  34.184  1.00  0.00     0.173 A 
ATOM     67  C   UNL A   1      43.839  27.937  36.014  1.00  0.00     0.173 A 
ATOM     68  F   UNL A   1      43.355  26.156  32.885  1.00  0.00    -0.203 F 
ATOM     69  C   UNL A   1      43.533  25.363  35.080  1.00  0.00     0.198 A 
ATOM     70  C   UNL A   1      43.879  26.864  36.898  1.00  0.00     0.198 A 
ATOM     71  F   UNL A   1      43.863  29.144  36.591  1.00  0.00    -0.203 F 
ATOM     72  F   UNL A   1      43.293  24.124  34.631  1.00  0.00    -0.200 F 
ATOM     73  C   UNL A   1      43.693  25.580  36.437  1.00  0.00     0.200 A 
ATOM     74  F   UNL A   1      44.013  27.099  38.212  1.00  0.00    -0.200 F 
ATOM     75  F   UNL A   1      43.614  24.562  37.304  1.00  0.00    -0.200 F 
ENDBRANCH  51  65
BRANCH  52  76
ATOM     76  C   UNL A   1      42.740  24.892  26.590  1.00  0.00     0.064 A 
ATOM     77  C   UNL A   1      43.460  24.630  25.411  1.00  0.00     0.173 A 
ATOM     78  C   UNL A   1      42.138  23.780  27.212  1.00  0.00     0.173 A 
ATOM     79  F   UNL A   1      44.099  25.624  24.776  1.00  0.00    -0.203 F 
ATOM     80  C   UNL A   1      43.605  23.332  24.909  1.00  0.00     0.198 A 
ATOM     81  C   UNL A   1      42.278  22.486  26.707  1.00  0.00     0.198 A 
ATOM     82  F   UNL A   1      41.488  23.910  28.376  1.00  0.00    -0.203 F 
ATOM     83  F   UNL A   1      44.361  23.114  23.824  1.00  0.00    -0.200 F 
ATOM     84  C   UNL A   1      43.026  22.260  25.566  1.00  0.00     0.200 A 
ATOM     85  F   UNL A   1      41.743  21.453  27.371  1.00  0.00    -0.200 F 
ATOM     86  F   UNL A   1      43.222  21.008  25.128  1.00  0.00    -0.200 F 
ENDBRANCH  52  76
BRANCH  64  87
ATOM     87  C   UNL A   1      45.511  30.196  28.515  1.00  0.00     0.064 A 
ATOM     88  C   UNL A   1      44.478  30.838  27.809  1.00  0.00     0.173 A 
ATOM     89  C   UNL A   1      46.826  30.575  28.213  1.00  0.00     0.173 A 
ATOM     90  F   UNL A   1      43.193  30.611  28.109  1.00  0.00    -0.203 F 
ATOM     91  C   UNL A   1      44.753  31.774  26.813  1.00  0.00     0.198 A 
ATOM     92  C   UNL A   1      47.097  31.539  27.245  1.00  0.00     0.198 A 
ATOM     93  F   UNL A   1      47.853  30.038  28.891  1.00  0.00    -0.203 F 
ATOM     94  F   UNL A   1      43.750  32.360  26.143  1.00  0.00    -0.200 F 
ATOM     95  C   UNL A   1      46.064  32.129  26.538  1.00  0.00     0.200 A 
ATOM     96  F   UNL A   1      48.364  31.914  27.018  1.00  0.00    -0.200 F 
ATOM     97  F   UNL A   1      46.329  33.058  25.609  1.00  0.00    -0.200 F 
ENDBRANCH  64  87
ENDBRANCH  38  39
ENDBRANCH  31  33
ENDBRANCH  30  31
ENDBRANCH  29  30
ENDBRANCH  28  29
ENDBRANCH  27  28
ENDBRANCH   1  27
TORSDOF 18
ENDMDL
MODEL 3
REMARK VINA RESULT:     -10.7      4.984      9.917
REMARK SMILES CCOc1ccc(-n2nnc(-c3nc(C)c(C(=O)OCCOCCOC(=O)c4ccc(-c5c6nc(c(-c7c(F)c(F)c(F)c(F)c7F)c7ccc([nH]7)c(-c7c(F)c(F)c(F)c(F)c7F)c7nc(c(-c8c(F)c(F)c(F)c(F)c8F)c8ccc5[nH]8)C=C7)C=C6)cc4)s3)c2C)cc1
REMARK SMILES IDX 21 1 20 2 19 3 17 4 18 5 16 6 12 7 13 8 91 9 14 10 15 11
REMARK SMILES IDX 11 12 8 13 9 14 92 15 10 16 93 17 7 18 4 19 5 20 95 21 6 22
REMARK SMILES IDX 94 23 3 24 2 25 1 26 22 27 23 28 24 29 25 30 26 31 27 32
REMARK SMILES IDX 28 33 29 34 90 35 30 36 89 37 31 38 32 39 33 40 83 41 34 42
REMARK SMILES IDX 88 43 82 44 84 45 35 46 87 47 81 48 80 49 36 51 68 52 48 53
REMARK SMILES IDX 67 54 49 55 52 56 66 57 85 58 50 59 51 60 65 62 86 63 53 64
REMARK SMILES IDX 37 65 38 66 46 67 39 68 40 69 44 70 47 71 41 72 42 73 45 74
REMARK SMILES IDX 43 75 69 76 70 77 78 78 71 79 72 80 76 81 79 82 73 83 74 84
REMARK SMILES IDX 77 85 75 86 54 87 55 88 63 89 56 90 57 91 61 92 64 93 58 94
REMARK SMILES IDX 59 95 62 96 60 97
REMARK H PARENT 84 50 52 61
REMARK Flexibility Score: inf
ROOT
ATOM      1  C   UNL A   1      33.140  35.297  30.476  1.00  0.00     0.202 C 
ENDROOT
BRANCH   1   2
ATOM      2  C   UNL A   1      34.031  35.382  31.716  1.00  0.00     0.261 C 
BRANCH   2   3
ATOM      3  O   UNL A   1      34.939  34.275  31.756  1.00  0.00    -0.459 OA
BRANCH   3   4
ATOM      4  C   UNL A   1      34.638  33.278  32.642  1.00  0.00     0.350 C 
ATOM      5  O   UNL A   1      33.590  32.673  32.681  1.00  0.00    -0.245 OA
BRANCH   4   6
ATOM      6  C   UNL A   1      35.810  32.972  33.434  1.00  0.00     0.135 A 
ATOM      7  C   UNL A   1      37.378  32.813  35.239  1.00  0.00     0.146 A 
ATOM      8  N   UNL A   1      37.547  31.775  34.447  1.00  0.00    -0.239 NA
ATOM      9  S   UNL A   1      36.418  34.075  34.582  1.00  0.00    -0.105 S 
ATOM     10  C   UNL A   1      36.639  31.860  33.390  1.00  0.00     0.064 A 
ATOM     11  C   UNL A   1      36.624  30.775  32.369  1.00  0.00     0.068 C 
BRANCH   7  12
ATOM     12  C   UNL A   1      37.762  32.870  36.677  1.00  0.00     0.145 A 
ATOM     13  N   UNL A   1      38.886  33.366  38.464  1.00  0.00    -0.217 N 
ATOM     14  N   UNL A   1      38.221  32.209  38.695  1.00  0.00    -0.061 NA
ATOM     15  C   UNL A   1      38.680  33.783  37.163  1.00  0.00     0.072 A 
ATOM     16  N   UNL A   1      37.452  31.955  37.637  1.00  0.00    -0.127 NA
ATOM     17  C   UNL A   1      39.397  34.885  36.464  1.00  0.00     0.069 C 
BRANCH  13  18
ATOM     18  C   UNL A   1      39.736  33.961  39.418  1.00  0.00     0.067 A 
ATOM     19  C   UNL A   1      41.641  35.287  40.946  1.00  0.00     0.119 A 
ATOM     20  C   UNL A   1      41.759  33.913  40.726  1.00  0.00     0.048 A 
ATOM     21  C   UNL A   1      40.564  35.992  40.418  1.00  0.00     0.048 A 
ATOM     22  C   UNL A   1      40.790  33.232  39.977  1.00  0.00     0.032 A 
ATOM     23  C   UNL A   1      39.595  35.326  39.682  1.00  0.00     0.032 A 
BRANCH  19  24
ATOM     24  O   UNL A   1      42.672  35.944  41.558  1.00  0.00    -0.494 OA
BRANCH  24  25
ATOM     25  C   UNL A   1      42.252  37.013  42.416  1.00  0.00     0.226 C 
ATOM     26  C   UNL A   1      42.954  37.010  43.766  1.00  0.00     0.049 C 
ENDBRANCH  24  25
ENDBRANCH  19  24
ENDBRANCH  13  18
ENDBRANCH   7  12
ENDBRANCH   4   6
ENDBRANCH   3   4
ENDBRANCH   2   3
ENDBRANCH   1   2
BRANCH   1  27
ATOM     27  O   UNL A   1      33.548  36.040  29.328  1.00  0.00    -0.374 OA
BRANCH  27  28
ATOM     28  C   UNL A   1      34.441  35.465  28.383  1.00  0.00     0.202 C 
BRANCH  28  29
ATOM     29  C   UNL A   1      34.285  33.994  28.032  1.00  0.00     0.261 C 
BRANCH  29  30
ATOM     30  O   UNL A   1      35.416  33.220  28.409  1.00  0.00    -0.460 OA
BRANCH  30  31
ATOM     31  C   UNL A   1      35.348  31.936  27.993  1.00  0.00     0.338 C 
ATOM     32  O   UNL A   1      34.498  31.438  27.276  1.00  0.00    -0.246 OA
BRANCH  31  33
ATOM     33  C   UNL A   1      36.364  31.156  28.703  1.00  0.00     0.060 A 
ATOM     34  C   UNL A   1      37.539  31.837  29.024  1.00  0.00     0.016 A 
ATOM     35  C   UNL A   1      36.272  29.757  28.775  1.00  0.00     0.016 A 
ATOM     36  C   UNL A   1      38.685  31.101  29.211  1.00  0.00     0.010 A 
ATOM     37  C   UNL A   1      37.420  29.021  28.962  1.00  0.00     0.010 A 
ATOM     38  C   UNL A   1      38.624  29.704  29.093  1.00  0.00    -0.014 A 
BRANCH  38  39
ATOM     39  C   UNL A   1      39.867  28.980  29.229  1.00  0.00     0.031 A 
ATOM     40  C   UNL A   1      40.261  28.795  30.641  1.00  0.00     0.074 A 
ATOM     41  C   UNL A   1      40.568  28.499  28.187  1.00  0.00     0.049 A 
ATOM     42  N   UNL A   1      41.257  29.345  31.252  1.00  0.00    -0.248 NA
ATOM     43  C   UNL A   1      39.339  28.061  31.521  1.00  0.00     0.031 C 
ATOM     44  C   UNL A   1      40.183  28.395  26.780  1.00  0.00     0.029 A 
ATOM     45  N   UNL A   1      41.798  27.924  28.210  1.00  0.00    -0.354 N 
ATOM     46  C   UNL A   1      41.193  28.884  32.560  1.00  0.00     0.074 A 
ATOM     47  C   UNL A   1      39.915  28.238  32.708  1.00  0.00     0.031 C 
ATOM     48  C   UNL A   1      41.065  27.592  26.136  1.00  0.00     0.029 A 
ATOM     49  C   UNL A   1      42.143  27.247  27.049  1.00  0.00     0.049 A 
ATOM     50  H   UNL A   1      42.398  27.981  28.988  1.00  0.00     0.167 HD
ATOM     51  C   UNL A   1      42.304  28.865  33.341  1.00  0.00     0.037 A 
ATOM     52  C   UNL A   1      43.207  26.415  26.905  1.00  0.00     0.037 A 
ATOM     53  C   UNL A   1      43.305  29.779  32.852  1.00  0.00     0.049 A 
ATOM     54  C   UNL A   1      44.177  26.754  27.982  1.00  0.00     0.074 A 
ATOM     55  C   UNL A   1      43.337  31.146  32.643  1.00  0.00     0.029 A 
ATOM     56  N   UNL A   1      44.355  29.273  32.125  1.00  0.00    -0.354 N 
ATOM     57  N   UNL A   1      44.852  27.869  28.020  1.00  0.00    -0.248 NA
ATOM     58  C   UNL A   1      44.038  26.062  29.257  1.00  0.00     0.031 C 
ATOM     59  C   UNL A   1      44.064  31.317  31.427  1.00  0.00     0.029 A 
ATOM     60  C   UNL A   1      44.490  30.058  31.008  1.00  0.00     0.049 A 
ATOM     61  H   UNL A   1      44.906  28.493  32.362  1.00  0.00     0.167 HD
ATOM     62  C   UNL A   1      44.842  28.239  29.358  1.00  0.00     0.074 A 
ATOM     63  C   UNL A   1      44.390  27.052  30.081  1.00  0.00     0.031 C 
ATOM     64  C   UNL A   1      44.918  29.550  29.727  1.00  0.00     0.037 A 
BRANCH  51  65
ATOM     65  C   UNL A   1      42.615  27.744  34.298  1.00  0.00     0.064 A 
ATOM     66  C   UNL A   1      43.125  26.535  33.794  1.00  0.00     0.173 A 
ATOM     67  C   UNL A   1      42.151  27.702  35.633  1.00  0.00     0.173 A 
ATOM     68  F   UNL A   1      43.572  26.455  32.532  1.00  0.00    -0.203 F 
ATOM     69  C   UNL A   1      43.099  25.356  34.544  1.00  0.00     0.198 A 
ATOM     70  C   UNL A   1      42.176  26.539  36.395  1.00  0.00     0.198 A 
ATOM     71  F   UNL A   1      41.548  28.745  36.216  1.00  0.00    -0.203 F 
ATOM     72  F   UNL A   1      43.476  24.201  33.979  1.00  0.00    -0.200 F 
ATOM     73  C   UNL A   1      42.619  25.358  35.841  1.00  0.00     0.200 A 
ATOM     74  F   UNL A   1      41.687  26.560  37.643  1.00  0.00    -0.200 F 
ATOM     75  F   UNL A   1      42.533  24.218  36.538  1.00  0.00    -0.200 F 
ENDBRANCH  51  65
BRANCH  52  76
ATOM     76  C   UNL A   1      43.291  25.141  26.151  1.00  0.00     0.064 A 
ATOM     77  C   UNL A   1      44.327  24.920  25.226  1.00  0.00     0.173 A 
ATOM     78  C   UNL A   1      42.547  24.008  26.536  1.00  0.00     0.173 A 
ATOM     79  F   UNL A   1      45.111  25.936  24.835  1.00  0.00    -0.203 F 
ATOM     80  C   UNL A   1      44.629  23.639  24.751  1.00  0.00     0.198 A 
ATOM     81  C   UNL A   1      42.845  22.732  26.055  1.00  0.00     0.198 A 
ATOM     82  F   UNL A   1      41.584  24.099  27.463  1.00  0.00    -0.203 F 
ATOM     83  F   UNL A   1      45.672  23.459  23.928  1.00  0.00    -0.200 F 
ATOM     84  C   UNL A   1      43.896  22.544  25.177  1.00  0.00     0.200 A 
ATOM     85  F   UNL A   1      42.153  21.675  26.504  1.00  0.00    -0.200 F 
ATOM     86  F   UNL A   1      44.228  21.309  24.778  1.00  0.00    -0.200 F 
ENDBRANCH  52  76
BRANCH  64  87
ATOM     87  C   UNL A   1      45.248  30.561  28.663  1.00  0.00     0.064 A 
ATOM     88  C   UNL A   1      44.297  31.148  27.809  1.00  0.00     0.173 A 
ATOM     89  C   UNL A   1      46.558  31.054  28.600  1.00  0.00     0.173 A 
ATOM     90  F   UNL A   1      43.004  30.810  27.880  1.00  0.00    -0.203 F 
ATOM     91  C   UNL A   1      44.656  32.144  26.900  1.00  0.00     0.198 A 
ATOM     92  C   UNL A   1      46.906  32.075  27.719  1.00  0.00     0.198 A 
ATOM     93  F   UNL A   1      47.499  30.572  29.428  1.00  0.00    -0.203 F 
ATOM     94  F   UNL A   1      43.733  32.676  26.086  1.00  0.00    -0.200 F 
ATOM     95  C   UNL A   1      45.960  32.611  26.862  1.00  0.00     0.200 A 
ATOM     96  F   UNL A   1      48.156  32.557  27.722  1.00  0.00    -0.200 F 
ATOM     97  F   UNL A   1      46.297  33.596  26.018  1.00  0.00    -0.200 F 
ENDBRANCH  64  87
ENDBRANCH  38  39
ENDBRANCH  31  33
ENDBRANCH  30  31
ENDBRANCH  29  30
ENDBRANCH  28  29
ENDBRANCH  27  28
ENDBRANCH   1  27
TORSDOF 18
ENDMDL
