MODEL 1
REMARK VINA RESULT:     -11.3      0.000      0.000
REMARK SMILES C=CC[N@@H+](CC(=O)OCCOCCOC(=O)c1ccc(-c2c3nc(c(-c4c(F)c(F)c(F)c(F)c4F)c4ccc([nH]4)c(-c4c(F)c(F)c(F)c(F)c4F)c4nc(c(-c5c(F)c(F)c(F)c(F)c5F)c5ccc2[nH]5)C=C4)C=C3)cc1)Cc1ccc([N+](=O)[O-])o1
REMARK SMILES IDX 10 1 9 2 8 3 6 4 7 5 5 6 4 7 3 9 2 10 1 11 80 12 81 13 82 14
REMARK SMILES IDX 88 15 83 16 84 17 85 18 86 19 87 20 11 21 12 22 13 23 14 24
REMARK SMILES IDX 15 25 16 26 17 27 18 28 79 29 19 30 78 31 20 32 21 33 22 34
REMARK SMILES IDX 72 35 23 36 77 37 71 38 73 39 24 40 76 41 70 42 69 43 25 45
REMARK SMILES IDX 57 46 37 47 56 48 38 49 41 50 55 51 74 52 39 53 40 54 54 56
REMARK SMILES IDX 75 57 42 58 26 59 27 60 35 61 28 62 29 63 33 64 36 65 30 66
REMARK SMILES IDX 31 67 34 68 32 69 58 70 59 71 67 72 60 73 61 74 65 75 68 76
REMARK SMILES IDX 62 77 63 78 66 79 64 80 43 81 44 82 52 83 45 84 46 85 50 86
REMARK SMILES IDX 53 87 47 88 48 89 51 90 49 91
REMARK H PARENT 4 8 73 44 41 55
REMARK Flexibility Score: inf
ROOT
ATOM      1  C   UNL A   1      31.753  27.784  26.745  1.00  0.00     0.202 C 
ENDROOT
BRANCH   1   2
ATOM      2  C   UNL A   1      31.172  26.574  25.993  1.00  0.00     0.261 C 
BRANCH   2   3
ATOM      3  O   UNL A   1      32.109  25.513  25.725  1.00  0.00    -0.459 OA
BRANCH   3   4
ATOM      4  C   UNL A   1      31.944  24.384  26.465  1.00  0.00     0.361 C 
ATOM      5  O   UNL A   1      30.988  24.191  27.213  1.00  0.00    -0.245 OA
BRANCH   4   6
ATOM      6  C   UNL A   1      33.082  23.375  26.353  1.00  0.00     0.387 C 
BRANCH   6   7
ATOM      7  N   UNL A   1      33.062  22.374  25.270  1.00  0.00    -0.316 N 
ATOM      8  H   UNL A   1      33.890  21.813  25.472  1.00  0.00     0.349 HD
BRANCH   7   9
ATOM      9  C   UNL A   1      33.401  22.877  23.950  1.00  0.00     0.291 C 
BRANCH   9  10
ATOM     10  C   UNL A   1      34.850  23.253  23.829  1.00  0.00     0.025 C 
ATOM     11  C   UNL A   1      35.866  22.409  24.050  1.00  0.00     0.010 C 
ENDBRANCH   9  10
ENDBRANCH   7   9
BRANCH   7  12
ATOM     12  C   UNL A   1      32.075  21.302  25.370  1.00  0.00     0.339 C 
BRANCH  12  13
ATOM     13  C   UNL A   1      32.393  20.045  24.644  1.00  0.00     0.165 A 
ATOM     14  C   UNL A   1      32.419  19.447  22.984  1.00  0.00     0.059 A 
ATOM     15  O   UNL A   1      32.673  18.509  25.692  1.00  0.00    -0.400 OA
ATOM     16  C   UNL A   1      32.802  17.541  22.991  1.00  0.00     0.134 A 
ATOM     17  C   UNL A   1      32.879  16.977  24.635  1.00  0.00     0.433 A 
BRANCH  17  18
ATOM     18  N   UNL A   1      33.059  15.728  25.280  1.00  0.00     0.102 N 
ATOM     19  O   UNL A   1      34.218  15.304  25.327  1.00  0.00    -0.256 OA
ATOM     20  O   UNL A   1      32.050  15.189  25.741  1.00  0.00    -0.256 OA
ENDBRANCH  17  18
ENDBRANCH  12  13
ENDBRANCH   7  12
ENDBRANCH   6   7
ENDBRANCH   4   6
ENDBRANCH   3   4
ENDBRANCH   2   3
ENDBRANCH   1   2
BRANCH   1  21
ATOM     21  O   UNL A   1      31.806  29.078  26.113  1.00  0.00    -0.374 OA
BRANCH  21  22
ATOM     22  C   UNL A   1      32.567  30.285  26.773  1.00  0.00     0.202 C 
BRANCH  22  23
ATOM     23  C   UNL A   1      31.971  32.458  27.009  1.00  0.00     0.261 C 
BRANCH  23  24
ATOM     24  O   UNL A   1      32.964  33.713  27.182  1.00  0.00    -0.460 OA
BRANCH  24  25
ATOM     25  C   UNL A   1      33.365  34.065  28.428  1.00  0.00     0.338 C 
ATOM     26  O   UNL A   1      32.695  34.610  29.288  1.00  0.00    -0.246 OA
BRANCH  25  27
ATOM     27  C   UNL A   1      34.604  33.314  28.729  1.00  0.00     0.060 A 
ATOM     28  C   UNL A   1      34.463  31.998  29.195  1.00  0.00     0.016 A 
ATOM     29  C   UNL A   1      35.871  33.878  28.580  1.00  0.00     0.016 A 
ATOM     30  C   UNL A   1      35.575  31.274  29.601  1.00  0.00     0.010 A 
ATOM     31  C   UNL A   1      36.991  33.151  28.994  1.00  0.00     0.010 A 
ATOM     32  C   UNL A   1      36.836  31.877  29.572  1.00  0.00    -0.014 A 
BRANCH  32  33
ATOM     33  C   UNL A   1      37.909  31.287  30.408  1.00  0.00     0.031 A 
ATOM     34  C   UNL A   1      38.852  30.310  29.756  1.00  0.00     0.074 A 
ATOM     35  C   UNL A   1      38.097  31.680  31.679  1.00  0.00     0.049 A 
ATOM     36  N   UNL A   1      39.861  29.654  30.267  1.00  0.00    -0.248 NA
ATOM     37  C   UNL A   1      38.621  30.033  28.328  1.00  0.00     0.031 C 
ATOM     38  C   UNL A   1      37.282  32.665  32.386  1.00  0.00     0.029 A 
ATOM     39  N   UNL A   1      39.041  31.297  32.597  1.00  0.00    -0.354 N 
ATOM     40  C   UNL A   1      40.363  28.871  29.233  1.00  0.00     0.074 A 
ATOM     41  C   UNL A   1      39.530  29.105  28.076  1.00  0.00     0.031 C 
ATOM     42  C   UNL A   1      37.758  32.804  33.636  1.00  0.00     0.029 A 
ATOM     43  C   UNL A   1      38.884  31.891  33.823  1.00  0.00     0.049 A 
ATOM     44  H   UNL A   1      39.761  30.656  32.395  1.00  0.00     0.167 HD
ATOM     45  C   UNL A   1      41.431  28.038  29.247  1.00  0.00     0.037 A 
ATOM     46  C   UNL A   1      39.564  31.700  34.969  1.00  0.00     0.037 A 
ATOM     47  C   UNL A   1      42.260  27.828  30.404  1.00  0.00     0.049 A 
ATOM     48  C   UNL A   1      40.718  30.731  34.975  1.00  0.00     0.074 A 
ATOM     49  C   UNL A   1      43.379  27.025  30.532  1.00  0.00     0.029 A 
ATOM     50  N   UNL A   1      42.053  28.425  31.640  1.00  0.00    -0.354 N 
ATOM     51  N   UNL A   1      41.191  29.997  33.995  1.00  0.00    -0.248 NA
ATOM     52  C   UNL A   1      41.440  30.575  36.243  1.00  0.00     0.031 C 
ATOM     53  C   UNL A   1      43.805  27.082  31.863  1.00  0.00     0.029 A 
ATOM     54  C   UNL A   1      43.004  27.985  32.545  1.00  0.00     0.049 A 
ATOM     55  H   UNL A   1      41.336  29.069  31.843  1.00  0.00     0.167 HD
ATOM     56  C   UNL A   1      42.284  29.316  34.518  1.00  0.00     0.074 A 
ATOM     57  C   UNL A   1      42.413  29.744  35.897  1.00  0.00     0.031 C 
ATOM     58  C   UNL A   1      43.107  28.420  33.916  1.00  0.00     0.037 A 
BRANCH  45  59
ATOM     59  C   UNL A   1      41.726  27.261  27.993  1.00  0.00     0.064 A 
ATOM     60  C   UNL A   1      42.650  27.706  27.034  1.00  0.00     0.173 A 
ATOM     61  C   UNL A   1      41.077  26.040  27.752  1.00  0.00     0.173 A 
ATOM     62  F   UNL A   1      43.288  28.876  27.201  1.00  0.00    -0.203 F 
ATOM     63  C   UNL A   1      42.886  26.978  25.870  1.00  0.00     0.198 A 
ATOM     64  C   UNL A   1      41.343  25.295  26.606  1.00  0.00     0.198 A 
ATOM     65  F   UNL A   1      40.182  25.565  28.632  1.00  0.00    -0.203 F 
ATOM     66  F   UNL A   1      43.725  27.455  24.940  1.00  0.00    -0.200 F 
ATOM     67  C   UNL A   1      42.239  25.769  25.661  1.00  0.00     0.200 A 
ATOM     68  F   UNL A   1      40.727  24.121  26.415  1.00  0.00    -0.200 F 
ATOM     69  F   UNL A   1      42.472  25.065  24.545  1.00  0.00    -0.200 F 
ENDBRANCH  45  59
BRANCH  46  70
ATOM     70  C   UNL A   1      39.162  32.432  36.199  1.00  0.00     0.064 A 
ATOM     71  C   UNL A   1      38.268  31.872  37.123  1.00  0.00     0.173 A 
ATOM     72  C   UNL A   1      39.671  33.710  36.480  1.00  0.00     0.173 A 
ATOM     73  F   UNL A   1      37.736  30.663  36.892  1.00  0.00    -0.203 F 
ATOM     74  C   UNL A   1      37.888  32.567  38.271  1.00  0.00     0.198 A 
ATOM     75  C   UNL A   1      39.317  34.388  37.644  1.00  0.00     0.198 A 
ATOM     76  F   UNL A   1      40.532  34.291  35.632  1.00  0.00    -0.203 F 
ATOM     77  F   UNL A   1      37.000  32.026  39.115  1.00  0.00    -0.200 F 
ATOM     78  C   UNL A   1      38.420  33.820  38.535  1.00  0.00     0.200 A 
ATOM     79  F   UNL A   1      39.850  35.590  37.904  1.00  0.00    -0.200 F 
ATOM     80  F   UNL A   1      38.066  34.481  39.645  1.00  0.00    -0.200 F 
ENDBRANCH  46  70
BRANCH  58  81
ATOM     81  C   UNL A   1      44.245  27.882  34.740  1.00  0.00     0.064 A 
ATOM     82  C   UNL A   1      44.129  26.699  35.487  1.00  0.00     0.173 A 
ATOM     83  C   UNL A   1      45.472  28.564  34.779  1.00  0.00     0.173 A 
ATOM     84  F   UNL A   1      42.977  26.014  35.490  1.00  0.00    -0.203 F 
ATOM     85  C   UNL A   1      45.178  26.253  36.287  1.00  0.00     0.198 A 
ATOM     86  C   UNL A   1      46.533  28.090  35.546  1.00  0.00     0.198 A 
ATOM     87  F   UNL A   1      45.644  29.691  34.073  1.00  0.00    -0.203 F 
ATOM     88  F   UNL A   1      45.014  25.167  37.055  1.00  0.00    -0.200 F 
ATOM     89  C   UNL A   1      46.379  26.945  36.312  1.00  0.00     0.200 A 
ATOM     90  F   UNL A   1      47.700  28.748  35.552  1.00  0.00    -0.200 F 
ATOM     91  F   UNL A   1      47.385  26.516  37.086  1.00  0.00    -0.200 F 
ENDBRANCH  58  81
ENDBRANCH  32  33
ENDBRANCH  25  27
ENDBRANCH  24  25
ENDBRANCH  23  24
ENDBRANCH  22  23
ENDBRANCH  21  22
ENDBRANCH   1  21
TORSDOF 20
ENDMDL
MODEL 2
REMARK VINA RESULT:     -11.1      0.948      7.441
REMARK SMILES C=CC[N@@H+](CC(=O)OCCOCCOC(=O)c1ccc(-c2c3nc(c(-c4c(F)c(F)c(F)c(F)c4F)c4ccc([nH]4)c(-c4c(F)c(F)c(F)c(F)c4F)c4nc(c(-c5c(F)c(F)c(F)c(F)c5F)c5ccc2[nH]5)C=C4)C=C3)cc1)Cc1ccc([N+](=O)[O-])o1
REMARK SMILES IDX 10 1 9 2 8 3 6 4 7 5 5 6 4 7 3 9 2 10 1 11 80 12 81 13 82 14
REMARK SMILES IDX 88 15 83 16 84 17 85 18 86 19 87 20 11 21 12 22 13 23 14 24
REMARK SMILES IDX 15 25 16 26 17 27 18 28 79 29 19 30 78 31 20 32 21 33 22 34
REMARK SMILES IDX 72 35 23 36 77 37 71 38 73 39 24 40 76 41 70 42 69 43 25 45
REMARK SMILES IDX 57 46 37 47 56 48 38 49 41 50 55 51 74 52 39 53 40 54 54 56
REMARK SMILES IDX 75 57 42 58 26 59 27 60 35 61 28 62 29 63 33 64 36 65 30 66
REMARK SMILES IDX 31 67 34 68 32 69 58 70 59 71 67 72 60 73 61 74 65 75 68 76
REMARK SMILES IDX 62 77 63 78 66 79 64 80 43 81 44 82 52 83 45 84 46 85 50 86
REMARK SMILES IDX 53 87 47 88 48 89 51 90 49 91
REMARK H PARENT 4 8 73 44 41 55
REMARK Flexibility Score: inf
ROOT
ATOM      1  C   UNL A   1      32.522  28.140  25.773  1.00  0.00     0.202 C 
ENDROOT
BRANCH   1   2
ATOM      2  C   UNL A   1      33.647  27.205  25.296  1.00  0.00     0.261 C 
BRANCH   2   3
ATOM      3  O   UNL A   1      33.205  26.000  24.644  1.00  0.00    -0.459 OA
BRANCH   3   4
ATOM      4  C   UNL A   1      33.626  24.837  25.212  1.00  0.00     0.361 C 
ATOM      5  O   UNL A   1      34.444  24.781  26.127  1.00  0.00    -0.245 OA
BRANCH   4   6
ATOM      6  C   UNL A   1      33.050  23.574  24.581  1.00  0.00     0.387 C 
BRANCH   6   7
ATOM      7  N   UNL A   1      33.561  22.255  24.998  1.00  0.00    -0.316 N 
ATOM      8  H   UNL A   1      33.876  22.431  25.952  1.00  0.00     0.349 HD
BRANCH   7   9
ATOM      9  C   UNL A   1      34.811  21.846  24.380  1.00  0.00     0.291 C 
BRANCH   9  10
ATOM     10  C   UNL A   1      35.904  21.612  25.385  1.00  0.00     0.025 C 
ATOM     11  C   UNL A   1      36.959  22.421  25.548  1.00  0.00     0.010 C 
ENDBRANCH   9  10
ENDBRANCH   7   9
BRANCH   7  12
ATOM     12  C   UNL A   1      32.574  21.224  25.309  1.00  0.00     0.339 C 
BRANCH  12  13
ATOM     13  C   UNL A   1      32.729  19.929  24.596  1.00  0.00     0.165 A 
ATOM     14  C   UNL A   1      32.530  19.284  22.966  1.00  0.00     0.059 A 
ATOM     15  O   UNL A   1      33.027  18.408  25.661  1.00  0.00    -0.400 OA
ATOM     16  C   UNL A   1      32.791  17.358  22.998  1.00  0.00     0.134 A 
ATOM     17  C   UNL A   1      33.016  16.836  24.643  1.00  0.00     0.433 A 
BRANCH  17  18
ATOM     18  N   UNL A   1      33.188  15.597  25.308  1.00  0.00     0.102 N 
ATOM     19  O   UNL A   1      34.346  15.174  25.376  1.00  0.00    -0.256 OA
ATOM     20  O   UNL A   1      32.173  15.064  25.763  1.00  0.00    -0.256 OA
ENDBRANCH  17  18
ENDBRANCH  12  13
ENDBRANCH   7  12
ENDBRANCH   6   7
ENDBRANCH   4   6
ENDBRANCH   3   4
ENDBRANCH   2   3
ENDBRANCH   1   2
BRANCH   1  21
ATOM     21  O   UNL A   1      32.829  29.460  26.261  1.00  0.00    -0.374 OA
BRANCH  21  22
ATOM     22  C   UNL A   1      31.724  30.573  26.374  1.00  0.00     0.202 C 
BRANCH  22  23
ATOM     23  C   UNL A   1      31.872  32.747  26.995  1.00  0.00     0.261 C 
BRANCH  23  24
ATOM     24  O   UNL A   1      33.223  33.604  27.178  1.00  0.00    -0.460 OA
BRANCH  24  25
ATOM     25  C   UNL A   1      33.686  33.838  28.431  1.00  0.00     0.338 C 
ATOM     26  O   UNL A   1      33.062  34.300  29.370  1.00  0.00    -0.246 OA
BRANCH  25  27
ATOM     27  C   UNL A   1      34.935  33.060  28.597  1.00  0.00     0.060 A 
ATOM     28  C   UNL A   1      34.810  31.697  28.906  1.00  0.00     0.016 A 
ATOM     29  C   UNL A   1      36.196  33.644  28.477  1.00  0.00     0.016 A 
ATOM     30  C   UNL A   1      35.935  30.934  29.184  1.00  0.00     0.010 A 
ATOM     31  C   UNL A   1      37.330  32.877  28.763  1.00  0.00     0.010 A 
ATOM     32  C   UNL A   1      37.194  31.542  29.187  1.00  0.00    -0.014 A 
BRANCH  32  33
ATOM     33  C   UNL A   1      38.294  30.860  29.910  1.00  0.00     0.031 A 
ATOM     34  C   UNL A   1      38.487  31.188  31.368  1.00  0.00     0.074 A 
ATOM     35  C   UNL A   1      39.036  29.912  29.316  1.00  0.00     0.049 A 
ATOM     36  N   UNL A   1      39.375  30.739  32.216  1.00  0.00    -0.248 NA
ATOM     37  C   UNL A   1      37.547  32.163  31.948  1.00  0.00     0.031 C 
ATOM     38  C   UNL A   1      38.891  29.473  27.930  1.00  0.00     0.029 A 
ATOM     39  N   UNL A   1      40.059  29.144  29.810  1.00  0.00    -0.354 N 
ATOM     40  C   UNL A   1      39.116  31.395  33.414  1.00  0.00     0.074 A 
ATOM     41  C   UNL A   1      38.014  32.298  33.178  1.00  0.00     0.031 C 
ATOM     42  C   UNL A   1      39.801  28.515  27.681  1.00  0.00     0.029 A 
ATOM     43  C   UNL A   1      40.612  28.303  28.878  1.00  0.00     0.049 A 
ATOM     44  H   UNL A   1      40.366  29.192  30.744  1.00  0.00     0.167 HD
ATOM     45  C   UNL A   1      39.739  31.248  34.608  1.00  0.00     0.037 A 
ATOM     46  C   UNL A   1      41.668  27.474  28.981  1.00  0.00     0.037 A 
ATOM     47  C   UNL A   1      40.827  30.333  34.830  1.00  0.00     0.049 A 
ATOM     48  C   UNL A   1      42.377  27.363  30.306  1.00  0.00     0.074 A 
ATOM     49  C   UNL A   1      41.522  30.083  36.000  1.00  0.00     0.029 A 
ATOM     50  N   UNL A   1      41.381  29.517  33.854  1.00  0.00    -0.354 N 
ATOM     51  N   UNL A   1      42.127  27.981  31.436  1.00  0.00    -0.248 NA
ATOM     52  C   UNL A   1      43.507  26.429  30.371  1.00  0.00     0.031 C 
ATOM     53  C   UNL A   1      42.542  29.171  35.713  1.00  0.00     0.029 A 
ATOM     54  C   UNL A   1      42.431  28.787  34.385  1.00  0.00     0.049 A 
ATOM     55  H   UNL A   1      41.073  29.465  32.920  1.00  0.00     0.167 HD
ATOM     56  C   UNL A   1      43.046  27.490  32.354  1.00  0.00     0.074 A 
ATOM     57  C   UNL A   1      43.844  26.506  31.650  1.00  0.00     0.031 C 
ATOM     58  C   UNL A   1      43.216  27.818  33.661  1.00  0.00     0.037 A 
BRANCH  45  59
ATOM     59  C   UNL A   1      39.291  32.130  35.742  1.00  0.00     0.064 A 
ATOM     60  C   UNL A   1      39.812  33.419  35.942  1.00  0.00     0.173 A 
ATOM     61  C   UNL A   1      38.312  31.678  36.641  1.00  0.00     0.173 A 
ATOM     62  F   UNL A   1      40.764  33.898  35.125  1.00  0.00    -0.203 F 
ATOM     63  C   UNL A   1      39.395  34.205  37.014  1.00  0.00     0.198 A 
ATOM     64  C   UNL A   1      37.870  32.481  37.689  1.00  0.00     0.198 A 
ATOM     65  F   UNL A   1      37.779  30.455  36.501  1.00  0.00    -0.203 F 
ATOM     66  F   UNL A   1      39.953  35.406  37.220  1.00  0.00    -0.200 F 
ATOM     67  C   UNL A   1      38.419  33.739  37.882  1.00  0.00     0.200 A 
ATOM     68  F   UNL A   1      36.917  32.033  38.517  1.00  0.00    -0.200 F 
ATOM     69  F   UNL A   1      38.014  34.498  38.909  1.00  0.00    -0.200 F 
ENDBRANCH  45  59
BRANCH  46  70
ATOM     70  C   UNL A   1      42.117  26.698  27.795  1.00  0.00     0.064 A 
ATOM     71  C   UNL A   1      41.576  25.438  27.498  1.00  0.00     0.173 A 
ATOM     72  C   UNL A   1      43.095  27.205  26.926  1.00  0.00     0.173 A 
ATOM     73  F   UNL A   1      40.654  24.899  28.308  1.00  0.00    -0.203 F 
ATOM     74  C   UNL A   1      42.007  24.711  26.390  1.00  0.00     0.198 A 
ATOM     75  C   UNL A   1      43.500  26.493  25.800  1.00  0.00     0.198 A 
ATOM     76  F   UNL A   1      43.644  28.406  27.160  1.00  0.00    -0.203 F 
ATOM     77  F   UNL A   1      41.505  23.492  26.154  1.00  0.00    -0.200 F 
ATOM     78  C   UNL A   1      42.962  25.243  25.536  1.00  0.00     0.200 A 
ATOM     79  F   UNL A   1      44.408  27.021  24.966  1.00  0.00    -0.200 F 
ATOM     80  F   UNL A   1      43.365  24.551  24.462  1.00  0.00    -0.200 F 
ENDBRANCH  46  70
BRANCH  58  81
ATOM     81  C   UNL A   1      44.280  27.070  34.417  1.00  0.00     0.064 A 
ATOM     82  C   UNL A   1      45.593  27.553  34.529  1.00  0.00     0.173 A 
ATOM     83  C   UNL A   1      43.976  25.849  35.041  1.00  0.00     0.173 A 
ATOM     84  F   UNL A   1      45.939  28.709  33.944  1.00  0.00    -0.203 F 
ATOM     85  C   UNL A   1      46.574  26.814  35.185  1.00  0.00     0.198 A 
ATOM     86  C   UNL A   1      44.949  25.135  35.734  1.00  0.00     0.198 A 
ATOM     87  F   UNL A   1      42.733  25.348  34.981  1.00  0.00    -0.203 F 
ATOM     88  F   UNL A   1      47.839  27.255  35.205  1.00  0.00    -0.200 F 
ATOM     89  C   UNL A   1      46.250  25.609  35.791  1.00  0.00     0.200 A 
ATOM     90  F   UNL A   1      44.629  23.982  36.338  1.00  0.00    -0.200 F 
ATOM     91  F   UNL A   1      47.197  24.897  36.418  1.00  0.00    -0.200 F 
ENDBRANCH  58  81
ENDBRANCH  32  33
ENDBRANCH  25  27
ENDBRANCH  24  25
ENDBRANCH  23  24
ENDBRANCH  22  23
ENDBRANCH  21  22
ENDBRANCH   1  21
TORSDOF 20
ENDMDL
MODEL 3
REMARK VINA RESULT:     -11.0      3.038      8.608
REMARK SMILES C=CC[N@@H+](CC(=O)OCCOCCOC(=O)c1ccc(-c2c3nc(c(-c4c(F)c(F)c(F)c(F)c4F)c4ccc([nH]4)c(-c4c(F)c(F)c(F)c(F)c4F)c4nc(c(-c5c(F)c(F)c(F)c(F)c5F)c5ccc2[nH]5)C=C4)C=C3)cc1)Cc1ccc([N+](=O)[O-])o1
REMARK SMILES IDX 10 1 9 2 8 3 6 4 7 5 5 6 4 7 3 9 2 10 1 11 80 12 81 13 82 14
REMARK SMILES IDX 88 15 83 16 84 17 85 18 86 19 87 20 11 21 12 22 13 23 14 24
REMARK SMILES IDX 15 25 16 26 17 27 18 28 79 29 19 30 78 31 20 32 21 33 22 34
REMARK SMILES IDX 72 35 23 36 77 37 71 38 73 39 24 40 76 41 70 42 69 43 25 45
REMARK SMILES IDX 57 46 37 47 56 48 38 49 41 50 55 51 74 52 39 53 40 54 54 56
REMARK SMILES IDX 75 57 42 58 26 59 27 60 35 61 28 62 29 63 33 64 36 65 30 66
REMARK SMILES IDX 31 67 34 68 32 69 58 70 59 71 67 72 60 73 61 74 65 75 68 76
REMARK SMILES IDX 62 77 63 78 66 79 64 80 43 81 44 82 52 83 45 84 46 85 50 86
REMARK SMILES IDX 53 87 47 88 48 89 51 90 49 91
REMARK H PARENT 4 8 73 44 41 55
REMARK Flexibility Score: inf
ROOT
ATOM      1  C   UNL A   1      33.294  29.103  24.394  1.00  0.00     0.202 C 
ENDROOT
BRANCH   1   2
ATOM      2  C   UNL A   1      33.444  28.945  22.871  1.00  0.00     0.261 C 
BRANCH   2   3
ATOM      3  O   UNL A   1      32.533  28.011  22.261  1.00  0.00    -0.459 OA
BRANCH   3   4
ATOM      4  C   UNL A   1      32.936  26.712  22.265  1.00  0.00     0.361 C 
ATOM      5  O   UNL A   1      33.976  26.317  21.744  1.00  0.00    -0.245 OA
BRANCH   4   6
ATOM      6  C   UNL A   1      31.957  25.743  22.919  1.00  0.00     0.387 C 
BRANCH   6   7
ATOM      7  N   UNL A   1      31.546  25.958  24.319  1.00  0.00    -0.316 N 
ATOM      8  H   UNL A   1      31.449  26.972  24.368  1.00  0.00     0.349 HD
BRANCH   7   9
ATOM      9  C   UNL A   1      32.584  25.746  25.314  1.00  0.00     0.291 C 
BRANCH   9  10
ATOM     10  C   UNL A   1      33.577  24.697  24.899  1.00  0.00     0.025 C 
ATOM     11  C   UNL A   1      34.877  24.727  25.218  1.00  0.00     0.010 C 
ENDBRANCH   9  10
ENDBRANCH   7   9
BRANCH   7  12
ATOM     12  C   UNL A   1      30.170  25.616  24.671  1.00  0.00     0.339 C 
BRANCH  12  13
ATOM     13  C   UNL A   1      29.124  26.585  24.253  1.00  0.00     0.165 A 
ATOM     14  C   UNL A   1      27.364  26.681  24.175  1.00  0.00     0.059 A 
ATOM     15  O   UNL A   1      29.711  28.120  23.338  1.00  0.00    -0.400 OA
ATOM     16  C   UNL A   1      26.847  28.328  23.282  1.00  0.00     0.134 A 
ATOM     17  C   UNL A   1      28.274  29.148  22.717  1.00  0.00     0.433 A 
BRANCH  17  18
ATOM     18  N   UNL A   1      28.552  30.320  21.972  1.00  0.00     0.102 N 
ATOM     19  O   UNL A   1      29.204  31.193  22.554  1.00  0.00    -0.256 OA
ATOM     20  O   UNL A   1      28.128  30.357  20.814  1.00  0.00    -0.256 OA
ENDBRANCH  17  18
ENDBRANCH  12  13
ENDBRANCH   7  12
ENDBRANCH   6   7
ENDBRANCH   4   6
ENDBRANCH   3   4
ENDBRANCH   2   3
ENDBRANCH   1   2
BRANCH   1  21
ATOM     21  O   UNL A   1      32.101  29.686  24.953  1.00  0.00    -0.374 OA
BRANCH  21  22
ATOM     22  C   UNL A   1      32.082  30.291  26.404  1.00  0.00     0.202 C 
BRANCH  22  23
ATOM     23  C   UNL A   1      32.190  32.440  27.112  1.00  0.00     0.261 C 
BRANCH  23  24
ATOM     24  O   UNL A   1      32.939  32.980  28.432  1.00  0.00    -0.460 OA
BRANCH  24  25
ATOM     25  C   UNL A   1      33.977  33.841  28.289  1.00  0.00     0.338 C 
ATOM     26  O   UNL A   1      33.936  35.057  28.348  1.00  0.00    -0.246 OA
BRANCH  25  27
ATOM     27  C   UNL A   1      35.226  33.067  28.471  1.00  0.00     0.060 A 
ATOM     28  C   UNL A   1      35.102  31.694  28.732  1.00  0.00     0.016 A 
ATOM     29  C   UNL A   1      36.486  33.663  28.409  1.00  0.00     0.016 A 
ATOM     30  C   UNL A   1      36.225  30.930  29.022  1.00  0.00     0.010 A 
ATOM     31  C   UNL A   1      37.616  32.895  28.707  1.00  0.00     0.010 A 
ATOM     32  C   UNL A   1      37.477  31.546  29.084  1.00  0.00    -0.014 A 
BRANCH  32  33
ATOM     33  C   UNL A   1      38.560  30.850  29.821  1.00  0.00     0.031 A 
ATOM     34  C   UNL A   1      38.735  31.169  31.282  1.00  0.00     0.074 A 
ATOM     35  C   UNL A   1      39.300  29.895  29.233  1.00  0.00     0.049 A 
ATOM     36  N   UNL A   1      39.605  30.706  32.141  1.00  0.00    -0.248 NA
ATOM     37  C   UNL A   1      37.797  32.152  31.853  1.00  0.00     0.031 C 
ATOM     38  C   UNL A   1      39.171  29.465  27.843  1.00  0.00     0.029 A 
ATOM     39  N   UNL A   1      40.307  29.114  29.739  1.00  0.00    -0.354 N 
ATOM     40  C   UNL A   1      39.336  31.360  33.339  1.00  0.00     0.074 A 
ATOM     41  C   UNL A   1      38.247  32.276  33.091  1.00  0.00     0.031 C 
ATOM     42  C   UNL A   1      40.073  28.498  27.603  1.00  0.00     0.029 A 
ATOM     43  C   UNL A   1      40.864  28.271  28.811  1.00  0.00     0.049 A 
ATOM     44  H   UNL A   1      40.601  29.155  30.677  1.00  0.00     0.167 HD
ATOM     45  C   UNL A   1      39.940  31.201  34.541  1.00  0.00     0.037 A 
ATOM     46  C   UNL A   1      41.909  27.431  28.925  1.00  0.00     0.037 A 
ATOM     47  C   UNL A   1      41.014  30.273  34.775  1.00  0.00     0.049 A 
ATOM     48  C   UNL A   1      42.599  27.307  30.260  1.00  0.00     0.074 A 
ATOM     49  C   UNL A   1      41.690  30.011  35.953  1.00  0.00     0.029 A 
ATOM     50  N   UNL A   1      41.574  29.456  33.802  1.00  0.00    -0.354 N 
ATOM     51  N   UNL A   1      42.338  27.922  31.389  1.00  0.00    -0.248 NA
ATOM     52  C   UNL A   1      43.717  26.359  30.337  1.00  0.00     0.031 C 
ATOM     53  C   UNL A   1      42.704  29.089  35.677  1.00  0.00     0.029 A 
ATOM     54  C   UNL A   1      42.608  28.711  34.346  1.00  0.00     0.049 A 
ATOM     55  H   UNL A   1      41.279  29.411  32.864  1.00  0.00     0.167 HD
ATOM     56  C   UNL A   1      43.239  27.417  32.318  1.00  0.00     0.074 A 
ATOM     57  C   UNL A   1      44.036  26.428  31.622  1.00  0.00     0.031 C 
ATOM     58  C   UNL A   1      43.393  27.737  33.629  1.00  0.00     0.037 A 
BRANCH  45  59
ATOM     59  C   UNL A   1      39.485  32.083  35.672  1.00  0.00     0.064 A 
ATOM     60  C   UNL A   1      40.030  33.358  35.896  1.00  0.00     0.173 A 
ATOM     61  C   UNL A   1      38.474  31.646  36.542  1.00  0.00     0.173 A 
ATOM     62  F   UNL A   1      41.013  33.821  35.108  1.00  0.00    -0.203 F 
ATOM     63  C   UNL A   1      39.606  34.143  36.966  1.00  0.00     0.198 A 
ATOM     64  C   UNL A   1      38.025  32.450  37.588  1.00  0.00     0.198 A 
ATOM     65  F   UNL A   1      37.916  30.437  36.378  1.00  0.00    -0.203 F 
ATOM     66  F   UNL A   1      40.187  35.329  37.197  1.00  0.00    -0.200 F 
ATOM     67  C   UNL A   1      38.598  33.692  37.805  1.00  0.00     0.200 A 
ATOM     68  F   UNL A   1      37.042  32.017  38.388  1.00  0.00    -0.200 F 
ATOM     69  F   UNL A   1      38.186  34.451  38.830  1.00  0.00    -0.200 F 
ENDBRANCH  45  59
BRANCH  46  70
ATOM     70  C   UNL A   1      42.368  26.655  27.742  1.00  0.00     0.064 A 
ATOM     71  C   UNL A   1      43.321  27.172  26.854  1.00  0.00     0.173 A 
ATOM     72  C   UNL A   1      41.864  25.371  27.480  1.00  0.00     0.173 A 
ATOM     73  F   UNL A   1      43.817  28.402  27.047  1.00  0.00    -0.203 F 
ATOM     74  C   UNL A   1      43.740  26.444  25.742  1.00  0.00     0.198 A 
ATOM     75  C   UNL A   1      42.310  24.630  26.387  1.00  0.00     0.198 A 
ATOM     76  F   UNL A   1      40.953  24.826  28.298  1.00  0.00    -0.203 F 
ATOM     77  F   UNL A   1      44.620  26.980  24.886  1.00  0.00    -0.200 F 
ATOM     78  C   UNL A   1      43.242  25.170  25.514  1.00  0.00     0.200 A 
ATOM     79  F   UNL A   1      41.840  23.391  26.184  1.00  0.00    -0.200 F 
ATOM     80  F   UNL A   1      43.656  24.464  24.454  1.00  0.00    -0.200 F 
ENDBRANCH  46  70
BRANCH  58  81
ATOM     81  C   UNL A   1      44.438  26.974  34.397  1.00  0.00     0.064 A 
ATOM     82  C   UNL A   1      45.752  27.445  34.535  1.00  0.00     0.173 A 
ATOM     83  C   UNL A   1      44.113  25.751  35.006  1.00  0.00     0.173 A 
ATOM     84  F   UNL A   1      46.117  28.604  33.967  1.00  0.00    -0.203 F 
ATOM     85  C   UNL A   1      46.715  26.693  35.202  1.00  0.00     0.198 A 
ATOM     86  C   UNL A   1      45.068  25.023  35.709  1.00  0.00     0.198 A 
ATOM     87  F   UNL A   1      42.868  25.261  34.919  1.00  0.00    -0.203 F 
ATOM     88  F   UNL A   1      47.984  27.124  35.249  1.00  0.00    -0.200 F 
ATOM     89  C   UNL A   1      46.372  25.486  35.792  1.00  0.00     0.200 A 
ATOM     90  F   UNL A   1      44.728  23.868  36.298  1.00  0.00    -0.200 F 
ATOM     91  F   UNL A   1      47.302  24.761  36.430  1.00  0.00    -0.200 F 
ENDBRANCH  58  81
ENDBRANCH  32  33
ENDBRANCH  25  27
ENDBRANCH  24  25
ENDBRANCH  23  24
ENDBRANCH  22  23
ENDBRANCH  21  22
ENDBRANCH   1  21
TORSDOF 20
ENDMDL
