MODEL 1
REMARK VINA RESULT:     -11.1      0.000      0.000
REMARK SMILES CCc1cccc(CC)c1NC(=O)C[C@@](C)(C(=O)OCCOCCOC(=O)c1ccc(-c2c3nc(c(-c4c(F)c(F)c(F)c(F)c4F)c4ccc([nH]4)c(-c4c(F)c(F)c(F)c(F)c4F)c4nc(c(-c5c(F)c(F)c(F)c(F)c5F)c5ccc2[nH]5)C=C4)C=C3)cc1)c1ccccc1
REMARK SMILES IDX 21 1 20 2 19 3 17 4 18 5 15 6 16 7 14 8 12 9 11 10 13 12
REMARK SMILES IDX 10 13 3 14 4 15 5 16 7 17 6 18 2 19 1 20 8 21 9 22 91 23
REMARK SMILES IDX 92 24 96 25 93 26 95 27 94 28 22 29 23 30 24 31 25 32 26 33
REMARK SMILES IDX 27 34 28 35 29 36 90 37 30 38 89 39 31 40 32 41 33 42 83 43
REMARK SMILES IDX 34 44 88 45 82 46 84 47 35 48 87 49 81 50 80 51 36 53 68 54
REMARK SMILES IDX 48 55 67 56 49 57 52 58 66 59 85 60 50 61 51 62 65 64 86 65
REMARK SMILES IDX 53 66 37 67 38 68 46 69 39 70 40 71 44 72 47 73 41 74 42 75
REMARK SMILES IDX 45 76 43 77 69 78 70 79 78 80 71 81 72 82 76 83 79 84 73 85
REMARK SMILES IDX 74 86 77 87 75 88 54 89 55 90 63 91 56 92 57 93 61 94 64 95
REMARK SMILES IDX 58 96 59 97 62 98 60 99
REMARK H PARENT 11 11 84 52 52 63
REMARK Flexibility Score: inf
ROOT
ATOM      1  C   UNL A   1      32.439  30.046  25.829  1.00  0.00     0.202 C 
ENDROOT
BRANCH   1   2
ATOM      2  C   UNL A   1      31.373  29.177  25.156  1.00  0.00     0.261 C 
BRANCH   2   3
ATOM      3  O   UNL A   1      31.539  27.760  25.310  1.00  0.00    -0.463 OA
BRANCH   3   4
ATOM      4  C   UNL A   1      31.150  26.981  24.256  1.00  0.00     0.316 C 
ATOM      5  O   UNL A   1      30.136  27.216  23.605  1.00  0.00    -0.251 OA
BRANCH   4   6
ATOM      6  C   UNL A   1      32.064  25.733  24.026  1.00  0.00     0.099 C 
ATOM      7  C   UNL A   1      33.521  26.229  24.200  1.00  0.00     0.029 C 
BRANCH   6   8
ATOM      8  C   UNL A   1      31.827  25.166  22.591  1.00  0.00     0.123 C 
BRANCH   8   9
ATOM      9  C   UNL A   1      32.985  24.520  21.877  1.00  0.00     0.225 C 
ATOM     10  N   UNL A   1      33.758  23.483  22.262  1.00  0.00    -0.326 N 
ATOM     11  H   UNL A   1      34.321  23.249  21.489  1.00  0.00     0.169 HD
ATOM     12  O   UNL A   1      33.278  24.973  20.755  1.00  0.00    -0.275 OA
BRANCH  10  13
ATOM     13  C   UNL A   1      34.107  22.584  23.305  1.00  0.00     0.047 A 
ATOM     14  C   UNL A   1      33.172  21.501  23.478  1.00  0.00    -0.024 A 
ATOM     15  C   UNL A   1      33.447  20.426  24.352  1.00  0.00     0.006 A 
ATOM     16  C   UNL A   1      34.619  20.372  25.068  1.00  0.00     0.001 A 
ATOM     17  C   UNL A   1      35.260  22.562  24.127  1.00  0.00    -0.024 A 
ATOM     18  C   UNL A   1      35.503  21.425  24.952  1.00  0.00     0.006 A 
BRANCH  14  19
ATOM     19  C   UNL A   1      31.775  21.439  22.860  1.00  0.00     0.034 C 
ATOM     20  C   UNL A   1      31.775  20.644  21.558  1.00  0.00     0.009 C 
ENDBRANCH  14  19
BRANCH  17  21
ATOM     21  C   UNL A   1      36.353  23.586  24.293  1.00  0.00     0.034 C 
ATOM     22  C   UNL A   1      36.480  24.080  25.741  1.00  0.00     0.009 C 
ENDBRANCH  17  21
ENDBRANCH  10  13
ENDBRANCH   8   9
ENDBRANCH   6   8
BRANCH   6  23
ATOM     23  C   UNL A   1      31.900  24.694  25.179  1.00  0.00    -0.030 A 
ATOM     24  C   UNL A   1      32.959  24.489  26.094  1.00  0.00     0.005 A 
ATOM     25  C   UNL A   1      30.813  23.807  25.268  1.00  0.00     0.005 A 
ATOM     26  C   UNL A   1      32.953  23.444  27.019  1.00  0.00     0.000 A 
ATOM     27  C   UNL A   1      30.803  22.761  26.203  1.00  0.00     0.000 A 
ATOM     28  C   UNL A   1      31.876  22.572  27.068  1.00  0.00     0.000 A 
ENDBRANCH   6  23
ENDBRANCH   4   6
ENDBRANCH   3   4
ENDBRANCH   2   3
ENDBRANCH   1   2
BRANCH   1  29
ATOM     29  O   UNL A   1      32.069  30.924  26.879  1.00  0.00    -0.374 OA
BRANCH  29  30
ATOM     30  C   UNL A   1      31.390  32.131  26.556  1.00  0.00     0.202 C 
BRANCH  30  31
ATOM     31  C   UNL A   1      31.827  33.453  27.214  1.00  0.00     0.261 C 
BRANCH  31  32
ATOM     32  O   UNL A   1      33.212  33.810  27.052  1.00  0.00    -0.460 OA
BRANCH  32  33
ATOM     33  C   UNL A   1      33.844  34.125  28.207  1.00  0.00     0.338 C 
ATOM     34  O   UNL A   1      33.497  34.953  29.044  1.00  0.00    -0.246 OA
BRANCH  33  35
ATOM     35  C   UNL A   1      35.013  33.259  28.437  1.00  0.00     0.060 A 
ATOM     36  C   UNL A   1      34.788  31.928  28.812  1.00  0.00     0.016 A 
ATOM     37  C   UNL A   1      36.300  33.798  28.477  1.00  0.00     0.016 A 
ATOM     38  C   UNL A   1      35.844  31.145  29.277  1.00  0.00     0.010 A 
ATOM     39  C   UNL A   1      37.358  33.012  28.951  1.00  0.00     0.010 A 
ATOM     40  C   UNL A   1      37.128  31.696  29.392  1.00  0.00    -0.014 A 
BRANCH  40  41
ATOM     41  C   UNL A   1      38.188  30.953  30.120  1.00  0.00     0.031 A 
ATOM     42  C   UNL A   1      38.421  31.250  31.579  1.00  0.00     0.074 A 
ATOM     43  C   UNL A   1      38.922  30.012  29.501  1.00  0.00     0.049 A 
ATOM     44  N   UNL A   1      39.322  30.761  32.393  1.00  0.00    -0.248 NA
ATOM     45  C   UNL A   1      37.514  32.227  32.204  1.00  0.00     0.031 C 
ATOM     46  C   UNL A   1      38.765  29.600  28.109  1.00  0.00     0.029 A 
ATOM     47  N   UNL A   1      39.956  29.238  29.968  1.00  0.00    -0.354 N 
ATOM     48  C   UNL A   1      39.102  31.381  33.618  1.00  0.00     0.074 A 
ATOM     49  C   UNL A   1      37.992  32.292  33.438  1.00  0.00     0.031 C 
ATOM     50  C   UNL A   1      39.680  28.656  27.827  1.00  0.00     0.029 A 
ATOM     51  C   UNL A   1      40.508  28.423  29.010  1.00  0.00     0.049 A 
ATOM     52  H   UNL A   1      40.273  29.265  30.899  1.00  0.00     0.167 HD
ATOM     53  C   UNL A   1      39.764  31.201  34.786  1.00  0.00     0.037 A 
ATOM     54  C   UNL A   1      41.576  27.603  29.076  1.00  0.00     0.037 A 
ATOM     55  C   UNL A   1      40.854  30.282  34.971  1.00  0.00     0.049 A 
ATOM     56  C   UNL A   1      42.335  27.475  30.372  1.00  0.00     0.074 A 
ATOM     57  C   UNL A   1      41.560  30.003  36.129  1.00  0.00     0.029 A 
ATOM     58  N   UNL A   1      41.401  29.494  33.971  1.00  0.00    -0.354 N 
ATOM     59  N   UNL A   1      42.097  28.037  31.533  1.00  0.00    -0.248 NA
ATOM     60  C   UNL A   1      43.515  26.597  30.367  1.00  0.00     0.031 C 
ATOM     61  C   UNL A   1      42.566  29.084  35.818  1.00  0.00     0.029 A 
ATOM     62  C   UNL A   1      42.455  28.753  34.478  1.00  0.00     0.049 A 
ATOM     63  H   UNL A   1      41.088  29.467  33.037  1.00  0.00     0.167 HD
ATOM     64  C   UNL A   1      43.068  27.553  32.399  1.00  0.00     0.074 A 
ATOM     65  C   UNL A   1      43.897  26.647  31.635  1.00  0.00     0.031 C 
ATOM     66  C   UNL A   1      43.256  27.834  33.712  1.00  0.00     0.037 A 
BRANCH  53  67
ATOM     67  C   UNL A   1      39.347  32.034  35.962  1.00  0.00     0.064 A 
ATOM     68  C   UNL A   1      38.398  31.579  36.889  1.00  0.00     0.173 A 
ATOM     69  C   UNL A   1      39.965  33.270  36.206  1.00  0.00     0.173 A 
ATOM     70  F   UNL A   1      37.773  30.408  36.695  1.00  0.00    -0.203 F 
ATOM     71  C   UNL A   1      38.073  32.338  38.011  1.00  0.00     0.198 A 
ATOM     72  C   UNL A   1      39.655  34.014  37.341  1.00  0.00     0.198 A 
ATOM     73  F   UNL A   1      40.884  33.745  35.353  1.00  0.00    -0.203 F 
ATOM     74  F   UNL A   1      37.143  31.897  38.869  1.00  0.00    -0.200 F 
ATOM     75  C   UNL A   1      38.708  33.549  38.240  1.00  0.00     0.200 A 
ATOM     76  F   UNL A   1      40.280  35.178  37.567  1.00  0.00    -0.200 F 
ATOM     77  F   UNL A   1      38.407  34.271  39.329  1.00  0.00    -0.200 F 
ENDBRANCH  53  67
BRANCH  54  78
ATOM     78  C   UNL A   1      42.017  26.847  27.873  1.00  0.00     0.064 A 
ATOM     79  C   UNL A   1      41.545  25.552  27.619  1.00  0.00     0.173 A 
ATOM     80  C   UNL A   1      42.957  27.385  26.982  1.00  0.00     0.173 A 
ATOM     81  F   UNL A   1      40.666  24.984  28.457  1.00  0.00    -0.203 F 
ATOM     82  C   UNL A   1      42.017  24.813  26.535  1.00  0.00     0.198 A 
ATOM     83  C   UNL A   1      43.405  26.658  25.882  1.00  0.00     0.198 A 
ATOM     84  F   UNL A   1      43.444  28.618  27.180  1.00  0.00    -0.203 F 
ATOM     85  F   UNL A   1      41.592  23.557  26.349  1.00  0.00    -0.200 F 
ATOM     86  C   UNL A   1      42.943  25.368  25.666  1.00  0.00     0.200 A 
ATOM     87  F   UNL A   1      44.293  27.201  25.038  1.00  0.00    -0.200 F 
ATOM     88  F   UNL A   1      43.400  24.655  24.626  1.00  0.00    -0.200 F 
ENDBRANCH  54  78
BRANCH  66  89
ATOM     89  C   UNL A   1      44.365  27.117  34.424  1.00  0.00     0.064 A 
ATOM     90  C   UNL A   1      45.648  27.673  34.541  1.00  0.00     0.173 A 
ATOM     91  C   UNL A   1      44.127  25.879  35.040  1.00  0.00     0.173 A 
ATOM     92  F   UNL A   1      45.930  28.847  33.957  1.00  0.00    -0.203 F 
ATOM     93  C   UNL A   1      46.656  27.005  35.232  1.00  0.00     0.198 A 
ATOM     94  C   UNL A   1      45.129  25.228  35.755  1.00  0.00     0.198 A 
ATOM     95  F   UNL A   1      42.915  25.309  34.964  1.00  0.00    -0.203 F 
ATOM     96  F   UNL A   1      47.886  27.535  35.295  1.00  0.00    -0.200 F 
ATOM     97  C   UNL A   1      46.394  25.788  35.844  1.00  0.00     0.200 A 
ATOM     98  F   UNL A   1      44.869  24.060  36.357  1.00  0.00    -0.200 F 
ATOM     99  F   UNL A   1      47.363  25.152  36.516  1.00  0.00    -0.200 F 
ENDBRANCH  66  89
ENDBRANCH  40  41
ENDBRANCH  33  35
ENDBRANCH  32  33
ENDBRANCH  31  32
ENDBRANCH  30  31
ENDBRANCH  29  30
ENDBRANCH   1  29
TORSDOF 20
ENDMDL
MODEL 2
REMARK VINA RESULT:     -10.8      1.250      2.534
REMARK SMILES CCc1cccc(CC)c1NC(=O)C[C@@](C)(C(=O)OCCOCCOC(=O)c1ccc(-c2c3nc(c(-c4c(F)c(F)c(F)c(F)c4F)c4ccc([nH]4)c(-c4c(F)c(F)c(F)c(F)c4F)c4nc(c(-c5c(F)c(F)c(F)c(F)c5F)c5ccc2[nH]5)C=C4)C=C3)cc1)c1ccccc1
REMARK SMILES IDX 21 1 20 2 19 3 17 4 18 5 15 6 16 7 14 8 12 9 11 10 13 12
REMARK SMILES IDX 10 13 3 14 4 15 5 16 7 17 6 18 2 19 1 20 8 21 9 22 91 23
REMARK SMILES IDX 92 24 96 25 93 26 95 27 94 28 22 29 23 30 24 31 25 32 26 33
REMARK SMILES IDX 27 34 28 35 29 36 90 37 30 38 89 39 31 40 32 41 33 42 83 43
REMARK SMILES IDX 34 44 88 45 82 46 84 47 35 48 87 49 81 50 80 51 36 53 68 54
REMARK SMILES IDX 48 55 67 56 49 57 52 58 66 59 85 60 50 61 51 62 65 64 86 65
REMARK SMILES IDX 53 66 37 67 38 68 46 69 39 70 40 71 44 72 47 73 41 74 42 75
REMARK SMILES IDX 45 76 43 77 69 78 70 79 78 80 71 81 72 82 76 83 79 84 73 85
REMARK SMILES IDX 74 86 77 87 75 88 54 89 55 90 63 91 56 92 57 93 61 94 64 95
REMARK SMILES IDX 58 96 59 97 62 98 60 99
REMARK H PARENT 11 11 84 52 52 63
REMARK Flexibility Score: inf
ROOT
ATOM      1  C   UNL A   1      31.775  29.105  23.576  1.00  0.00     0.202 C 
ENDROOT
BRANCH   1   2
ATOM      2  C   UNL A   1      33.292  29.249  23.431  1.00  0.00     0.261 C 
BRANCH   2   3
ATOM      3  O   UNL A   1      34.038  28.024  23.469  1.00  0.00    -0.463 OA
BRANCH   3   4
ATOM      4  C   UNL A   1      33.653  27.103  24.404  1.00  0.00     0.316 C 
ATOM      5  O   UNL A   1      33.704  27.331  25.608  1.00  0.00    -0.251 OA
BRANCH   4   6
ATOM      6  C   UNL A   1      33.235  25.725  23.793  1.00  0.00     0.099 C 
ATOM      7  C   UNL A   1      33.326  25.890  22.256  1.00  0.00     0.029 C 
BRANCH   6   8
ATOM      8  C   UNL A   1      31.781  25.374  24.239  1.00  0.00     0.123 C 
BRANCH   8   9
ATOM      9  C   UNL A   1      31.151  24.118  23.696  1.00  0.00     0.225 C 
ATOM     10  N   UNL A   1      31.381  22.832  24.031  1.00  0.00    -0.326 N 
ATOM     11  H   UNL A   1      30.694  22.294  23.573  1.00  0.00     0.169 HD
ATOM     12  O   UNL A   1      30.269  24.260  22.830  1.00  0.00    -0.275 OA
BRANCH  10  13
ATOM     13  C   UNL A   1      32.190  21.919  24.759  1.00  0.00     0.047 A 
ATOM     14  C   UNL A   1      32.671  20.811  23.972  1.00  0.00    -0.024 A 
ATOM     15  C   UNL A   1      33.621  19.901  24.488  1.00  0.00     0.006 A 
ATOM     16  C   UNL A   1      34.125  20.043  25.760  1.00  0.00     0.001 A 
ATOM     17  C   UNL A   1      32.643  21.988  26.099  1.00  0.00    -0.024 A 
ATOM     18  C   UNL A   1      33.638  21.069  26.543  1.00  0.00     0.006 A 
BRANCH  14  19
ATOM     19  C   UNL A   1      32.150  20.424  22.589  1.00  0.00     0.034 C 
ATOM     20  C   UNL A   1      32.184  18.913  22.381  1.00  0.00     0.009 C 
ENDBRANCH  14  19
BRANCH  17  21
ATOM     21  C   UNL A   1      32.243  22.921  27.212  1.00  0.00     0.034 C 
ATOM     22  C   UNL A   1      30.730  23.182  27.245  1.00  0.00     0.009 C 
ENDBRANCH  17  21
ENDBRANCH  10  13
ENDBRANCH   8   9
ENDBRANCH   6   8
BRANCH   6  23
ATOM     23  C   UNL A   1      34.300  24.626  24.098  1.00  0.00    -0.030 A 
ATOM     24  C   UNL A   1      34.948  24.608  25.355  1.00  0.00     0.005 A 
ATOM     25  C   UNL A   1      34.794  23.740  23.125  1.00  0.00     0.005 A 
ATOM     26  C   UNL A   1      36.042  23.782  25.618  1.00  0.00     0.000 A 
ATOM     27  C   UNL A   1      35.889  22.904  23.391  1.00  0.00     0.000 A 
ATOM     28  C   UNL A   1      36.520  22.934  24.631  1.00  0.00     0.000 A 
ENDBRANCH   6  23
ENDBRANCH   4   6
ENDBRANCH   3   4
ENDBRANCH   2   3
ENDBRANCH   1   2
BRANCH   1  29
ATOM     29  O   UNL A   1      31.160  29.373  24.826  1.00  0.00    -0.374 OA
BRANCH  29  30
ATOM     30  C   UNL A   1      30.890  30.722  25.183  1.00  0.00     0.202 C 
BRANCH  30  31
ATOM     31  C   UNL A   1      31.442  31.288  26.504  1.00  0.00     0.261 C 
BRANCH  31  32
ATOM     32  O   UNL A   1      32.756  30.841  26.881  1.00  0.00    -0.460 OA
BRANCH  32  33
ATOM     33  C   UNL A   1      33.525  31.795  27.459  1.00  0.00     0.338 C 
ATOM     34  O   UNL A   1      33.185  32.929  27.782  1.00  0.00    -0.246 OA
BRANCH  33  35
ATOM     35  C   UNL A   1      34.868  31.286  27.779  1.00  0.00     0.060 A 
ATOM     36  C   UNL A   1      35.025  29.908  27.980  1.00  0.00     0.016 A 
ATOM     37  C   UNL A   1      35.912  32.167  28.070  1.00  0.00     0.016 A 
ATOM     38  C   UNL A   1      36.210  29.411  28.521  1.00  0.00     0.010 A 
ATOM     39  C   UNL A   1      37.098  31.666  28.621  1.00  0.00     0.010 A 
ATOM     40  C   UNL A   1      37.238  30.292  28.888  1.00  0.00    -0.014 A 
BRANCH  40  41
ATOM     41  C   UNL A   1      38.383  29.796  29.693  1.00  0.00     0.031 A 
ATOM     42  C   UNL A   1      38.570  30.312  31.096  1.00  0.00     0.074 A 
ATOM     43  C   UNL A   1      39.236  28.885  29.193  1.00  0.00     0.049 A 
ATOM     44  N   UNL A   1      39.525  30.057  31.955  1.00  0.00    -0.248 NA
ATOM     45  C   UNL A   1      37.541  31.237  31.599  1.00  0.00     0.031 C 
ATOM     46  C   UNL A   1      39.138  28.274  27.870  1.00  0.00     0.029 A 
ATOM     47  N   UNL A   1      40.361  28.321  29.743  1.00  0.00    -0.354 N 
ATOM     48  C   UNL A   1      39.221  30.800  33.090  1.00  0.00     0.074 A 
ATOM     49  C   UNL A   1      38.002  31.527  32.807  1.00  0.00     0.031 C 
ATOM     50  C   UNL A   1      40.170  27.429  27.702  1.00  0.00     0.029 A 
ATOM     51  C   UNL A   1      41.018  27.465  28.894  1.00  0.00     0.049 A 
ATOM     52  H   UNL A   1      40.668  28.512  30.659  1.00  0.00     0.167 HD
ATOM     53  C   UNL A   1      39.897  30.865  34.262  1.00  0.00     0.037 A 
ATOM     54  C   UNL A   1      42.183  26.806  29.053  1.00  0.00     0.037 A 
ATOM     55  C   UNL A   1      41.097  30.128  34.552  1.00  0.00     0.049 A 
ATOM     56  C   UNL A   1      42.948  26.952  30.344  1.00  0.00     0.074 A 
ATOM     57  C   UNL A   1      41.829  30.100  35.727  1.00  0.00     0.029 A 
ATOM     58  N   UNL A   1      41.746  29.292  33.657  1.00  0.00    -0.354 N 
ATOM     59  N   UNL A   1      42.634  27.627  31.423  1.00  0.00    -0.248 NA
ATOM     60  C   UNL A   1      44.233  26.241  30.439  1.00  0.00     0.031 C 
ATOM     61  C   UNL A   1      42.948  29.286  35.525  1.00  0.00     0.029 A 
ATOM     62  C   UNL A   1      42.886  28.768  34.243  1.00  0.00     0.049 A 
ATOM     63  H   UNL A   1      41.442  29.100  32.740  1.00  0.00     0.167 HD
ATOM     64  C   UNL A   1      43.657  27.393  32.333  1.00  0.00     0.074 A 
ATOM     65  C   UNL A   1      44.601  26.508  31.683  1.00  0.00     0.031 C 
ATOM     66  C   UNL A   1      43.802  27.867  33.593  1.00  0.00     0.037 A 
BRANCH  53  67
ATOM     67  C   UNL A   1      39.371  31.785  35.324  1.00  0.00     0.064 A 
ATOM     68  C   UNL A   1      38.483  31.338  36.314  1.00  0.00     0.173 A 
ATOM     69  C   UNL A   1      39.822  33.111  35.396  1.00  0.00     0.173 A 
ATOM     70  F   UNL A   1      38.015  30.081  36.283  1.00  0.00    -0.203 F 
ATOM     71  C   UNL A   1      38.058  32.190  37.330  1.00  0.00     0.198 A 
ATOM     72  C   UNL A   1      39.415  33.953  36.426  1.00  0.00     0.198 A 
ATOM     73  F   UNL A   1      40.677  33.584  34.476  1.00  0.00    -0.203 F 
ATOM     74  F   UNL A   1      37.189  31.751  38.251  1.00  0.00    -0.200 F 
ATOM     75  C   UNL A   1      38.531  33.493  37.390  1.00  0.00     0.200 A 
ATOM     76  F   UNL A   1      39.883  35.207  36.490  1.00  0.00    -0.200 F 
ATOM     77  F   UNL A   1      38.134  34.307  38.378  1.00  0.00    -0.200 F 
ENDBRANCH  53  67
BRANCH  54  78
ATOM     78  C   UNL A   1      42.724  25.961  27.954  1.00  0.00     0.064 A 
ATOM     79  C   UNL A   1      43.582  26.496  26.984  1.00  0.00     0.173 A 
ATOM     80  C   UNL A   1      42.353  24.615  27.825  1.00  0.00     0.173 A 
ATOM     81  F   UNL A   1      43.943  27.787  27.049  1.00  0.00    -0.203 F 
ATOM     82  C   UNL A   1      44.026  25.726  25.911  1.00  0.00     0.198 A 
ATOM     83  C   UNL A   1      42.822  23.836  26.769  1.00  0.00     0.198 A 
ATOM     84  F   UNL A   1      41.531  24.053  28.724  1.00  0.00    -0.203 F 
ATOM     85  F   UNL A   1      44.798  26.279  24.967  1.00  0.00    -0.200 F 
ATOM     86  C   UNL A   1      43.649  24.396  25.807  1.00  0.00     0.200 A 
ATOM     87  F   UNL A   1      42.463  22.549  26.677  1.00  0.00    -0.200 F 
ATOM     88  F   UNL A   1      44.073  23.656  24.772  1.00  0.00    -0.200 F 
ENDBRANCH  54  78
BRANCH  66  89
ATOM     89  C   UNL A   1      44.994  27.401  34.379  1.00  0.00     0.064 A 
ATOM     90  C   UNL A   1      44.945  26.251  35.181  1.00  0.00     0.173 A 
ATOM     91  C   UNL A   1      46.215  28.087  34.287  1.00  0.00     0.173 A 
ATOM     92  F   UNL A   1      43.797  25.569  35.313  1.00  0.00    -0.203 F 
ATOM     93  C   UNL A   1      46.070  25.818  35.878  1.00  0.00     0.198 A 
ATOM     94  C   UNL A   1      47.345  27.635  34.962  1.00  0.00     0.198 A 
ATOM     95  F   UNL A   1      46.315  29.188  33.527  1.00  0.00    -0.203 F 
ATOM     96  F   UNL A   1      45.989  24.741  36.672  1.00  0.00    -0.200 F 
ATOM     97  C   UNL A   1      47.269  26.505  35.762  1.00  0.00     0.200 A 
ATOM     98  F   UNL A   1      48.506  28.291  34.838  1.00  0.00    -0.200 F 
ATOM     99  F   UNL A   1      48.353  26.080  36.427  1.00  0.00    -0.200 F 
ENDBRANCH  66  89
ENDBRANCH  40  41
ENDBRANCH  33  35
ENDBRANCH  32  33
ENDBRANCH  31  32
ENDBRANCH  30  31
ENDBRANCH  29  30
ENDBRANCH   1  29
TORSDOF 20
ENDMDL
MODEL 3
REMARK VINA RESULT:     -10.6      1.461      2.873
REMARK SMILES CCc1cccc(CC)c1NC(=O)C[C@@](C)(C(=O)OCCOCCOC(=O)c1ccc(-c2c3nc(c(-c4c(F)c(F)c(F)c(F)c4F)c4ccc([nH]4)c(-c4c(F)c(F)c(F)c(F)c4F)c4nc(c(-c5c(F)c(F)c(F)c(F)c5F)c5ccc2[nH]5)C=C4)C=C3)cc1)c1ccccc1
REMARK SMILES IDX 21 1 20 2 19 3 17 4 18 5 15 6 16 7 14 8 12 9 11 10 13 12
REMARK SMILES IDX 10 13 3 14 4 15 5 16 7 17 6 18 2 19 1 20 8 21 9 22 91 23
REMARK SMILES IDX 92 24 96 25 93 26 95 27 94 28 22 29 23 30 24 31 25 32 26 33
REMARK SMILES IDX 27 34 28 35 29 36 90 37 30 38 89 39 31 40 32 41 33 42 83 43
REMARK SMILES IDX 34 44 88 45 82 46 84 47 35 48 87 49 81 50 80 51 36 53 68 54
REMARK SMILES IDX 48 55 67 56 49 57 52 58 66 59 85 60 50 61 51 62 65 64 86 65
REMARK SMILES IDX 53 66 37 67 38 68 46 69 39 70 40 71 44 72 47 73 41 74 42 75
REMARK SMILES IDX 45 76 43 77 69 78 70 79 78 80 71 81 72 82 76 83 79 84 73 85
REMARK SMILES IDX 74 86 77 87 75 88 54 89 55 90 63 91 56 92 57 93 61 94 64 95
REMARK SMILES IDX 58 96 59 97 62 98 60 99
REMARK H PARENT 11 11 84 52 52 63
REMARK Flexibility Score: inf
ROOT
ATOM      1  C   UNL A   1      34.364  29.854  26.992  1.00  0.00     0.202 C 
ENDROOT
BRANCH   1   2
ATOM      2  C   UNL A   1      33.748  28.452  26.971  1.00  0.00     0.261 C 
BRANCH   2   3
ATOM      3  O   UNL A   1      33.175  28.045  25.720  1.00  0.00    -0.463 OA
BRANCH   3   4
ATOM      4  C   UNL A   1      32.820  26.729  25.611  1.00  0.00     0.316 C 
ATOM      5  O   UNL A   1      32.381  26.086  26.559  1.00  0.00    -0.251 OA
BRANCH   4   6
ATOM      6  C   UNL A   1      33.112  26.115  24.201  1.00  0.00     0.099 C 
ATOM      7  C   UNL A   1      33.730  27.255  23.355  1.00  0.00     0.029 C 
BRANCH   6   8
ATOM      8  C   UNL A   1      31.782  25.597  23.569  1.00  0.00     0.123 C 
BRANCH   8   9
ATOM      9  C   UNL A   1      30.901  24.698  24.396  1.00  0.00     0.225 C 
ATOM     10  N   UNL A   1      31.126  23.439  24.826  1.00  0.00    -0.326 N 
ATOM     11  H   UNL A   1      30.397  23.220  25.451  1.00  0.00     0.169 HD
ATOM     12  O   UNL A   1      29.812  25.169  24.772  1.00  0.00    -0.275 OA
BRANCH  10  13
ATOM     13  C   UNL A   1      31.963  22.293  24.763  1.00  0.00     0.047 A 
ATOM     14  C   UNL A   1      32.538  21.922  26.032  1.00  0.00    -0.024 A 
ATOM     15  C   UNL A   1      33.257  20.716  26.188  1.00  0.00     0.006 A 
ATOM     16  C   UNL A   1      33.432  19.850  25.134  1.00  0.00     0.001 A 
ATOM     17  C   UNL A   1      32.241  21.439  23.668  1.00  0.00    -0.024 A 
ATOM     18  C   UNL A   1      32.931  20.213  23.901  1.00  0.00     0.006 A 
BRANCH  14  19
ATOM     19  C   UNL A   1      32.548  22.800  27.283  1.00  0.00     0.034 C 
ATOM     20  C   UNL A   1      33.754  22.498  28.167  1.00  0.00     0.009 C 
ENDBRANCH  14  19
BRANCH  17  21
ATOM     21  C   UNL A   1      31.912  21.598  22.207  1.00  0.00     0.034 C 
ATOM     22  C   UNL A   1      31.875  20.255  21.463  1.00  0.00     0.009 C 
ENDBRANCH  17  21
ENDBRANCH  10  13
ENDBRANCH   8   9
ENDBRANCH   6   8
BRANCH   6  23
ATOM     23  C   UNL A   1      34.261  25.061  24.273  1.00  0.00    -0.030 A 
ATOM     24  C   UNL A   1      34.484  24.191  23.180  1.00  0.00     0.005 A 
ATOM     25  C   UNL A   1      34.994  24.798  25.444  1.00  0.00     0.005 A 
ATOM     26  C   UNL A   1      35.357  23.105  23.258  1.00  0.00     0.000 A 
ATOM     27  C   UNL A   1      35.877  23.711  25.520  1.00  0.00     0.000 A 
ATOM     28  C   UNL A   1      36.049  22.858  24.433  1.00  0.00     0.000 A 
ENDBRANCH   6  23
ENDBRANCH   4   6
ENDBRANCH   3   4
ENDBRANCH   2   3
ENDBRANCH   1   2
BRANCH   1  29
ATOM     29  O   UNL A   1      33.692  30.906  27.664  1.00  0.00    -0.374 OA
BRANCH  29  30
ATOM     30  C   UNL A   1      32.456  31.376  27.141  1.00  0.00     0.202 C 
BRANCH  30  31
ATOM     31  C   UNL A   1      32.087  32.864  27.273  1.00  0.00     0.261 C 
BRANCH  31  32
ATOM     32  O   UNL A   1      33.191  33.786  27.320  1.00  0.00    -0.460 OA
BRANCH  32  33
ATOM     33  C   UNL A   1      33.236  34.544  28.442  1.00  0.00     0.338 C 
ATOM     34  O   UNL A   1      32.449  35.424  28.777  1.00  0.00    -0.246 OA
BRANCH  33  35
ATOM     35  C   UNL A   1      34.330  34.127  29.333  1.00  0.00     0.060 A 
ATOM     36  C   UNL A   1      35.643  34.457  28.971  1.00  0.00     0.016 A 
ATOM     37  C   UNL A   1      34.087  33.259  30.399  1.00  0.00     0.016 A 
ATOM     38  C   UNL A   1      36.719  33.879  29.643  1.00  0.00     0.010 A 
ATOM     39  C   UNL A   1      35.170  32.674  31.068  1.00  0.00     0.010 A 
ATOM     40  C   UNL A   1      36.490  32.949  30.666  1.00  0.00    -0.014 A 
BRANCH  40  41
ATOM     41  C   UNL A   1      37.620  32.147  31.203  1.00  0.00     0.031 A 
ATOM     42  C   UNL A   1      38.130  32.436  32.590  1.00  0.00     0.074 A 
ATOM     43  C   UNL A   1      38.174  31.161  30.476  1.00  0.00     0.049 A 
ATOM     44  N   UNL A   1      39.134  31.899  33.236  1.00  0.00    -0.248 NA
ATOM     45  C   UNL A   1      37.409  33.469  33.353  1.00  0.00     0.031 C 
ATOM     46  C   UNL A   1      37.743  30.752  29.141  1.00  0.00     0.029 A 
ATOM     47  N   UNL A   1      39.229  30.329  30.760  1.00  0.00    -0.354 N 
ATOM     48  C   UNL A   1      39.175  32.537  34.470  1.00  0.00     0.074 A 
ATOM     49  C   UNL A   1      38.105  33.512  34.480  1.00  0.00     0.031 C 
ATOM     50  C   UNL A   1      38.536  29.754  28.714  1.00  0.00     0.029 A 
ATOM     51  C   UNL A   1      39.550  29.478  29.731  1.00  0.00     0.049 A 
ATOM     52  H   UNL A   1      39.710  30.341  31.619  1.00  0.00     0.167 HD
ATOM     53  C   UNL A   1      40.026  32.324  35.502  1.00  0.00     0.037 A 
ATOM     54  C   UNL A   1      40.563  28.596  29.616  1.00  0.00     0.037 A 
ATOM     55  C   UNL A   1      41.077  31.342  35.502  1.00  0.00     0.049 A 
ATOM     56  C   UNL A   1      41.536  28.429  30.756  1.00  0.00     0.074 A 
ATOM     57  C   UNL A   1      41.963  31.028  36.519  1.00  0.00     0.029 A 
ATOM     58  N   UNL A   1      41.387  30.519  34.432  1.00  0.00    -0.354 N 
ATOM     59  N   UNL A   1      41.544  29.010  31.932  1.00  0.00    -0.248 NA
ATOM     60  C   UNL A   1      42.643  27.482  30.552  1.00  0.00     0.031 C 
ATOM     61  C   UNL A   1      42.842  30.048  36.045  1.00  0.00     0.029 A 
ATOM     62  C   UNL A   1      42.471  29.718  34.753  1.00  0.00     0.049 A 
ATOM     63  H   UNL A   1      40.909  30.505  33.571  1.00  0.00     0.167 HD
ATOM     64  C   UNL A   1      42.627  28.473  32.617  1.00  0.00     0.074 A 
ATOM     65  C   UNL A   1      43.250  27.515  31.729  1.00  0.00     0.031 C 
ATOM     66  C   UNL A   1      43.065  28.749  33.869  1.00  0.00     0.037 A 
BRANCH  53  67
ATOM     67  C   UNL A   1      39.878  33.186  36.722  1.00  0.00     0.064 A 
ATOM     68  C   UNL A   1      40.621  34.364  36.887  1.00  0.00     0.173 A 
ATOM     69  C   UNL A   1      38.925  32.866  37.700  1.00  0.00     0.173 A 
ATOM     70  F   UNL A   1      41.551  34.708  35.984  1.00  0.00    -0.203 F 
ATOM     71  C   UNL A   1      40.422  35.185  37.995  1.00  0.00     0.198 A 
ATOM     72  C   UNL A   1      38.711  33.701  38.793  1.00  0.00     0.198 A 
ATOM     73  F   UNL A   1      38.185  31.753  37.584  1.00  0.00    -0.203 F 
ATOM     74  F   UNL A   1      41.161  36.292  38.147  1.00  0.00    -0.200 F 
ATOM     75  C   UNL A   1      39.462  34.857  38.941  1.00  0.00     0.200 A 
ATOM     76  F   UNL A   1      37.774  33.390  39.699  1.00  0.00    -0.200 F 
ATOM     77  F   UNL A   1      39.259  35.657  39.998  1.00  0.00    -0.200 F 
ENDBRANCH  53  67
BRANCH  54  78
ATOM     78  C   UNL A   1      40.734  27.809  28.366  1.00  0.00     0.064 A 
ATOM     79  C   UNL A   1      40.167  26.535  28.229  1.00  0.00     0.173 A 
ATOM     80  C   UNL A   1      41.511  28.294  27.303  1.00  0.00     0.173 A 
ATOM     81  F   UNL A   1      39.438  26.016  29.229  1.00  0.00    -0.203 F 
ATOM     82  C   UNL A   1      40.391  25.765  27.089  1.00  0.00     0.198 A 
ATOM     83  C   UNL A   1      41.710  27.536  26.152  1.00  0.00     0.198 A 
ATOM     84  F   UNL A   1      42.080  29.505  27.384  1.00  0.00    -0.203 F 
ATOM     85  F   UNL A   1      39.885  24.527  27.009  1.00  0.00    -0.200 F 
ATOM     86  C   UNL A   1      41.159  26.267  26.051  1.00  0.00     0.200 A 
ATOM     87  F   UNL A   1      42.445  28.030  25.146  1.00  0.00    -0.200 F 
ATOM     88  F   UNL A   1      41.380  25.525  24.956  1.00  0.00    -0.200 F 
ENDBRANCH  54  78
BRANCH  66  89
ATOM     89  C   UNL A   1      44.242  27.970  34.380  1.00  0.00     0.064 A 
ATOM     90  C   UNL A   1      44.087  26.721  34.999  1.00  0.00     0.173 A 
ATOM     91  C   UNL A   1      45.545  28.459  34.203  1.00  0.00     0.173 A 
ATOM     92  F   UNL A   1      42.860  26.217  35.205  1.00  0.00    -0.203 F 
ATOM     93  C   UNL A   1      45.194  26.000  35.440  1.00  0.00     0.198 A 
ATOM     94  C   UNL A   1      46.651  27.722  34.619  1.00  0.00     0.198 A 
ATOM     95  F   UNL A   1      45.747  29.645  33.609  1.00  0.00    -0.203 F 
ATOM     96  F   UNL A   1      45.020  24.828  36.067  1.00  0.00    -0.200 F 
ATOM     97  C   UNL A   1      46.474  26.497  35.243  1.00  0.00     0.200 A 
ATOM     98  F   UNL A   1      47.887  28.197  34.414  1.00  0.00    -0.200 F 
ATOM     99  F   UNL A   1      47.537  25.797  35.659  1.00  0.00    -0.200 F 
ENDBRANCH  66  89
ENDBRANCH  40  41
ENDBRANCH  33  35
ENDBRANCH  32  33
ENDBRANCH  31  32
ENDBRANCH  30  31
ENDBRANCH  29  30
ENDBRANCH   1  29
TORSDOF 20
ENDMDL
