MODEL 1
REMARK VINA RESULT:     -11.4      0.000      0.000
REMARK SMILES COc1ccc(-n2c(=S)[nH]cc(CC(=O)OCCOCCOC(=O)c3ccc(-c4c5nc(c(-c6c(F)c(F)c(F)c(F)c6F)c6ccc([nH]6)c(-c6c(F)c(F)c(F)c(F)c6F)c6nc(c(-c7c(F)c(F)c(F)c(F)c7F)c7ccc4[nH]7)C=C6)C=C5)cc3)c2=O)cc1Cl
REMARK SMILES IDX 18 1 17 2 16 3 14 4 15 5 13 6 12 7 7 8 8 9 88 10 9 11 10 12
REMARK SMILES IDX 89 13 11 14 6 16 3 17 4 18 91 19 5 20 90 21 92 22 2 23 1 24
REMARK SMILES IDX 19 25 20 26 21 27 22 28 23 29 24 30 25 31 26 32 87 33 27 34
REMARK SMILES IDX 86 35 28 36 29 37 30 38 80 39 31 40 85 41 79 42 81 43 32 44
REMARK SMILES IDX 84 45 78 46 77 47 33 49 65 50 45 51 64 52 46 53 49 54 63 55
REMARK SMILES IDX 82 56 47 57 48 58 62 60 83 61 50 62 34 63 35 64 43 65 36 66
REMARK SMILES IDX 37 67 41 68 44 69 38 70 39 71 42 72 40 73 66 74 67 75 75 76
REMARK SMILES IDX 68 77 69 78 73 79 76 80 70 81 71 82 74 83 72 84 51 85 52 86
REMARK SMILES IDX 60 87 53 88 54 89 58 90 61 91 55 92 56 93 59 94 57 95
REMARK H PARENT 10 15 81 48 49 59
REMARK Flexibility Score: inf
ROOT
ATOM      1  C   UNL A   1      34.464  23.496  26.109  1.00  0.00     0.202 C 
ENDROOT
BRANCH   1   2
ATOM      2  C   UNL A   1      33.843  22.636  27.218  1.00  0.00     0.261 C 
BRANCH   2   3
ATOM      3  O   UNL A   1      32.440  22.896  27.422  1.00  0.00    -0.463 OA
BRANCH   3   4
ATOM      4  C   UNL A   1      31.644  22.663  26.344  1.00  0.00     0.310 C 
ATOM      5  O   UNL A   1      31.602  21.600  25.729  1.00  0.00    -0.252 OA
BRANCH   4   6
ATOM      6  C   UNL A   1      30.729  23.818  25.967  1.00  0.00     0.165 C 
BRANCH   6   7
ATOM      7  C   UNL A   1      31.288  24.925  25.118  1.00  0.00     0.045 A 
ATOM      8  N   UNL A   1      32.199  27.211  25.004  1.00  0.00    -0.253 N 
ATOM      9  C   UNL A   1      32.529  27.025  23.652  1.00  0.00     0.184 A 
ATOM     10  C   UNL A   1      31.491  26.257  25.751  1.00  0.00     0.262 A 
ATOM     11  S   UNL A   1      33.275  28.086  22.585  1.00  0.00    -0.040 S 
ATOM     12  N   UNL A   1      32.276  25.771  23.153  1.00  0.00    -0.338 N 
ATOM     13  O   UNL A   1      31.049  26.443  26.886  1.00  0.00    -0.269 OA
ATOM     14  C   UNL A   1      31.742  24.750  23.874  1.00  0.00     0.095 A 
ATOM     15  H   UNL A   1      32.495  25.599  22.210  1.00  0.00     0.168 HD
BRANCH   8  16
ATOM     16  C   UNL A   1      32.701  28.339  25.729  1.00  0.00     0.053 A 
ATOM     17  C   UNL A   1      33.521  30.498  27.318  1.00  0.00     0.137 A 
ATOM     18  C   UNL A   1      32.242  30.489  26.763  1.00  0.00     0.050 A 
ATOM     19  C   UNL A   1      34.392  29.428  27.085  1.00  0.00     0.085 A 
ATOM     20  C   UNL A   1      31.839  29.423  25.958  1.00  0.00     0.031 A 
ATOM     21  C   UNL A   1      33.986  28.355  26.282  1.00  0.00     0.051 A 
ATOM     22  Cl  UNL A   1      35.956  29.339  27.808  1.00  0.00    -0.080 Cl
BRANCH  17  23
ATOM     23  O   UNL A   1      33.805  31.538  28.164  1.00  0.00    -0.495 OA
ATOM     24  C   UNL A   1      33.392  32.793  27.622  1.00  0.00     0.278 C 
ENDBRANCH  17  23
ENDBRANCH   8  16
ENDBRANCH   6   7
ENDBRANCH   4   6
ENDBRANCH   3   4
ENDBRANCH   2   3
ENDBRANCH   1   2
BRANCH   1  25
ATOM     25  O   UNL A   1      35.366  22.860  25.207  1.00  0.00    -0.374 OA
BRANCH  25  26
ATOM     26  C   UNL A   1      35.332  21.439  25.134  1.00  0.00     0.202 C 
BRANCH  26  27
ATOM     27  C   UNL A   1      36.674  20.695  25.202  1.00  0.00     0.261 C 
BRANCH  27  28
ATOM     28  O   UNL A   1      37.800  21.583  25.070  1.00  0.00    -0.460 OA
BRANCH  28  29
ATOM     29  C   UNL A   1      38.867  21.257  25.841  1.00  0.00     0.338 C 
ATOM     30  O   UNL A   1      39.442  20.179  25.887  1.00  0.00    -0.246 OA
BRANCH  29  31
ATOM     31  C   UNL A   1      39.409  22.460  26.501  1.00  0.00     0.060 A 
ATOM     32  C   UNL A   1      40.471  22.396  27.402  1.00  0.00     0.016 A 
ATOM     33  C   UNL A   1      38.862  23.698  26.133  1.00  0.00     0.016 A 
ATOM     34  C   UNL A   1      41.020  23.587  27.893  1.00  0.00     0.010 A 
ATOM     35  C   UNL A   1      39.412  24.883  26.620  1.00  0.00     0.010 A 
ATOM     36  C   UNL A   1      40.518  24.839  27.477  1.00  0.00    -0.014 A 
BRANCH  36  37
ATOM     37  C   UNL A   1      41.257  26.088  27.795  1.00  0.00     0.031 A 
ATOM     38  C   UNL A   1      42.669  26.312  27.346  1.00  0.00     0.074 A 
ATOM     39  C   UNL A   1      40.638  27.016  28.549  1.00  0.00     0.049 A 
ATOM     40  N   UNL A   1      43.412  27.384  27.479  1.00  0.00    -0.248 NA
ATOM     41  C   UNL A   1      43.345  25.192  26.676  1.00  0.00     0.031 C 
ATOM     42  C   UNL A   1      39.292  26.874  29.108  1.00  0.00     0.029 A 
ATOM     43  N   UNL A   1      41.043  28.258  28.970  1.00  0.00    -0.354 N 
ATOM     44  C   UNL A   1      44.629  27.080  26.887  1.00  0.00     0.074 A 
ATOM     45  C   UNL A   1      44.549  25.701  26.448  1.00  0.00     0.031 C 
ATOM     46  C   UNL A   1      38.965  28.001  29.758  1.00  0.00     0.029 A 
ATOM     47  C   UNL A   1      40.085  28.935  29.686  1.00  0.00     0.049 A 
ATOM     48  H   UNL A   1      41.935  28.628  28.778  1.00  0.00     0.167 HD
ATOM     49  C   UNL A   1      45.701  27.889  26.705  1.00  0.00     0.037 A 
ATOM     50  C   UNL A   1      40.099  30.174  30.215  1.00  0.00     0.037 A 
ATOM     51  C   UNL A   1      45.776  29.255  27.161  1.00  0.00     0.049 A 
ATOM     52  C   UNL A   1      41.311  31.042  30.022  1.00  0.00     0.074 A 
ATOM     53  C   UNL A   1      46.803  30.167  26.983  1.00  0.00     0.029 A 
ATOM     54  N   UNL A   1      44.792  29.902  27.897  1.00  0.00    -0.354 N 
ATOM     55  N   UNL A   1      42.418  30.779  29.369  1.00  0.00    -0.248 NA
ATOM     56  C   UNL A   1      41.278  32.379  30.629  1.00  0.00     0.031 C 
ATOM     57  C   UNL A   1      46.468  31.343  27.660  1.00  0.00     0.029 A 
ATOM     58  C   UNL A   1      45.203  31.190  28.205  1.00  0.00     0.049 A 
ATOM     59  H   UNL A   1      43.931  29.506  28.161  1.00  0.00     0.167 HD
ATOM     60  C   UNL A   1      43.196  31.924  29.460  1.00  0.00     0.074 A 
ATOM     61  C   UNL A   1      42.433  32.890  30.224  1.00  0.00     0.031 C 
ATOM     62  C   UNL A   1      44.432  32.151  28.954  1.00  0.00     0.037 A 
BRANCH  49  63
ATOM     63  C   UNL A   1      46.884  27.340  25.958  1.00  0.00     0.064 A 
ATOM     64  C   UNL A   1      47.020  27.531  24.575  1.00  0.00     0.173 A 
ATOM     65  C   UNL A   1      47.939  26.716  26.640  1.00  0.00     0.173 A 
ATOM     66  F   UNL A   1      46.039  28.121  23.874  1.00  0.00    -0.203 F 
ATOM     67  C   UNL A   1      48.162  27.106  23.901  1.00  0.00     0.198 A 
ATOM     68  C   UNL A   1      49.093  26.319  25.968  1.00  0.00     0.198 A 
ATOM     69  F   UNL A   1      47.868  26.522  27.966  1.00  0.00    -0.203 F 
ATOM     70  F   UNL A   1      48.257  27.276  22.574  1.00  0.00    -0.200 F 
ATOM     71  C   UNL A   1      49.201  26.511  24.598  1.00  0.00     0.200 A 
ATOM     72  F   UNL A   1      50.106  25.763  26.648  1.00  0.00    -0.200 F 
ATOM     73  F   UNL A   1      50.309  26.124  23.952  1.00  0.00    -0.200 F 
ENDBRANCH  49  63
BRANCH  50  74
ATOM     74  C   UNL A   1      38.895  30.680  30.922  1.00  0.00     0.064 A 
ATOM     75  C   UNL A   1      37.871  31.330  30.219  1.00  0.00     0.173 A 
ATOM     76  C   UNL A   1      38.721  30.492  32.301  1.00  0.00     0.173 A 
ATOM     77  F   UNL A   1      37.998  31.548  28.901  1.00  0.00    -0.203 F 
ATOM     78  C   UNL A   1      36.724  31.781  30.869  1.00  0.00     0.198 A 
ATOM     79  C   UNL A   1      37.561  30.916  32.945  1.00  0.00     0.198 A 
ATOM     80  F   UNL A   1      39.667  29.868  33.018  1.00  0.00    -0.203 F 
ATOM     81  F   UNL A   1      35.777  32.429  30.179  1.00  0.00    -0.200 F 
ATOM     82  C   UNL A   1      36.565  31.566  32.230  1.00  0.00     0.200 A 
ATOM     83  F   UNL A   1      37.403  30.690  34.256  1.00  0.00    -0.200 F 
ATOM     84  F   UNL A   1      35.456  31.985  32.851  1.00  0.00    -0.200 F 
ENDBRANCH  50  74
BRANCH  62  85
ATOM     85  C   UNL A   1      45.048  33.502  29.175  1.00  0.00     0.064 A 
ATOM     86  C   UNL A   1      44.805  34.572  28.302  1.00  0.00     0.173 A 
ATOM     87  C   UNL A   1      45.804  33.756  30.330  1.00  0.00     0.173 A 
ATOM     88  F   UNL A   1      44.100  34.378  27.176  1.00  0.00    -0.203 F 
ATOM     89  C   UNL A   1      45.299  35.845  28.576  1.00  0.00     0.198 A 
ATOM     90  C   UNL A   1      46.270  35.035  30.617  1.00  0.00     0.198 A 
ATOM     91  F   UNL A   1      46.059  32.767  31.201  1.00  0.00    -0.203 F 
ATOM     92  F   UNL A   1      45.074  36.848  27.716  1.00  0.00    -0.200 F 
ATOM     93  C   UNL A   1      46.017  36.079  29.739  1.00  0.00     0.200 A 
ATOM     94  F   UNL A   1      46.947  35.263  31.751  1.00  0.00    -0.200 F 
ATOM     95  F   UNL A   1      46.465  37.312  30.016  1.00  0.00    -0.200 F 
ENDBRANCH  62  85
ENDBRANCH  36  37
ENDBRANCH  29  31
ENDBRANCH  28  29
ENDBRANCH  27  28
ENDBRANCH  26  27
ENDBRANCH  25  26
ENDBRANCH   1  25
TORSDOF 17
ENDMDL
MODEL 2
REMARK VINA RESULT:     -11.2      0.756      1.807
REMARK SMILES COc1ccc(-n2c(=S)[nH]cc(CC(=O)OCCOCCOC(=O)c3ccc(-c4c5nc(c(-c6c(F)c(F)c(F)c(F)c6F)c6ccc([nH]6)c(-c6c(F)c(F)c(F)c(F)c6F)c6nc(c(-c7c(F)c(F)c(F)c(F)c7F)c7ccc4[nH]7)C=C6)C=C5)cc3)c2=O)cc1Cl
REMARK SMILES IDX 18 1 17 2 16 3 14 4 15 5 13 6 12 7 7 8 8 9 88 10 9 11 10 12
REMARK SMILES IDX 89 13 11 14 6 16 3 17 4 18 91 19 5 20 90 21 92 22 2 23 1 24
REMARK SMILES IDX 19 25 20 26 21 27 22 28 23 29 24 30 25 31 26 32 87 33 27 34
REMARK SMILES IDX 86 35 28 36 29 37 30 38 80 39 31 40 85 41 79 42 81 43 32 44
REMARK SMILES IDX 84 45 78 46 77 47 33 49 65 50 45 51 64 52 46 53 49 54 63 55
REMARK SMILES IDX 82 56 47 57 48 58 62 60 83 61 50 62 34 63 35 64 43 65 36 66
REMARK SMILES IDX 37 67 41 68 44 69 38 70 39 71 42 72 40 73 66 74 67 75 75 76
REMARK SMILES IDX 68 77 69 78 73 79 76 80 70 81 71 82 74 83 72 84 51 85 52 86
REMARK SMILES IDX 60 87 53 88 54 89 58 90 61 91 55 92 56 93 59 94 57 95
REMARK H PARENT 10 15 81 48 49 59
REMARK Flexibility Score: inf
ROOT
ATOM      1  C   UNL A   1      34.698  23.074  25.326  1.00  0.00     0.202 C 
ENDROOT
BRANCH   1   2
ATOM      2  C   UNL A   1      34.069  22.363  26.531  1.00  0.00     0.261 C 
BRANCH   2   3
ATOM      3  O   UNL A   1      32.696  22.738  26.761  1.00  0.00    -0.463 OA
BRANCH   3   4
ATOM      4  C   UNL A   1      31.817  22.333  25.804  1.00  0.00     0.310 C 
ATOM      5  O   UNL A   1      31.740  21.185  25.374  1.00  0.00    -0.252 OA
BRANCH   4   6
ATOM      6  C   UNL A   1      30.858  23.412  25.325  1.00  0.00     0.165 C 
BRANCH   6   7
ATOM      7  C   UNL A   1      31.428  24.622  24.641  1.00  0.00     0.045 A 
ATOM      8  N   UNL A   1      32.159  26.969  24.818  1.00  0.00    -0.253 N 
ATOM      9  C   UNL A   1      32.670  26.920  23.511  1.00  0.00     0.184 A 
ATOM     10  C   UNL A   1      31.442  25.908  25.392  1.00  0.00     0.262 A 
ATOM     11  S   UNL A   1      33.455  28.117  22.633  1.00  0.00    -0.040 S 
ATOM     12  N   UNL A   1      32.583  25.697  22.892  1.00  0.00    -0.338 N 
ATOM     13  O   UNL A   1      30.847  25.966  26.469  1.00  0.00    -0.269 OA
ATOM     14  C   UNL A   1      32.047  24.585  23.459  1.00  0.00     0.095 A 
ATOM     15  H   UNL A   1      32.932  25.621  21.975  1.00  0.00     0.168 HD
BRANCH   8  16
ATOM     16  C   UNL A   1      32.473  28.065  25.684  1.00  0.00     0.053 A 
ATOM     17  C   UNL A   1      33.287  30.242  27.251  1.00  0.00     0.137 A 
ATOM     18  C   UNL A   1      34.042  29.069  27.243  1.00  0.00     0.050 A 
ATOM     19  C   UNL A   1      32.127  30.331  26.474  1.00  0.00     0.085 A 
ATOM     20  C   UNL A   1      33.628  27.979  26.477  1.00  0.00     0.031 A 
ATOM     21  C   UNL A   1      31.714  29.240  25.701  1.00  0.00     0.051 A 
ATOM     22  Cl  UNL A   1      31.194  31.780  26.376  1.00  0.00    -0.080 Cl
BRANCH  17  23
ATOM     23  O   UNL A   1      33.809  31.291  27.961  1.00  0.00    -0.495 OA
ATOM     24  C   UNL A   1      35.169  31.548  27.610  1.00  0.00     0.278 C 
ENDBRANCH  17  23
ENDBRANCH   8  16
ENDBRANCH   6   7
ENDBRANCH   4   6
ENDBRANCH   3   4
ENDBRANCH   2   3
ENDBRANCH   1   2
BRANCH   1  25
ATOM     25  O   UNL A   1      35.556  22.310  24.482  1.00  0.00    -0.374 OA
BRANCH  25  26
ATOM     26  C   UNL A   1      35.784  20.949  24.834  1.00  0.00     0.202 C 
BRANCH  26  27
ATOM     27  C   UNL A   1      37.228  20.535  25.152  1.00  0.00     0.261 C 
BRANCH  27  28
ATOM     28  O   UNL A   1      38.088  21.668  25.377  1.00  0.00    -0.460 OA
BRANCH  28  29
ATOM     29  C   UNL A   1      39.201  21.396  26.101  1.00  0.00     0.338 C 
ATOM     30  O   UNL A   1      39.833  20.349  26.117  1.00  0.00    -0.246 OA
BRANCH  29  31
ATOM     31  C   UNL A   1      39.705  22.623  26.746  1.00  0.00     0.060 A 
ATOM     32  C   UNL A   1      40.781  22.606  27.632  1.00  0.00     0.016 A 
ATOM     33  C   UNL A   1      39.106  23.837  26.377  1.00  0.00     0.016 A 
ATOM     34  C   UNL A   1      41.291  23.821  28.108  1.00  0.00     0.010 A 
ATOM     35  C   UNL A   1      39.617  25.045  26.849  1.00  0.00     0.010 A 
ATOM     36  C   UNL A   1      40.735  25.049  27.691  1.00  0.00    -0.014 A 
BRANCH  36  37
ATOM     37  C   UNL A   1      41.431  26.328  27.990  1.00  0.00     0.031 A 
ATOM     38  C   UNL A   1      42.837  26.592  27.543  1.00  0.00     0.074 A 
ATOM     39  C   UNL A   1      40.777  27.247  28.726  1.00  0.00     0.049 A 
ATOM     40  N   UNL A   1      43.542  27.691  27.661  1.00  0.00    -0.248 NA
ATOM     41  C   UNL A   1      43.552  25.485  26.895  1.00  0.00     0.031 C 
ATOM     42  C   UNL A   1      39.435  27.069  29.283  1.00  0.00     0.029 A 
ATOM     43  N   UNL A   1      41.139  28.509  29.128  1.00  0.00    -0.354 N 
ATOM     44  C   UNL A   1      44.772  27.418  27.078  1.00  0.00     0.074 A 
ATOM     45  C   UNL A   1      44.740  26.030  26.662  1.00  0.00     0.031 C 
ATOM     46  C   UNL A   1      39.067  28.195  29.912  1.00  0.00     0.029 A 
ATOM     47  C   UNL A   1      40.155  29.165  29.829  1.00  0.00     0.049 A 
ATOM     48  H   UNL A   1      42.018  28.906  28.933  1.00  0.00     0.167 HD
ATOM     49  C   UNL A   1      45.816  28.260  26.887  1.00  0.00     0.037 A 
ATOM     50  C   UNL A   1      40.125  30.412  30.337  1.00  0.00     0.037 A 
ATOM     51  C   UNL A   1      45.843  29.635  27.320  1.00  0.00     0.049 A 
ATOM     52  C   UNL A   1      41.308  31.317  30.133  1.00  0.00     0.074 A 
ATOM     53  C   UNL A   1      46.839  30.578  27.131  1.00  0.00     0.029 A 
ATOM     54  N   UNL A   1      44.834  30.260  28.041  1.00  0.00    -0.354 N 
ATOM     55  N   UNL A   1      42.425  31.081  29.490  1.00  0.00    -0.248 NA
ATOM     56  C   UNL A   1      41.227  32.663  30.717  1.00  0.00     0.031 C 
ATOM     57  C   UNL A   1      46.462  31.753  27.786  1.00  0.00     0.029 A 
ATOM     58  C   UNL A   1      45.200  31.567  28.329  1.00  0.00     0.049 A 
ATOM     59  H   UNL A   1      43.986  29.840  28.309  1.00  0.00     0.167 HD
ATOM     60  C   UNL A   1      43.164  32.253  29.564  1.00  0.00     0.074 A 
ATOM     61  C   UNL A   1      42.366  33.205  30.309  1.00  0.00     0.031 C 
ATOM     62  C   UNL A   1      44.394  32.513  29.059  1.00  0.00     0.037 A 
BRANCH  49  63
ATOM     63  C   UNL A   1      47.020  27.739  26.154  1.00  0.00     0.064 A 
ATOM     64  C   UNL A   1      48.074  27.117  26.840  1.00  0.00     0.173 A 
ATOM     65  C   UNL A   1      47.074  27.763  24.752  1.00  0.00     0.173 A 
ATOM     66  F   UNL A   1      48.072  27.069  28.181  1.00  0.00    -0.203 F 
ATOM     67  C   UNL A   1      49.142  26.550  26.150  1.00  0.00     0.198 A 
ATOM     68  C   UNL A   1      48.130  27.168  24.065  1.00  0.00     0.198 A 
ATOM     69  F   UNL A   1      46.086  28.333  24.045  1.00  0.00    -0.203 F 
ATOM     70  F   UNL A   1      50.151  25.984  26.829  1.00  0.00    -0.200 F 
ATOM     71  C   UNL A   1      49.165  26.566  24.765  1.00  0.00     0.200 A 
ATOM     72  F   UNL A   1      48.139  27.167  22.724  1.00  0.00    -0.200 F 
ATOM     73  F   UNL A   1      50.182  25.999  24.103  1.00  0.00    -0.200 F 
ENDBRANCH  49  63
BRANCH  50  74
ATOM     74  C   UNL A   1      38.901  30.889  31.031  1.00  0.00     0.064 A 
ATOM     75  C   UNL A   1      38.708  30.639  32.397  1.00  0.00     0.173 A 
ATOM     76  C   UNL A   1      37.921  31.635  30.359  1.00  0.00     0.173 A 
ATOM     77  F   UNL A   1      39.609  29.917  33.079  1.00  0.00    -0.203 F 
ATOM     78  C   UNL A   1      37.578  31.109  33.062  1.00  0.00     0.198 A 
ATOM     79  C   UNL A   1      36.807  32.130  31.033  1.00  0.00     0.198 A 
ATOM     80  F   UNL A   1      38.062  31.908  29.054  1.00  0.00    -0.203 F 
ATOM     81  F   UNL A   1      37.403  30.828  34.360  1.00  0.00    -0.200 F 
ATOM     82  C   UNL A   1      36.633  31.862  32.383  1.00  0.00     0.200 A 
ATOM     83  F   UNL A   1      35.905  32.873  30.377  1.00  0.00    -0.200 F 
ATOM     84  F   UNL A   1      35.555  32.327  33.026  1.00  0.00    -0.200 F 
ENDBRANCH  50  74
BRANCH  62  85
ATOM     85  C   UNL A   1      44.963  33.888  29.259  1.00  0.00     0.064 A 
ATOM     86  C   UNL A   1      44.686  34.935  28.368  1.00  0.00     0.173 A 
ATOM     87  C   UNL A   1      45.707  34.186  30.412  1.00  0.00     0.173 A 
ATOM     88  F   UNL A   1      43.992  34.699  27.245  1.00  0.00    -0.203 F 
ATOM     89  C   UNL A   1      45.136  36.229  28.623  1.00  0.00     0.198 A 
ATOM     90  C   UNL A   1      46.128  35.485  30.679  1.00  0.00     0.198 A 
ATOM     91  F   UNL A   1      45.993  33.221  31.299  1.00  0.00    -0.203 F 
ATOM     92  F   UNL A   1      44.879  37.209  27.747  1.00  0.00    -0.200 F 
ATOM     93  C   UNL A   1      45.842  36.505  29.783  1.00  0.00     0.200 A 
ATOM     94  F   UNL A   1      46.794  35.754  31.810  1.00  0.00    -0.200 F 
ATOM     95  F   UNL A   1      46.247  37.757  30.041  1.00  0.00    -0.200 F 
ENDBRANCH  62  85
ENDBRANCH  36  37
ENDBRANCH  29  31
ENDBRANCH  28  29
ENDBRANCH  27  28
ENDBRANCH  26  27
ENDBRANCH  25  26
ENDBRANCH   1  25
TORSDOF 17
ENDMDL
MODEL 3
REMARK VINA RESULT:     -11.0      0.881      7.342
REMARK SMILES COc1ccc(-n2c(=S)[nH]cc(CC(=O)OCCOCCOC(=O)c3ccc(-c4c5nc(c(-c6c(F)c(F)c(F)c(F)c6F)c6ccc([nH]6)c(-c6c(F)c(F)c(F)c(F)c6F)c6nc(c(-c7c(F)c(F)c(F)c(F)c7F)c7ccc4[nH]7)C=C6)C=C5)cc3)c2=O)cc1Cl
REMARK SMILES IDX 18 1 17 2 16 3 14 4 15 5 13 6 12 7 7 8 8 9 88 10 9 11 10 12
REMARK SMILES IDX 89 13 11 14 6 16 3 17 4 18 91 19 5 20 90 21 92 22 2 23 1 24
REMARK SMILES IDX 19 25 20 26 21 27 22 28 23 29 24 30 25 31 26 32 87 33 27 34
REMARK SMILES IDX 86 35 28 36 29 37 30 38 80 39 31 40 85 41 79 42 81 43 32 44
REMARK SMILES IDX 84 45 78 46 77 47 33 49 65 50 45 51 64 52 46 53 49 54 63 55
REMARK SMILES IDX 82 56 47 57 48 58 62 60 83 61 50 62 34 63 35 64 43 65 36 66
REMARK SMILES IDX 37 67 41 68 44 69 38 70 39 71 42 72 40 73 66 74 67 75 75 76
REMARK SMILES IDX 68 77 69 78 73 79 76 80 70 81 71 82 74 83 72 84 51 85 52 86
REMARK SMILES IDX 60 87 53 88 54 89 58 90 61 91 55 92 56 93 59 94 57 95
REMARK H PARENT 10 15 81 48 49 59
REMARK Flexibility Score: inf
ROOT
ATOM      1  C   UNL A   1      34.839  22.659  26.085  1.00  0.00     0.202 C 
ENDROOT
BRANCH   1   2
ATOM      2  C   UNL A   1      33.784  21.969  26.959  1.00  0.00     0.261 C 
BRANCH   2   3
ATOM      3  O   UNL A   1      32.506  22.636  26.944  1.00  0.00    -0.463 OA
BRANCH   3   4
ATOM      4  C   UNL A   1      31.673  22.269  25.932  1.00  0.00     0.310 C 
ATOM      5  O   UNL A   1      31.603  21.133  25.469  1.00  0.00    -0.252 OA
BRANCH   4   6
ATOM      6  C   UNL A   1      30.756  23.373  25.431  1.00  0.00     0.165 C 
BRANCH   6   7
ATOM      7  C   UNL A   1      31.370  24.540  24.711  1.00  0.00     0.045 A 
ATOM      8  N   UNL A   1      32.139  26.879  24.801  1.00  0.00    -0.253 N 
ATOM      9  C   UNL A   1      32.690  26.761  23.516  1.00  0.00     0.184 A 
ATOM     10  C   UNL A   1      31.384  25.860  25.401  1.00  0.00     0.262 A 
ATOM     11  S   UNL A   1      33.525  27.900  22.609  1.00  0.00    -0.040 S 
ATOM     12  N   UNL A   1      32.600  25.511  22.952  1.00  0.00    -0.338 N 
ATOM     13  O   UNL A   1      30.756  25.979  26.454  1.00  0.00    -0.269 OA
ATOM     14  C   UNL A   1      32.025  24.436  23.552  1.00  0.00     0.095 A 
ATOM     15  H   UNL A   1      32.977  25.386  22.052  1.00  0.00     0.168 HD
BRANCH   8  16
ATOM     16  C   UNL A   1      32.445  28.010  25.625  1.00  0.00     0.053 A 
ATOM     17  C   UNL A   1      33.245  30.250  27.109  1.00  0.00     0.137 A 
ATOM     18  C   UNL A   1      34.007  29.082  27.146  1.00  0.00     0.050 A 
ATOM     19  C   UNL A   1      32.084  30.303  26.328  1.00  0.00     0.085 A 
ATOM     20  C   UNL A   1      33.600  27.962  26.422  1.00  0.00     0.031 A 
ATOM     21  C   UNL A   1      31.680  29.180  25.596  1.00  0.00     0.051 A 
ATOM     22  Cl  UNL A   1      31.143  31.741  26.173  1.00  0.00    -0.080 Cl
BRANCH  17  23
ATOM     23  O   UNL A   1      33.760  31.329  27.778  1.00  0.00    -0.495 OA
ATOM     24  C   UNL A   1      35.186  31.293  27.829  1.00  0.00     0.278 C 
ENDBRANCH  17  23
ENDBRANCH   8  16
ENDBRANCH   6   7
ENDBRANCH   4   6
ENDBRANCH   3   4
ENDBRANCH   2   3
ENDBRANCH   1   2
BRANCH   1  25
ATOM     25  O   UNL A   1      36.140  22.080  26.037  1.00  0.00    -0.374 OA
BRANCH  25  26
ATOM     26  C   UNL A   1      36.354  21.016  25.116  1.00  0.00     0.202 C 
BRANCH  26  27
ATOM     27  C   UNL A   1      37.738  20.351  25.114  1.00  0.00     0.261 C 
BRANCH  27  28
ATOM     28  O   UNL A   1      38.806  21.306  25.258  1.00  0.00    -0.460 OA
BRANCH  28  29
ATOM     29  C   UNL A   1      39.581  21.123  26.355  1.00  0.00     0.338 C 
ATOM     30  O   UNL A   1      40.031  20.066  26.773  1.00  0.00    -0.246 OA
BRANCH  29  31
ATOM     31  C   UNL A   1      40.008  22.426  26.902  1.00  0.00     0.060 A 
ATOM     32  C   UNL A   1      41.023  22.533  27.852  1.00  0.00     0.016 A 
ATOM     33  C   UNL A   1      39.403  23.576  26.374  1.00  0.00     0.016 A 
ATOM     34  C   UNL A   1      41.468  23.805  28.232  1.00  0.00     0.010 A 
ATOM     35  C   UNL A   1      39.849  24.841  26.753  1.00  0.00     0.010 A 
ATOM     36  C   UNL A   1      40.908  24.967  27.659  1.00  0.00    -0.014 A 
BRANCH  36  37
ATOM     37  C   UNL A   1      41.548  26.292  27.870  1.00  0.00     0.031 A 
ATOM     38  C   UNL A   1      40.856  27.402  28.601  1.00  0.00     0.074 A 
ATOM     39  C   UNL A   1      42.769  26.496  27.340  1.00  0.00     0.049 A 
ATOM     40  N   UNL A   1      41.321  28.582  28.930  1.00  0.00    -0.248 NA
ATOM     41  C   UNL A   1      39.461  27.171  29.003  1.00  0.00     0.031 C 
ATOM     42  C   UNL A   1      43.507  25.516  26.541  1.00  0.00     0.029 A 
ATOM     43  N   UNL A   1      43.608  27.581  27.393  1.00  0.00    -0.354 N 
ATOM     44  C   UNL A   1      40.289  29.224  29.601  1.00  0.00     0.074 A 
ATOM     45  C   UNL A   1      39.152  28.326  29.579  1.00  0.00     0.031 C 
ATOM     46  C   UNL A   1      44.706  26.024  26.220  1.00  0.00     0.029 A 
ATOM     47  C   UNL A   1      44.813  27.375  26.764  1.00  0.00     0.049 A 
ATOM     48  H   UNL A   1      43.370  28.426  27.839  1.00  0.00     0.167 HD
ATOM     49  C   UNL A   1      40.306  30.438  30.202  1.00  0.00     0.037 A 
ATOM     50  C   UNL A   1      45.889  28.176  26.648  1.00  0.00     0.037 A 
ATOM     51  C   UNL A   1      41.439  31.330  30.205  1.00  0.00     0.049 A 
ATOM     52  C   UNL A   1      45.871  29.530  27.302  1.00  0.00     0.074 A 
ATOM     53  C   UNL A   1      41.564  32.562  30.825  1.00  0.00     0.029 A 
ATOM     54  N   UNL A   1      42.637  31.094  29.543  1.00  0.00    -0.354 N 
ATOM     55  N   UNL A   1      44.927  30.085  28.023  1.00  0.00    -0.248 NA
ATOM     56  C   UNL A   1      47.067  30.367  27.136  1.00  0.00     0.031 C 
ATOM     57  C   UNL A   1      42.811  33.097  30.492  1.00  0.00     0.029 A 
ATOM     58  C   UNL A   1      43.493  32.171  29.718  1.00  0.00     0.049 A 
ATOM     59  H   UNL A   1      42.848  30.283  29.027  1.00  0.00     0.167 HD
ATOM     60  C   UNL A   1      45.424  31.317  28.421  1.00  0.00     0.074 A 
ATOM     61  C   UNL A   1      46.759  31.429  27.868  1.00  0.00     0.031 C 
ATOM     62  C   UNL A   1      44.825  32.269  29.176  1.00  0.00     0.037 A 
BRANCH  49  63
ATOM     63  C   UNL A   1      39.072  30.881  30.938  1.00  0.00     0.064 A 
ATOM     64  C   UNL A   1      38.891  30.579  32.296  1.00  0.00     0.173 A 
ATOM     65  C   UNL A   1      38.119  31.700  30.316  1.00  0.00     0.173 A 
ATOM     66  F   UNL A   1      39.773  29.799  32.939  1.00  0.00    -0.203 F 
ATOM     67  C   UNL A   1      37.795  31.072  33.000  1.00  0.00     0.198 A 
ATOM     68  C   UNL A   1      37.039  32.215  31.031  1.00  0.00     0.198 A 
ATOM     69  F   UNL A   1      38.250  32.031  29.022  1.00  0.00    -0.203 F 
ATOM     70  F   UNL A   1      37.630  30.749  34.291  1.00  0.00    -0.200 F 
ATOM     71  C   UNL A   1      36.877  31.897  32.371  1.00  0.00     0.200 A 
ATOM     72  F   UNL A   1      36.163  33.029  30.425  1.00  0.00    -0.200 F 
ATOM     73  F   UNL A   1      35.835  32.389  33.056  1.00  0.00    -0.200 F 
ENDBRANCH  49  63
BRANCH  50  74
ATOM     74  C   UNL A   1      47.094  27.683  25.933  1.00  0.00     0.064 A 
ATOM     75  C   UNL A   1      47.183  27.766  24.536  1.00  0.00     0.173 A 
ATOM     76  C   UNL A   1      48.194  27.157  26.627  1.00  0.00     0.173 A 
ATOM     77  F   UNL A   1      46.151  28.247  23.828  1.00  0.00    -0.203 F 
ATOM     78  C   UNL A   1      48.322  27.334  23.861  1.00  0.00     0.198 A 
ATOM     79  C   UNL A   1      49.344  26.754  25.952  1.00  0.00     0.198 A 
ATOM     80  F   UNL A   1      48.162  27.063  27.964  1.00  0.00    -0.203 F 
ATOM     81  F   UNL A   1      48.368  27.394  22.523  1.00  0.00    -0.200 F 
ATOM     82  C   UNL A   1      49.406  26.837  24.569  1.00  0.00     0.200 A 
ATOM     83  F   UNL A   1      50.395  26.291  26.642  1.00  0.00    -0.200 F 
ATOM     84  F   UNL A   1      50.506  26.436  23.920  1.00  0.00    -0.200 F 
ENDBRANCH  50  74
BRANCH  62  85
ATOM     85  C   UNL A   1      45.602  33.516  29.487  1.00  0.00     0.064 A 
ATOM     86  C   UNL A   1      46.465  33.588  30.590  1.00  0.00     0.173 A 
ATOM     87  C   UNL A   1      45.561  34.613  28.611  1.00  0.00     0.173 A 
ATOM     88  F   UNL A   1      46.529  32.573  31.465  1.00  0.00    -0.203 F 
ATOM     89  C   UNL A   1      47.256  34.714  30.806  1.00  0.00     0.198 A 
ATOM     90  C   UNL A   1      46.376  35.722  28.813  1.00  0.00     0.198 A 
ATOM     91  F   UNL A   1      44.757  34.590  27.538  1.00  0.00    -0.203 F 
ATOM     92  F   UNL A   1      48.057  34.771  31.879  1.00  0.00    -0.200 F 
ATOM     93  C   UNL A   1      47.222  35.772  29.911  1.00  0.00     0.200 A 
ATOM     94  F   UNL A   1      46.356  36.736  27.936  1.00  0.00    -0.200 F 
ATOM     95  F   UNL A   1      48.007  36.842  30.104  1.00  0.00    -0.200 F 
ENDBRANCH  62  85
ENDBRANCH  36  37
ENDBRANCH  29  31
ENDBRANCH  28  29
ENDBRANCH  27  28
ENDBRANCH  26  27
ENDBRANCH  25  26
ENDBRANCH   1  25
TORSDOF 17
ENDMDL
