MODEL 1
REMARK VINA RESULT:     -10.4      0.000      0.000
REMARK SMILES Nc1nnc(S[C@H](F)C(=O)OCCOCCOC(=O)c2ccc(-c3c4nc(c(-c5c(F)c(F)c(F)c(F)c5F)c5ccc([nH]5)c(-c5c(F)c(F)c(F)c(F)c5F)c5nc(c(-c6c(F)c(F)c(F)c(F)c6F)c6ccc3[nH]6)C=C5)C=C4)cc2)s1
REMARK SMILES IDX 13 1 12 2 11 3 9 4 10 5 7 6 8 7 6 8 5 9 2 10 3 11 83 12 4 13
REMARK SMILES IDX 1 14 14 17 15 18 16 19 17 20 18 21 19 22 20 23 21 24 82 25
REMARK SMILES IDX 22 26 81 27 23 28 24 29 25 30 75 31 26 32 80 33 74 34 76 35
REMARK SMILES IDX 27 36 79 37 73 38 72 39 28 41 60 42 40 43 59 44 41 45 44 46
REMARK SMILES IDX 58 47 77 48 42 49 43 50 57 52 78 53 45 54 29 55 30 56 38 57
REMARK SMILES IDX 31 58 32 59 36 60 39 61 33 62 34 63 37 64 35 65 61 66 62 67
REMARK SMILES IDX 70 68 63 69 64 70 68 71 71 72 65 73 66 74 69 75 67 76 46 77
REMARK SMILES IDX 47 78 55 79 48 80 49 81 53 82 56 83 50 84 51 85 54 86 52 87
REMARK H PARENT 1 15 1 16 76 40 44 51
REMARK Flexibility Score: inf
ROOT
ATOM      1  C   UNL A   1      31.495  27.761  23.920  1.00  0.00     0.202 C 
ENDROOT
BRANCH   1   2
ATOM      2  C   UNL A   1      31.404  27.306  22.466  1.00  0.00     0.261 C 
BRANCH   2   3
ATOM      3  O   UNL A   1      31.553  25.880  22.365  1.00  0.00    -0.460 OA
BRANCH   3   4
ATOM      4  C   UNL A   1      32.830  25.422  22.214  1.00  0.00     0.351 C 
ATOM      5  O   UNL A   1      33.723  25.991  21.592  1.00  0.00    -0.248 OA
BRANCH   4   6
ATOM      6  C   UNL A   1      33.030  24.108  22.934  1.00  0.00     0.340 C 
ATOM      7  F   UNL A   1      33.785  23.238  22.190  1.00  0.00    -0.222 F 
BRANCH   6   8
ATOM      8  S   UNL A   1      33.751  24.197  24.591  1.00  0.00    -0.044 SA
BRANCH   8   9
ATOM      9  C   UNL A   1      32.494  23.739  25.705  1.00  0.00     0.179 A 
ATOM     10  C   UNL A   1      30.533  22.989  26.823  1.00  0.00     0.203 A 
ATOM     11  N   UNL A   1      31.568  23.064  27.627  1.00  0.00    -0.120 NA
ATOM     12  S   UNL A   1      30.876  23.458  25.206  1.00  0.00    -0.069 S 
ATOM     13  N   UNL A   1      32.705  23.471  26.970  1.00  0.00    -0.130 NA
BRANCH  10  14
ATOM     14  N   UNL A   1      29.316  22.578  27.201  1.00  0.00    -0.374 N 
ATOM     15  H   UNL A   1      28.869  21.848  26.714  1.00  0.00     0.159 HD
ATOM     16  H   UNL A   1      28.868  23.005  27.967  1.00  0.00     0.159 HD
ENDBRANCH  10  14
ENDBRANCH   8   9
ENDBRANCH   6   8
ENDBRANCH   4   6
ENDBRANCH   3   4
ENDBRANCH   2   3
ENDBRANCH   1   2
BRANCH   1  17
ATOM     17  O   UNL A   1      32.791  28.190  24.336  1.00  0.00    -0.374 OA
BRANCH  17  18
ATOM     18  C   UNL A   1      32.919  29.551  24.748  1.00  0.00     0.202 C 
BRANCH  18  19
ATOM     19  C   UNL A   1      31.877  30.020  25.768  1.00  0.00     0.261 C 
BRANCH  19  20
ATOM     20  O   UNL A   1      32.454  30.183  27.077  1.00  0.00    -0.460 OA
BRANCH  20  21
ATOM     21  C   UNL A   1      33.150  31.327  27.257  1.00  0.00     0.338 C 
ATOM     22  O   UNL A   1      32.729  32.474  27.180  1.00  0.00    -0.246 OA
BRANCH  21  23
ATOM     23  C   UNL A   1      34.515  31.024  27.724  1.00  0.00     0.060 A 
ATOM     24  C   UNL A   1      34.830  29.682  27.970  1.00  0.00     0.016 A 
ATOM     25  C   UNL A   1      35.443  32.032  27.996  1.00  0.00     0.016 A 
ATOM     26  C   UNL A   1      36.050  29.346  28.551  1.00  0.00     0.010 A 
ATOM     27  C   UNL A   1      36.666  31.694  28.585  1.00  0.00     0.010 A 
ATOM     28  C   UNL A   1      36.956  30.355  28.902  1.00  0.00    -0.014 A 
BRANCH  28  29
ATOM     29  C   UNL A   1      38.125  30.020  29.748  1.00  0.00     0.031 A 
ATOM     30  C   UNL A   1      39.149  29.053  29.223  1.00  0.00     0.074 A 
ATOM     31  C   UNL A   1      38.287  30.587  30.955  1.00  0.00     0.049 A 
ATOM     32  N   UNL A   1      40.238  28.603  29.794  1.00  0.00    -0.248 NA
ATOM     33  C   UNL A   1      38.908  28.517  27.876  1.00  0.00     0.031 C 
ATOM     34  C   UNL A   1      37.375  31.553  31.559  1.00  0.00     0.029 A 
ATOM     35  N   UNL A   1      39.275  30.416  31.892  1.00  0.00    -0.354 N 
ATOM     36  C   UNL A   1      40.807  27.728  28.877  1.00  0.00     0.074 A 
ATOM     37  C   UNL A   1      39.927  27.684  27.730  1.00  0.00     0.031 C 
ATOM     38  C   UNL A   1      37.835  31.877  32.780  1.00  0.00     0.029 A 
ATOM     39  C   UNL A   1      39.058  31.122  33.047  1.00  0.00     0.049 A 
ATOM     40  H   UNL A   1      40.062  29.843  31.749  1.00  0.00     0.167 HD
ATOM     41  C   UNL A   1      41.964  27.032  28.981  1.00  0.00     0.037 A 
ATOM     42  C   UNL A   1      39.759  31.139  34.198  1.00  0.00     0.037 A 
ATOM     43  C   UNL A   1      42.837  27.075  30.125  1.00  0.00     0.049 A 
ATOM     44  C   UNL A   1      41.018  30.323  34.312  1.00  0.00     0.074 A 
ATOM     45  C   UNL A   1      44.050  26.437  30.312  1.00  0.00     0.029 A 
ATOM     46  N   UNL A   1      42.578  27.791  31.285  1.00  0.00    -0.354 N 
ATOM     47  N   UNL A   1      41.574  29.532  33.427  1.00  0.00    -0.248 NA
ATOM     48  C   UNL A   1      41.751  30.407  35.583  1.00  0.00     0.031 C 
ATOM     49  C   UNL A   1      44.500  26.727  31.605  1.00  0.00     0.029 A 
ATOM     50  C   UNL A   1      43.593  27.585  32.205  1.00  0.00     0.049 A 
ATOM     51  H   UNL A   1      41.788  28.361  31.432  1.00  0.00     0.167 HD
ATOM     52  C   UNL A   1      42.727  29.039  34.023  1.00  0.00     0.074 A 
ATOM     53  C   UNL A   1      42.798  29.631  35.343  1.00  0.00     0.031 C 
ATOM     54  C   UNL A   1      43.645  28.175  33.520  1.00  0.00     0.037 A 
BRANCH  41  55
ATOM     55  C   UNL A   1      42.329  26.137  27.832  1.00  0.00     0.064 A 
ATOM     56  C   UNL A   1      43.200  26.558  26.815  1.00  0.00     0.173 A 
ATOM     57  C   UNL A   1      41.796  24.842  27.745  1.00  0.00     0.173 A 
ATOM     58  F   UNL A   1      43.723  27.792  26.844  1.00  0.00    -0.203 F 
ATOM     59  C   UNL A   1      43.492  25.730  25.735  1.00  0.00     0.198 A 
ATOM     60  C   UNL A   1      42.115  24.006  26.679  1.00  0.00     0.198 A 
ATOM     61  F   UNL A   1      40.963  24.388  28.693  1.00  0.00    -0.203 F 
ATOM     62  F   UNL A   1      44.278  26.175  24.745  1.00  0.00    -0.200 F 
ATOM     63  C   UNL A   1      42.953  24.454  25.669  1.00  0.00     0.200 A 
ATOM     64  F   UNL A   1      41.601  22.769  26.622  1.00  0.00    -0.200 F 
ATOM     65  F   UNL A   1      43.232  23.659  24.627  1.00  0.00    -0.200 F 
ENDBRANCH  41  55
BRANCH  42  66
ATOM     66  C   UNL A   1      39.266  31.957  35.335  1.00  0.00     0.064 A 
ATOM     67  C   UNL A   1      39.534  33.329  35.412  1.00  0.00     0.173 A 
ATOM     68  C   UNL A   1      38.488  31.383  36.351  1.00  0.00     0.173 A 
ATOM     69  F   UNL A   1      40.294  33.917  34.477  1.00  0.00    -0.203 F 
ATOM     70  C   UNL A   1      39.043  34.098  36.465  1.00  0.00     0.198 A 
ATOM     71  C   UNL A   1      37.978  32.156  37.390  1.00  0.00     0.198 A 
ATOM     72  F   UNL A   1      38.206  30.072  36.320  1.00  0.00    -0.203 F 
ATOM     73  F   UNL A   1      39.334  35.404  36.532  1.00  0.00    -0.200 F 
ATOM     74  C   UNL A   1      38.258  33.513  37.448  1.00  0.00     0.200 A 
ATOM     75  F   UNL A   1      37.210  31.589  38.331  1.00  0.00    -0.200 F 
ATOM     76  F   UNL A   1      37.773  34.255  38.453  1.00  0.00    -0.200 F 
ENDBRANCH  42  66
BRANCH  54  77
ATOM     77  C   UNL A   1      44.815  27.827  34.394  1.00  0.00     0.064 A 
ATOM     78  C   UNL A   1      45.963  28.632  34.439  1.00  0.00     0.173 A 
ATOM     79  C   UNL A   1      44.769  26.701  35.230  1.00  0.00     0.173 A 
ATOM     80  F   UNL A   1      46.062  29.711  33.647  1.00  0.00    -0.203 F 
ATOM     81  C   UNL A   1      47.030  28.311  35.274  1.00  0.00     0.198 A 
ATOM     82  C   UNL A   1      45.825  26.398  36.084  1.00  0.00     0.198 A 
ATOM     83  F   UNL A   1      43.692  25.902  35.230  1.00  0.00    -0.203 F 
ATOM     84  F   UNL A   1      48.134  29.071  35.271  1.00  0.00    -0.200 F 
ATOM     85  C   UNL A   1      46.957  27.200  36.101  1.00  0.00     0.200 A 
ATOM     86  F   UNL A   1      45.749  25.331  36.891  1.00  0.00    -0.200 F 
ATOM     87  F   UNL A   1      47.982  26.896  36.910  1.00  0.00    -0.200 F 
ENDBRANCH  54  77
ENDBRANCH  28  29
ENDBRANCH  21  23
ENDBRANCH  20  21
ENDBRANCH  19  20
ENDBRANCH  18  19
ENDBRANCH  17  18
ENDBRANCH   1  17
TORSDOF 17
ENDMDL
MODEL 2
REMARK VINA RESULT:     -10.3      1.052      7.673
REMARK SMILES Nc1nnc(S[C@H](F)C(=O)OCCOCCOC(=O)c2ccc(-c3c4nc(c(-c5c(F)c(F)c(F)c(F)c5F)c5ccc([nH]5)c(-c5c(F)c(F)c(F)c(F)c5F)c5nc(c(-c6c(F)c(F)c(F)c(F)c6F)c6ccc3[nH]6)C=C5)C=C4)cc2)s1
REMARK SMILES IDX 13 1 12 2 11 3 9 4 10 5 7 6 8 7 6 8 5 9 2 10 3 11 83 12 4 13
REMARK SMILES IDX 1 14 14 17 15 18 16 19 17 20 18 21 19 22 20 23 21 24 82 25
REMARK SMILES IDX 22 26 81 27 23 28 24 29 25 30 75 31 26 32 80 33 74 34 76 35
REMARK SMILES IDX 27 36 79 37 73 38 72 39 28 41 60 42 40 43 59 44 41 45 44 46
REMARK SMILES IDX 58 47 77 48 42 49 43 50 57 52 78 53 45 54 29 55 30 56 38 57
REMARK SMILES IDX 31 58 32 59 36 60 39 61 33 62 34 63 37 64 35 65 61 66 62 67
REMARK SMILES IDX 70 68 63 69 64 70 68 71 71 72 65 73 66 74 69 75 67 76 46 77
REMARK SMILES IDX 47 78 55 79 48 80 49 81 53 82 56 83 50 84 51 85 54 86 52 87
REMARK H PARENT 1 15 1 16 76 40 44 51
REMARK Flexibility Score: inf
ROOT
ATOM      1  C   UNL A   1      32.916  29.265  26.519  1.00  0.00     0.202 C 
ENDROOT
BRANCH   1   2
ATOM      2  C   UNL A   1      32.330  28.254  25.538  1.00  0.00     0.261 C 
BRANCH   2   3
ATOM      3  O   UNL A   1      33.352  27.380  25.031  1.00  0.00    -0.460 OA
BRANCH   3   4
ATOM      4  C   UNL A   1      33.447  27.296  23.672  1.00  0.00     0.351 C 
ATOM      5  O   UNL A   1      33.755  28.216  22.920  1.00  0.00    -0.248 OA
BRANCH   4   6
ATOM      6  C   UNL A   1      33.139  25.897  23.187  1.00  0.00     0.340 C 
ATOM      7  F   UNL A   1      33.550  25.714  21.890  1.00  0.00    -0.222 F 
BRANCH   6   8
ATOM      8  S   UNL A   1      33.798  24.535  24.178  1.00  0.00    -0.044 SA
BRANCH   8   9
ATOM      9  C   UNL A   1      32.540  24.078  25.291  1.00  0.00     0.179 A 
ATOM     10  C   UNL A   1      30.660  23.181  26.440  1.00  0.00     0.203 A 
ATOM     11  N   UNL A   1      31.550  23.690  27.260  1.00  0.00    -0.120 NA
ATOM     12  S   UNL A   1      31.091  23.312  24.782  1.00  0.00    -0.069 S 
ATOM     13  N   UNL A   1      32.647  24.182  26.593  1.00  0.00    -0.130 NA
BRANCH  10  14
ATOM     14  N   UNL A   1      29.521  22.599  26.835  1.00  0.00    -0.374 N 
ATOM     15  H   UNL A   1      29.035  22.949  27.617  1.00  0.00     0.159 HD
ATOM     16  H   UNL A   1      29.168  21.823  26.343  1.00  0.00     0.159 HD
ENDBRANCH  10  14
ENDBRANCH   8   9
ENDBRANCH   6   8
ENDBRANCH   4   6
ENDBRANCH   3   4
ENDBRANCH   2   3
ENDBRANCH   1   2
BRANCH   1  17
ATOM     17  O   UNL A   1      31.978  30.199  27.053  1.00  0.00    -0.374 OA
BRANCH  17  18
ATOM     18  C   UNL A   1      31.643  31.318  26.233  1.00  0.00     0.202 C 
BRANCH  18  19
ATOM     19  C   UNL A   1      31.872  32.688  26.879  1.00  0.00     0.261 C 
BRANCH  19  20
ATOM     20  O   UNL A   1      32.809  32.609  27.970  1.00  0.00    -0.460 OA
BRANCH  20  21
ATOM     21  C   UNL A   1      33.886  33.417  27.858  1.00  0.00     0.338 C 
ATOM     22  O   UNL A   1      33.892  34.620  27.630  1.00  0.00    -0.246 OA
BRANCH  21  23
ATOM     23  C   UNL A   1      35.114  32.680  28.203  1.00  0.00     0.060 A 
ATOM     24  C   UNL A   1      34.980  31.330  28.553  1.00  0.00     0.016 A 
ATOM     25  C   UNL A   1      36.360  33.308  28.265  1.00  0.00     0.016 A 
ATOM     26  C   UNL A   1      36.079  30.619  29.030  1.00  0.00     0.010 A 
ATOM     27  C   UNL A   1      37.462  32.595  28.750  1.00  0.00     0.010 A 
ATOM     28  C   UNL A   1      37.315  31.262  29.173  1.00  0.00    -0.014 A 
BRANCH  28  29
ATOM     29  C   UNL A   1      38.404  30.586  29.917  1.00  0.00     0.031 A 
ATOM     30  C   UNL A   1      38.622  30.934  31.362  1.00  0.00     0.074 A 
ATOM     31  C   UNL A   1      39.172  29.659  29.321  1.00  0.00     0.049 A 
ATOM     32  N   UNL A   1      39.521  30.483  32.201  1.00  0.00    -0.248 NA
ATOM     33  C   UNL A   1      37.705  31.929  31.938  1.00  0.00     0.031 C 
ATOM     34  C   UNL A   1      39.043  29.224  27.934  1.00  0.00     0.029 A 
ATOM     35  N   UNL A   1      40.225  28.928  29.812  1.00  0.00    -0.354 N 
ATOM     36  C   UNL A   1      39.280  31.144  33.399  1.00  0.00     0.074 A 
ATOM     37  C   UNL A   1      38.175  32.049  33.170  1.00  0.00     0.031 C 
ATOM     38  C   UNL A   1      39.997  28.313  27.676  1.00  0.00     0.029 A 
ATOM     39  C   UNL A   1      40.814  28.122  28.873  1.00  0.00     0.049 A 
ATOM     40  H   UNL A   1      40.528  28.979  30.747  1.00  0.00     0.167 HD
ATOM     41  C   UNL A   1      39.918  31.000  34.584  1.00  0.00     0.037 A 
ATOM     42  C   UNL A   1      41.904  27.336  28.965  1.00  0.00     0.037 A 
ATOM     43  C   UNL A   1      41.019  30.100  34.809  1.00  0.00     0.049 A 
ATOM     44  C   UNL A   1      42.629  27.224  30.279  1.00  0.00     0.074 A 
ATOM     45  C   UNL A   1      41.709  29.853  35.983  1.00  0.00     0.029 A 
ATOM     46  N   UNL A   1      41.600  29.308  33.829  1.00  0.00    -0.354 N 
ATOM     47  N   UNL A   1      42.371  27.816  31.419  1.00  0.00    -0.248 NA
ATOM     48  C   UNL A   1      43.793  26.327  30.321  1.00  0.00     0.031 C 
ATOM     49  C   UNL A   1      42.739  28.949  35.701  1.00  0.00     0.029 A 
ATOM     50  C   UNL A   1      42.661  28.594  34.364  1.00  0.00     0.049 A 
ATOM     51  H   UNL A   1      41.302  29.260  32.892  1.00  0.00     0.167 HD
ATOM     52  C   UNL A   1      43.324  27.355  32.317  1.00  0.00     0.074 A 
ATOM     53  C   UNL A   1      44.160  26.420  31.591  1.00  0.00     0.031 C 
ATOM     54  C   UNL A   1      43.490  27.675  33.625  1.00  0.00     0.037 A 
BRANCH  41  55
ATOM     55  C   UNL A   1      39.455  31.866  35.720  1.00  0.00     0.064 A 
ATOM     56  C   UNL A   1      38.441  31.453  36.598  1.00  0.00     0.173 A 
ATOM     57  C   UNL A   1      40.030  33.128  35.929  1.00  0.00     0.173 A 
ATOM     58  F   UNL A   1      37.848  30.262  36.432  1.00  0.00    -0.203 F 
ATOM     59  C   UNL A   1      37.994  32.288  37.619  1.00  0.00     0.198 A 
ATOM     60  C   UNL A   1      39.602  33.948  36.969  1.00  0.00     0.198 A 
ATOM     61  F   UNL A   1      41.006  33.569  35.121  1.00  0.00    -0.203 F 
ATOM     62  F   UNL A   1      36.984  31.898  38.408  1.00  0.00    -0.200 F 
ATOM     63  C   UNL A   1      38.577  33.533  37.806  1.00  0.00     0.200 A 
ATOM     64  F   UNL A   1      40.173  35.147  37.155  1.00  0.00    -0.200 F 
ATOM     65  F   UNL A   1      38.143  34.338  38.786  1.00  0.00    -0.200 F 
ENDBRANCH  41  55
BRANCH  42  66
ATOM     66  C   UNL A   1      42.373  26.603  27.762  1.00  0.00     0.064 A 
ATOM     67  C   UNL A   1      43.332  27.155  26.904  1.00  0.00     0.173 A 
ATOM     68  C   UNL A   1      41.892  25.319  27.468  1.00  0.00     0.173 A 
ATOM     69  F   UNL A   1      43.804  28.389  27.132  1.00  0.00    -0.203 F 
ATOM     70  C   UNL A   1      43.792  26.450  25.793  1.00  0.00     0.198 A 
ATOM     71  C   UNL A   1      42.369  24.606  26.371  1.00  0.00     0.198 A 
ATOM     72  F   UNL A   1      40.972  24.749  28.260  1.00  0.00    -0.203 F 
ATOM     73  F   UNL A   1      44.691  27.010  24.972  1.00  0.00    -0.200 F 
ATOM     74  C   UNL A   1      43.317  25.173  25.533  1.00  0.00     0.200 A 
ATOM     75  F   UNL A   1      41.916  23.367  26.130  1.00  0.00    -0.200 F 
ATOM     76  F   UNL A   1      43.770  24.490  24.474  1.00  0.00    -0.200 F 
ENDBRANCH  42  66
BRANCH  54  77
ATOM     77  C   UNL A   1      44.610  26.999  34.363  1.00  0.00     0.064 A 
ATOM     78  C   UNL A   1      45.901  27.546  34.397  1.00  0.00     0.173 A 
ATOM     79  C   UNL A   1      44.377  25.816  35.081  1.00  0.00     0.173 A 
ATOM     80  F   UNL A   1      46.178  28.668  33.715  1.00  0.00    -0.203 F 
ATOM     81  C   UNL A   1      46.923  26.922  35.108  1.00  0.00     0.198 A 
ATOM     82  C   UNL A   1      45.394  25.210  35.812  1.00  0.00     0.198 A 
ATOM     83  F   UNL A   1      43.159  25.256  35.085  1.00  0.00    -0.203 F 
ATOM     84  F   UNL A   1      48.160  27.439  35.094  1.00  0.00    -0.200 F 
ATOM     85  C   UNL A   1      46.668  25.760  35.821  1.00  0.00     0.200 A 
ATOM     86  F   UNL A   1      45.143  24.094  36.510  1.00  0.00    -0.200 F 
ATOM     87  F   UNL A   1      47.651  25.165  36.510  1.00  0.00    -0.200 F 
ENDBRANCH  54  77
ENDBRANCH  28  29
ENDBRANCH  21  23
ENDBRANCH  20  21
ENDBRANCH  19  20
ENDBRANCH  18  19
ENDBRANCH  17  18
ENDBRANCH   1  17
TORSDOF 17
ENDMDL
MODEL 3
REMARK VINA RESULT:     -10.3      2.473      8.071
REMARK SMILES Nc1nnc(S[C@H](F)C(=O)OCCOCCOC(=O)c2ccc(-c3c4nc(c(-c5c(F)c(F)c(F)c(F)c5F)c5ccc([nH]5)c(-c5c(F)c(F)c(F)c(F)c5F)c5nc(c(-c6c(F)c(F)c(F)c(F)c6F)c6ccc3[nH]6)C=C5)C=C4)cc2)s1
REMARK SMILES IDX 13 1 12 2 11 3 9 4 10 5 7 6 8 7 6 8 5 9 2 10 3 11 83 12 4 13
REMARK SMILES IDX 1 14 14 17 15 18 16 19 17 20 18 21 19 22 20 23 21 24 82 25
REMARK SMILES IDX 22 26 81 27 23 28 24 29 25 30 75 31 26 32 80 33 74 34 76 35
REMARK SMILES IDX 27 36 79 37 73 38 72 39 28 41 60 42 40 43 59 44 41 45 44 46
REMARK SMILES IDX 58 47 77 48 42 49 43 50 57 52 78 53 45 54 29 55 30 56 38 57
REMARK SMILES IDX 31 58 32 59 36 60 39 61 33 62 34 63 37 64 35 65 61 66 62 67
REMARK SMILES IDX 70 68 63 69 64 70 68 71 71 72 65 73 66 74 69 75 67 76 46 77
REMARK SMILES IDX 47 78 55 79 48 80 49 81 53 82 56 83 50 84 51 85 54 86 52 87
REMARK H PARENT 1 15 1 16 76 40 44 51
REMARK Flexibility Score: inf
ROOT
ATOM      1  C   UNL A   1      33.019  30.146  26.892  1.00  0.00     0.202 C 
ENDROOT
BRANCH   1   2
ATOM      2  C   UNL A   1      32.670  28.825  27.571  1.00  0.00     0.261 C 
BRANCH   2   3
ATOM      3  O   UNL A   1      32.769  27.731  26.644  1.00  0.00    -0.460 OA
BRANCH   3   4
ATOM      4  C   UNL A   1      31.589  27.268  26.136  1.00  0.00     0.351 C 
ATOM      5  O   UNL A   1      30.790  26.551  26.730  1.00  0.00    -0.248 OA
BRANCH   4   6
ATOM      6  C   UNL A   1      31.366  27.769  24.728  1.00  0.00     0.340 C 
ATOM      7  F   UNL A   1      32.419  27.449  23.908  1.00  0.00    -0.222 F 
BRANCH   6   8
ATOM      8  S   UNL A   1      29.842  27.236  23.912  1.00  0.00    -0.044 SA
BRANCH   8   9
ATOM      9  C   UNL A   1      29.354  28.541  22.868  1.00  0.00     0.179 A 
ATOM     10  C   UNL A   1      28.388  30.438  21.808  1.00  0.00     0.203 A 
ATOM     11  N   UNL A   1      29.522  30.079  21.252  1.00  0.00    -0.120 NA
ATOM     12  S   UNL A   1      27.917  29.442  23.126  1.00  0.00    -0.069 S 
ATOM     13  N   UNL A   1      30.091  29.000  21.885  1.00  0.00    -0.130 NA
BRANCH  10  14
ATOM     14  N   UNL A   1      27.654  31.485  21.409  1.00  0.00    -0.374 N 
ATOM     15  H   UNL A   1      26.920  31.815  21.976  1.00  0.00     0.159 HD
ATOM     16  H   UNL A   1      27.850  31.925  20.551  1.00  0.00     0.159 HD
ENDBRANCH  10  14
ENDBRANCH   8   9
ENDBRANCH   6   8
ENDBRANCH   4   6
ENDBRANCH   3   4
ENDBRANCH   2   3
ENDBRANCH   1   2
BRANCH   1  17
ATOM     17  O   UNL A   1      31.943  30.764  26.187  1.00  0.00    -0.374 OA
BRANCH  17  18
ATOM     18  C   UNL A   1      31.347  31.910  26.794  1.00  0.00     0.202 C 
BRANCH  18  19
ATOM     19  C   UNL A   1      32.247  33.148  26.864  1.00  0.00     0.261 C 
BRANCH  19  20
ATOM     20  O   UNL A   1      32.588  33.479  28.224  1.00  0.00    -0.460 OA
BRANCH  20  21
ATOM     21  C   UNL A   1      33.706  34.223  28.369  1.00  0.00     0.338 C 
ATOM     22  O   UNL A   1      33.790  35.445  28.381  1.00  0.00    -0.246 OA
BRANCH  21  23
ATOM     23  C   UNL A   1      34.859  33.356  28.672  1.00  0.00     0.060 A 
ATOM     24  C   UNL A   1      34.599  32.135  29.306  1.00  0.00     0.016 A 
ATOM     25  C   UNL A   1      36.172  33.759  28.421  1.00  0.00     0.016 A 
ATOM     26  C   UNL A   1      35.652  31.340  29.751  1.00  0.00     0.010 A 
ATOM     27  C   UNL A   1      37.230  32.964  28.873  1.00  0.00     0.010 A 
ATOM     28  C   UNL A   1      36.973  31.773  29.576  1.00  0.00    -0.014 A 
BRANCH  28  29
ATOM     29  C   UNL A   1      38.070  31.061  30.273  1.00  0.00     0.031 A 
ATOM     30  C   UNL A   1      38.337  31.375  31.718  1.00  0.00     0.074 A 
ATOM     31  C   UNL A   1      38.802  30.132  29.636  1.00  0.00     0.049 A 
ATOM     32  N   UNL A   1      39.251  30.889  32.521  1.00  0.00    -0.248 NA
ATOM     33  C   UNL A   1      37.457  32.375  32.341  1.00  0.00     0.031 C 
ATOM     34  C   UNL A   1      38.623  29.728  28.245  1.00  0.00     0.029 A 
ATOM     35  N   UNL A   1      39.854  29.371  30.081  1.00  0.00    -0.354 N 
ATOM     36  C   UNL A   1      39.059  31.529  33.738  1.00  0.00     0.074 A 
ATOM     37  C   UNL A   1      37.965  32.460  33.560  1.00  0.00     0.031 C 
ATOM     38  C   UNL A   1      39.550  28.804  27.940  1.00  0.00     0.029 A 
ATOM     39  C   UNL A   1      40.399  28.573  29.108  1.00  0.00     0.049 A 
ATOM     40  H   UNL A   1      40.185  29.397  31.007  1.00  0.00     0.167 HD
ATOM     41  C   UNL A   1      39.729  31.349  34.901  1.00  0.00     0.037 A 
ATOM     42  C   UNL A   1      41.475  27.764  29.152  1.00  0.00     0.037 A 
ATOM     43  C   UNL A   1      40.818  30.424  35.075  1.00  0.00     0.049 A 
ATOM     44  C   UNL A   1      42.236  27.611  30.441  1.00  0.00     0.074 A 
ATOM     45  C   UNL A   1      41.537  30.139  36.221  1.00  0.00     0.029 A 
ATOM     46  N   UNL A   1      41.354  29.641  34.062  1.00  0.00    -0.354 N 
ATOM     47  N   UNL A   1      42.024  28.185  31.600  1.00  0.00    -0.248 NA
ATOM     48  C   UNL A   1      43.383  26.692  30.430  1.00  0.00     0.031 C 
ATOM     49  C   UNL A   1      42.541  29.221  35.891  1.00  0.00     0.029 A 
ATOM     50  C   UNL A   1      42.416  28.896  34.550  1.00  0.00     0.049 A 
ATOM     51  H   UNL A   1      41.027  29.618  33.133  1.00  0.00     0.167 HD
ATOM     52  C   UNL A   1      42.994  27.686  32.460  1.00  0.00     0.074 A 
ATOM     53  C   UNL A   1      43.789  26.752  31.690  1.00  0.00     0.031 C 
ATOM     54  C   UNL A   1      43.205  27.976  33.769  1.00  0.00     0.037 A 
BRANCH  41  55
ATOM     55  C   UNL A   1      39.317  32.200  36.067  1.00  0.00     0.064 A 
ATOM     56  C   UNL A   1      39.880  33.466  36.294  1.00  0.00     0.173 A 
ATOM     57  C   UNL A   1      38.348  31.741  36.971  1.00  0.00     0.173 A 
ATOM     58  F   UNL A   1      40.821  33.944  35.467  1.00  0.00    -0.203 F 
ATOM     59  C   UNL A   1      39.516  34.222  37.405  1.00  0.00     0.198 A 
ATOM     60  C   UNL A   1      37.965  32.514  38.064  1.00  0.00     0.198 A 
ATOM     61  F   UNL A   1      37.775  30.541  36.798  1.00  0.00    -0.203 F 
ATOM     62  F   UNL A   1      40.110  35.401  37.635  1.00  0.00    -0.200 F 
ATOM     63  C   UNL A   1      38.557  33.747  38.287  1.00  0.00     0.200 A 
ATOM     64  F   UNL A   1      37.030  32.058  38.911  1.00  0.00    -0.200 F 
ATOM     65  F   UNL A   1      38.210  34.474  39.358  1.00  0.00    -0.200 F 
ENDBRANCH  41  55
BRANCH  42  66
ATOM     66  C   UNL A   1      41.894  27.048  27.921  1.00  0.00     0.064 A 
ATOM     67  C   UNL A   1      42.789  27.627  27.013  1.00  0.00     0.173 A 
ATOM     68  C   UNL A   1      41.429  25.753  27.648  1.00  0.00     0.173 A 
ATOM     69  F   UNL A   1      43.241  28.872  27.219  1.00  0.00    -0.203 F 
ATOM     70  C   UNL A   1      43.203  26.938  25.875  1.00  0.00     0.198 A 
ATOM     71  C   UNL A   1      41.862  25.056  26.523  1.00  0.00     0.198 A 
ATOM     72  F   UNL A   1      40.570  25.157  28.488  1.00  0.00    -0.203 F 
ATOM     73  F   UNL A   1      44.039  27.522  25.007  1.00  0.00    -0.200 F 
ATOM     74  C   UNL A   1      42.746  25.650  25.636  1.00  0.00     0.200 A 
ATOM     75  F   UNL A   1      41.428  23.807  26.302  1.00  0.00    -0.200 F 
ATOM     76  F   UNL A   1      43.156  24.982  24.549  1.00  0.00    -0.200 F 
ENDBRANCH  42  66
BRANCH  54  77
ATOM     77  C   UNL A   1      44.332  27.264  34.459  1.00  0.00     0.064 A 
ATOM     78  C   UNL A   1      45.610  27.834  34.555  1.00  0.00     0.173 A 
ATOM     79  C   UNL A   1      44.119  26.019  35.069  1.00  0.00     0.173 A 
ATOM     80  F   UNL A   1      45.868  29.016  33.976  1.00  0.00    -0.203 F 
ATOM     81  C   UNL A   1      46.639  27.174  35.222  1.00  0.00     0.198 A 
ATOM     82  C   UNL A   1      45.142  25.375  35.758  1.00  0.00     0.198 A 
ATOM     83  F   UNL A   1      42.914  25.434  35.011  1.00  0.00    -0.203 F 
ATOM     84  F   UNL A   1      47.863  27.717  35.267  1.00  0.00    -0.200 F 
ATOM     85  C   UNL A   1      46.403  25.949  35.829  1.00  0.00     0.200 A 
ATOM     86  F   UNL A   1      44.909  24.197  36.354  1.00  0.00    -0.200 F 
ATOM     87  F   UNL A   1      47.392  25.318  36.476  1.00  0.00    -0.200 F 
ENDBRANCH  54  77
ENDBRANCH  28  29
ENDBRANCH  21  23
ENDBRANCH  20  21
ENDBRANCH  19  20
ENDBRANCH  18  19
ENDBRANCH  17  18
ENDBRANCH   1  17
TORSDOF 17
ENDMDL
