MODEL 1
REMARK VINA RESULT:     -11.5      0.000      0.000
REMARK SMILES O=C(Cc1csc(NC(=O)[C@H]2CC(=O)N(C3CC3)C2)n1)OCCOCCOC(=O)c1ccc(-c2c3nc(c(-c4c(F)c(F)c(F)c(F)c4F)c4ccc([nH]4)c(-c4c(F)c(F)c(F)c(F)c4F)c4nc(c(-c5c(F)c(F)c(F)c(F)c5F)c5ccc2[nH]5)C=C4)C=C3)cc1
REMARK SMILES IDX 23 1 22 2 21 3 2 4 1 5 3 6 4 7 5 8 20 9 6 10 7 11 8 12 9 13
REMARK SMILES IDX 10 15 11 16 12 17 19 18 13 19 15 20 14 21 16 22 17 23 18 24
REMARK SMILES IDX 24 25 25 26 26 27 27 28 28 29 29 30 30 31 31 32 92 33 32 34
REMARK SMILES IDX 91 35 33 36 34 37 35 38 85 39 36 40 90 41 84 42 86 43 37 44
REMARK SMILES IDX 89 45 83 46 82 47 38 49 70 50 50 51 69 52 51 53 54 54 68 55
REMARK SMILES IDX 87 56 52 57 53 58 67 60 88 61 55 62 39 63 40 64 48 65 41 66
REMARK SMILES IDX 42 67 46 68 49 69 43 70 44 71 47 72 45 73 71 74 72 75 80 76
REMARK SMILES IDX 73 77 74 78 78 79 81 80 75 81 76 82 79 83 77 84 56 85 57 86
REMARK SMILES IDX 65 87 58 88 59 89 63 90 66 91 60 92 61 93 64 94 62 95
REMARK H PARENT 8 14 86 48 54 59
REMARK Flexibility Score: inf
ROOT
ATOM      1  C   UNL A   1      39.818  21.646  26.846  1.00  0.00     0.202 C 
ENDROOT
BRANCH   1   2
ATOM      2  C   UNL A   1      38.903  21.238  25.695  1.00  0.00     0.261 C 
BRANCH   2   3
ATOM      3  O   UNL A   1      37.994  22.282  25.301  1.00  0.00    -0.463 OA
BRANCH   3   4
ATOM      4  C   UNL A   1      36.696  22.084  24.967  1.00  0.00     0.311 C 
ATOM      5  O   UNL A   1      36.196  22.746  24.058  1.00  0.00    -0.252 OA
BRANCH   4   6
ATOM      6  C   UNL A   1      35.869  21.091  25.741  1.00  0.00     0.179 C 
BRANCH   6   7
ATOM      7  C   UNL A   1      34.434  21.095  25.358  1.00  0.00     0.065 A 
ATOM      8  C   UNL A   1      33.829  20.386  24.339  1.00  0.00     0.093 A 
ATOM      9  N   UNL A   1      33.565  21.867  26.113  1.00  0.00    -0.224 NA
ATOM     10  S   UNL A   1      32.174  20.822  24.253  1.00  0.00    -0.105 S 
ATOM     11  C   UNL A   1      32.334  21.667  25.715  1.00  0.00     0.189 A 
BRANCH  11  12
ATOM     12  N   UNL A   1      31.287  22.214  26.392  1.00  0.00    -0.302 N 
ATOM     13  C   UNL A   1      30.712  23.437  26.380  1.00  0.00     0.231 C 
ATOM     14  H   UNL A   1      30.861  21.589  27.020  1.00  0.00     0.172 HD
ATOM     15  O   UNL A   1      29.886  23.651  27.278  1.00  0.00    -0.274 OA
BRANCH  13  16
ATOM     16  C   UNL A   1      31.005  24.528  25.359  1.00  0.00     0.107 C 
ATOM     17  C   UNL A   1      29.851  25.420  24.903  1.00  0.00     0.115 C 
ATOM     18  C   UNL A   1      31.932  25.550  26.028  1.00  0.00     0.133 C 
ATOM     19  C   UNL A   1      30.474  26.770  24.677  1.00  0.00     0.223 C 
ATOM     20  N   UNL A   1      31.704  26.781  25.321  1.00  0.00    -0.339 N 
ATOM     21  O   UNL A   1      29.931  27.670  24.055  1.00  0.00    -0.275 OA
BRANCH  20  22
ATOM     22  C   UNL A   1      32.569  27.902  25.513  1.00  0.00     0.085 C 
ATOM     23  C   UNL A   1      33.879  27.827  26.243  1.00  0.00     0.027 C 
ATOM     24  C   UNL A   1      33.862  28.026  24.753  1.00  0.00     0.027 C 
ENDBRANCH  20  22
ENDBRANCH  13  16
ENDBRANCH  11  12
ENDBRANCH   6   7
ENDBRANCH   4   6
ENDBRANCH   3   4
ENDBRANCH   2   3
ENDBRANCH   1   2
BRANCH   1  25
ATOM     25  O   UNL A   1      40.876  20.749  27.168  1.00  0.00    -0.374 OA
BRANCH  25  26
ATOM     26  C   UNL A   1      41.791  20.427  26.116  1.00  0.00     0.202 C 
BRANCH  26  27
ATOM     27  C   UNL A   1      42.887  21.457  25.818  1.00  0.00     0.261 C 
BRANCH  27  28
ATOM     28  O   UNL A   1      42.352  22.659  25.240  1.00  0.00    -0.460 OA
BRANCH  28  29
ATOM     29  C   UNL A   1      43.203  23.711  25.201  1.00  0.00     0.338 C 
ATOM     30  O   UNL A   1      44.097  23.916  24.397  1.00  0.00    -0.246 OA
BRANCH  29  31
ATOM     31  C   UNL A   1      42.741  24.724  26.169  1.00  0.00     0.060 A 
ATOM     32  C   UNL A   1      43.327  25.998  26.119  1.00  0.00     0.016 A 
ATOM     33  C   UNL A   1      41.743  24.435  27.100  1.00  0.00     0.016 A 
ATOM     34  C   UNL A   1      42.929  26.984  27.018  1.00  0.00     0.010 A 
ATOM     35  C   UNL A   1      41.358  25.418  28.011  1.00  0.00     0.010 A 
ATOM     36  C   UNL A   1      41.962  26.688  27.987  1.00  0.00    -0.014 A 
BRANCH  36  37
ATOM     37  C   UNL A   1      41.648  27.659  29.059  1.00  0.00     0.031 A 
ATOM     38  C   UNL A   1      42.417  27.583  30.345  1.00  0.00     0.074 A 
ATOM     39  C   UNL A   1      40.661  28.557  28.895  1.00  0.00     0.049 A 
ATOM     40  N   UNL A   1      42.214  28.215  31.471  1.00  0.00    -0.248 NA
ATOM     41  C   UNL A   1      43.566  26.662  30.369  1.00  0.00     0.031 C 
ATOM     42  C   UNL A   1      39.876  28.737  27.675  1.00  0.00     0.029 A 
ATOM     43  N   UNL A   1      40.127  29.464  29.776  1.00  0.00    -0.354 N 
ATOM     44  C   UNL A   1      43.190  27.751  32.343  1.00  0.00     0.074 A 
ATOM     45  C   UNL A   1      43.981  26.779  31.622  1.00  0.00     0.031 C 
ATOM     46  C   UNL A   1      38.935  29.671  27.895  1.00  0.00     0.029 A 
ATOM     47  C   UNL A   1      39.023  30.117  29.284  1.00  0.00     0.049 A 
ATOM     48  H   UNL A   1      40.499  29.630  30.673  1.00  0.00     0.167 HD
ATOM     49  C   UNL A   1      43.398  28.109  33.631  1.00  0.00     0.037 A 
ATOM     50  C   UNL A   1      38.155  30.940  29.905  1.00  0.00     0.037 A 
ATOM     51  C   UNL A   1      42.608  29.089  34.329  1.00  0.00     0.049 A 
ATOM     52  C   UNL A   1      38.374  31.267  31.362  1.00  0.00     0.074 A 
ATOM     53  C   UNL A   1      42.775  29.569  35.615  1.00  0.00     0.029 A 
ATOM     54  N   UNL A   1      41.496  29.727  33.802  1.00  0.00    -0.354 N 
ATOM     55  N   UNL A   1      39.331  30.870  32.166  1.00  0.00    -0.248 NA
ATOM     56  C   UNL A   1      37.387  32.149  32.000  1.00  0.00     0.031 C 
ATOM     57  C   UNL A   1      41.721  30.444  35.892  1.00  0.00     0.029 A 
ATOM     58  C   UNL A   1      40.936  30.560  34.755  1.00  0.00     0.049 A 
ATOM     59  H   UNL A   1      41.154  29.605  32.886  1.00  0.00     0.167 HD
ATOM     60  C   UNL A   1      39.075  31.472  33.392  1.00  0.00     0.074 A 
ATOM     61  C   UNL A   1      37.887  32.279  33.220  1.00  0.00     0.031 C 
ATOM     62  C   UNL A   1      39.756  31.361  34.559  1.00  0.00     0.037 A 
BRANCH  49  63
ATOM     63  C   UNL A   1      44.494  27.426  34.391  1.00  0.00     0.064 A 
ATOM     64  C   UNL A   1      44.262  26.272  35.152  1.00  0.00     0.173 A 
ATOM     65  C   UNL A   1      45.816  27.885  34.279  1.00  0.00     0.173 A 
ATOM     66  F   UNL A   1      43.015  25.800  35.302  1.00  0.00    -0.203 F 
ATOM     67  C   UNL A   1      45.313  25.603  35.775  1.00  0.00     0.198 A 
ATOM     68  C   UNL A   1      46.867  27.199  34.880  1.00  0.00     0.198 A 
ATOM     69  F   UNL A   1      46.092  28.985  33.561  1.00  0.00    -0.203 F 
ATOM     70  F   UNL A   1      45.066  24.515  36.517  1.00  0.00    -0.200 F 
ATOM     71  C   UNL A   1      46.615  26.060  35.628  1.00  0.00     0.200 A 
ATOM     72  F   UNL A   1      48.125  27.633  34.724  1.00  0.00    -0.200 F 
ATOM     73  F   UNL A   1      47.628  25.400  36.208  1.00  0.00    -0.200 F 
ENDBRANCH  49  63
BRANCH  50  74
ATOM     74  C   UNL A   1      36.968  31.470  29.180  1.00  0.00     0.064 A 
ATOM     75  C   UNL A   1      36.882  32.821  28.815  1.00  0.00     0.173 A 
ATOM     76  C   UNL A   1      35.868  30.648  28.889  1.00  0.00     0.173 A 
ATOM     77  F   UNL A   1      37.895  33.655  29.095  1.00  0.00    -0.203 F 
ATOM     78  C   UNL A   1      35.730  33.337  28.223  1.00  0.00     0.198 A 
ATOM     79  C   UNL A   1      34.732  31.157  28.263  1.00  0.00     0.198 A 
ATOM     80  F   UNL A   1      35.892  29.348  29.218  1.00  0.00    -0.203 F 
ATOM     81  F   UNL A   1      35.648  34.646  27.955  1.00  0.00    -0.200 F 
ATOM     82  C   UNL A   1      34.658  32.504  27.944  1.00  0.00     0.200 A 
ATOM     83  F   UNL A   1      33.702  30.345  27.984  1.00  0.00    -0.200 F 
ATOM     84  F   UNL A   1      33.547  33.001  27.384  1.00  0.00    -0.200 F 
ENDBRANCH  50  74
BRANCH  62  85
ATOM     85  C   UNL A   1      39.249  32.148  35.733  1.00  0.00     0.064 A 
ATOM     86  C   UNL A   1      38.392  31.576  36.685  1.00  0.00     0.173 A 
ATOM     87  C   UNL A   1      39.670  33.470  35.938  1.00  0.00     0.173 A 
ATOM     88  F   UNL A   1      37.949  30.320  36.527  1.00  0.00    -0.203 F 
ATOM     89  C   UNL A   1      37.959  32.307  37.788  1.00  0.00     0.198 A 
ATOM     90  C   UNL A   1      39.263  34.187  37.060  1.00  0.00     0.198 A 
ATOM     91  F   UNL A   1      40.497  34.062  35.063  1.00  0.00    -0.203 F 
ATOM     92  F   UNL A   1      37.105  31.756  38.661  1.00  0.00    -0.200 F 
ATOM     93  C   UNL A   1      38.403  33.607  37.980  1.00  0.00     0.200 A 
ATOM     94  F   UNL A   1      39.708  35.436  37.255  1.00  0.00    -0.200 F 
ATOM     95  F   UNL A   1      37.997  34.303  39.050  1.00  0.00    -0.200 F 
ENDBRANCH  62  85
ENDBRANCH  36  37
ENDBRANCH  29  31
ENDBRANCH  28  29
ENDBRANCH  27  28
ENDBRANCH  26  27
ENDBRANCH  25  26
ENDBRANCH   1  25
TORSDOF 18
ENDMDL
MODEL 2
REMARK VINA RESULT:     -11.5      5.539     10.824
REMARK SMILES O=C(Cc1csc(NC(=O)[C@H]2CC(=O)N(C3CC3)C2)n1)OCCOCCOC(=O)c1ccc(-c2c3nc(c(-c4c(F)c(F)c(F)c(F)c4F)c4ccc([nH]4)c(-c4c(F)c(F)c(F)c(F)c4F)c4nc(c(-c5c(F)c(F)c(F)c(F)c5F)c5ccc2[nH]5)C=C4)C=C3)cc1
REMARK SMILES IDX 23 1 22 2 21 3 2 4 1 5 3 6 4 7 5 8 20 9 6 10 7 11 8 12 9 13
REMARK SMILES IDX 10 15 11 16 12 17 19 18 13 19 15 20 14 21 16 22 17 23 18 24
REMARK SMILES IDX 24 25 25 26 26 27 27 28 28 29 29 30 30 31 31 32 92 33 32 34
REMARK SMILES IDX 91 35 33 36 34 37 35 38 85 39 36 40 90 41 84 42 86 43 37 44
REMARK SMILES IDX 89 45 83 46 82 47 38 49 70 50 50 51 69 52 51 53 54 54 68 55
REMARK SMILES IDX 87 56 52 57 53 58 67 60 88 61 55 62 39 63 40 64 48 65 41 66
REMARK SMILES IDX 42 67 46 68 49 69 43 70 44 71 47 72 45 73 71 74 72 75 80 76
REMARK SMILES IDX 73 77 74 78 78 79 81 80 75 81 76 82 79 83 77 84 56 85 57 86
REMARK SMILES IDX 65 87 58 88 59 89 63 90 66 91 60 92 61 93 64 94 62 95
REMARK H PARENT 8 14 86 48 54 59
REMARK Flexibility Score: inf
ROOT
ATOM      1  C   UNL A   1      32.852  35.668  30.056  1.00  0.00     0.202 C 
ENDROOT
BRANCH   1   2
ATOM      2  C   UNL A   1      33.835  35.053  29.064  1.00  0.00     0.261 C 
BRANCH   2   3
ATOM      3  O   UNL A   1      33.845  33.615  29.099  1.00  0.00    -0.463 OA
BRANCH   3   4
ATOM      4  C   UNL A   1      34.526  32.830  28.229  1.00  0.00     0.311 C 
ATOM      5  O   UNL A   1      35.227  33.351  27.363  1.00  0.00    -0.252 OA
BRANCH   4   6
ATOM      6  C   UNL A   1      34.380  31.333  28.305  1.00  0.00     0.179 C 
BRANCH   6   7
ATOM      7  C   UNL A   1      33.495  30.773  27.251  1.00  0.00     0.065 A 
ATOM      8  C   UNL A   1      32.241  31.215  26.878  1.00  0.00     0.093 A 
ATOM      9  N   UNL A   1      33.966  29.698  26.514  1.00  0.00    -0.224 NA
ATOM     10  S   UNL A   1      31.603  30.163  25.685  1.00  0.00    -0.105 S 
ATOM     11  C   UNL A   1      33.117  29.406  25.562  1.00  0.00     0.189 A 
BRANCH  11  12
ATOM     12  N   UNL A   1      33.420  28.470  24.622  1.00  0.00    -0.302 N 
ATOM     13  C   UNL A   1      33.548  27.124  24.659  1.00  0.00     0.231 C 
ATOM     14  H   UNL A   1      33.581  28.852  23.730  1.00  0.00     0.172 HD
ATOM     15  O   UNL A   1      34.029  26.602  23.645  1.00  0.00    -0.274 OA
BRANCH  13  16
ATOM     16  C   UNL A   1      33.141  26.243  25.833  1.00  0.00     0.107 C 
ATOM     17  C   UNL A   1      31.655  25.962  26.045  1.00  0.00     0.115 C 
ATOM     18  C   UNL A   1      33.680  24.834  25.560  1.00  0.00     0.133 C 
ATOM     19  C   UNL A   1      31.600  24.557  26.578  1.00  0.00     0.223 C 
ATOM     20  N   UNL A   1      32.820  23.954  26.304  1.00  0.00    -0.339 N 
ATOM     21  O   UNL A   1      30.616  24.076  27.118  1.00  0.00    -0.275 OA
BRANCH  20  22
ATOM     22  C   UNL A   1      33.162  22.578  26.480  1.00  0.00     0.085 C 
ATOM     23  C   UNL A   1      34.532  22.020  26.215  1.00  0.00     0.027 C 
ATOM     24  C   UNL A   1      34.028  22.132  27.627  1.00  0.00     0.027 C 
ENDBRANCH  20  22
ENDBRANCH  13  16
ENDBRANCH  11  12
ENDBRANCH   6   7
ENDBRANCH   4   6
ENDBRANCH   3   4
ENDBRANCH   2   3
ENDBRANCH   1   2
BRANCH   1  25
ATOM     25  O   UNL A   1      32.908  35.183  31.393  1.00  0.00    -0.374 OA
BRANCH  25  26
ATOM     26  C   UNL A   1      33.974  35.675  32.213  1.00  0.00     0.202 C 
BRANCH  26  27
ATOM     27  C   UNL A   1      34.859  34.624  32.895  1.00  0.00     0.261 C 
BRANCH  27  28
ATOM     28  O   UNL A   1      35.811  34.051  31.985  1.00  0.00    -0.460 OA
BRANCH  28  29
ATOM     29  C   UNL A   1      35.767  32.703  31.873  1.00  0.00     0.338 C 
ATOM     30  O   UNL A   1      34.787  31.981  31.950  1.00  0.00    -0.246 OA
BRANCH  29  31
ATOM     31  C   UNL A   1      37.083  32.227  31.407  1.00  0.00     0.060 A 
ATOM     32  C   UNL A   1      37.396  32.382  30.048  1.00  0.00     0.016 A 
ATOM     33  C   UNL A   1      38.000  31.651  32.286  1.00  0.00     0.016 A 
ATOM     34  C   UNL A   1      38.623  31.941  29.559  1.00  0.00     0.010 A 
ATOM     35  C   UNL A   1      39.222  31.193  31.793  1.00  0.00     0.010 A 
ATOM     36  C   UNL A   1      39.529  31.318  30.426  1.00  0.00    -0.014 A 
BRANCH  36  37
ATOM     37  C   UNL A   1      40.761  30.688  29.901  1.00  0.00     0.031 A 
ATOM     38  C   UNL A   1      41.968  31.550  29.673  1.00  0.00     0.074 A 
ATOM     39  C   UNL A   1      40.777  29.380  29.592  1.00  0.00     0.049 A 
ATOM     40  N   UNL A   1      43.095  31.258  29.080  1.00  0.00    -0.248 NA
ATOM     41  C   UNL A   1      41.890  32.933  30.174  1.00  0.00     0.031 C 
ATOM     42  C   UNL A   1      39.672  28.448  29.807  1.00  0.00     0.029 A 
ATOM     43  N   UNL A   1      41.752  28.616  28.999  1.00  0.00    -0.354 N 
ATOM     44  C   UNL A   1      43.849  32.424  29.112  1.00  0.00     0.074 A 
ATOM     45  C   UNL A   1      43.052  33.431  29.775  1.00  0.00     0.031 C 
ATOM     46  C   UNL A   1      40.016  27.243  29.318  1.00  0.00     0.029 A 
ATOM     47  C   UNL A   1      41.343  27.336  28.715  1.00  0.00     0.049 A 
ATOM     48  H   UNL A   1      42.655  28.954  28.797  1.00  0.00     0.167 HD
ATOM     49  C   UNL A   1      45.095  32.626  28.625  1.00  0.00     0.037 A 
ATOM     50  C   UNL A   1      41.957  26.369  28.003  1.00  0.00     0.037 A 
ATOM     51  C   UNL A   1      45.880  31.607  27.980  1.00  0.00     0.049 A 
ATOM     52  C   UNL A   1      43.317  26.648  27.414  1.00  0.00     0.074 A 
ATOM     53  C   UNL A   1      47.177  31.692  27.508  1.00  0.00     0.029 A 
ATOM     54  N   UNL A   1      45.434  30.324  27.705  1.00  0.00    -0.354 N 
ATOM     55  N   UNL A   1      44.050  27.733  27.496  1.00  0.00    -0.248 NA
ATOM     56  C   UNL A   1      43.934  25.571  26.626  1.00  0.00     0.031 C 
ATOM     57  C   UNL A   1      47.491  30.482  26.882  1.00  0.00     0.029 A 
ATOM     58  C   UNL A   1      46.414  29.621  27.024  1.00  0.00     0.049 A 
ATOM     59  H   UNL A   1      44.552  29.964  27.956  1.00  0.00     0.167 HD
ATOM     60  C   UNL A   1      45.218  27.460  26.795  1.00  0.00     0.074 A 
ATOM     61  C   UNL A   1      45.108  26.100  26.314  1.00  0.00     0.031 C 
ATOM     62  C   UNL A   1      46.284  28.264  26.561  1.00  0.00     0.037 A 
BRANCH  49  63
ATOM     63  C   UNL A   1      45.687  33.999  28.735  1.00  0.00     0.064 A 
ATOM     64  C   UNL A   1      46.518  34.364  29.803  1.00  0.00     0.173 A 
ATOM     65  C   UNL A   1      45.490  34.932  27.706  1.00  0.00     0.173 A 
ATOM     66  F   UNL A   1      46.729  33.514  30.818  1.00  0.00    -0.203 F 
ATOM     67  C   UNL A   1      47.130  35.616  29.837  1.00  0.00     0.198 A 
ATOM     68  C   UNL A   1      46.124  36.171  27.729  1.00  0.00     0.198 A 
ATOM     69  F   UNL A   1      44.703  34.630  26.661  1.00  0.00    -0.203 F 
ATOM     70  F   UNL A   1      47.903  35.954  30.877  1.00  0.00    -0.200 F 
ATOM     71  C   UNL A   1      46.942  36.512  28.794  1.00  0.00     0.200 A 
ATOM     72  F   UNL A   1      45.952  37.028  26.714  1.00  0.00    -0.200 F 
ATOM     73  F   UNL A   1      47.551  37.706  28.817  1.00  0.00    -0.200 F 
ENDBRANCH  49  63
BRANCH  50  74
ATOM     74  C   UNL A   1      41.275  25.069  27.754  1.00  0.00     0.064 A 
ATOM     75  C   UNL A   1      41.731  23.884  28.346  1.00  0.00     0.173 A 
ATOM     76  C   UNL A   1      40.189  24.977  26.869  1.00  0.00     0.173 A 
ATOM     77  F   UNL A   1      42.783  23.913  29.178  1.00  0.00    -0.203 F 
ATOM     78  C   UNL A   1      41.153  22.654  28.037  1.00  0.00     0.198 A 
ATOM     79  C   UNL A   1      39.588  23.751  26.590  1.00  0.00     0.198 A 
ATOM     80  F   UNL A   1      39.713  26.078  26.270  1.00  0.00    -0.203 F 
ATOM     81  F   UNL A   1      41.658  21.529  28.560  1.00  0.00    -0.200 F 
ATOM     82  C   UNL A   1      40.080  22.589  27.162  1.00  0.00     0.200 A 
ATOM     83  F   UNL A   1      38.542  23.696  25.752  1.00  0.00    -0.200 F 
ATOM     84  F   UNL A   1      39.531  21.406  26.856  1.00  0.00    -0.200 F 
ENDBRANCH  50  74
BRANCH  62  85
ATOM     85  C   UNL A   1      47.425  27.689  25.772  1.00  0.00     0.064 A 
ATOM     86  C   UNL A   1      47.445  27.736  24.371  1.00  0.00     0.173 A 
ATOM     87  C   UNL A   1      48.535  27.136  26.427  1.00  0.00     0.173 A 
ATOM     88  F   UNL A   1      46.402  28.242  23.696  1.00  0.00    -0.203 F 
ATOM     89  C   UNL A   1      48.526  27.231  23.653  1.00  0.00     0.198 A 
ATOM     90  C   UNL A   1      49.630  26.663  25.708  1.00  0.00     0.198 A 
ATOM     91  F   UNL A   1      48.571  27.074  27.767  1.00  0.00    -0.203 F 
ATOM     92  F   UNL A   1      48.504  27.245  22.314  1.00  0.00    -0.200 F 
ATOM     93  C   UNL A   1      49.621  26.705  24.322  1.00  0.00     0.200 A 
ATOM     94  F   UNL A   1      50.695  26.173  26.357  1.00  0.00    -0.200 F 
ATOM     95  F   UNL A   1      50.667  26.233  23.631  1.00  0.00    -0.200 F 
ENDBRANCH  62  85
ENDBRANCH  36  37
ENDBRANCH  29  31
ENDBRANCH  28  29
ENDBRANCH  27  28
ENDBRANCH  26  27
ENDBRANCH  25  26
ENDBRANCH   1  25
TORSDOF 18
ENDMDL
MODEL 3
REMARK VINA RESULT:     -11.4      3.236      8.076
REMARK SMILES O=C(Cc1csc(NC(=O)[C@H]2CC(=O)N(C3CC3)C2)n1)OCCOCCOC(=O)c1ccc(-c2c3nc(c(-c4c(F)c(F)c(F)c(F)c4F)c4ccc([nH]4)c(-c4c(F)c(F)c(F)c(F)c4F)c4nc(c(-c5c(F)c(F)c(F)c(F)c5F)c5ccc2[nH]5)C=C4)C=C3)cc1
REMARK SMILES IDX 23 1 22 2 21 3 2 4 1 5 3 6 4 7 5 8 20 9 6 10 7 11 8 12 9 13
REMARK SMILES IDX 10 15 11 16 12 17 19 18 13 19 15 20 14 21 16 22 17 23 18 24
REMARK SMILES IDX 24 25 25 26 26 27 27 28 28 29 29 30 30 31 31 32 92 33 32 34
REMARK SMILES IDX 91 35 33 36 34 37 35 38 85 39 36 40 90 41 84 42 86 43 37 44
REMARK SMILES IDX 89 45 83 46 82 47 38 49 70 50 50 51 69 52 51 53 54 54 68 55
REMARK SMILES IDX 87 56 52 57 53 58 67 60 88 61 55 62 39 63 40 64 48 65 41 66
REMARK SMILES IDX 42 67 46 68 49 69 43 70 44 71 47 72 45 73 71 74 72 75 80 76
REMARK SMILES IDX 73 77 74 78 78 79 81 80 75 81 76 82 79 83 77 84 56 85 57 86
REMARK SMILES IDX 65 87 58 88 59 89 63 90 66 91 60 92 61 93 64 94 62 95
REMARK H PARENT 8 14 86 48 54 59
REMARK Flexibility Score: inf
ROOT
ATOM      1  C   UNL A   1      31.012  26.420  26.485  1.00  0.00     0.202 C 
ENDROOT
BRANCH   1   2
ATOM      2  C   UNL A   1      32.019  25.275  26.530  1.00  0.00     0.261 C 
BRANCH   2   3
ATOM      3  O   UNL A   1      31.525  24.116  27.225  1.00  0.00    -0.463 OA
BRANCH   3   4
ATOM      4  C   UNL A   1      30.428  23.411  26.858  1.00  0.00     0.311 C 
ATOM      5  O   UNL A   1      29.319  23.758  27.264  1.00  0.00    -0.252 OA
BRANCH   4   6
ATOM      6  C   UNL A   1      30.582  22.185  25.996  1.00  0.00     0.179 C 
BRANCH   6   7
ATOM      7  C   UNL A   1      31.792  22.221  25.134  1.00  0.00     0.065 A 
ATOM      8  C   UNL A   1      32.957  21.494  25.281  1.00  0.00     0.093 A 
ATOM      9  N   UNL A   1      31.770  23.049  24.023  1.00  0.00    -0.224 NA
ATOM     10  S   UNL A   1      34.080  21.980  24.081  1.00  0.00    -0.105 S 
ATOM     11  C   UNL A   1      32.858  22.875  23.317  1.00  0.00     0.189 A 
BRANCH  11  12
ATOM     12  N   UNL A   1      33.007  23.481  22.108  1.00  0.00    -0.302 N 
ATOM     13  C   UNL A   1      32.841  24.753  21.680  1.00  0.00     0.231 C 
ATOM     14  H   UNL A   1      33.296  22.866  21.397  1.00  0.00     0.172 HD
ATOM     15  O   UNL A   1      32.880  24.916  20.453  1.00  0.00    -0.274 OA
BRANCH  13  16
ATOM     16  C   UNL A   1      32.623  25.956  22.588  1.00  0.00     0.107 C 
ATOM     17  C   UNL A   1      33.685  27.054  22.599  1.00  0.00     0.115 C 
ATOM     18  C   UNL A   1      31.403  26.718  22.058  1.00  0.00     0.133 C 
ATOM     19  C   UNL A   1      32.915  28.331  22.800  1.00  0.00     0.223 C 
ATOM     20  N   UNL A   1      31.584  28.072  22.509  1.00  0.00    -0.339 N 
ATOM     21  O   UNL A   1      33.433  29.387  23.130  1.00  0.00    -0.275 OA
BRANCH  20  22
ATOM     22  C   UNL A   1      30.521  29.022  22.406  1.00  0.00     0.085 C 
ATOM     23  C   UNL A   1      29.105  28.735  22.815  1.00  0.00     0.027 C 
ATOM     24  C   UNL A   1      29.944  29.679  23.630  1.00  0.00     0.027 C 
ENDBRANCH  20  22
ENDBRANCH  13  16
ENDBRANCH  11  12
ENDBRANCH   6   7
ENDBRANCH   4   6
ENDBRANCH   3   4
ENDBRANCH   2   3
ENDBRANCH   1   2
BRANCH   1  25
ATOM     25  O   UNL A   1      31.388  27.626  27.141  1.00  0.00    -0.374 OA
BRANCH  25  26
ATOM     26  C   UNL A   1      32.025  28.625  26.338  1.00  0.00     0.202 C 
BRANCH  26  27
ATOM     27  C   UNL A   1      31.966  30.067  26.857  1.00  0.00     0.261 C 
BRANCH  27  28
ATOM     28  O   UNL A   1      33.105  30.836  26.438  1.00  0.00    -0.460 OA
BRANCH  28  29
ATOM     29  C   UNL A   1      33.474  31.831  27.280  1.00  0.00     0.338 C 
ATOM     30  O   UNL A   1      32.799  32.772  27.661  1.00  0.00    -0.246 OA
BRANCH  29  31
ATOM     31  C   UNL A   1      34.780  31.484  27.871  1.00  0.00     0.060 A 
ATOM     32  C   UNL A   1      34.985  30.159  28.284  1.00  0.00     0.016 A 
ATOM     33  C   UNL A   1      35.790  32.436  28.008  1.00  0.00     0.016 A 
ATOM     34  C   UNL A   1      36.199  29.786  28.856  1.00  0.00     0.010 A 
ATOM     35  C   UNL A   1      36.999  32.066  28.597  1.00  0.00     0.010 A 
ATOM     36  C   UNL A   1      37.201  30.746  29.041  1.00  0.00    -0.014 A 
BRANCH  36  37
ATOM     37  C   UNL A   1      38.428  30.418  29.799  1.00  0.00     0.031 A 
ATOM     38  C   UNL A   1      39.388  29.423  29.216  1.00  0.00     0.074 A 
ATOM     39  C   UNL A   1      38.650  30.968  31.006  1.00  0.00     0.049 A 
ATOM     40  N   UNL A   1      40.437  28.865  29.761  1.00  0.00    -0.248 NA
ATOM     41  C   UNL A   1      39.124  28.989  27.834  1.00  0.00     0.031 C 
ATOM     42  C   UNL A   1      37.800  31.969  31.646  1.00  0.00     0.029 A 
ATOM     43  N   UNL A   1      39.644  30.732  31.923  1.00  0.00    -0.354 N 
ATOM     44  C   UNL A   1      40.943  27.998  28.801  1.00  0.00     0.074 A 
ATOM     45  C   UNL A   1      40.084  28.095  27.642  1.00  0.00     0.031 C 
ATOM     46  C   UNL A   1      38.287  32.237  32.870  1.00  0.00     0.029 A 
ATOM     47  C   UNL A   1      39.453  31.390  33.113  1.00  0.00     0.049 A 
ATOM     48  H   UNL A   1      40.416  30.149  31.744  1.00  0.00     0.167 HD
ATOM     49  C   UNL A   1      42.027  27.194  28.891  1.00  0.00     0.037 A 
ATOM     50  C   UNL A   1      40.118  31.278  34.281  1.00  0.00     0.037 A 
ATOM     51  C   UNL A   1      42.878  27.120  30.048  1.00  0.00     0.049 A 
ATOM     52  C   UNL A   1      41.281  30.321  34.370  1.00  0.00     0.074 A 
ATOM     53  C   UNL A   1      44.038  26.385  30.217  1.00  0.00     0.029 A 
ATOM     54  N   UNL A   1      42.654  27.797  31.237  1.00  0.00    -0.354 N 
ATOM     55  N   UNL A   1      41.790  29.546  33.442  1.00  0.00    -0.248 NA
ATOM     56  C   UNL A   1      41.958  30.217  35.670  1.00  0.00     0.031 C 
ATOM     57  C   UNL A   1      44.475  26.560  31.533  1.00  0.00     0.029 A 
ATOM     58  C   UNL A   1      43.627  27.457  32.162  1.00  0.00     0.049 A 
ATOM     59  H   UNL A   1      41.913  28.425  31.400  1.00  0.00     0.167 HD
ATOM     60  C   UNL A   1      42.856  28.885  34.038  1.00  0.00     0.074 A 
ATOM     61  C   UNL A   1      42.937  29.366  35.400  1.00  0.00     0.031 C 
ATOM     62  C   UNL A   1      43.690  27.955  33.511  1.00  0.00     0.037 A 
BRANCH  49  63
ATOM     63  C   UNL A   1      42.348  26.302  27.729  1.00  0.00     0.064 A 
ATOM     64  C   UNL A   1      43.316  26.646  26.776  1.00  0.00     0.173 A 
ATOM     65  C   UNL A   1      41.738  25.042  27.623  1.00  0.00     0.173 A 
ATOM     66  F   UNL A   1      43.919  27.843  26.825  1.00  0.00    -0.203 F 
ATOM     67  C   UNL A   1      43.662  25.760  25.757  1.00  0.00     0.198 A 
ATOM     68  C   UNL A   1      42.105  24.150  26.620  1.00  0.00     0.198 A 
ATOM     69  F   UNL A   1      40.805  24.665  28.511  1.00  0.00    -0.203 F 
ATOM     70  F   UNL A   1      44.574  26.117  24.843  1.00  0.00    -0.200 F 
ATOM     71  C   UNL A   1      43.066  24.509  25.688  1.00  0.00     0.200 A 
ATOM     72  F   UNL A   1      41.538  22.937  26.565  1.00  0.00    -0.200 F 
ATOM     73  F   UNL A   1      43.418  23.650  24.722  1.00  0.00    -0.200 F 
ENDBRANCH  49  63
BRANCH  50  74
ATOM     74  C   UNL A   1      39.673  32.043  35.478  1.00  0.00     0.064 A 
ATOM     75  C   UNL A   1      38.708  31.526  36.354  1.00  0.00     0.173 A 
ATOM     76  C   UNL A   1      40.161  33.333  35.739  1.00  0.00     0.173 A 
ATOM     77  F   UNL A   1      38.188  30.309  36.133  1.00  0.00    -0.203 F 
ATOM     78  C   UNL A   1      38.221  32.282  37.419  1.00  0.00     0.198 A 
ATOM     79  C   UNL A   1      39.702  34.073  36.827  1.00  0.00     0.198 A 
ATOM     80  F   UNL A   1      41.083  33.880  34.933  1.00  0.00    -0.203 F 
ATOM     81  F   UNL A   1      37.245  31.791  38.193  1.00  0.00    -0.200 F 
ATOM     82  C   UNL A   1      38.721  33.553  37.657  1.00  0.00     0.200 A 
ATOM     83  F   UNL A   1      40.197  35.297  37.059  1.00  0.00    -0.200 F 
ATOM     84  F   UNL A   1      38.247  34.283  38.675  1.00  0.00    -0.200 F 
ENDBRANCH  50  74
BRANCH  62  85
ATOM     85  C   UNL A   1      44.775  27.417  34.399  1.00  0.00     0.064 A 
ATOM     86  C   UNL A   1      46.013  28.065  34.520  1.00  0.00     0.173 A 
ATOM     87  C   UNL A   1      44.554  26.272  35.179  1.00  0.00     0.173 A 
ATOM     88  F   UNL A   1      46.280  29.155  33.784  1.00  0.00    -0.203 F 
ATOM     89  C   UNL A   1      46.997  27.575  35.374  1.00  0.00     0.198 A 
ATOM     90  C   UNL A   1      45.527  25.804  36.058  1.00  0.00     0.198 A 
ATOM     91  F   UNL A   1      43.384  25.619  35.108  1.00  0.00    -0.203 F 
ATOM     92  F   UNL A   1      48.189  28.184  35.439  1.00  0.00    -0.200 F 
ATOM     93  C   UNL A   1      46.750  26.452  36.149  1.00  0.00     0.200 A 
ATOM     94  F   UNL A   1      45.279  24.731  36.821  1.00  0.00    -0.200 F 
ATOM     95  F   UNL A   1      47.693  25.990  36.982  1.00  0.00    -0.200 F 
ENDBRANCH  62  85
ENDBRANCH  36  37
ENDBRANCH  29  31
ENDBRANCH  28  29
ENDBRANCH  27  28
ENDBRANCH  26  27
ENDBRANCH  25  26
ENDBRANCH   1  25
TORSDOF 18
ENDMDL
