MODEL 1
REMARK VINA RESULT:     -12.7      0.000      0.000
REMARK SMILES Cc1ccc(-c2cc(Cl)cc3c2O[C@@H](C(F)(F)F)C(C(=O)OCCOCCOC(=O)c2ccc(-c4c5nc(c(-c6c(F)c(F)c(F)c(F)c6F)c6ccc([nH]6)c(-c6c(F)c(F)c(F)c(F)c6F)c6nc(c(-c7c(F)c(F)c(F)c(F)c7F)c7ccc4[nH]7)C=C6)C=C5)cc2)=C3)cc1
REMARK SMILES IDX 26 1 25 2 24 3 23 4 22 5 20 6 21 7 19 8 6 9 7 10 12 11 8 12
REMARK SMILES IDX 11 13 13 14 9 15 10 16 94 17 14 18 5 19 1 20 2 21 3 22 96 23
REMARK SMILES IDX 4 24 95 25 15 26 16 27 17 28 18 29 27 30 28 31 29 32 30 33
REMARK SMILES IDX 31 34 32 35 93 36 33 37 92 38 34 39 35 40 36 41 86 42 37 43
REMARK SMILES IDX 91 44 85 45 87 46 38 47 90 48 84 49 83 50 39 52 71 53 51 54
REMARK SMILES IDX 70 55 52 56 55 57 69 58 88 59 53 60 54 61 68 63 89 64 56 65
REMARK SMILES IDX 40 66 41 67 49 68 42 69 43 70 47 71 50 72 44 73 45 74 48 75
REMARK SMILES IDX 46 76 72 77 73 78 81 79 74 80 75 81 79 82 82 83 76 84 77 85
REMARK SMILES IDX 80 86 78 87 57 88 58 89 66 90 59 91 60 92 64 93 67 94 61 95
REMARK SMILES IDX 62 96 65 97 63 98
REMARK H PARENT 87 51 55 62
REMARK Flexibility Score: inf
ROOT
ATOM      1  C   UNL A   1      37.602  21.721  25.332  1.00  0.00     0.202 C 
ENDROOT
BRANCH   1   2
ATOM      2  O   UNL A   1      37.232  23.099  25.252  1.00  0.00    -0.374 OA
BRANCH   2   3
ATOM      3  C   UNL A   1      36.114  23.452  26.051  1.00  0.00     0.202 C 
BRANCH   3   4
ATOM      4  C   UNL A   1      35.207  24.410  25.272  1.00  0.00     0.261 C 
BRANCH   4   5
ATOM      5  O   UNL A   1      34.963  23.989  23.919  1.00  0.00    -0.460 OA
BRANCH   5   6
ATOM      6  C   UNL A   1      34.113  24.813  23.213  1.00  0.00     0.338 C 
ATOM      7  O   UNL A   1      34.294  25.976  22.942  1.00  0.00    -0.246 OA
BRANCH   6   8
ATOM      8  C   UNL A   1      33.062  23.944  22.528  1.00  0.00     0.087 C 
ATOM      9  C   UNL A   1      31.179  25.705  25.547  1.00  0.00     0.026 A 
ATOM     10  C   UNL A   1      30.484  24.912  26.491  1.00  0.00     0.033 A 
ATOM     11  C   UNL A   1      31.455  25.089  24.299  1.00  0.00     0.135 A 
ATOM     12  C   UNL A   1      30.311  23.543  26.314  1.00  0.00     0.042 A 
ATOM     13  C   UNL A   1      31.547  23.669  24.275  1.00  0.00     0.019 A 
ATOM     14  O   UNL A   1      31.639  25.782  23.068  1.00  0.00    -0.475 OA
ATOM     15  Cl  UNL A   1      29.510  22.623  27.525  1.00  0.00    -0.084 Cl
ATOM     16  C   UNL A   1      30.915  22.900  25.246  1.00  0.00     0.032 A 
ATOM     17  C   UNL A   1      32.434  23.007  23.269  1.00  0.00     0.027 C 
ATOM     18  C   UNL A   1      32.021  24.869  21.934  1.00  0.00     0.316 C 
BRANCH   9  19
ATOM     19  C   UNL A   1      31.966  26.790  26.239  1.00  0.00    -0.015 A 
ATOM     20  C   UNL A   1      33.880  30.486  27.627  1.00  0.00     0.044 C 
ATOM     21  C   UNL A   1      33.209  29.247  27.098  1.00  0.00    -0.051 A 
ATOM     22  C   UNL A   1      33.940  28.236  26.460  1.00  0.00     0.004 A 
ATOM     23  C   UNL A   1      31.850  29.026  27.311  1.00  0.00     0.004 A 
ATOM     24  C   UNL A   1      33.325  27.038  26.021  1.00  0.00     0.009 A 
ATOM     25  C   UNL A   1      31.250  27.818  26.912  1.00  0.00     0.009 A 
ENDBRANCH   9  19
BRANCH  18  26
ATOM     26  C   UNL A   1      32.526  25.338  20.523  1.00  0.00     0.430 C 
ATOM     27  F   UNL A   1      33.243  24.367  19.889  1.00  0.00    -0.167 F 
ATOM     28  F   UNL A   1      31.460  25.578  19.712  1.00  0.00    -0.167 F 
ATOM     29  F   UNL A   1      33.279  26.447  20.479  1.00  0.00    -0.167 F 
ENDBRANCH  18  26
ENDBRANCH   6   8
ENDBRANCH   5   6
ENDBRANCH   4   5
ENDBRANCH   3   4
ENDBRANCH   2   3
ENDBRANCH   1   2
BRANCH   1  30
ATOM     30  C   UNL A   1      39.064  21.530  25.747  1.00  0.00     0.261 C 
BRANCH  30  31
ATOM     31  O   UNL A   1      39.303  22.279  26.952  1.00  0.00    -0.460 OA
BRANCH  31  32
ATOM     32  C   UNL A   1      40.353  23.142  26.879  1.00  0.00     0.338 C 
ATOM     33  O   UNL A   1      41.527  22.823  26.950  1.00  0.00    -0.246 OA
BRANCH  32  34
ATOM     34  C   UNL A   1      39.860  24.546  27.012  1.00  0.00     0.060 A 
ATOM     35  C   UNL A   1      40.463  25.562  26.257  1.00  0.00     0.016 A 
ATOM     36  C   UNL A   1      39.036  24.893  28.074  1.00  0.00     0.016 A 
ATOM     37  C   UNL A   1      40.406  26.901  26.687  1.00  0.00     0.010 A 
ATOM     38  C   UNL A   1      39.004  26.210  28.508  1.00  0.00     0.010 A 
ATOM     39  C   UNL A   1      39.747  27.217  27.875  1.00  0.00    -0.014 A 
BRANCH  39  40
ATOM     40  C   UNL A   1      39.996  28.430  28.686  1.00  0.00     0.031 A 
ATOM     41  C   UNL A   1      39.055  29.586  28.666  1.00  0.00     0.074 A 
ATOM     42  C   UNL A   1      40.880  28.355  29.720  1.00  0.00     0.049 A 
ATOM     43  N   UNL A   1      39.259  30.674  29.327  1.00  0.00    -0.248 NA
ATOM     44  C   UNL A   1      37.816  29.656  27.898  1.00  0.00     0.031 C 
ATOM     45  C   UNL A   1      40.888  29.164  30.944  1.00  0.00     0.029 A 
ATOM     46  N   UNL A   1      41.928  27.451  29.942  1.00  0.00    -0.354 N 
ATOM     47  C   UNL A   1      38.081  31.372  29.403  1.00  0.00     0.074 A 
ATOM     48  C   UNL A   1      37.263  30.781  28.376  1.00  0.00     0.031 C 
ATOM     49  C   UNL A   1      41.976  28.892  31.679  1.00  0.00     0.029 A 
ATOM     50  C   UNL A   1      42.801  27.998  30.903  1.00  0.00     0.049 A 
ATOM     51  H   UNL A   1      42.037  26.578  29.500  1.00  0.00     0.167 HD
ATOM     52  C   UNL A   1      37.939  32.293  30.404  1.00  0.00     0.037 A 
ATOM     53  C   UNL A   1      44.083  28.267  30.533  1.00  0.00     0.037 A 
ATOM     54  C   UNL A   1      39.227  32.526  31.088  1.00  0.00     0.049 A 
ATOM     55  C   UNL A   1      44.284  29.752  30.355  1.00  0.00     0.074 A 
ATOM     56  C   UNL A   1      39.699  32.356  32.379  1.00  0.00     0.029 A 
ATOM     57  N   UNL A   1      40.356  32.798  30.305  1.00  0.00    -0.354 N 
ATOM     58  N   UNL A   1      43.273  30.580  30.289  1.00  0.00    -0.248 NA
ATOM     59  C   UNL A   1      45.557  30.461  30.346  1.00  0.00     0.031 C 
ATOM     60  C   UNL A   1      41.130  32.416  32.332  1.00  0.00     0.029 A 
ATOM     61  C   UNL A   1      41.527  32.666  31.024  1.00  0.00     0.049 A 
ATOM     62  H   UNL A   1      40.319  33.053  29.355  1.00  0.00     0.167 HD
ATOM     63  C   UNL A   1      43.701  31.866  30.332  1.00  0.00     0.074 A 
ATOM     64  C   UNL A   1      45.148  31.746  30.314  1.00  0.00     0.031 C 
ATOM     65  C   UNL A   1      42.828  32.917  30.398  1.00  0.00     0.037 A 
BRANCH  52  66
ATOM     66  C   UNL A   1      36.628  32.933  30.847  1.00  0.00     0.064 A 
ATOM     67  C   UNL A   1      35.937  33.830  29.998  1.00  0.00     0.173 A 
ATOM     68  C   UNL A   1      36.025  32.761  32.113  1.00  0.00     0.173 A 
ATOM     69  F   UNL A   1      36.407  34.136  28.780  1.00  0.00    -0.203 F 
ATOM     70  C   UNL A   1      34.736  34.455  30.368  1.00  0.00     0.198 A 
ATOM     71  C   UNL A   1      34.798  33.342  32.460  1.00  0.00     0.198 A 
ATOM     72  F   UNL A   1      36.617  32.070  33.092  1.00  0.00    -0.203 F 
ATOM     73  F   UNL A   1      34.146  35.320  29.530  1.00  0.00    -0.200 F 
ATOM     74  C   UNL A   1      34.153  34.191  31.590  1.00  0.00     0.200 A 
ATOM     75  F   UNL A   1      34.256  33.079  33.660  1.00  0.00    -0.200 F 
ATOM     76  F   UNL A   1      32.991  34.763  31.935  1.00  0.00    -0.200 F 
ENDBRANCH  52  66
BRANCH  53  77
ATOM     77  C   UNL A   1      44.695  27.046  29.927  1.00  0.00     0.064 A 
ATOM     78  C   UNL A   1      44.871  25.994  30.858  1.00  0.00     0.173 A 
ATOM     79  C   UNL A   1      44.405  26.672  28.603  1.00  0.00     0.173 A 
ATOM     80  F   UNL A   1      45.165  26.285  32.136  1.00  0.00    -0.203 F 
ATOM     81  C   UNL A   1      44.532  24.676  30.546  1.00  0.00     0.198 A 
ATOM     82  C   UNL A   1      44.089  25.340  28.290  1.00  0.00     0.198 A 
ATOM     83  F   UNL A   1      44.210  27.609  27.663  1.00  0.00    -0.203 F 
ATOM     84  F   UNL A   1      44.514  23.743  31.510  1.00  0.00    -0.200 F 
ATOM     85  C   UNL A   1      44.092  24.360  29.274  1.00  0.00     0.200 A 
ATOM     86  F   UNL A   1      43.666  25.025  27.057  1.00  0.00    -0.200 F 
ATOM     87  F   UNL A   1      43.615  23.134  29.015  1.00  0.00    -0.200 F 
ENDBRANCH  53  77
BRANCH  65  88
ATOM     88  C   UNL A   1      43.154  34.308  29.915  1.00  0.00     0.064 A 
ATOM     89  C   UNL A   1      43.339  35.397  30.784  1.00  0.00     0.173 A 
ATOM     90  C   UNL A   1      43.501  34.540  28.563  1.00  0.00     0.173 A 
ATOM     91  F   UNL A   1      43.163  35.281  32.107  1.00  0.00    -0.203 F 
ATOM     92  C   UNL A   1      43.779  36.640  30.327  1.00  0.00     0.198 A 
ATOM     93  C   UNL A   1      44.007  35.760  28.124  1.00  0.00     0.198 A 
ATOM     94  F   UNL A   1      43.402  33.579  27.632  1.00  0.00    -0.203 F 
ATOM     95  F   UNL A   1      43.898  37.657  31.191  1.00  0.00    -0.200 F 
ATOM     96  C   UNL A   1      44.130  36.817  29.003  1.00  0.00     0.200 A 
ATOM     97  F   UNL A   1      44.403  35.897  26.851  1.00  0.00    -0.200 F 
ATOM     98  F   UNL A   1      44.608  37.993  28.581  1.00  0.00    -0.200 F 
ENDBRANCH  65  88
ENDBRANCH  39  40
ENDBRANCH  32  34
ENDBRANCH  31  32
ENDBRANCH  30  31
ENDBRANCH   1  30
TORSDOF 16
ENDMDL
MODEL 2
REMARK VINA RESULT:     -12.6      3.194      8.855
REMARK SMILES Cc1ccc(-c2cc(Cl)cc3c2O[C@@H](C(F)(F)F)C(C(=O)OCCOCCOC(=O)c2ccc(-c4c5nc(c(-c6c(F)c(F)c(F)c(F)c6F)c6ccc([nH]6)c(-c6c(F)c(F)c(F)c(F)c6F)c6nc(c(-c7c(F)c(F)c(F)c(F)c7F)c7ccc4[nH]7)C=C6)C=C5)cc2)=C3)cc1
REMARK SMILES IDX 26 1 25 2 24 3 23 4 22 5 20 6 21 7 19 8 6 9 7 10 12 11 8 12
REMARK SMILES IDX 11 13 13 14 9 15 10 16 94 17 14 18 5 19 1 20 2 21 3 22 96 23
REMARK SMILES IDX 4 24 95 25 15 26 16 27 17 28 18 29 27 30 28 31 29 32 30 33
REMARK SMILES IDX 31 34 32 35 93 36 33 37 92 38 34 39 35 40 36 41 86 42 37 43
REMARK SMILES IDX 91 44 85 45 87 46 38 47 90 48 84 49 83 50 39 52 71 53 51 54
REMARK SMILES IDX 70 55 52 56 55 57 69 58 88 59 53 60 54 61 68 63 89 64 56 65
REMARK SMILES IDX 40 66 41 67 49 68 42 69 43 70 47 71 50 72 44 73 45 74 48 75
REMARK SMILES IDX 46 76 72 77 73 78 81 79 74 80 75 81 79 82 82 83 76 84 77 85
REMARK SMILES IDX 80 86 78 87 57 88 58 89 66 90 59 91 60 92 64 93 67 94 61 95
REMARK SMILES IDX 62 96 65 97 63 98
REMARK H PARENT 87 51 55 62
REMARK Flexibility Score: inf
ROOT
ATOM      1  C   UNL A   1      32.829  28.840  24.102  1.00  0.00     0.202 C 
ENDROOT
BRANCH   1   2
ATOM      2  O   UNL A   1      34.043  28.448  23.459  1.00  0.00    -0.374 OA
BRANCH   2   3
ATOM      3  C   UNL A   1      33.872  27.946  22.142  1.00  0.00     0.202 C 
BRANCH   3   4
ATOM      4  C   UNL A   1      32.740  26.914  22.129  1.00  0.00     0.261 C 
BRANCH   4   5
ATOM      5  O   UNL A   1      33.201  25.562  22.299  1.00  0.00    -0.460 OA
BRANCH   5   6
ATOM      6  C   UNL A   1      33.121  25.094  23.593  1.00  0.00     0.338 C 
ATOM      7  O   UNL A   1      33.902  25.310  24.488  1.00  0.00    -0.246 OA
BRANCH   6   8
ATOM      8  C   UNL A   1      31.715  24.546  23.817  1.00  0.00     0.087 C 
ATOM      9  C   UNL A   1      34.174  21.795  25.283  1.00  0.00     0.026 A 
ATOM     10  C   UNL A   1      34.073  20.459  24.828  1.00  0.00     0.033 A 
ATOM     11  C   UNL A   1      33.036  22.614  25.064  1.00  0.00     0.135 A 
ATOM     12  C   UNL A   1      33.040  20.043  23.994  1.00  0.00     0.042 A 
ATOM     13  C   UNL A   1      32.178  22.270  23.982  1.00  0.00     0.019 A 
ATOM     14  O   UNL A   1      32.685  23.751  25.848  1.00  0.00    -0.475 OA
ATOM     15  Cl  UNL A   1      33.005  18.421  23.426  1.00  0.00    -0.084 Cl
ATOM     16  C   UNL A   1      32.134  20.967  23.499  1.00  0.00     0.032 A 
ATOM     17  C   UNL A   1      31.410  23.345  23.283  1.00  0.00     0.027 C 
ATOM     18  C   UNL A   1      31.483  24.482  25.312  1.00  0.00     0.316 C 
BRANCH   9  19
ATOM     19  C   UNL A   1      35.618  22.220  25.374  1.00  0.00    -0.015 A 
ATOM     20  C   UNL A   1      39.864  22.831  26.293  1.00  0.00     0.044 C 
ATOM     21  C   UNL A   1      38.401  22.591  26.031  1.00  0.00    -0.051 A 
ATOM     22  C   UNL A   1      37.433  23.546  26.367  1.00  0.00     0.004 A 
ATOM     23  C   UNL A   1      37.977  21.446  25.361  1.00  0.00     0.004 A 
ATOM     24  C   UNL A   1      36.063  23.354  26.060  1.00  0.00     0.009 A 
ATOM     25  C   UNL A   1      36.622  21.277  25.021  1.00  0.00     0.009 A 
ENDBRANCH   9  19
BRANCH  18  26
ATOM     26  C   UNL A   1      30.989  25.893  25.795  1.00  0.00     0.430 C 
ATOM     27  F   UNL A   1      29.903  25.801  26.614  1.00  0.00    -0.167 F 
ATOM     28  F   UNL A   1      31.955  26.480  26.554  1.00  0.00    -0.167 F 
ATOM     29  F   UNL A   1      30.670  26.787  24.849  1.00  0.00    -0.167 F 
ENDBRANCH  18  26
ENDBRANCH   6   8
ENDBRANCH   5   6
ENDBRANCH   4   5
ENDBRANCH   3   4
ENDBRANCH   2   3
ENDBRANCH   1   2
BRANCH   1  30
ATOM     30  C   UNL A   1      33.077  29.646  25.381  1.00  0.00     0.261 C 
BRANCH  30  31
ATOM     31  O   UNL A   1      34.308  29.199  25.977  1.00  0.00    -0.460 OA
BRANCH  31  32
ATOM     32  C   UNL A   1      34.255  29.044  27.328  1.00  0.00     0.338 C 
ATOM     33  O   UNL A   1      33.255  28.749  27.960  1.00  0.00    -0.246 OA
BRANCH  32  34
ATOM     34  C   UNL A   1      35.504  29.583  27.945  1.00  0.00     0.060 A 
ATOM     35  C   UNL A   1      36.542  30.033  27.117  1.00  0.00     0.016 A 
ATOM     36  C   UNL A   1      35.761  29.365  29.292  1.00  0.00     0.016 A 
ATOM     37  C   UNL A   1      37.868  30.067  27.588  1.00  0.00     0.010 A 
ATOM     38  C   UNL A   1      37.072  29.376  29.744  1.00  0.00     0.010 A 
ATOM     39  C   UNL A   1      38.150  29.646  28.887  1.00  0.00    -0.014 A 
BRANCH  39  40
ATOM     40  C   UNL A   1      39.472  29.176  29.359  1.00  0.00     0.031 A 
ATOM     41  C   UNL A   1      40.027  27.860  28.932  1.00  0.00     0.074 A 
ATOM     42  C   UNL A   1      40.340  30.085  29.885  1.00  0.00     0.049 A 
ATOM     43  N   UNL A   1      41.156  27.400  29.353  1.00  0.00    -0.248 NA
ATOM     44  C   UNL A   1      39.378  26.922  28.021  1.00  0.00     0.031 C 
ATOM     45  C   UNL A   1      41.805  30.014  29.896  1.00  0.00     0.029 A 
ATOM     46  N   UNL A   1      40.089  31.343  30.451  1.00  0.00    -0.354 N 
ATOM     47  C   UNL A   1      41.554  26.382  28.526  1.00  0.00     0.074 A 
ATOM     48  C   UNL A   1      40.353  26.024  27.816  1.00  0.00     0.031 C 
ATOM     49  C   UNL A   1      42.319  31.028  30.604  1.00  0.00     0.029 A 
ATOM     50  C   UNL A   1      41.212  31.729  31.209  1.00  0.00     0.049 A 
ATOM     51  H   UNL A   1      39.265  31.869  30.338  1.00  0.00     0.167 HD
ATOM     52  C   UNL A   1      42.882  26.057  28.494  1.00  0.00     0.037 A 
ATOM     53  C   UNL A   1      41.057  31.904  32.550  1.00  0.00     0.037 A 
ATOM     54  C   UNL A   1      43.615  26.741  29.578  1.00  0.00     0.049 A 
ATOM     55  C   UNL A   1      41.668  30.753  33.310  1.00  0.00     0.074 A 
ATOM     56  C   UNL A   1      44.646  27.664  29.638  1.00  0.00     0.029 A 
ATOM     57  N   UNL A   1      43.104  26.661  30.879  1.00  0.00    -0.354 N 
ATOM     58  N   UNL A   1      42.014  29.641  32.713  1.00  0.00    -0.248 NA
ATOM     59  C   UNL A   1      42.048  30.745  34.717  1.00  0.00     0.031 C 
ATOM     60  C   UNL A   1      44.665  28.213  30.961  1.00  0.00     0.029 A 
ATOM     61  C   UNL A   1      43.677  27.595  31.718  1.00  0.00     0.049 A 
ATOM     62  H   UNL A   1      42.417  26.015  31.162  1.00  0.00     0.167 HD
ATOM     63  C   UNL A   1      42.717  28.842  33.554  1.00  0.00     0.074 A 
ATOM     64  C   UNL A   1      42.669  29.551  34.820  1.00  0.00     0.031 C 
ATOM     65  C   UNL A   1      43.293  27.676  33.130  1.00  0.00     0.037 A 
BRANCH  52  66
ATOM     66  C   UNL A   1      43.564  25.193  27.438  1.00  0.00     0.064 A 
ATOM     67  C   UNL A   1      43.338  23.798  27.388  1.00  0.00     0.173 A 
ATOM     68  C   UNL A   1      44.497  25.659  26.485  1.00  0.00     0.173 A 
ATOM     69  F   UNL A   1      42.515  23.196  28.258  1.00  0.00    -0.203 F 
ATOM     70  C   UNL A   1      43.955  22.960  26.445  1.00  0.00     0.198 A 
ATOM     71  C   UNL A   1      45.069  24.832  25.509  1.00  0.00     0.198 A 
ATOM     72  F   UNL A   1      44.942  26.919  26.485  1.00  0.00    -0.203 F 
ATOM     73  F   UNL A   1      43.724  21.639  26.470  1.00  0.00    -0.200 F 
ATOM     74  C   UNL A   1      44.801  23.482  25.488  1.00  0.00     0.200 A 
ATOM     75  F   UNL A   1      45.899  25.360  24.596  1.00  0.00    -0.200 F 
ATOM     76  F   UNL A   1      45.368  22.690  24.569  1.00  0.00    -0.200 F 
ENDBRANCH  52  66
BRANCH  53  77
ATOM     77  C   UNL A   1      39.924  32.845  32.804  1.00  0.00     0.064 A 
ATOM     78  C   UNL A   1      38.778  32.201  33.330  1.00  0.00     0.173 A 
ATOM     79  C   UNL A   1      40.159  34.162  33.234  1.00  0.00     0.173 A 
ATOM     80  F   UNL A   1      38.489  30.947  32.947  1.00  0.00    -0.203 F 
ATOM     81  C   UNL A   1      38.062  32.742  34.401  1.00  0.00     0.198 A 
ATOM     82  C   UNL A   1      39.419  34.710  34.294  1.00  0.00     0.198 A 
ATOM     83  F   UNL A   1      41.231  34.836  32.793  1.00  0.00    -0.203 F 
ATOM     84  F   UNL A   1      37.114  32.013  35.008  1.00  0.00    -0.200 F 
ATOM     85  C   UNL A   1      38.417  33.975  34.914  1.00  0.00     0.200 A 
ATOM     86  F   UNL A   1      39.754  35.908  34.795  1.00  0.00    -0.200 F 
ATOM     87  F   UNL A   1      37.840  34.424  36.038  1.00  0.00    -0.200 F 
ENDBRANCH  53  77
BRANCH  65  88
ATOM     88  C   UNL A   1      43.597  26.513  34.042  1.00  0.00     0.064 A 
ATOM     89  C   UNL A   1      42.603  25.811  34.745  1.00  0.00     0.173 A 
ATOM     90  C   UNL A   1      44.888  25.935  34.068  1.00  0.00     0.173 A 
ATOM     91  F   UNL A   1      41.316  26.181  34.705  1.00  0.00    -0.203 F 
ATOM     92  C   UNL A   1      42.889  24.653  35.468  1.00  0.00     0.198 A 
ATOM     93  C   UNL A   1      45.154  24.741  34.733  1.00  0.00     0.198 A 
ATOM     94  F   UNL A   1      45.923  26.484  33.415  1.00  0.00    -0.203 F 
ATOM     95  F   UNL A   1      41.913  24.045  36.156  1.00  0.00    -0.200 F 
ATOM     96  C   UNL A   1      44.159  24.108  35.448  1.00  0.00     0.200 A 
ATOM     97  F   UNL A   1      46.374  24.192  34.651  1.00  0.00    -0.200 F 
ATOM     98  F   UNL A   1      44.415  22.965  36.095  1.00  0.00    -0.200 F 
ENDBRANCH  65  88
ENDBRANCH  39  40
ENDBRANCH  32  34
ENDBRANCH  31  32
ENDBRANCH  30  31
ENDBRANCH   1  30
TORSDOF 16
ENDMDL
MODEL 3
REMARK VINA RESULT:     -12.5      1.531      2.124
REMARK SMILES Cc1ccc(-c2cc(Cl)cc3c2O[C@@H](C(F)(F)F)C(C(=O)OCCOCCOC(=O)c2ccc(-c4c5nc(c(-c6c(F)c(F)c(F)c(F)c6F)c6ccc([nH]6)c(-c6c(F)c(F)c(F)c(F)c6F)c6nc(c(-c7c(F)c(F)c(F)c(F)c7F)c7ccc4[nH]7)C=C6)C=C5)cc2)=C3)cc1
REMARK SMILES IDX 26 1 25 2 24 3 23 4 22 5 20 6 21 7 19 8 6 9 7 10 12 11 8 12
REMARK SMILES IDX 11 13 13 14 9 15 10 16 94 17 14 18 5 19 1 20 2 21 3 22 96 23
REMARK SMILES IDX 4 24 95 25 15 26 16 27 17 28 18 29 27 30 28 31 29 32 30 33
REMARK SMILES IDX 31 34 32 35 93 36 33 37 92 38 34 39 35 40 36 41 86 42 37 43
REMARK SMILES IDX 91 44 85 45 87 46 38 47 90 48 84 49 83 50 39 52 71 53 51 54
REMARK SMILES IDX 70 55 52 56 55 57 69 58 88 59 53 60 54 61 68 63 89 64 56 65
REMARK SMILES IDX 40 66 41 67 49 68 42 69 43 70 47 71 50 72 44 73 45 74 48 75
REMARK SMILES IDX 46 76 72 77 73 78 81 79 74 80 75 81 79 82 82 83 76 84 77 85
REMARK SMILES IDX 80 86 78 87 57 88 58 89 66 90 59 91 60 92 64 93 67 94 61 95
REMARK SMILES IDX 62 96 65 97 63 98
REMARK H PARENT 87 51 55 62
REMARK Flexibility Score: inf
ROOT
ATOM      1  C   UNL A   1      37.358  22.344  24.900  1.00  0.00     0.202 C 
ENDROOT
BRANCH   1   2
ATOM      2  O   UNL A   1      36.493  23.232  25.608  1.00  0.00    -0.374 OA
BRANCH   2   3
ATOM      3  C   UNL A   1      35.333  22.615  26.145  1.00  0.00     0.202 C 
BRANCH   3   4
ATOM      4  C   UNL A   1      34.285  23.684  26.471  1.00  0.00     0.261 C 
BRANCH   4   5
ATOM      5  O   UNL A   1      33.642  24.226  25.304  1.00  0.00    -0.460 OA
BRANCH   5   6
ATOM      6  C   UNL A   1      32.270  24.307  25.399  1.00  0.00     0.338 C 
ATOM      7  O   UNL A   1      31.638  24.865  26.264  1.00  0.00    -0.246 OA
BRANCH   6   8
ATOM      8  C   UNL A   1      31.671  23.880  24.062  1.00  0.00     0.087 C 
ATOM      9  C   UNL A   1      31.463  27.845  24.102  1.00  0.00     0.026 A 
ATOM     10  C   UNL A   1      30.218  28.478  23.880  1.00  0.00     0.033 A 
ATOM     11  C   UNL A   1      31.564  26.499  23.662  1.00  0.00     0.135 A 
ATOM     12  C   UNL A   1      29.087  27.762  23.498  1.00  0.00     0.042 A 
ATOM     13  C   UNL A   1      30.361  25.744  23.580  1.00  0.00     0.019 A 
ATOM     14  O   UNL A   1      32.777  25.849  23.292  1.00  0.00    -0.475 OA
ATOM     15  Cl  UNL A   1      27.588  28.579  23.302  1.00  0.00    -0.084 Cl
ATOM     16  C   UNL A   1      29.134  26.379  23.428  1.00  0.00     0.032 A 
ATOM     17  C   UNL A   1      30.408  24.263  23.783  1.00  0.00     0.027 C 
ATOM     18  C   UNL A   1      32.584  24.392  22.969  1.00  0.00     0.316 C 
BRANCH   9  19
ATOM     19  C   UNL A   1      32.204  28.507  25.236  1.00  0.00    -0.015 A 
ATOM     20  C   UNL A   1      34.350  31.159  27.996  1.00  0.00     0.044 C 
ATOM     21  C   UNL A   1      33.625  30.289  27.003  1.00  0.00    -0.051 A 
ATOM     22  C   UNL A   1      34.270  29.230  26.352  1.00  0.00     0.004 A 
ATOM     23  C   UNL A   1      32.261  30.456  26.773  1.00  0.00     0.004 A 
ATOM     24  C   UNL A   1      33.575  28.367  25.470  1.00  0.00     0.009 A 
ATOM     25  C   UNL A   1      31.565  29.572  25.929  1.00  0.00     0.009 A 
ENDBRANCH   9  19
BRANCH  18  26
ATOM     26  C   UNL A   1      33.740  23.348  22.763  1.00  0.00     0.430 C 
ATOM     27  F   UNL A   1      33.527  22.204  23.474  1.00  0.00    -0.167 F 
ATOM     28  F   UNL A   1      33.774  22.954  21.460  1.00  0.00    -0.167 F 
ATOM     29  F   UNL A   1      34.985  23.747  23.060  1.00  0.00    -0.167 F 
ENDBRANCH  18  26
ENDBRANCH   6   8
ENDBRANCH   5   6
ENDBRANCH   4   5
ENDBRANCH   3   4
ENDBRANCH   2   3
ENDBRANCH   1   2
BRANCH   1  30
ATOM     30  C   UNL A   1      38.188  21.462  25.837  1.00  0.00     0.261 C 
BRANCH  30  31
ATOM     31  O   UNL A   1      39.567  21.866  25.751  1.00  0.00    -0.460 OA
BRANCH  31  32
ATOM     32  C   UNL A   1      40.061  22.426  26.888  1.00  0.00     0.338 C 
ATOM     33  O   UNL A   1      40.458  21.804  27.858  1.00  0.00    -0.246 OA
BRANCH  32  34
ATOM     34  C   UNL A   1      39.761  23.889  26.900  1.00  0.00     0.060 A 
ATOM     35  C   UNL A   1      40.574  24.765  26.166  1.00  0.00     0.016 A 
ATOM     36  C   UNL A   1      38.894  24.411  27.851  1.00  0.00     0.016 A 
ATOM     37  C   UNL A   1      40.666  26.123  26.523  1.00  0.00     0.010 A 
ATOM     38  C   UNL A   1      39.007  25.744  28.215  1.00  0.00     0.010 A 
ATOM     39  C   UNL A   1      39.945  26.599  27.617  1.00  0.00    -0.014 A 
BRANCH  39  40
ATOM     40  C   UNL A   1      40.282  27.815  28.391  1.00  0.00     0.031 A 
ATOM     41  C   UNL A   1      39.378  29.001  28.412  1.00  0.00     0.074 A 
ATOM     42  C   UNL A   1      41.226  27.727  29.369  1.00  0.00     0.049 A 
ATOM     43  N   UNL A   1      39.656  30.091  29.041  1.00  0.00    -0.248 NA
ATOM     44  C   UNL A   1      38.095  29.099  27.721  1.00  0.00     0.031 C 
ATOM     45  C   UNL A   1      41.337  28.553  30.577  1.00  0.00     0.029 A 
ATOM     46  N   UNL A   1      42.258  26.793  29.540  1.00  0.00    -0.354 N 
ATOM     47  C   UNL A   1      38.508  30.828  29.178  1.00  0.00     0.074 A 
ATOM     48  C   UNL A   1      37.609  30.248  28.214  1.00  0.00     0.031 C 
ATOM     49  C   UNL A   1      42.459  28.257  31.247  1.00  0.00     0.029 A 
ATOM     50  C   UNL A   1      43.206  27.326  30.435  1.00  0.00     0.049 A 
ATOM     51  H   UNL A   1      42.311  25.911  29.106  1.00  0.00     0.167 HD
ATOM     52  C   UNL A   1      38.458  31.766  30.171  1.00  0.00     0.037 A 
ATOM     53  C   UNL A   1      44.470  27.548  29.982  1.00  0.00     0.037 A 
ATOM     54  C   UNL A   1      39.793  31.969  30.769  1.00  0.00     0.049 A 
ATOM     55  C   UNL A   1      44.705  29.023  29.767  1.00  0.00     0.074 A 
ATOM     56  C   UNL A   1      40.340  31.802  32.030  1.00  0.00     0.029 A 
ATOM     57  N   UNL A   1      40.878  32.192  29.913  1.00  0.00    -0.354 N 
ATOM     58  N   UNL A   1      43.719  29.882  29.751  1.00  0.00    -0.248 NA
ATOM     59  C   UNL A   1      45.997  29.690  29.667  1.00  0.00     0.031 C 
ATOM     60  C   UNL A   1      41.766  31.815  31.893  1.00  0.00     0.029 A 
ATOM     61  C   UNL A   1      42.088  32.033  30.560  1.00  0.00     0.049 A 
ATOM     62  H   UNL A   1      40.789  32.435  28.963  1.00  0.00     0.167 HD
ATOM     63  C   UNL A   1      44.188  31.155  29.745  1.00  0.00     0.074 A 
ATOM     64  C   UNL A   1      45.626  30.988  29.639  1.00  0.00     0.031 C 
ATOM     65  C   UNL A   1      43.354  32.233  29.849  1.00  0.00     0.037 A 
BRANCH  52  66
ATOM     66  C   UNL A   1      37.198  32.455  30.684  1.00  0.00     0.064 A 
ATOM     67  C   UNL A   1      36.489  33.369  29.869  1.00  0.00     0.173 A 
ATOM     68  C   UNL A   1      36.665  32.312  31.985  1.00  0.00     0.173 A 
ATOM     69  F   UNL A   1      36.897  33.650  28.623  1.00  0.00    -0.203 F 
ATOM     70  C   UNL A   1      35.334  34.038  30.304  1.00  0.00     0.198 A 
ATOM     71  C   UNL A   1      35.482  32.938  32.399  1.00  0.00     0.198 A 
ATOM     72  F   UNL A   1      37.290  31.608  32.934  1.00  0.00    -0.203 F 
ATOM     73  F   UNL A   1      34.725  34.917  29.494  1.00  0.00    -0.200 F 
ATOM     74  C   UNL A   1      34.815  33.803  31.560  1.00  0.00     0.200 A 
ATOM     75  F   UNL A   1      35.003  32.702  33.630  1.00  0.00    -0.200 F 
ATOM     76  F   UNL A   1      33.697  34.417  31.967  1.00  0.00    -0.200 F 
ENDBRANCH  52  66
BRANCH  53  77
ATOM     77  C   UNL A   1      45.004  26.299  29.358  1.00  0.00     0.064 A 
ATOM     78  C   UNL A   1      44.976  25.187  30.234  1.00  0.00     0.173 A 
ATOM     79  C   UNL A   1      44.805  26.030  27.993  1.00  0.00     0.173 A 
ATOM     80  F   UNL A   1      45.174  25.377  31.549  1.00  0.00    -0.203 F 
ATOM     81  C   UNL A   1      44.530  23.933  29.811  1.00  0.00     0.198 A 
ATOM     82  C   UNL A   1      44.382  24.759  27.570  1.00  0.00     0.198 A 
ATOM     83  F   UNL A   1      44.803  27.030  27.100  1.00  0.00    -0.203 F 
ATOM     84  F   UNL A   1      44.319  22.960  30.709  1.00  0.00    -0.200 F 
ATOM     85  C   UNL A   1      44.184  23.736  28.487  1.00  0.00     0.200 A 
ATOM     86  F   UNL A   1      44.048  24.558  26.287  1.00  0.00    -0.200 F 
ATOM     87  F   UNL A   1      43.606  22.586  28.111  1.00  0.00    -0.200 F 
ENDBRANCH  53  77
BRANCH  65  88
ATOM     88  C   UNL A   1      43.692  33.606  29.324  1.00  0.00     0.064 A 
ATOM     89  C   UNL A   1      43.851  33.886  27.955  1.00  0.00     0.173 A 
ATOM     90  C   UNL A   1      43.659  34.734  30.179  1.00  0.00     0.173 A 
ATOM     91  F   UNL A   1      43.780  32.924  27.026  1.00  0.00    -0.203 F 
ATOM     92  C   UNL A   1      44.022  35.188  27.483  1.00  0.00     0.198 A 
ATOM     93  C   UNL A   1      43.761  36.036  29.695  1.00  0.00     0.198 A 
ATOM     94  F   UNL A   1      43.485  34.612  31.503  1.00  0.00    -0.203 F 
ATOM     95  F   UNL A   1      44.211  35.396  26.174  1.00  0.00    -0.200 F 
ATOM     96  C   UNL A   1      43.960  36.263  28.349  1.00  0.00     0.200 A 
ATOM     97  F   UNL A   1      43.634  37.069  30.539  1.00  0.00    -0.200 F 
ATOM     98  F   UNL A   1      44.067  37.513  27.884  1.00  0.00    -0.200 F 
ENDBRANCH  65  88
ENDBRANCH  39  40
ENDBRANCH  32  34
ENDBRANCH  31  32
ENDBRANCH  30  31
ENDBRANCH   1  30
TORSDOF 16
ENDMDL
