MODEL 1
REMARK VINA RESULT:     -10.8      0.000      0.000
REMARK SMILES CSc1ncccc1C(=O)N1CSC[C@H]1C(=O)OCCOCCOC(=O)c1ccc(-c2c3nc(c(-c4c(F)c(F)c(F)c(F)c4F)c4ccc([nH]4)c(-c4c(F)c(F)c(F)c(F)c4F)c4nc(c(-c5c(F)c(F)c(F)c(F)c5F)c5ccc2[nH]5)C=C4)C=C3)cc1
REMARK SMILES IDX 20 1 19 2 18 3 16 4 17 5 15 6 11 7 12 8 13 9 14 10 9 11
REMARK SMILES IDX 10 12 8 13 3 14 4 15 5 16 7 17 6 18 2 19 1 20 21 21 22 22
REMARK SMILES IDX 23 23 24 24 25 25 26 26 27 27 28 28 89 29 29 30 88 31 30 32
REMARK SMILES IDX 31 33 32 34 82 35 33 36 87 37 81 38 83 39 34 40 86 41 80 42
REMARK SMILES IDX 79 43 35 45 67 46 47 47 66 48 48 49 51 50 65 51 84 52 49 53
REMARK SMILES IDX 50 54 64 56 85 57 52 58 36 59 37 60 45 61 38 62 39 63 43 64
REMARK SMILES IDX 46 65 40 66 41 67 44 68 42 69 68 70 69 71 77 72 70 73 71 74
REMARK SMILES IDX 75 75 78 76 72 77 73 78 76 79 74 80 53 81 54 82 62 83 55 84
REMARK SMILES IDX 56 85 60 86 63 87 57 88 58 89 61 90 59 91
REMARK H PARENT 83 44 51 55
REMARK Flexibility Score: inf
ROOT
ATOM      1  C   UNL A   1      32.408  28.863  27.331  1.00  0.00     0.202 C 
ENDROOT
BRANCH   1   2
ATOM      2  C   UNL A   1      32.283  27.546  26.551  1.00  0.00     0.261 C 
BRANCH   2   3
ATOM      3  O   UNL A   1      33.428  27.204  25.741  1.00  0.00    -0.462 OA
BRANCH   3   4
ATOM      4  C   UNL A   1      33.440  25.914  25.301  1.00  0.00     0.329 C 
ATOM      5  O   UNL A   1      33.477  24.933  26.042  1.00  0.00    -0.250 OA
BRANCH   4   6
ATOM      6  C   UNL A   1      33.504  25.745  23.781  1.00  0.00     0.206 C 
ATOM      7  N   UNL A   1      32.721  24.745  23.042  1.00  0.00    -0.315 N 
ATOM      8  C   UNL A   1      31.381  25.182  22.723  1.00  0.00     0.191 C 
ATOM      9  S   UNL A   1      31.493  26.965  22.465  1.00  0.00    -0.138 SA
ATOM     10  C   UNL A   1      33.169  27.109  23.167  1.00  0.00     0.108 C 
BRANCH   7  11
ATOM     11  C   UNL A   1      33.365  23.608  22.558  1.00  0.00     0.258 C 
ATOM     12  O   UNL A   1      33.614  23.491  21.362  1.00  0.00    -0.269 OA
BRANCH  11  13
ATOM     13  C   UNL A   1      33.579  22.451  23.478  1.00  0.00     0.072 A 
ATOM     14  C   UNL A   1      34.815  22.079  24.017  1.00  0.00     0.108 A 
ATOM     15  N   UNL A   1      34.953  20.972  24.803  1.00  0.00    -0.249 NA
ATOM     16  C   UNL A   1      33.885  20.168  24.988  1.00  0.00     0.112 A 
ATOM     17  C   UNL A   1      32.499  21.566  23.667  1.00  0.00     0.018 A 
ATOM     18  C   UNL A   1      32.649  20.412  24.429  1.00  0.00     0.021 A 
BRANCH  14  19
ATOM     19  S   UNL A   1      36.384  22.839  23.650  1.00  0.00    -0.109 SA
ATOM     20  C   UNL A   1      37.406  22.230  25.002  1.00  0.00     0.092 C 
ENDBRANCH  14  19
ENDBRANCH  11  13
ENDBRANCH   7  11
ENDBRANCH   4   6
ENDBRANCH   3   4
ENDBRANCH   2   3
ENDBRANCH   1   2
BRANCH   1  21
ATOM     21  O   UNL A   1      31.452  29.889  27.090  1.00  0.00    -0.374 OA
BRANCH  21  22
ATOM     22  C   UNL A   1      31.847  30.990  26.283  1.00  0.00     0.202 C 
BRANCH  22  23
ATOM     23  C   UNL A   1      31.683  32.404  26.856  1.00  0.00     0.261 C 
BRANCH  23  24
ATOM     24  O   UNL A   1      32.863  33.225  26.828  1.00  0.00    -0.460 OA
BRANCH  24  25
ATOM     25  C   UNL A   1      33.335  33.581  28.047  1.00  0.00     0.338 C 
ATOM     26  O   UNL A   1      32.822  34.326  28.862  1.00  0.00    -0.246 OA
BRANCH  25  27
ATOM     27  C   UNL A   1      34.590  32.867  28.334  1.00  0.00     0.060 A 
ATOM     28  C   UNL A   1      34.514  31.558  28.825  1.00  0.00     0.016 A 
ATOM     29  C   UNL A   1      35.814  33.537  28.274  1.00  0.00     0.016 A 
ATOM     30  C   UNL A   1      35.666  30.928  29.296  1.00  0.00     0.010 A 
ATOM     31  C   UNL A   1      36.968  32.902  28.747  1.00  0.00     0.010 A 
ATOM     32  C   UNL A   1      36.893  31.610  29.296  1.00  0.00    -0.014 A 
BRANCH  32  33
ATOM     33  C   UNL A   1      38.054  31.011  29.999  1.00  0.00     0.031 A 
ATOM     34  C   UNL A   1      38.309  31.365  31.439  1.00  0.00     0.074 A 
ATOM     35  C   UNL A   1      38.844  30.120  29.373  1.00  0.00     0.049 A 
ATOM     36  N   UNL A   1      39.229  30.918  32.255  1.00  0.00    -0.248 NA
ATOM     37  C   UNL A   1      37.403  32.357  32.040  1.00  0.00     0.031 C 
ATOM     38  C   UNL A   1      38.690  29.689  27.985  1.00  0.00     0.029 A 
ATOM     39  N   UNL A   1      39.929  29.413  29.828  1.00  0.00    -0.354 N 
ATOM     40  C   UNL A   1      39.012  31.569  33.463  1.00  0.00     0.074 A 
ATOM     41  C   UNL A   1      37.898  32.470  33.264  1.00  0.00     0.031 C 
ATOM     42  C   UNL A   1      39.644  28.785  27.701  1.00  0.00     0.029 A 
ATOM     43  C   UNL A   1      40.484  28.589  28.882  1.00  0.00     0.049 A 
ATOM     44  H   UNL A   1      40.276  29.490  30.746  1.00  0.00     0.167 HD
ATOM     45  C   UNL A   1      39.672  31.417  34.637  1.00  0.00     0.037 A 
ATOM     46  C   UNL A   1      41.550  27.769  28.961  1.00  0.00     0.037 A 
ATOM     47  C   UNL A   1      40.781  30.519  34.835  1.00  0.00     0.049 A 
ATOM     48  C   UNL A   1      42.285  27.640  30.269  1.00  0.00     0.074 A 
ATOM     49  C   UNL A   1      41.509  30.282  35.988  1.00  0.00     0.029 A 
ATOM     50  N   UNL A   1      41.323  29.710  33.847  1.00  0.00    -0.354 N 
ATOM     51  N   UNL A   1      42.047  28.231  31.415  1.00  0.00    -0.248 NA
ATOM     52  C   UNL A   1      43.430  26.719  30.296  1.00  0.00     0.031 C 
ATOM     53  C   UNL A   1      42.518  29.360  35.688  1.00  0.00     0.029 A 
ATOM     54  C   UNL A   1      42.388  28.986  34.360  1.00  0.00     0.049 A 
ATOM     55  H   UNL A   1      41.000  29.658  32.918  1.00  0.00     0.167 HD
ATOM     56  C   UNL A   1      42.990  27.734  32.304  1.00  0.00     0.074 A 
ATOM     57  C   UNL A   1      43.796  26.781  31.569  1.00  0.00     0.031 C 
ATOM     58  C   UNL A   1      43.174  28.038  33.613  1.00  0.00     0.037 A 
BRANCH  45  59
ATOM     59  C   UNL A   1      39.221  32.255  35.798  1.00  0.00     0.064 A 
ATOM     60  C   UNL A   1      38.306  31.769  36.743  1.00  0.00     0.173 A 
ATOM     61  C   UNL A   1      39.735  33.547  35.985  1.00  0.00     0.173 A 
ATOM     62  F   UNL A   1      37.776  30.544  36.603  1.00  0.00    -0.203 F 
ATOM     63  C   UNL A   1      37.902  32.555  37.820  1.00  0.00     0.198 A 
ATOM     64  C   UNL A   1      39.348  34.321  37.077  1.00  0.00     0.198 A 
ATOM     65  F   UNL A   1      40.615  34.058  35.112  1.00  0.00    -0.203 F 
ATOM     66  F   UNL A   1      36.994  32.086  38.687  1.00  0.00    -0.200 F 
ATOM     67  C   UNL A   1      38.429  33.827  37.990  1.00  0.00     0.200 A 
ATOM     68  F   UNL A   1      39.865  35.546  37.244  1.00  0.00    -0.200 F 
ATOM     69  F   UNL A   1      38.043  34.581  39.028  1.00  0.00    -0.200 F 
ENDBRANCH  45  59
BRANCH  46  70
ATOM     70  C   UNL A   1      41.976  26.991  27.768  1.00  0.00     0.064 A 
ATOM     71  C   UNL A   1      42.883  27.523  26.842  1.00  0.00     0.173 A 
ATOM     72  C   UNL A   1      41.475  25.704  27.526  1.00  0.00     0.173 A 
ATOM     73  F   UNL A   1      43.371  28.760  27.017  1.00  0.00    -0.203 F 
ATOM     74  C   UNL A   1      43.259  26.805  25.708  1.00  0.00     0.198 A 
ATOM     75  C   UNL A   1      41.873  24.975  26.407  1.00  0.00     0.198 A 
ATOM     76  F   UNL A   1      40.605  25.149  28.382  1.00  0.00    -0.203 F 
ATOM     77  F   UNL A   1      44.094  27.354  24.816  1.00  0.00    -0.200 F 
ATOM     78  C   UNL A   1      42.759  25.529  25.495  1.00  0.00     0.200 A 
ATOM     79  F   UNL A   1      41.397  23.738  26.212  1.00  0.00    -0.200 F 
ATOM     80  F   UNL A   1      43.125  24.837  24.408  1.00  0.00    -0.200 F 
ENDBRANCH  46  70
BRANCH  58  81
ATOM     81  C   UNL A   1      44.266  27.307  34.339  1.00  0.00     0.064 A 
ATOM     82  C   UNL A   1      45.563  27.829  34.437  1.00  0.00     0.173 A 
ATOM     83  C   UNL A   1      44.002  26.079  34.965  1.00  0.00     0.173 A 
ATOM     84  F   UNL A   1      45.869  28.993  33.843  1.00  0.00    -0.203 F 
ATOM     85  C   UNL A   1      46.566  27.133  35.108  1.00  0.00     0.198 A 
ATOM     86  C   UNL A   1      44.999  25.400  35.660  1.00  0.00     0.198 A 
ATOM     87  F   UNL A   1      42.775  25.540  34.908  1.00  0.00    -0.203 F 
ATOM     88  F   UNL A   1      47.812  27.627  35.144  1.00  0.00    -0.200 F 
ATOM     89  C   UNL A   1      46.282  25.923  35.722  1.00  0.00     0.200 A 
ATOM     90  F   UNL A   1      44.720  24.236  36.263  1.00  0.00    -0.200 F 
ATOM     91  F   UNL A   1      47.248  25.256  36.369  1.00  0.00    -0.200 F 
ENDBRANCH  58  81
ENDBRANCH  32  33
ENDBRANCH  25  27
ENDBRANCH  24  25
ENDBRANCH  23  24
ENDBRANCH  22  23
ENDBRANCH  21  22
ENDBRANCH   1  21
TORSDOF 17
ENDMDL
MODEL 2
REMARK VINA RESULT:     -10.7      0.556      1.685
REMARK SMILES CSc1ncccc1C(=O)N1CSC[C@H]1C(=O)OCCOCCOC(=O)c1ccc(-c2c3nc(c(-c4c(F)c(F)c(F)c(F)c4F)c4ccc([nH]4)c(-c4c(F)c(F)c(F)c(F)c4F)c4nc(c(-c5c(F)c(F)c(F)c(F)c5F)c5ccc2[nH]5)C=C4)C=C3)cc1
REMARK SMILES IDX 20 1 19 2 18 3 16 4 17 5 15 6 11 7 12 8 13 9 14 10 9 11
REMARK SMILES IDX 10 12 8 13 3 14 4 15 5 16 7 17 6 18 2 19 1 20 21 21 22 22
REMARK SMILES IDX 23 23 24 24 25 25 26 26 27 27 28 28 89 29 29 30 88 31 30 32
REMARK SMILES IDX 31 33 32 34 82 35 33 36 87 37 81 38 83 39 34 40 86 41 80 42
REMARK SMILES IDX 79 43 35 45 67 46 47 47 66 48 48 49 51 50 65 51 84 52 49 53
REMARK SMILES IDX 50 54 64 56 85 57 52 58 36 59 37 60 45 61 38 62 39 63 43 64
REMARK SMILES IDX 46 65 40 66 41 67 44 68 42 69 68 70 69 71 77 72 70 73 71 74
REMARK SMILES IDX 75 75 78 76 72 77 73 78 76 79 74 80 53 81 54 82 62 83 55 84
REMARK SMILES IDX 56 85 60 86 63 87 57 88 58 89 61 90 59 91
REMARK H PARENT 83 44 51 55
REMARK Flexibility Score: inf
ROOT
ATOM      1  C   UNL A   1      32.670  29.358  27.150  1.00  0.00     0.202 C 
ENDROOT
BRANCH   1   2
ATOM      2  C   UNL A   1      33.402  28.093  26.679  1.00  0.00     0.261 C 
BRANCH   2   3
ATOM      3  O   UNL A   1      32.870  27.489  25.481  1.00  0.00    -0.462 OA
BRANCH   3   4
ATOM      4  C   UNL A   1      33.152  26.163  25.347  1.00  0.00     0.329 C 
ATOM      5  O   UNL A   1      33.183  25.366  26.283  1.00  0.00    -0.250 OA
BRANCH   4   6
ATOM      6  C   UNL A   1      33.537  25.719  23.933  1.00  0.00     0.206 C 
ATOM      7  N   UNL A   1      33.009  24.507  23.291  1.00  0.00    -0.315 N 
ATOM      8  C   UNL A   1      31.729  24.705  22.650  1.00  0.00     0.191 C 
ATOM      9  S   UNL A   1      31.737  26.406  22.049  1.00  0.00    -0.138 SA
ATOM     10  C   UNL A   1      33.217  26.889  22.996  1.00  0.00     0.108 C 
BRANCH   7  11
ATOM     11  C   UNL A   1      33.833  23.389  23.181  1.00  0.00     0.258 C 
ATOM     12  O   UNL A   1      34.712  23.341  22.326  1.00  0.00    -0.269 OA
BRANCH  11  13
ATOM     13  C   UNL A   1      33.514  22.173  23.987  1.00  0.00     0.072 A 
ATOM     14  C   UNL A   1      34.165  21.809  25.171  1.00  0.00     0.108 A 
ATOM     15  N   UNL A   1      33.867  20.649  25.828  1.00  0.00    -0.249 NA
ATOM     16  C   UNL A   1      32.987  19.792  25.269  1.00  0.00     0.112 A 
ATOM     17  C   UNL A   1      32.629  21.234  23.421  1.00  0.00     0.018 A 
ATOM     18  C   UNL A   1      32.359  20.031  24.065  1.00  0.00     0.021 A 
BRANCH  14  19
ATOM     19  S   UNL A   1      35.551  22.655  25.903  1.00  0.00    -0.109 SA
ATOM     20  C   UNL A   1      36.937  21.704  25.257  1.00  0.00     0.092 C 
ENDBRANCH  14  19
ENDBRANCH  11  13
ENDBRANCH   7  11
ENDBRANCH   4   6
ENDBRANCH   3   4
ENDBRANCH   2   3
ENDBRANCH   1   2
BRANCH   1  21
ATOM     21  O   UNL A   1      32.570  30.459  26.255  1.00  0.00    -0.374 OA
BRANCH  21  22
ATOM     22  C   UNL A   1      31.471  31.347  26.412  1.00  0.00     0.202 C 
BRANCH  22  23
ATOM     23  C   UNL A   1      31.749  32.756  26.953  1.00  0.00     0.261 C 
BRANCH  23  24
ATOM     24  O   UNL A   1      33.120  33.184  26.891  1.00  0.00    -0.460 OA
BRANCH  24  25
ATOM     25  C   UNL A   1      33.639  33.596  28.073  1.00  0.00     0.338 C 
ATOM     26  O   UNL A   1      33.169  34.399  28.860  1.00  0.00    -0.246 OA
BRANCH  25  27
ATOM     27  C   UNL A   1      34.885  32.868  28.362  1.00  0.00     0.060 A 
ATOM     28  C   UNL A   1      34.795  31.547  28.816  1.00  0.00     0.016 A 
ATOM     29  C   UNL A   1      36.113  33.533  28.341  1.00  0.00     0.016 A 
ATOM     30  C   UNL A   1      35.936  30.899  29.290  1.00  0.00     0.010 A 
ATOM     31  C   UNL A   1      37.256  32.879  28.816  1.00  0.00     0.010 A 
ATOM     32  C   UNL A   1      37.165  31.573  29.329  1.00  0.00    -0.014 A 
BRANCH  32  33
ATOM     33  C   UNL A   1      38.312  30.950  30.035  1.00  0.00     0.031 A 
ATOM     34  C   UNL A   1      38.565  31.292  31.478  1.00  0.00     0.074 A 
ATOM     35  C   UNL A   1      39.088  30.048  29.408  1.00  0.00     0.049 A 
ATOM     36  N   UNL A   1      39.473  30.824  32.297  1.00  0.00    -0.248 NA
ATOM     37  C   UNL A   1      37.675  32.298  32.079  1.00  0.00     0.031 C 
ATOM     38  C   UNL A   1      38.934  29.626  28.018  1.00  0.00     0.029 A 
ATOM     39  N   UNL A   1      40.158  29.318  29.865  1.00  0.00    -0.354 N 
ATOM     40  C   UNL A   1      39.261  31.473  33.507  1.00  0.00     0.074 A 
ATOM     41  C   UNL A   1      38.165  32.396  33.306  1.00  0.00     0.031 C 
ATOM     42  C   UNL A   1      39.872  28.706  27.735  1.00  0.00     0.029 A 
ATOM     43  C   UNL A   1      40.702  28.488  28.918  1.00  0.00     0.049 A 
ATOM     44  H   UNL A   1      40.501  29.385  30.786  1.00  0.00     0.167 HD
ATOM     45  C   UNL A   1      39.912  31.304  34.683  1.00  0.00     0.037 A 
ATOM     46  C   UNL A   1      41.752  27.648  28.999  1.00  0.00     0.037 A 
ATOM     47  C   UNL A   1      41.003  30.384  34.882  1.00  0.00     0.049 A 
ATOM     48  C   UNL A   1      42.478  27.500  30.310  1.00  0.00     0.074 A 
ATOM     49  C   UNL A   1      41.720  30.129  36.038  1.00  0.00     0.029 A 
ATOM     50  N   UNL A   1      41.535  29.570  33.893  1.00  0.00    -0.354 N 
ATOM     51  N   UNL A   1      42.245  28.090  31.458  1.00  0.00    -0.248 NA
ATOM     52  C   UNL A   1      43.606  26.558  30.339  1.00  0.00     0.031 C 
ATOM     53  C   UNL A   1      42.713  29.189  35.739  1.00  0.00     0.029 A 
ATOM     54  C   UNL A   1      42.584  28.824  34.408  1.00  0.00     0.049 A 
ATOM     55  H   UNL A   1      41.216  29.528  32.963  1.00  0.00     0.167 HD
ATOM     56  C   UNL A   1      43.174  27.571  32.350  1.00  0.00     0.074 A 
ATOM     57  C   UNL A   1      43.966  26.607  31.614  1.00  0.00     0.031 C 
ATOM     58  C   UNL A   1      43.357  27.865  33.661  1.00  0.00     0.037 A 
BRANCH  45  59
ATOM     59  C   UNL A   1      39.471  32.144  35.846  1.00  0.00     0.064 A 
ATOM     60  C   UNL A   1      38.452  31.721  36.714  1.00  0.00     0.173 A 
ATOM     61  C   UNL A   1      40.095  33.371  36.114  1.00  0.00     0.173 A 
ATOM     62  F   UNL A   1      37.816  30.561  36.493  1.00  0.00    -0.203 F 
ATOM     63  C   UNL A   1      38.058  32.508  37.793  1.00  0.00     0.198 A 
ATOM     64  C   UNL A   1      39.715  34.144  37.210  1.00  0.00     0.198 A 
ATOM     65  F   UNL A   1      41.076  33.820  35.318  1.00  0.00    -0.203 F 
ATOM     66  F   UNL A   1      37.053  32.105  38.584  1.00  0.00    -0.200 F 
ATOM     67  C   UNL A   1      38.694  33.715  38.044  1.00  0.00     0.200 A 
ATOM     68  F   UNL A   1      40.337  35.305  37.456  1.00  0.00    -0.200 F 
ATOM     69  F   UNL A   1      38.317  34.469  39.086  1.00  0.00    -0.200 F 
ENDBRANCH  45  59
BRANCH  46  70
ATOM     70  C   UNL A   1      42.170  26.869  27.805  1.00  0.00     0.064 A 
ATOM     71  C   UNL A   1      41.599  25.622  27.517  1.00  0.00     0.173 A 
ATOM     72  C   UNL A   1      43.157  27.351  26.934  1.00  0.00     0.173 A 
ATOM     73  F   UNL A   1      40.668  25.107  28.333  1.00  0.00    -0.203 F 
ATOM     74  C   UNL A   1      42.013  24.879  26.412  1.00  0.00     0.198 A 
ATOM     75  C   UNL A   1      43.551  26.621  25.815  1.00  0.00     0.198 A 
ATOM     76  F   UNL A   1      43.734  28.540  27.165  1.00  0.00    -0.203 F 
ATOM     77  F   UNL A   1      41.482  23.670  26.184  1.00  0.00    -0.200 F 
ATOM     78  C   UNL A   1      42.983  25.381  25.559  1.00  0.00     0.200 A 
ATOM     79  F   UNL A   1      44.480  27.116  24.986  1.00  0.00    -0.200 F 
ATOM     80  F   UNL A   1      43.377  24.669  24.495  1.00  0.00    -0.200 F 
ENDBRANCH  46  70
BRANCH  58  81
ATOM     81  C   UNL A   1      44.430  27.111  34.389  1.00  0.00     0.064 A 
ATOM     82  C   UNL A   1      44.175  25.878  35.006  1.00  0.00     0.173 A 
ATOM     83  C   UNL A   1      45.738  27.617  34.446  1.00  0.00     0.173 A 
ATOM     84  F   UNL A   1      42.937  25.359  34.992  1.00  0.00    -0.203 F 
ATOM     85  C   UNL A   1      45.182  25.195  35.684  1.00  0.00     0.198 A 
ATOM     86  C   UNL A   1      46.749  26.917  35.100  1.00  0.00     0.198 A 
ATOM     87  F   UNL A   1      46.037  28.787  33.864  1.00  0.00    -0.203 F 
ATOM     88  F   UNL A   1      44.902  24.044  36.313  1.00  0.00    -0.200 F 
ATOM     89  C   UNL A   1      46.468  25.712  35.726  1.00  0.00     0.200 A 
ATOM     90  F   UNL A   1      47.994  27.412  35.129  1.00  0.00    -0.200 F 
ATOM     91  F   UNL A   1      47.436  25.053  36.378  1.00  0.00    -0.200 F 
ENDBRANCH  58  81
ENDBRANCH  32  33
ENDBRANCH  25  27
ENDBRANCH  24  25
ENDBRANCH  23  24
ENDBRANCH  22  23
ENDBRANCH  21  22
ENDBRANCH   1  21
TORSDOF 17
ENDMDL
MODEL 3
REMARK VINA RESULT:     -10.6      4.791     10.202
REMARK SMILES CSc1ncccc1C(=O)N1CSC[C@H]1C(=O)OCCOCCOC(=O)c1ccc(-c2c3nc(c(-c4c(F)c(F)c(F)c(F)c4F)c4ccc([nH]4)c(-c4c(F)c(F)c(F)c(F)c4F)c4nc(c(-c5c(F)c(F)c(F)c(F)c5F)c5ccc2[nH]5)C=C4)C=C3)cc1
REMARK SMILES IDX 20 1 19 2 18 3 16 4 17 5 15 6 11 7 12 8 13 9 14 10 9 11
REMARK SMILES IDX 10 12 8 13 3 14 4 15 5 16 7 17 6 18 2 19 1 20 21 21 22 22
REMARK SMILES IDX 23 23 24 24 25 25 26 26 27 27 28 28 89 29 29 30 88 31 30 32
REMARK SMILES IDX 31 33 32 34 82 35 33 36 87 37 81 38 83 39 34 40 86 41 80 42
REMARK SMILES IDX 79 43 35 45 67 46 47 47 66 48 48 49 51 50 65 51 84 52 49 53
REMARK SMILES IDX 50 54 64 56 85 57 52 58 36 59 37 60 45 61 38 62 39 63 43 64
REMARK SMILES IDX 46 65 40 66 41 67 44 68 42 69 68 70 69 71 77 72 70 73 71 74
REMARK SMILES IDX 75 75 78 76 72 77 73 78 76 79 74 80 53 81 54 82 62 83 55 84
REMARK SMILES IDX 56 85 60 86 63 87 57 88 58 89 61 90 59 91
REMARK H PARENT 83 44 51 55
REMARK Flexibility Score: inf
ROOT
ATOM      1  C   UNL A   1      38.268  23.462  26.173  1.00  0.00     0.202 C 
ENDROOT
BRANCH   1   2
ATOM      2  C   UNL A   1      36.913  23.620  25.468  1.00  0.00     0.261 C 
BRANCH   2   3
ATOM      3  O   UNL A   1      35.777  23.757  26.349  1.00  0.00    -0.462 OA
BRANCH   3   4
ATOM      4  C   UNL A   1      34.873  22.741  26.263  1.00  0.00     0.329 C 
ATOM      5  O   UNL A   1      35.125  21.569  26.532  1.00  0.00    -0.250 OA
BRANCH   4   6
ATOM      6  C   UNL A   1      33.504  23.135  25.699  1.00  0.00     0.206 C 
ATOM      7  N   UNL A   1      33.189  24.482  25.203  1.00  0.00    -0.315 N 
ATOM      8  C   UNL A   1      33.579  24.697  23.829  1.00  0.00     0.191 C 
ATOM      9  S   UNL A   1      33.385  23.102  23.007  1.00  0.00    -0.138 SA
ATOM     10  C   UNL A   1      33.196  22.161  24.557  1.00  0.00     0.108 C 
BRANCH   7  11
ATOM     11  C   UNL A   1      32.400  25.321  25.988  1.00  0.00     0.258 C 
ATOM     12  O   UNL A   1      31.550  24.855  26.741  1.00  0.00    -0.269 OA
BRANCH  11  13
ATOM     13  C   UNL A   1      32.465  26.796  25.764  1.00  0.00     0.072 A 
ATOM     14  C   UNL A   1      31.632  27.507  24.893  1.00  0.00     0.108 A 
ATOM     15  N   UNL A   1      31.784  28.848  24.687  1.00  0.00    -0.249 NA
ATOM     16  C   UNL A   1      32.823  29.482  25.270  1.00  0.00     0.112 A 
ATOM     17  C   UNL A   1      33.557  27.489  26.324  1.00  0.00     0.018 A 
ATOM     18  C   UNL A   1      33.741  28.845  26.078  1.00  0.00     0.021 A 
BRANCH  14  19
ATOM     19  S   UNL A   1      30.402  26.800  23.817  1.00  0.00    -0.109 SA
ATOM     20  C   UNL A   1      29.516  28.269  23.267  1.00  0.00     0.092 C 
ENDBRANCH  14  19
ENDBRANCH  11  13
ENDBRANCH   7  11
ENDBRANCH   4   6
ENDBRANCH   3   4
ENDBRANCH   2   3
ENDBRANCH   1   2
BRANCH   1  21
ATOM     21  O   UNL A   1      38.805  22.154  26.325  1.00  0.00    -0.374 OA
BRANCH  21  22
ATOM     22  C   UNL A   1      38.466  21.177  25.350  1.00  0.00     0.202 C 
BRANCH  22  23
ATOM     23  C   UNL A   1      39.224  19.843  25.364  1.00  0.00     0.261 C 
BRANCH  23  24
ATOM     24  O   UNL A   1      40.135  19.660  26.463  1.00  0.00    -0.460 OA
BRANCH  24  25
ATOM     25  C   UNL A   1      41.439  19.562  26.108  1.00  0.00     0.338 C 
ATOM     26  O   UNL A   1      41.985  18.659  25.498  1.00  0.00    -0.246 OA
BRANCH  25  27
ATOM     27  C   UNL A   1      42.165  20.780  26.501  1.00  0.00     0.060 A 
ATOM     28  C   UNL A   1      42.233  21.106  27.861  1.00  0.00     0.016 A 
ATOM     29  C   UNL A   1      42.630  21.670  25.530  1.00  0.00     0.016 A 
ATOM     30  C   UNL A   1      42.733  22.348  28.250  1.00  0.00     0.010 A 
ATOM     31  C   UNL A   1      43.132  22.915  25.924  1.00  0.00     0.010 A 
ATOM     32  C   UNL A   1      43.150  23.276  27.283  1.00  0.00    -0.014 A 
BRANCH  32  33
ATOM     33  C   UNL A   1      43.470  24.663  27.700  1.00  0.00     0.031 A 
ATOM     34  C   UNL A   1      44.906  25.109  27.744  1.00  0.00     0.074 A 
ATOM     35  C   UNL A   1      42.484  25.532  27.988  1.00  0.00     0.049 A 
ATOM     36  N   UNL A   1      45.403  26.286  28.026  1.00  0.00    -0.248 NA
ATOM     37  C   UNL A   1      45.919  24.089  27.427  1.00  0.00     0.031 C 
ATOM     38  C   UNL A   1      41.056  25.222  27.968  1.00  0.00     0.029 A 
ATOM     39  N   UNL A   1      42.536  26.857  28.345  1.00  0.00    -0.354 N 
ATOM     40  C   UNL A   1      46.782  26.151  27.917  1.00  0.00     0.074 A 
ATOM     41  C   UNL A   1      47.046  24.768  27.581  1.00  0.00     0.031 C 
ATOM     42  C   UNL A   1      40.365  26.327  28.294  1.00  0.00     0.029 A 
ATOM     43  C   UNL A   1      41.303  27.416  28.562  1.00  0.00     0.049 A 
ATOM     44  H   UNL A   1      43.380  27.357  28.438  1.00  0.00     0.167 HD
ATOM     45  C   UNL A   1      47.740  27.097  28.068  1.00  0.00     0.037 A 
ATOM     46  C   UNL A   1      40.969  28.667  28.934  1.00  0.00     0.037 A 
ATOM     47  C   UNL A   1      47.476  28.473  28.401  1.00  0.00     0.049 A 
ATOM     48  C   UNL A   1      42.056  29.694  29.125  1.00  0.00     0.074 A 
ATOM     49  C   UNL A   1      48.376  29.513  28.563  1.00  0.00     0.029 A 
ATOM     50  N   UNL A   1      46.212  28.999  28.626  1.00  0.00    -0.354 N 
ATOM     51  N   UNL A   1      43.352  29.565  28.981  1.00  0.00    -0.248 NA
ATOM     52  C   UNL A   1      41.628  31.044  29.516  1.00  0.00     0.031 C 
ATOM     53  C   UNL A   1      47.660  30.659  28.928  1.00  0.00     0.029 A 
ATOM     54  C   UNL A   1      46.310  30.345  28.944  1.00  0.00     0.049 A 
ATOM     55  H   UNL A   1      45.371  28.492  28.570  1.00  0.00     0.167 HD
ATOM     56  C   UNL A   1      43.892  30.818  29.235  1.00  0.00     0.074 A 
ATOM     57  C   UNL A   1      42.780  31.699  29.528  1.00  0.00     0.031 C 
ATOM     58  C   UNL A   1      45.191  31.206  29.227  1.00  0.00     0.037 A 
BRANCH  45  59
ATOM     59  C   UNL A   1      49.168  26.671  27.888  1.00  0.00     0.064 A 
ATOM     60  C   UNL A   1      49.731  26.507  26.613  1.00  0.00     0.173 A 
ATOM     61  C   UNL A   1      49.992  26.455  29.003  1.00  0.00     0.173 A 
ATOM     62  F   UNL A   1      48.982  26.690  25.516  1.00  0.00    -0.203 F 
ATOM     63  C   UNL A   1      51.060  26.119  26.462  1.00  0.00     0.198 A 
ATOM     64  C   UNL A   1      51.327  26.091  28.847  1.00  0.00     0.198 A 
ATOM     65  F   UNL A   1      49.503  26.601  30.243  1.00  0.00    -0.203 F 
ATOM     66  F   UNL A   1      51.566  25.926  25.235  1.00  0.00    -0.200 F 
ATOM     67  C   UNL A   1      51.859  25.918  27.578  1.00  0.00     0.200 A 
ATOM     68  F   UNL A   1      52.100  25.907  29.926  1.00  0.00    -0.200 F 
ATOM     69  F   UNL A   1      53.139  25.549  27.432  1.00  0.00    -0.200 F 
ENDBRANCH  45  59
BRANCH  46  70
ATOM     70  C   UNL A   1      39.541  29.024  29.135  1.00  0.00     0.064 A 
ATOM     71  C   UNL A   1      38.743  29.452  28.066  1.00  0.00     0.173 A 
ATOM     72  C   UNL A   1      38.949  28.955  30.404  1.00  0.00     0.173 A 
ATOM     73  F   UNL A   1      39.271  29.558  26.837  1.00  0.00    -0.203 F 
ATOM     74  C   UNL A   1      37.411  29.814  28.260  1.00  0.00     0.198 A 
ATOM     75  C   UNL A   1      37.610  29.290  30.594  1.00  0.00     0.198 A 
ATOM     76  F   UNL A   1      39.669  28.551  31.460  1.00  0.00    -0.203 F 
ATOM     77  F   UNL A   1      36.682  30.261  27.229  1.00  0.00    -0.200 F 
ATOM     78  C   UNL A   1      36.844  29.727  29.523  1.00  0.00     0.200 A 
ATOM     79  F   UNL A   1      37.062  29.192  31.813  1.00  0.00    -0.200 F 
ATOM     80  F   UNL A   1      35.563  30.070  29.709  1.00  0.00    -0.200 F 
ENDBRANCH  46  70
BRANCH  58  81
ATOM     81  C   UNL A   1      45.475  32.653  29.510  1.00  0.00     0.064 A 
ATOM     82  C   UNL A   1      45.482  33.615  28.490  1.00  0.00     0.173 A 
ATOM     83  C   UNL A   1      45.717  33.085  30.823  1.00  0.00     0.173 A 
ATOM     84  F   UNL A   1      45.271  33.250  27.215  1.00  0.00    -0.203 F 
ATOM     85  C   UNL A   1      45.755  34.952  28.769  1.00  0.00     0.198 A 
ATOM     86  C   UNL A   1      45.960  34.427  31.102  1.00  0.00     0.198 A 
ATOM     87  F   UNL A   1      45.712  32.207  31.836  1.00  0.00    -0.203 F 
ATOM     88  F   UNL A   1      45.809  35.845  27.770  1.00  0.00    -0.200 F 
ATOM     89  C   UNL A   1      45.988  35.357  30.074  1.00  0.00     0.200 A 
ATOM     90  F   UNL A   1      46.173  34.820  32.366  1.00  0.00    -0.200 F 
ATOM     91  F   UNL A   1      46.249  36.644  30.341  1.00  0.00    -0.200 F 
ENDBRANCH  58  81
ENDBRANCH  32  33
ENDBRANCH  25  27
ENDBRANCH  24  25
ENDBRANCH  23  24
ENDBRANCH  22  23
ENDBRANCH  21  22
ENDBRANCH   1  21
TORSDOF 17
ENDMDL
