MODEL 1
REMARK VINA RESULT:     -12.7      0.000      0.000
REMARK SMILES CS(=O)(=O)c1ccc(/C=C(/C(=O)OCCOCCOC(=O)c2ccc(-c3c4nc(c(-c5c(F)c(F)c(F)c(F)c5F)c5ccc([nH]5)c(-c5c(F)c(F)c(F)c(F)c5F)c5nc(c(-c6c(F)c(F)c(F)c(F)c6F)c6ccc3[nH]6)C=C5)C=C4)cc2)c2ccc(O)cc2)cc1
REMARK SMILES IDX 16 1 15 2 14 3 13 4 11 5 12 6 10 7 9 8 8 9 5 10 6 11 93 12
REMARK SMILES IDX 7 13 92 14 2 15 1 16 3 17 4 18 85 19 86 20 91 21 87 22 90 23
REMARK SMILES IDX 88 24 89 25 17 27 18 28 19 29 20 30 21 31 22 32 23 33 84 34
REMARK SMILES IDX 24 35 83 36 25 37 26 38 27 39 77 40 28 41 82 42 76 43 78 44
REMARK SMILES IDX 29 45 81 46 75 47 74 48 30 50 62 51 42 52 61 53 43 54 46 55
REMARK SMILES IDX 60 56 79 57 44 58 45 59 59 61 80 62 47 63 31 64 32 65 40 66
REMARK SMILES IDX 33 67 34 68 38 69 41 70 35 71 36 72 39 73 37 74 63 75 64 76
REMARK SMILES IDX 72 77 65 78 66 79 70 80 73 81 67 82 68 83 71 84 69 85 48 86
REMARK SMILES IDX 49 87 57 88 50 89 51 90 55 91 58 92 52 93 53 94 56 95 54 96
REMARK H PARENT 89 26 78 49 46 60
REMARK Flexibility Score: inf
ROOT
ATOM      1  O   UNL A   1      35.468  21.657  26.047  1.00  0.00    -0.374 OA
ENDROOT
BRANCH   1   2
ATOM      2  C   UNL A   1      34.219  21.537  26.726  1.00  0.00     0.202 C 
BRANCH   2   3
ATOM      3  C   UNL A   1      33.691  22.783  27.440  1.00  0.00     0.261 C 
BRANCH   3   4
ATOM      4  O   UNL A   1      33.282  23.793  26.501  1.00  0.00    -0.460 OA
BRANCH   4   5
ATOM      5  C   UNL A   1      31.963  24.111  26.556  1.00  0.00     0.338 C 
ATOM      6  O   UNL A   1      31.134  23.570  27.273  1.00  0.00    -0.246 OA
BRANCH   5   7
ATOM      7  C   UNL A   1      31.632  25.295  25.699  1.00  0.00     0.067 C 
ATOM      8  C   UNL A   1      30.843  25.149  24.608  1.00  0.00     0.024 C 
BRANCH   8   9
ATOM      9  C   UNL A   1      30.176  26.226  23.832  1.00  0.00    -0.025 A 
ATOM     10  C   UNL A   1      28.832  28.525  22.942  1.00  0.00     0.067 A 
ATOM     11  C   UNL A   1      30.196  28.373  22.692  1.00  0.00     0.021 A 
ATOM     12  C   UNL A   1      28.102  27.477  23.501  1.00  0.00     0.021 A 
ATOM     13  C   UNL A   1      30.852  27.211  23.103  1.00  0.00     0.009 A 
ATOM     14  C   UNL A   1      28.779  26.332  23.942  1.00  0.00     0.009 A 
BRANCH  10  15
ATOM     15  S   UNL A   1      28.112  30.118  22.626  1.00  0.00     0.175 S 
ATOM     16  C   UNL A   1      29.228  31.337  23.253  1.00  0.00     0.163 C 
ATOM     17  O   UNL A   1      26.902  30.195  23.423  1.00  0.00    -0.224 OA
ATOM     18  O   UNL A   1      28.071  30.260  21.184  1.00  0.00    -0.224 OA
ENDBRANCH  10  15
ENDBRANCH   8   9
BRANCH   7  19
ATOM     19  C   UNL A   1      32.137  26.596  26.182  1.00  0.00    -0.011 A 
ATOM     20  C   UNL A   1      31.326  27.375  27.024  1.00  0.00     0.013 A 
ATOM     21  C   UNL A   1      33.420  27.048  25.854  1.00  0.00     0.013 A 
ATOM     22  C   UNL A   1      31.804  28.571  27.556  1.00  0.00     0.047 A 
ATOM     23  C   UNL A   1      33.902  28.242  26.395  1.00  0.00     0.047 A 
ATOM     24  C   UNL A   1      33.091  28.988  27.248  1.00  0.00     0.115 A 
BRANCH  24  25
ATOM     25  O   UNL A   1      33.533  30.142  27.820  1.00  0.00    -0.508 OA
ATOM     26  H   UNL A   1      34.241  30.121  28.434  1.00  0.00     0.293 HD
ENDBRANCH  24  25
ENDBRANCH   7  19
ENDBRANCH   5   7
ENDBRANCH   4   5
ENDBRANCH   3   4
ENDBRANCH   2   3
ENDBRANCH   1   2
BRANCH   1  27
ATOM     27  C   UNL A   1      35.827  20.622  25.135  1.00  0.00     0.202 C 
BRANCH  27  28
ATOM     28  C   UNL A   1      37.316  20.275  25.010  1.00  0.00     0.261 C 
BRANCH  28  29
ATOM     29  O   UNL A   1      38.168  21.399  25.272  1.00  0.00    -0.460 OA
BRANCH  29  30
ATOM     30  C   UNL A   1      39.236  21.125  26.055  1.00  0.00     0.338 C 
ATOM     31  O   UNL A   1      39.822  20.055  26.173  1.00  0.00    -0.246 OA
BRANCH  30  32
ATOM     32  C   UNL A   1      39.742  22.371  26.652  1.00  0.00     0.060 A 
ATOM     33  C   UNL A   1      39.194  23.580  26.203  1.00  0.00     0.016 A 
ATOM     34  C   UNL A   1      40.773  22.357  27.593  1.00  0.00     0.016 A 
ATOM     35  C   UNL A   1      39.707  24.791  26.662  1.00  0.00     0.010 A 
ATOM     36  C   UNL A   1      41.297  23.571  28.039  1.00  0.00     0.010 A 
ATOM     37  C   UNL A   1      40.790  24.790  27.549  1.00  0.00    -0.014 A 
BRANCH  37  38
ATOM     38  C   UNL A   1      41.519  26.047  27.831  1.00  0.00     0.031 A 
ATOM     39  C   UNL A   1      40.796  27.142  28.563  1.00  0.00     0.074 A 
ATOM     40  C   UNL A   1      42.791  26.213  27.434  1.00  0.00     0.049 A 
ATOM     41  N   UNL A   1      41.173  28.369  28.807  1.00  0.00    -0.248 NA
ATOM     42  C   UNL A   1      39.461  26.806  29.082  1.00  0.00     0.031 C 
ATOM     43  C   UNL A   1      43.609  25.200  26.772  1.00  0.00     0.029 A 
ATOM     44  N   UNL A   1      43.611  27.310  27.519  1.00  0.00    -0.354 N 
ATOM     45  C   UNL A   1      40.118  28.956  29.494  1.00  0.00     0.074 A 
ATOM     46  C   UNL A   1      39.077  27.959  29.607  1.00  0.00     0.031 C 
ATOM     47  C   UNL A   1      44.812  25.731  26.489  1.00  0.00     0.029 A 
ATOM     48  C   UNL A   1      44.829  27.130  26.913  1.00  0.00     0.049 A 
ATOM     49  H   UNL A   1      43.351  28.145  27.971  1.00  0.00     0.167 HD
ATOM     50  C   UNL A   1      40.031  30.213  29.987  1.00  0.00     0.037 A 
ATOM     51  C   UNL A   1      45.827  28.010  26.697  1.00  0.00     0.037 A 
ATOM     52  C   UNL A   1      41.074  31.198  29.869  1.00  0.00     0.049 A 
ATOM     53  C   UNL A   1      45.673  29.430  27.182  1.00  0.00     0.074 A 
ATOM     54  C   UNL A   1      41.089  32.500  30.335  1.00  0.00     0.029 A 
ATOM     55  N   UNL A   1      42.286  30.984  29.230  1.00  0.00    -0.354 N 
ATOM     56  N   UNL A   1      44.676  29.981  27.831  1.00  0.00    -0.248 NA
ATOM     57  C   UNL A   1      46.782  30.352  26.898  1.00  0.00     0.031 C 
ATOM     58  C   UNL A   1      42.292  33.090  29.937  1.00  0.00     0.029 A 
ATOM     59  C   UNL A   1      43.050  32.139  29.272  1.00  0.00     0.049 A 
ATOM     60  H   UNL A   1      42.564  30.138  28.810  1.00  0.00     0.167 HD
ATOM     61  C   UNL A   1      45.052  31.296  28.069  1.00  0.00     0.074 A 
ATOM     62  C   UNL A   1      46.370  31.463  27.492  1.00  0.00     0.031 C 
ATOM     63  C   UNL A   1      44.372  32.276  28.713  1.00  0.00     0.037 A 
BRANCH  50  64
ATOM     64  C   UNL A   1      38.753  30.603  30.669  1.00  0.00     0.064 A 
ATOM     65  C   UNL A   1      38.609  30.535  32.062  1.00  0.00     0.173 A 
ATOM     66  C   UNL A   1      37.664  31.071  29.918  1.00  0.00     0.173 A 
ATOM     67  F   UNL A   1      39.614  30.078  32.824  1.00  0.00    -0.203 F 
ATOM     68  C   UNL A   1      37.412  30.897  32.676  1.00  0.00     0.198 A 
ATOM     69  C   UNL A   1      36.480  31.460  30.538  1.00  0.00     0.198 A 
ATOM     70  F   UNL A   1      37.750  31.156  28.581  1.00  0.00    -0.203 F 
ATOM     71  F   UNL A   1      37.280  30.778  34.004  1.00  0.00    -0.200 F 
ATOM     72  C   UNL A   1      36.352  31.366  31.914  1.00  0.00     0.200 A 
ATOM     73  F   UNL A   1      35.461  31.924  29.801  1.00  0.00    -0.200 F 
ATOM     74  F   UNL A   1      35.203  31.720  32.508  1.00  0.00    -0.200 F 
ENDBRANCH  50  64
BRANCH  51  75
ATOM     75  C   UNL A   1      47.053  27.581  25.976  1.00  0.00     0.064 A 
ATOM     76  C   UNL A   1      47.126  27.644  24.577  1.00  0.00     0.173 A 
ATOM     77  C   UNL A   1      48.170  27.087  26.666  1.00  0.00     0.173 A 
ATOM     78  F   UNL A   1      46.074  28.086  23.871  1.00  0.00    -0.203 F 
ATOM     79  C   UNL A   1      48.262  27.213  23.896  1.00  0.00     0.198 A 
ATOM     80  C   UNL A   1      49.316  26.683  25.985  1.00  0.00     0.198 A 
ATOM     81  F   UNL A   1      48.150  27.004  28.005  1.00  0.00    -0.203 F 
ATOM     82  F   UNL A   1      48.289  27.241  22.556  1.00  0.00    -0.200 F 
ATOM     83  C   UNL A   1      49.359  26.738  24.600  1.00  0.00     0.200 A 
ATOM     84  F   UNL A   1      50.377  26.237  26.670  1.00  0.00    -0.200 F 
ATOM     85  F   UNL A   1      50.453  26.328  23.945  1.00  0.00    -0.200 F 
ENDBRANCH  51  75
BRANCH  63  86
ATOM     86  C   UNL A   1      45.056  33.601  28.888  1.00  0.00     0.064 A 
ATOM     87  C   UNL A   1      44.877  34.651  27.978  1.00  0.00     0.173 A 
ATOM     88  C   UNL A   1      45.843  33.839  30.025  1.00  0.00     0.173 A 
ATOM     89  F   UNL A   1      44.145  34.467  26.869  1.00  0.00    -0.203 F 
ATOM     90  C   UNL A   1      45.472  35.891  28.194  1.00  0.00     0.198 A 
ATOM     91  C   UNL A   1      46.414  35.089  30.252  1.00  0.00     0.198 A 
ATOM     92  F   UNL A   1      46.038  32.868  30.929  1.00  0.00    -0.203 F 
ATOM     93  F   UNL A   1      45.317  36.872  27.295  1.00  0.00    -0.200 F 
ATOM     94  C   UNL A   1      46.232  36.112  29.334  1.00  0.00     0.200 A 
ATOM     95  F   UNL A   1      47.132  35.304  31.363  1.00  0.00    -0.200 F 
ATOM     96  F   UNL A   1      46.790  37.311  29.548  1.00  0.00    -0.200 F 
ENDBRANCH  63  86
ENDBRANCH  37  38
ENDBRANCH  30  32
ENDBRANCH  29  30
ENDBRANCH  28  29
ENDBRANCH  27  28
ENDBRANCH   1  27
TORSDOF 18
ENDMDL
MODEL 2
REMARK VINA RESULT:     -12.7      4.447     10.000
REMARK SMILES CS(=O)(=O)c1ccc(/C=C(/C(=O)OCCOCCOC(=O)c2ccc(-c3c4nc(c(-c5c(F)c(F)c(F)c(F)c5F)c5ccc([nH]5)c(-c5c(F)c(F)c(F)c(F)c5F)c5nc(c(-c6c(F)c(F)c(F)c(F)c6F)c6ccc3[nH]6)C=C5)C=C4)cc2)c2ccc(O)cc2)cc1
REMARK SMILES IDX 16 1 15 2 14 3 13 4 11 5 12 6 10 7 9 8 8 9 5 10 6 11 93 12
REMARK SMILES IDX 7 13 92 14 2 15 1 16 3 17 4 18 85 19 86 20 91 21 87 22 90 23
REMARK SMILES IDX 88 24 89 25 17 27 18 28 19 29 20 30 21 31 22 32 23 33 84 34
REMARK SMILES IDX 24 35 83 36 25 37 26 38 27 39 77 40 28 41 82 42 76 43 78 44
REMARK SMILES IDX 29 45 81 46 75 47 74 48 30 50 62 51 42 52 61 53 43 54 46 55
REMARK SMILES IDX 60 56 79 57 44 58 45 59 59 61 80 62 47 63 31 64 32 65 40 66
REMARK SMILES IDX 33 67 34 68 38 69 41 70 35 71 36 72 39 73 37 74 63 75 64 76
REMARK SMILES IDX 72 77 65 78 66 79 70 80 73 81 67 82 68 83 71 84 69 85 48 86
REMARK SMILES IDX 49 87 57 88 50 89 51 90 55 91 58 92 52 93 53 94 56 95 54 96
REMARK H PARENT 89 26 78 49 46 60
REMARK Flexibility Score: inf
ROOT
ATOM      1  O   UNL A   1      31.436  28.576  23.899  1.00  0.00    -0.374 OA
ENDROOT
BRANCH   1   2
ATOM      2  C   UNL A   1      32.598  28.919  23.146  1.00  0.00     0.202 C 
BRANCH   2   3
ATOM      3  C   UNL A   1      33.787  27.958  23.222  1.00  0.00     0.261 C 
BRANCH   3   4
ATOM      4  O   UNL A   1      33.381  26.655  23.676  1.00  0.00    -0.460 OA
BRANCH   4   5
ATOM      5  C   UNL A   1      33.503  25.673  22.746  1.00  0.00     0.338 C 
ATOM      6  O   UNL A   1      33.653  25.849  21.545  1.00  0.00    -0.246 OA
BRANCH   5   7
ATOM      7  C   UNL A   1      33.539  24.310  23.365  1.00  0.00     0.067 C 
ATOM      8  C   UNL A   1      32.437  23.522  23.348  1.00  0.00     0.024 C 
BRANCH   8   9
ATOM      9  C   UNL A   1      32.370  22.066  23.633  1.00  0.00    -0.025 A 
ATOM     10  C   UNL A   1      32.802  19.301  23.866  1.00  0.00     0.067 A 
ATOM     11  C   UNL A   1      32.909  20.120  24.990  1.00  0.00     0.021 A 
ATOM     12  C   UNL A   1      32.339  19.824  22.660  1.00  0.00     0.021 A 
ATOM     13  C   UNL A   1      32.656  21.490  24.877  1.00  0.00     0.009 A 
ATOM     14  C   UNL A   1      32.124  21.205  22.551  1.00  0.00     0.009 A 
BRANCH  10  15
ATOM     15  S   UNL A   1      33.379  17.628  24.014  1.00  0.00     0.175 S 
ATOM     16  C   UNL A   1      32.528  16.892  25.378  1.00  0.00     0.163 C 
ATOM     17  O   UNL A   1      34.782  17.699  24.373  1.00  0.00    -0.224 OA
ATOM     18  O   UNL A   1      32.947  16.947  22.808  1.00  0.00    -0.224 OA
ENDBRANCH  10  15
ENDBRANCH   8   9
BRANCH   7  19
ATOM     19  C   UNL A   1      34.850  23.878  23.889  1.00  0.00    -0.011 A 
ATOM     20  C   UNL A   1      35.213  24.229  25.200  1.00  0.00     0.013 A 
ATOM     21  C   UNL A   1      35.719  23.091  23.125  1.00  0.00     0.013 A 
ATOM     22  C   UNL A   1      36.409  23.773  25.749  1.00  0.00     0.047 A 
ATOM     23  C   UNL A   1      36.913  22.626  23.679  1.00  0.00     0.047 A 
ATOM     24  C   UNL A   1      37.243  22.966  24.989  1.00  0.00     0.115 A 
BRANCH  24  25
ATOM     25  O   UNL A   1      38.384  22.510  25.577  1.00  0.00    -0.508 OA
ATOM     26  H   UNL A   1      39.166  22.409  25.069  1.00  0.00     0.293 HD
ENDBRANCH  24  25
ENDBRANCH   7  19
ENDBRANCH   5   7
ENDBRANCH   4   5
ENDBRANCH   3   4
ENDBRANCH   2   3
ENDBRANCH   1   2
BRANCH   1  27
ATOM     27  C   UNL A   1      31.458  28.828  25.302  1.00  0.00     0.202 C 
BRANCH  27  28
ATOM     28  C   UNL A   1      31.811  30.249  25.759  1.00  0.00     0.261 C 
BRANCH  28  29
ATOM     29  O   UNL A   1      32.533  30.265  27.000  1.00  0.00    -0.460 OA
BRANCH  29  30
ATOM     30  C   UNL A   1      33.188  31.421  27.254  1.00  0.00     0.338 C 
ATOM     31  O   UNL A   1      32.729  32.557  27.251  1.00  0.00    -0.246 OA
BRANCH  30  32
ATOM     32  C   UNL A   1      34.550  31.122  27.724  1.00  0.00     0.060 A 
ATOM     33  C   UNL A   1      34.868  29.784  27.995  1.00  0.00     0.016 A 
ATOM     34  C   UNL A   1      35.479  32.139  27.948  1.00  0.00     0.016 A 
ATOM     35  C   UNL A   1      36.109  29.459  28.538  1.00  0.00     0.010 A 
ATOM     36  C   UNL A   1      36.716  31.814  28.507  1.00  0.00     0.010 A 
ATOM     37  C   UNL A   1      37.021  30.479  28.835  1.00  0.00    -0.014 A 
BRANCH  37  38
ATOM     38  C   UNL A   1      38.219  30.188  29.655  1.00  0.00     0.031 A 
ATOM     39  C   UNL A   1      39.223  29.204  29.126  1.00  0.00     0.074 A 
ATOM     40  C   UNL A   1      38.401  30.778  30.848  1.00  0.00     0.049 A 
ATOM     41  N   UNL A   1      40.273  28.691  29.711  1.00  0.00    -0.248 NA
ATOM     42  C   UNL A   1      39.006  28.729  27.750  1.00  0.00     0.031 C 
ATOM     43  C   UNL A   1      37.526  31.790  31.433  1.00  0.00     0.029 A 
ATOM     44  N   UNL A   1      39.382  30.591  31.789  1.00  0.00    -0.354 N 
ATOM     45  C   UNL A   1      40.833  27.823  28.782  1.00  0.00     0.074 A 
ATOM     46  C   UNL A   1      39.994  27.860  27.605  1.00  0.00     0.031 C 
ATOM     47  C   UNL A   1      37.998  32.122  32.648  1.00  0.00     0.029 A 
ATOM     48  C   UNL A   1      39.181  31.314  32.939  1.00  0.00     0.049 A 
ATOM     49  H   UNL A   1      40.155  29.996  31.653  1.00  0.00     0.167 HD
ATOM     50  C   UNL A   1      41.948  27.067  28.904  1.00  0.00     0.037 A 
ATOM     51  C   UNL A   1      39.859  31.295  34.103  1.00  0.00     0.037 A 
ATOM     52  C   UNL A   1      42.776  27.036  30.081  1.00  0.00     0.049 A 
ATOM     53  C   UNL A   1      41.050  30.380  34.245  1.00  0.00     0.074 A 
ATOM     54  C   UNL A   1      43.929  26.308  30.307  1.00  0.00     0.029 A 
ATOM     55  N   UNL A   1      42.528  27.768  31.233  1.00  0.00    -0.354 N 
ATOM     56  N   UNL A   1      41.577  29.562  33.365  1.00  0.00    -0.248 NA
ATOM     57  C   UNL A   1      41.738  30.382  35.544  1.00  0.00     0.031 C 
ATOM     58  C   UNL A   1      44.354  26.561  31.615  1.00  0.00     0.029 A 
ATOM     59  C   UNL A   1      43.498  27.492  32.183  1.00  0.00     0.049 A 
ATOM     60  H   UNL A   1      41.777  28.392  31.358  1.00  0.00     0.167 HD
ATOM     61  C   UNL A   1      42.677  28.987  33.988  1.00  0.00     0.074 A 
ATOM     62  C   UNL A   1      42.742  29.547  35.322  1.00  0.00     0.031 C 
ATOM     63  C   UNL A   1      43.558  28.081  33.497  1.00  0.00     0.037 A 
BRANCH  50  64
ATOM     64  C   UNL A   1      42.317  26.185  27.747  1.00  0.00     0.064 A 
ATOM     65  C   UNL A   1      41.709  24.937  27.547  1.00  0.00     0.173 A 
ATOM     66  C   UNL A   1      43.278  26.605  26.815  1.00  0.00     0.173 A 
ATOM     67  F   UNL A   1      40.797  24.482  28.419  1.00  0.00    -0.203 F 
ATOM     68  C   UNL A   1      42.069  24.130  26.470  1.00  0.00     0.198 A 
ATOM     69  C   UNL A   1      43.613  25.809  25.723  1.00  0.00     0.198 A 
ATOM     70  F   UNL A   1      43.889  27.791  26.960  1.00  0.00    -0.203 F 
ATOM     71  F   UNL A   1      41.511  22.921  26.325  1.00  0.00    -0.200 F 
ATOM     72  C   UNL A   1      43.015  24.570  25.556  1.00  0.00     0.200 A 
ATOM     73  F   UNL A   1      44.519  26.241  24.834  1.00  0.00    -0.200 F 
ATOM     74  F   UNL A   1      43.355  23.795  24.516  1.00  0.00    -0.200 F 
ENDBRANCH  50  64
BRANCH  51  75
ATOM     75  C   UNL A   1      39.422  32.156  35.232  1.00  0.00     0.064 A 
ATOM     76  C   UNL A   1      38.585  31.655  36.238  1.00  0.00     0.173 A 
ATOM     77  C   UNL A   1      39.819  33.498  35.322  1.00  0.00     0.173 A 
ATOM     78  F   UNL A   1      38.158  30.384  36.183  1.00  0.00    -0.203 F 
ATOM     79  C   UNL A   1      38.147  32.468  37.281  1.00  0.00     0.198 A 
ATOM     80  C   UNL A   1      39.404  34.302  36.381  1.00  0.00     0.198 A 
ATOM     81  F   UNL A   1      40.618  34.027  34.383  1.00  0.00    -0.203 F 
ATOM     82  F   UNL A   1      37.310  31.977  38.207  1.00  0.00    -0.200 F 
ATOM     83  C   UNL A   1      38.562  33.789  37.356  1.00  0.00     0.200 A 
ATOM     84  F   UNL A   1      39.817  35.574  36.455  1.00  0.00    -0.200 F 
ATOM     85  F   UNL A   1      38.145  34.570  38.361  1.00  0.00    -0.200 F 
ENDBRANCH  51  75
BRANCH  63  86
ATOM     86  C   UNL A   1      44.707  27.679  34.376  1.00  0.00     0.064 A 
ATOM     87  C   UNL A   1      44.640  26.557  35.214  1.00  0.00     0.173 A 
ATOM     88  C   UNL A   1      45.917  28.389  34.319  1.00  0.00     0.173 A 
ATOM     89  F   UNL A   1      43.502  25.856  35.314  1.00  0.00    -0.203 F 
ATOM     90  C   UNL A   1      45.740  26.168  35.974  1.00  0.00     0.198 A 
ATOM     91  C   UNL A   1      47.023  27.980  35.058  1.00  0.00     0.198 A 
ATOM     92  F   UNL A   1      46.033  29.464  33.526  1.00  0.00    -0.203 F 
ATOM     93  F   UNL A   1      45.645  25.114  36.796  1.00  0.00    -0.200 F 
ATOM     94  C   UNL A   1      46.933  26.873  35.889  1.00  0.00     0.200 A 
ATOM     95  F   UNL A   1      48.178  28.652  34.961  1.00  0.00    -0.200 F 
ATOM     96  F   UNL A   1      47.995  26.487  36.608  1.00  0.00    -0.200 F 
ENDBRANCH  63  86
ENDBRANCH  37  38
ENDBRANCH  30  32
ENDBRANCH  29  30
ENDBRANCH  28  29
ENDBRANCH  27  28
ENDBRANCH   1  27
TORSDOF 18
ENDMDL
MODEL 3
REMARK VINA RESULT:     -12.6      0.218      1.651
REMARK SMILES CS(=O)(=O)c1ccc(/C=C(/C(=O)OCCOCCOC(=O)c2ccc(-c3c4nc(c(-c5c(F)c(F)c(F)c(F)c5F)c5ccc([nH]5)c(-c5c(F)c(F)c(F)c(F)c5F)c5nc(c(-c6c(F)c(F)c(F)c(F)c6F)c6ccc3[nH]6)C=C5)C=C4)cc2)c2ccc(O)cc2)cc1
REMARK SMILES IDX 16 1 15 2 14 3 13 4 11 5 12 6 10 7 9 8 8 9 5 10 6 11 93 12
REMARK SMILES IDX 7 13 92 14 2 15 1 16 3 17 4 18 85 19 86 20 91 21 87 22 90 23
REMARK SMILES IDX 88 24 89 25 17 27 18 28 19 29 20 30 21 31 22 32 23 33 84 34
REMARK SMILES IDX 24 35 83 36 25 37 26 38 27 39 77 40 28 41 82 42 76 43 78 44
REMARK SMILES IDX 29 45 81 46 75 47 74 48 30 50 62 51 42 52 61 53 43 54 46 55
REMARK SMILES IDX 60 56 79 57 44 58 45 59 59 61 80 62 47 63 31 64 32 65 40 66
REMARK SMILES IDX 33 67 34 68 38 69 41 70 35 71 36 72 39 73 37 74 63 75 64 76
REMARK SMILES IDX 72 77 65 78 66 79 70 80 73 81 67 82 68 83 71 84 69 85 48 86
REMARK SMILES IDX 49 87 57 88 50 89 51 90 55 91 58 92 52 93 53 94 56 95 54 96
REMARK H PARENT 89 26 78 49 46 60
REMARK Flexibility Score: inf
ROOT
ATOM      1  O   UNL A   1      35.304  21.603  26.106  1.00  0.00    -0.374 OA
ENDROOT
BRANCH   1   2
ATOM      2  C   UNL A   1      34.051  21.359  26.742  1.00  0.00     0.202 C 
BRANCH   2   3
ATOM      3  C   UNL A   1      33.390  22.541  27.456  1.00  0.00     0.261 C 
BRANCH   3   4
ATOM      4  O   UNL A   1      33.010  23.570  26.525  1.00  0.00    -0.460 OA
BRANCH   4   5
ATOM      5  C   UNL A   1      31.713  23.962  26.620  1.00  0.00     0.338 C 
ATOM      6  O   UNL A   1      30.871  23.455  27.349  1.00  0.00    -0.246 OA
BRANCH   5   7
ATOM      7  C   UNL A   1      31.428  25.179  25.794  1.00  0.00     0.067 C 
ATOM      8  C   UNL A   1      30.680  25.081  24.669  1.00  0.00     0.024 C 
BRANCH   8   9
ATOM      9  C   UNL A   1      30.056  26.193  23.907  1.00  0.00    -0.025 A 
ATOM     10  C   UNL A   1      28.797  28.550  23.045  1.00  0.00     0.067 A 
ATOM     11  C   UNL A   1      30.158  28.359  22.806  1.00  0.00     0.021 A 
ATOM     12  C   UNL A   1      28.028  27.517  23.578  1.00  0.00     0.021 A 
ATOM     13  C   UNL A   1      30.772  27.168  23.203  1.00  0.00     0.009 A 
ATOM     14  C   UNL A   1      28.663  26.343  24.005  1.00  0.00     0.009 A 
BRANCH  10  15
ATOM     15  S   UNL A   1      28.133  30.171  22.752  1.00  0.00     0.175 S 
ATOM     16  C   UNL A   1      29.270  31.342  23.434  1.00  0.00     0.163 C 
ATOM     17  O   UNL A   1      26.908  30.267  23.523  1.00  0.00    -0.224 OA
ATOM     18  O   UNL A   1      28.130  30.349  21.313  1.00  0.00    -0.224 OA
ENDBRANCH  10  15
ENDBRANCH   8   9
BRANCH   7  19
ATOM     19  C   UNL A   1      31.931  26.456  26.340  1.00  0.00    -0.011 A 
ATOM     20  C   UNL A   1      33.223  26.886  25.995  1.00  0.00     0.013 A 
ATOM     21  C   UNL A   1      31.133  27.266  27.155  1.00  0.00     0.013 A 
ATOM     22  C   UNL A   1      33.697  28.121  26.432  1.00  0.00     0.047 A 
ATOM     23  C   UNL A   1      31.605  28.507  27.585  1.00  0.00     0.047 A 
ATOM     24  C   UNL A   1      32.880  28.927  27.212  1.00  0.00     0.115 A 
BRANCH  24  25
ATOM     25  O   UNL A   1      33.367  30.143  27.585  1.00  0.00    -0.508 OA
ATOM     26  H   UNL A   1      32.964  30.927  27.267  1.00  0.00     0.293 HD
ENDBRANCH  24  25
ENDBRANCH   7  19
ENDBRANCH   5   7
ENDBRANCH   4   5
ENDBRANCH   3   4
ENDBRANCH   2   3
ENDBRANCH   1   2
BRANCH   1  27
ATOM     27  C   UNL A   1      35.721  20.690  25.093  1.00  0.00     0.202 C 
BRANCH  27  28
ATOM     28  C   UNL A   1      37.221  20.396  24.980  1.00  0.00     0.261 C 
BRANCH  28  29
ATOM     29  O   UNL A   1      38.033  21.524  25.337  1.00  0.00    -0.460 OA
BRANCH  29  30
ATOM     30  C   UNL A   1      39.142  21.216  26.048  1.00  0.00     0.338 C 
ATOM     31  O   UNL A   1      39.729  20.142  26.090  1.00  0.00    -0.246 OA
BRANCH  30  32
ATOM     32  C   UNL A   1      39.685  22.436  26.665  1.00  0.00     0.060 A 
ATOM     33  C   UNL A   1      39.129  23.665  26.284  1.00  0.00     0.016 A 
ATOM     34  C   UNL A   1      40.755  22.381  27.559  1.00  0.00     0.016 A 
ATOM     35  C   UNL A   1      39.673  24.854  26.761  1.00  0.00     0.010 A 
ATOM     36  C   UNL A   1      41.310  23.575  28.024  1.00  0.00     0.010 A 
ATOM     37  C   UNL A   1      40.793  24.813  27.600  1.00  0.00    -0.014 A 
BRANCH  37  38
ATOM     38  C   UNL A   1      41.545  26.054  27.894  1.00  0.00     0.031 A 
ATOM     39  C   UNL A   1      40.848  27.151  28.647  1.00  0.00     0.074 A 
ATOM     40  C   UNL A   1      42.818  26.204  27.489  1.00  0.00     0.049 A 
ATOM     41  N   UNL A   1      41.247  28.368  28.905  1.00  0.00    -0.248 NA
ATOM     42  C   UNL A   1      39.511  26.829  29.172  1.00  0.00     0.031 C 
ATOM     43  C   UNL A   1      43.613  25.188  26.806  1.00  0.00     0.029 A 
ATOM     44  N   UNL A   1      43.657  27.286  27.582  1.00  0.00    -0.354 N 
ATOM     45  C   UNL A   1      40.208  28.962  29.609  1.00  0.00     0.074 A 
ATOM     46  C   UNL A   1      39.150  27.982  29.717  1.00  0.00     0.031 C 
ATOM     47  C   UNL A   1      44.822  25.702  26.521  1.00  0.00     0.029 A 
ATOM     48  C   UNL A   1      44.867  27.094  26.964  1.00  0.00     0.049 A 
ATOM     49  H   UNL A   1      43.414  28.119  28.049  1.00  0.00     0.167 HD
ATOM     50  C   UNL A   1      40.146  30.213  30.120  1.00  0.00     0.037 A 
ATOM     51  C   UNL A   1      45.877  27.960  26.752  1.00  0.00     0.037 A 
ATOM     52  C   UNL A   1      41.204  31.182  30.008  1.00  0.00     0.049 A 
ATOM     53  C   UNL A   1      45.751  29.376  27.258  1.00  0.00     0.074 A 
ATOM     54  C   UNL A   1      41.246  32.477  30.493  1.00  0.00     0.029 A 
ATOM     55  N   UNL A   1      42.408  30.957  29.356  1.00  0.00    -0.354 N 
ATOM     56  N   UNL A   1      44.768  29.934  27.924  1.00  0.00    -0.248 NA
ATOM     57  C   UNL A   1      46.873  30.283  26.978  1.00  0.00     0.031 C 
ATOM     58  C   UNL A   1      42.455  33.052  30.092  1.00  0.00     0.029 A 
ATOM     59  C   UNL A   1      43.192  32.098  29.408  1.00  0.00     0.049 A 
ATOM     60  H   UNL A   1      42.668  30.113  28.922  1.00  0.00     0.167 HD
ATOM     61  C   UNL A   1      45.169  31.239  28.177  1.00  0.00     0.074 A 
ATOM     62  C   UNL A   1      46.485  31.392  27.592  1.00  0.00     0.031 C 
ATOM     63  C   UNL A   1      44.510  32.221  28.840  1.00  0.00     0.037 A 
BRANCH  50  64
ATOM     64  C   UNL A   1      38.880  30.615  30.818  1.00  0.00     0.064 A 
ATOM     65  C   UNL A   1      37.759  31.070  30.109  1.00  0.00     0.173 A 
ATOM     66  C   UNL A   1      38.781  30.523  32.214  1.00  0.00     0.173 A 
ATOM     67  F   UNL A   1      37.808  31.192  28.774  1.00  0.00    -0.203 F 
ATOM     68  C   UNL A   1      36.593  31.444  30.775  1.00  0.00     0.198 A 
ATOM     69  C   UNL A   1      37.605  30.869  32.874  1.00  0.00     0.198 A 
ATOM     70  F   UNL A   1      39.824  30.093  32.940  1.00  0.00    -0.203 F 
ATOM     71  F   UNL A   1      35.552  31.922  30.081  1.00  0.00    -0.200 F 
ATOM     72  C   UNL A   1      36.516  31.336  32.156  1.00  0.00     0.200 A 
ATOM     73  F   UNL A   1      37.527  30.753  34.207  1.00  0.00    -0.200 F 
ATOM     74  F   UNL A   1      35.391  31.690  32.794  1.00  0.00    -0.200 F 
ENDBRANCH  50  64
BRANCH  51  75
ATOM     75  C   UNL A   1      47.090  27.521  26.015  1.00  0.00     0.064 A 
ATOM     76  C   UNL A   1      47.168  27.639  24.620  1.00  0.00     0.173 A 
ATOM     77  C   UNL A   1      48.188  26.962  26.685  1.00  0.00     0.173 A 
ATOM     78  F   UNL A   1      46.133  28.144  23.932  1.00  0.00    -0.203 F 
ATOM     79  C   UNL A   1      48.291  27.200  23.923  1.00  0.00     0.198 A 
ATOM     80  C   UNL A   1      49.323  26.549  25.989  1.00  0.00     0.198 A 
ATOM     81  F   UNL A   1      48.163  26.825  28.019  1.00  0.00    -0.203 F 
ATOM     82  F   UNL A   1      48.322  27.282  22.585  1.00  0.00    -0.200 F 
ATOM     83  C   UNL A   1      49.370  26.660  24.607  1.00  0.00     0.200 A 
ATOM     84  F   UNL A   1      50.366  26.041  26.656  1.00  0.00    -0.200 F 
ATOM     85  F   UNL A   1      50.451  26.241  23.937  1.00  0.00    -0.200 F 
ENDBRANCH  51  75
BRANCH  63  86
ATOM     86  C   UNL A   1      45.218  33.532  29.028  1.00  0.00     0.064 A 
ATOM     87  C   UNL A   1      46.078  33.759  30.111  1.00  0.00     0.173 A 
ATOM     88  C   UNL A   1      45.086  34.545  28.066  1.00  0.00     0.173 A 
ATOM     89  F   UNL A   1      46.227  32.827  31.063  1.00  0.00    -0.203 F 
ATOM     90  C   UNL A   1      46.772  34.961  30.230  1.00  0.00     0.198 A 
ATOM     91  C   UNL A   1      45.802  35.734  28.174  1.00  0.00     0.198 A 
ATOM     92  F   UNL A   1      44.280  34.372  27.007  1.00  0.00    -0.203 F 
ATOM     93  F   UNL A   1      47.563  35.172  31.291  1.00  0.00    -0.200 F 
ATOM     94  C   UNL A   1      46.641  35.942  29.258  1.00  0.00     0.200 A 
ATOM     95  F   UNL A   1      45.687  36.672  27.225  1.00  0.00    -0.200 F 
ATOM     96  F   UNL A   1      47.322  37.091  29.367  1.00  0.00    -0.200 F 
ENDBRANCH  63  86
ENDBRANCH  37  38
ENDBRANCH  30  32
ENDBRANCH  29  30
ENDBRANCH  28  29
ENDBRANCH  27  28
ENDBRANCH   1  27
TORSDOF 18
ENDMDL
