MODEL 1
REMARK VINA RESULT:     -11.5      0.000      0.000
REMARK SMILES O=C(OCCOCCOC(=O)[C@H]1C[NH2+]CCN1c1ncc(C(F)(F)F)cc1Cl)c1ccc(-c2c3nc(c(-c4c(F)c(F)c(F)c(F)c4F)c4ccc([nH]4)c(-c4c(F)c(F)c(F)c(F)c4F)c4nc(c(-c5c(F)c(F)c(F)c(F)c5F)c5ccc2[nH]5)C=C4)C=C3)cc1
REMARK SMILES IDX 6 1 5 2 4 3 3 4 2 5 1 6 29 7 30 8 91 9 31 10 90 11 32 12
REMARK SMILES IDX 33 13 34 14 84 15 35 16 89 17 83 18 85 19 36 20 88 21 82 22
REMARK SMILES IDX 81 23 37 25 69 26 49 27 68 28 50 29 53 30 67 31 86 32 51 33
REMARK SMILES IDX 52 34 66 36 87 37 54 38 38 39 39 40 47 41 40 42 41 43 45 44
REMARK SMILES IDX 48 45 42 46 43 47 46 48 44 49 70 50 71 51 79 52 72 53 73 54
REMARK SMILES IDX 77 55 80 56 74 57 75 58 78 59 76 60 55 61 56 62 64 63 57 64
REMARK SMILES IDX 58 65 62 66 65 67 59 68 60 69 63 70 61 71 7 72 8 73 9 74
REMARK SMILES IDX 10 75 11 76 12 77 13 78 17 79 14 80 16 81 15 82 18 85 19 86
REMARK SMILES IDX 27 87 20 88 26 89 28 90 21 91 22 92 23 93 24 94 25 95
REMARK H PARENT 85 24 53 35 14 83 14 84
REMARK Flexibility Score: inf
ROOT
ATOM      1  O   UNL A   1      31.148  27.773  24.198  1.00  0.00    -0.374 OA
ENDROOT
BRANCH   1   2
ATOM      2  C   UNL A   1      31.625  29.112  24.350  1.00  0.00     0.202 C 
BRANCH   2   3
ATOM      3  C   UNL A   1      32.068  29.431  25.780  1.00  0.00     0.261 C 
BRANCH   3   4
ATOM      4  O   UNL A   1      32.925  30.585  25.797  1.00  0.00    -0.460 OA
BRANCH   4   5
ATOM      5  C   UNL A   1      33.324  31.284  26.886  1.00  0.00     0.338 C 
ATOM      6  O   UNL A   1      32.640  32.232  27.269  1.00  0.00    -0.246 OA
BRANCH   5   7
ATOM      7  C   UNL A   1      34.520  30.918  27.702  1.00  0.00     0.060 A 
ATOM      8  C   UNL A   1      34.830  29.628  28.137  1.00  0.00     0.016 A 
ATOM      9  C   UNL A   1      35.445  31.942  27.968  1.00  0.00     0.016 A 
ATOM     10  C   UNL A   1      35.986  29.357  28.850  1.00  0.00     0.010 A 
ATOM     11  C   UNL A   1      36.632  31.674  28.655  1.00  0.00     0.010 A 
ATOM     12  C   UNL A   1      36.897  30.376  29.102  1.00  0.00    -0.014 A 
BRANCH  12  13
ATOM     13  C   UNL A   1      38.084  30.052  29.906  1.00  0.00     0.031 A 
ATOM     14  C   UNL A   1      39.161  29.227  29.282  1.00  0.00     0.074 A 
ATOM     15  C   UNL A   1      38.225  30.601  31.124  1.00  0.00     0.049 A 
ATOM     16  N   UNL A   1      40.249  28.746  29.815  1.00  0.00    -0.248 NA
ATOM     17  C   UNL A   1      38.993  28.911  27.854  1.00  0.00     0.031 C 
ATOM     18  C   UNL A   1      37.275  31.529  31.743  1.00  0.00     0.029 A 
ATOM     19  N   UNL A   1      39.227  30.484  32.047  1.00  0.00    -0.354 N 
ATOM     20  C   UNL A   1      40.875  28.035  28.802  1.00  0.00     0.074 A 
ATOM     21  C   UNL A   1      40.057  28.158  27.618  1.00  0.00     0.031 C 
ATOM     22  C   UNL A   1      37.752  31.911  32.938  1.00  0.00     0.029 A 
ATOM     23  C   UNL A   1      38.997  31.197  33.198  1.00  0.00     0.049 A 
ATOM     24  H   UNL A   1      40.035  29.941  31.901  1.00  0.00     0.167 HD
ATOM     25  C   UNL A   1      42.028  27.330  28.878  1.00  0.00     0.037 A 
ATOM     26  C   UNL A   1      39.702  31.227  34.342  1.00  0.00     0.037 A 
ATOM     27  C   UNL A   1      42.811  27.233  30.078  1.00  0.00     0.049 A 
ATOM     28  C   UNL A   1      40.938  30.373  34.426  1.00  0.00     0.074 A 
ATOM     29  C   UNL A   1      43.951  26.489  30.316  1.00  0.00     0.029 A 
ATOM     30  N   UNL A   1      42.525  27.922  31.252  1.00  0.00    -0.354 N 
ATOM     31  N   UNL A   1      41.483  29.618  33.500  1.00  0.00    -0.248 NA
ATOM     32  C   UNL A   1      41.644  30.353  35.712  1.00  0.00     0.031 C 
ATOM     33  C   UNL A   1      44.334  26.702  31.646  1.00  0.00     0.029 A 
ATOM     34  C   UNL A   1      43.459  27.614  32.223  1.00  0.00     0.049 A 
ATOM     35  H   UNL A   1      41.767  28.539  31.373  1.00  0.00     0.167 HD
ATOM     36  C   UNL A   1      42.598  29.038  34.085  1.00  0.00     0.074 A 
ATOM     37  C   UNL A   1      42.664  29.550  35.441  1.00  0.00     0.031 C 
ATOM     38  C   UNL A   1      43.484  28.156  33.559  1.00  0.00     0.037 A 
BRANCH  25  39
ATOM     39  C   UNL A   1      42.429  26.558  27.658  1.00  0.00     0.064 A 
ATOM     40  C   UNL A   1      41.946  25.267  27.400  1.00  0.00     0.173 A 
ATOM     41  C   UNL A   1      43.364  27.100  26.761  1.00  0.00     0.173 A 
ATOM     42  F   UNL A   1      41.078  24.691  28.245  1.00  0.00    -0.203 F 
ATOM     43  C   UNL A   1      42.409  24.533  26.309  1.00  0.00     0.198 A 
ATOM     44  C   UNL A   1      43.805  26.374  25.658  1.00  0.00     0.198 A 
ATOM     45  F   UNL A   1      43.866  28.327  26.967  1.00  0.00    -0.203 F 
ATOM     46  F   UNL A   1      41.984  23.277  26.120  1.00  0.00    -0.200 F 
ATOM     47  C   UNL A   1      43.336  25.088  25.439  1.00  0.00     0.200 A 
ATOM     48  F   UNL A   1      44.702  26.910  24.819  1.00  0.00    -0.200 F 
ATOM     49  F   UNL A   1      43.793  24.375  24.400  1.00  0.00    -0.200 F 
ENDBRANCH  25  39
BRANCH  26  50
ATOM     50  C   UNL A   1      39.227  32.039  35.494  1.00  0.00     0.064 A 
ATOM     51  C   UNL A   1      39.562  33.394  35.616  1.00  0.00     0.173 A 
ATOM     52  C   UNL A   1      38.417  31.478  36.495  1.00  0.00     0.173 A 
ATOM     53  F   UNL A   1      40.352  33.973  34.700  1.00  0.00    -0.203 F 
ATOM     54  C   UNL A   1      39.113  34.153  36.696  1.00  0.00     0.198 A 
ATOM     55  C   UNL A   1      37.944  32.246  37.558  1.00  0.00     0.198 A 
ATOM     56  F   UNL A   1      38.069  30.185  36.432  1.00  0.00    -0.203 F 
ATOM     57  F   UNL A   1      39.480  35.438  36.807  1.00  0.00    -0.200 F 
ATOM     58  C   UNL A   1      38.298  33.581  37.661  1.00  0.00     0.200 A 
ATOM     59  F   UNL A   1      37.146  31.690  38.480  1.00  0.00    -0.200 F 
ATOM     60  F   UNL A   1      37.860  34.314  38.694  1.00  0.00    -0.200 F 
ENDBRANCH  26  50
BRANCH  38  61
ATOM     61  C   UNL A   1      44.605  27.719  34.449  1.00  0.00     0.064 A 
ATOM     62  C   UNL A   1      45.802  28.445  34.524  1.00  0.00     0.173 A 
ATOM     63  C   UNL A   1      44.458  26.593  35.271  1.00  0.00     0.173 A 
ATOM     64  F   UNL A   1      45.992  29.519  33.743  1.00  0.00    -0.203 F 
ATOM     65  C   UNL A   1      46.821  28.047  35.383  1.00  0.00     0.198 A 
ATOM     66  C   UNL A   1      45.468  26.213  36.147  1.00  0.00     0.198 A 
ATOM     67  F   UNL A   1      43.326  25.873  35.234  1.00  0.00    -0.203 F 
ATOM     68  F   UNL A   1      47.973  28.731  35.416  1.00  0.00    -0.200 F 
ATOM     69  C   UNL A   1      46.651  26.937  36.199  1.00  0.00     0.200 A 
ATOM     70  F   UNL A   1      45.298  25.149  36.942  1.00  0.00    -0.200 F 
ATOM     71  F   UNL A   1      47.629  26.561  37.033  1.00  0.00    -0.200 F 
ENDBRANCH  38  61
ENDBRANCH  12  13
ENDBRANCH   5   7
ENDBRANCH   4   5
ENDBRANCH   3   4
ENDBRANCH   2   3
ENDBRANCH   1   2
BRANCH   1  72
ATOM     72  C   UNL A   1      31.425  27.174  22.934  1.00  0.00     0.202 C 
BRANCH  72  73
ATOM     73  C   UNL A   1      32.921  27.266  22.645  1.00  0.00     0.261 C 
BRANCH  73  74
ATOM     74  O   UNL A   1      33.636  26.421  23.567  1.00  0.00    -0.462 OA
BRANCH  74  75
ATOM     75  C   UNL A   1      33.660  25.091  23.244  1.00  0.00     0.334 C 
ATOM     76  O   UNL A   1      33.587  24.646  22.101  1.00  0.00    -0.250 OA
BRANCH  75  77
ATOM     77  C   UNL A   1      33.779  24.229  24.514  1.00  0.00     0.249 C 
ATOM     78  C   UNL A   1      33.758  25.188  25.731  1.00  0.00     0.298 C 
ATOM     79  N   UNL A   1      32.670  23.250  24.640  1.00  0.00    -0.331 N 
ATOM     80  N   UNL A   1      32.444  25.829  25.996  1.00  0.00    -0.343 N 
ATOM     81  C   UNL A   1      31.337  23.827  24.874  1.00  0.00     0.180 C 
ATOM     82  C   UNL A   1      31.396  24.789  26.085  1.00  0.00     0.282 C 
ATOM     83  H   UNL A   1      32.220  26.472  25.235  1.00  0.00     0.346 HD
ATOM     84  H   UNL A   1      32.488  26.344  26.875  1.00  0.00     0.346 HD
BRANCH  79  85
ATOM     85  C   UNL A   1      32.785  21.881  24.602  1.00  0.00     0.148 A 
ATOM     86  N   UNL A   1      32.372  21.294  23.444  1.00  0.00    -0.237 NA
ATOM     87  C   UNL A   1      33.253  21.069  25.649  1.00  0.00     0.084 A 
ATOM     88  C   UNL A   1      32.430  19.948  23.305  1.00  0.00     0.126 A 
ATOM     89  C   UNL A   1      33.312  19.678  25.479  1.00  0.00     0.039 A 
ATOM     90  Cl  UNL A   1      33.655  21.651  27.226  1.00  0.00    -0.080 Cl
ATOM     91  C   UNL A   1      32.891  19.094  24.285  1.00  0.00     0.075 A 
BRANCH  91  92
ATOM     92  C   UNL A   1      32.923  17.619  24.042  1.00  0.00     0.417 C 
ATOM     93  F   UNL A   1      32.111  16.932  24.892  1.00  0.00    -0.166 F 
ATOM     94  F   UNL A   1      32.510  17.295  22.786  1.00  0.00    -0.166 F 
ATOM     95  F   UNL A   1      34.162  17.074  24.184  1.00  0.00    -0.166 F 
ENDBRANCH  91  92
ENDBRANCH  79  85
ENDBRANCH  75  77
ENDBRANCH  74  75
ENDBRANCH  73  74
ENDBRANCH  72  73
ENDBRANCH   1  72
TORSDOF 16
ENDMDL
MODEL 2
REMARK VINA RESULT:     -11.5      0.766      1.833
REMARK SMILES O=C(OCCOCCOC(=O)[C@H]1C[NH2+]CCN1c1ncc(C(F)(F)F)cc1Cl)c1ccc(-c2c3nc(c(-c4c(F)c(F)c(F)c(F)c4F)c4ccc([nH]4)c(-c4c(F)c(F)c(F)c(F)c4F)c4nc(c(-c5c(F)c(F)c(F)c(F)c5F)c5ccc2[nH]5)C=C4)C=C3)cc1
REMARK SMILES IDX 6 1 5 2 4 3 3 4 2 5 1 6 29 7 30 8 91 9 31 10 90 11 32 12
REMARK SMILES IDX 33 13 34 14 84 15 35 16 89 17 83 18 85 19 36 20 88 21 82 22
REMARK SMILES IDX 81 23 37 25 69 26 49 27 68 28 50 29 53 30 67 31 86 32 51 33
REMARK SMILES IDX 52 34 66 36 87 37 54 38 38 39 39 40 47 41 40 42 41 43 45 44
REMARK SMILES IDX 48 45 42 46 43 47 46 48 44 49 70 50 71 51 79 52 72 53 73 54
REMARK SMILES IDX 77 55 80 56 74 57 75 58 78 59 76 60 55 61 56 62 64 63 57 64
REMARK SMILES IDX 58 65 62 66 65 67 59 68 60 69 63 70 61 71 7 72 8 73 9 74
REMARK SMILES IDX 10 75 11 76 12 77 13 78 17 79 14 80 16 81 15 82 18 85 19 86
REMARK SMILES IDX 27 87 20 88 26 89 28 90 21 91 22 92 23 93 24 94 25 95
REMARK H PARENT 85 24 53 35 14 83 14 84
REMARK Flexibility Score: inf
ROOT
ATOM      1  O   UNL A   1      31.374  27.523  24.245  1.00  0.00    -0.374 OA
ENDROOT
BRANCH   1   2
ATOM      2  C   UNL A   1      31.864  28.864  24.307  1.00  0.00     0.202 C 
BRANCH   2   3
ATOM      3  C   UNL A   1      32.028  29.378  25.739  1.00  0.00     0.261 C 
BRANCH   3   4
ATOM      4  O   UNL A   1      32.985  30.448  25.786  1.00  0.00    -0.460 OA
BRANCH   4   5
ATOM      5  C   UNL A   1      33.360  31.158  26.877  1.00  0.00     0.338 C 
ATOM      6  O   UNL A   1      32.665  32.107  27.237  1.00  0.00    -0.246 OA
BRANCH   5   7
ATOM      7  C   UNL A   1      34.538  30.801  27.723  1.00  0.00     0.060 A 
ATOM      8  C   UNL A   1      34.841  29.514  28.175  1.00  0.00     0.016 A 
ATOM      9  C   UNL A   1      35.454  31.829  28.001  1.00  0.00     0.016 A 
ATOM     10  C   UNL A   1      35.980  29.251  28.916  1.00  0.00     0.010 A 
ATOM     11  C   UNL A   1      36.626  31.568  28.717  1.00  0.00     0.010 A 
ATOM     12  C   UNL A   1      36.884  30.274  29.180  1.00  0.00    -0.014 A 
BRANCH  12  13
ATOM     13  C   UNL A   1      38.053  29.960  30.012  1.00  0.00     0.031 A 
ATOM     14  C   UNL A   1      39.135  29.113  29.427  1.00  0.00     0.074 A 
ATOM     15  C   UNL A   1      38.176  30.534  31.221  1.00  0.00     0.049 A 
ATOM     16  N   UNL A   1      40.209  28.636  29.991  1.00  0.00    -0.248 NA
ATOM     17  C   UNL A   1      38.991  28.767  28.003  1.00  0.00     0.031 C 
ATOM     18  C   UNL A   1      37.222  31.483  31.801  1.00  0.00     0.029 A 
ATOM     19  N   UNL A   1      39.160  30.430  32.165  1.00  0.00    -0.354 N 
ATOM     20  C   UNL A   1      40.848  27.898  29.006  1.00  0.00     0.074 A 
ATOM     21  C   UNL A   1      40.053  28.002  27.804  1.00  0.00     0.031 C 
ATOM     22  C   UNL A   1      37.679  31.887  32.997  1.00  0.00     0.029 A 
ATOM     23  C   UNL A   1      38.914  31.170  33.295  1.00  0.00     0.049 A 
ATOM     24  H   UNL A   1      39.966  29.878  32.046  1.00  0.00     0.167 HD
ATOM     25  C   UNL A   1      41.994  27.187  29.118  1.00  0.00     0.037 A 
ATOM     26  C   UNL A   1      39.598  31.220  34.452  1.00  0.00     0.037 A 
ATOM     27  C   UNL A   1      42.754  27.111  30.335  1.00  0.00     0.049 A 
ATOM     28  C   UNL A   1      40.825  30.360  34.577  1.00  0.00     0.074 A 
ATOM     29  C   UNL A   1      43.883  26.363  30.611  1.00  0.00     0.029 A 
ATOM     30  N   UNL A   1      42.451  27.827  31.487  1.00  0.00    -0.354 N 
ATOM     31  N   UNL A   1      41.381  29.580  33.679  1.00  0.00    -0.248 NA
ATOM     32  C   UNL A   1      41.507  30.362  35.876  1.00  0.00     0.031 C 
ATOM     33  C   UNL A   1      44.243  26.603  31.943  1.00  0.00     0.029 A 
ATOM     34  C   UNL A   1      43.365  27.533  32.483  1.00  0.00     0.049 A 
ATOM     35  H   UNL A   1      41.697  28.452  31.581  1.00  0.00     0.167 HD
ATOM     36  C   UNL A   1      42.480  29.005  34.297  1.00  0.00     0.074 A 
ATOM     37  C   UNL A   1      42.525  29.545  35.642  1.00  0.00     0.031 C 
ATOM     38  C   UNL A   1      43.369  28.105  33.807  1.00  0.00     0.037 A 
BRANCH  25  39
ATOM     39  C   UNL A   1      42.412  26.385  27.923  1.00  0.00     0.064 A 
ATOM     40  C   UNL A   1      43.338  26.870  26.987  1.00  0.00     0.173 A 
ATOM     41  C   UNL A   1      41.826  25.133  27.679  1.00  0.00     0.173 A 
ATOM     42  F   UNL A   1      43.900  28.075  27.157  1.00  0.00    -0.203 F 
ATOM     43  C   UNL A   1      43.638  26.145  25.835  1.00  0.00     0.198 A 
ATOM     44  C   UNL A   1      42.146  24.400  26.539  1.00  0.00     0.198 A 
ATOM     45  F   UNL A   1      40.926  24.629  28.536  1.00  0.00    -0.203 F 
ATOM     46  F   UNL A   1      44.475  26.656  24.922  1.00  0.00    -0.200 F 
ATOM     47  C   UNL A   1      43.043  24.911  25.613  1.00  0.00     0.200 A 
ATOM     48  F   UNL A   1      41.570  23.210  26.325  1.00  0.00    -0.200 F 
ATOM     49  F   UNL A   1      43.319  24.224  24.496  1.00  0.00    -0.200 F 
ENDBRANCH  25  39
BRANCH  26  50
ATOM     50  C   UNL A   1      39.108  32.061  35.576  1.00  0.00     0.064 A 
ATOM     51  C   UNL A   1      38.293  31.527  36.582  1.00  0.00     0.173 A 
ATOM     52  C   UNL A   1      39.454  33.419  35.674  1.00  0.00     0.173 A 
ATOM     53  F   UNL A   1      37.914  30.242  36.525  1.00  0.00    -0.203 F 
ATOM     54  C   UNL A   1      37.837  32.318  37.637  1.00  0.00     0.198 A 
ATOM     55  C   UNL A   1      39.023  34.200  36.744  1.00  0.00     0.198 A 
ATOM     56  F   UNL A   1      40.229  33.984  34.737  1.00  0.00    -0.203 F 
ATOM     57  F   UNL A   1      37.027  31.790  38.565  1.00  0.00    -0.200 F 
ATOM     58  C   UNL A   1      38.209  33.651  37.721  1.00  0.00     0.200 A 
ATOM     59  F   UNL A   1      39.398  35.484  36.827  1.00  0.00    -0.200 F 
ATOM     60  F   UNL A   1      37.777  34.408  38.739  1.00  0.00    -0.200 F 
ENDBRANCH  26  50
BRANCH  38  61
ATOM     61  C   UNL A   1      44.471  27.679  34.727  1.00  0.00     0.064 A 
ATOM     62  C   UNL A   1      45.671  28.398  34.809  1.00  0.00     0.173 A 
ATOM     63  C   UNL A   1      44.299  26.572  35.570  1.00  0.00     0.173 A 
ATOM     64  F   UNL A   1      45.883  29.453  34.009  1.00  0.00    -0.203 F 
ATOM     65  C   UNL A   1      46.671  28.011  35.696  1.00  0.00     0.198 A 
ATOM     66  C   UNL A   1      45.290  26.205  36.473  1.00  0.00     0.198 A 
ATOM     67  F   UNL A   1      43.163  25.860  35.527  1.00  0.00    -0.203 F 
ATOM     68  F   UNL A   1      47.827  28.688  35.735  1.00  0.00    -0.200 F 
ATOM     69  C   UNL A   1      46.477  26.921  36.531  1.00  0.00     0.200 A 
ATOM     70  F   UNL A   1      45.097  25.158  37.287  1.00  0.00    -0.200 F 
ATOM     71  F   UNL A   1      47.437  26.556  37.392  1.00  0.00    -0.200 F 
ENDBRANCH  38  61
ENDBRANCH  12  13
ENDBRANCH   5   7
ENDBRANCH   4   5
ENDBRANCH   3   4
ENDBRANCH   2   3
ENDBRANCH   1   2
BRANCH   1  72
ATOM     72  C   UNL A   1      31.578  26.862  22.999  1.00  0.00     0.202 C 
BRANCH  72  73
ATOM     73  C   UNL A   1      33.075  26.770  22.712  1.00  0.00     0.261 C 
BRANCH  73  74
ATOM     74  O   UNL A   1      33.680  25.850  23.641  1.00  0.00    -0.462 OA
BRANCH  74  75
ATOM     75  C   UNL A   1      33.642  24.533  23.271  1.00  0.00     0.334 C 
ATOM     76  O   UNL A   1      33.580  24.133  22.111  1.00  0.00    -0.250 OA
BRANCH  75  77
ATOM     77  C   UNL A   1      33.674  23.622  24.511  1.00  0.00     0.249 C 
ATOM     78  C   UNL A   1      33.587  24.535  25.761  1.00  0.00     0.298 C 
ATOM     79  N   UNL A   1      32.550  22.653  24.531  1.00  0.00    -0.331 N 
ATOM     80  N   UNL A   1      32.265  25.180  25.969  1.00  0.00    -0.343 N 
ATOM     81  C   UNL A   1      31.210  23.235  24.705  1.00  0.00     0.180 C 
ATOM     82  C   UNL A   1      31.204  24.150  25.954  1.00  0.00     0.282 C 
ATOM     83  H   UNL A   1      32.095  25.854  25.222  1.00  0.00     0.346 HD
ATOM     84  H   UNL A   1      32.260  25.661  26.868  1.00  0.00     0.346 HD
BRANCH  79  85
ATOM     85  C   UNL A   1      32.655  21.284  24.449  1.00  0.00     0.148 A 
ATOM     86  N   UNL A   1      33.179  20.674  25.548  1.00  0.00    -0.237 NA
ATOM     87  C   UNL A   1      32.300  20.501  23.337  1.00  0.00     0.084 A 
ATOM     88  C   UNL A   1      33.337  19.328  25.568  1.00  0.00     0.126 A 
ATOM     89  C   UNL A   1      32.465  19.109  23.384  1.00  0.00     0.039 A 
ATOM     90  Cl  UNL A   1      31.779  21.145  21.820  1.00  0.00    -0.080 Cl
ATOM     91  C   UNL A   1      32.998  18.500  24.520  1.00  0.00     0.075 A 
BRANCH  91  92
ATOM     92  C   UNL A   1      33.204  17.023  24.632  1.00  0.00     0.417 C 
ATOM     93  F   UNL A   1      34.298  16.704  25.379  1.00  0.00    -0.166 F 
ATOM     94  F   UNL A   1      32.151  16.399  25.227  1.00  0.00    -0.166 F 
ATOM     95  F   UNL A   1      33.378  16.407  23.432  1.00  0.00    -0.166 F 
ENDBRANCH  91  92
ENDBRANCH  79  85
ENDBRANCH  75  77
ENDBRANCH  74  75
ENDBRANCH  73  74
ENDBRANCH  72  73
ENDBRANCH   1  72
TORSDOF 16
ENDMDL
MODEL 3
REMARK VINA RESULT:     -11.4      0.755      1.849
REMARK SMILES O=C(OCCOCCOC(=O)[C@H]1C[NH2+]CCN1c1ncc(C(F)(F)F)cc1Cl)c1ccc(-c2c3nc(c(-c4c(F)c(F)c(F)c(F)c4F)c4ccc([nH]4)c(-c4c(F)c(F)c(F)c(F)c4F)c4nc(c(-c5c(F)c(F)c(F)c(F)c5F)c5ccc2[nH]5)C=C4)C=C3)cc1
REMARK SMILES IDX 6 1 5 2 4 3 3 4 2 5 1 6 29 7 30 8 91 9 31 10 90 11 32 12
REMARK SMILES IDX 33 13 34 14 84 15 35 16 89 17 83 18 85 19 36 20 88 21 82 22
REMARK SMILES IDX 81 23 37 25 69 26 49 27 68 28 50 29 53 30 67 31 86 32 51 33
REMARK SMILES IDX 52 34 66 36 87 37 54 38 38 39 39 40 47 41 40 42 41 43 45 44
REMARK SMILES IDX 48 45 42 46 43 47 46 48 44 49 70 50 71 51 79 52 72 53 73 54
REMARK SMILES IDX 77 55 80 56 74 57 75 58 78 59 76 60 55 61 56 62 64 63 57 64
REMARK SMILES IDX 58 65 62 66 65 67 59 68 60 69 63 70 61 71 7 72 8 73 9 74
REMARK SMILES IDX 10 75 11 76 12 77 13 78 17 79 14 80 16 81 15 82 18 85 19 86
REMARK SMILES IDX 27 87 20 88 26 89 28 90 21 91 22 92 23 93 24 94 25 95
REMARK H PARENT 85 24 53 35 14 83 14 84
REMARK Flexibility Score: inf
ROOT
ATOM      1  O   UNL A   1      31.668  27.649  24.262  1.00  0.00    -0.374 OA
ENDROOT
BRANCH   1   2
ATOM      2  C   UNL A   1      31.720  29.073  24.375  1.00  0.00     0.202 C 
BRANCH   2   3
ATOM      3  C   UNL A   1      32.937  29.568  25.160  1.00  0.00     0.261 C 
BRANCH   3   4
ATOM      4  O   UNL A   1      32.525  30.383  26.269  1.00  0.00    -0.460 OA
BRANCH   4   5
ATOM      5  C   UNL A   1      33.275  31.298  26.929  1.00  0.00     0.338 C 
ATOM      6  O   UNL A   1      32.923  32.477  26.917  1.00  0.00    -0.246 OA
BRANCH   5   7
ATOM      7  C   UNL A   1      34.476  30.941  27.743  1.00  0.00     0.060 A 
ATOM      8  C   UNL A   1      34.774  29.660  28.213  1.00  0.00     0.016 A 
ATOM      9  C   UNL A   1      35.416  31.960  27.968  1.00  0.00     0.016 A 
ATOM     10  C   UNL A   1      35.933  29.395  28.921  1.00  0.00     0.010 A 
ATOM     11  C   UNL A   1      36.607  31.696  28.651  1.00  0.00     0.010 A 
ATOM     12  C   UNL A   1      36.860  30.408  29.134  1.00  0.00    -0.014 A 
BRANCH  12  13
ATOM     13  C   UNL A   1      38.052  30.093  29.934  1.00  0.00     0.031 A 
ATOM     14  C   UNL A   1      39.133  29.276  29.307  1.00  0.00     0.074 A 
ATOM     15  C   UNL A   1      38.192  30.643  31.152  1.00  0.00     0.049 A 
ATOM     16  N   UNL A   1      40.225  28.802  29.837  1.00  0.00    -0.248 NA
ATOM     17  C   UNL A   1      38.963  28.958  27.879  1.00  0.00     0.031 C 
ATOM     18  C   UNL A   1      37.237  31.564  31.773  1.00  0.00     0.029 A 
ATOM     19  N   UNL A   1      39.197  30.533  32.072  1.00  0.00    -0.354 N 
ATOM     20  C   UNL A   1      40.854  28.096  28.823  1.00  0.00     0.074 A 
ATOM     21  C   UNL A   1      40.031  28.214  27.640  1.00  0.00     0.031 C 
ATOM     22  C   UNL A   1      37.715  31.949  32.967  1.00  0.00     0.029 A 
ATOM     23  C   UNL A   1      38.965  31.244  33.223  1.00  0.00     0.049 A 
ATOM     24  H   UNL A   1      40.009  29.995  31.923  1.00  0.00     0.167 HD
ATOM     25  C   UNL A   1      42.011  27.400  28.894  1.00  0.00     0.037 A 
ATOM     26  C   UNL A   1      39.673  31.279  34.366  1.00  0.00     0.037 A 
ATOM     27  C   UNL A   1      42.799  27.308  30.093  1.00  0.00     0.049 A 
ATOM     28  C   UNL A   1      40.915  30.434  34.446  1.00  0.00     0.074 A 
ATOM     29  C   UNL A   1      43.945  26.572  30.328  1.00  0.00     0.029 A 
ATOM     30  N   UNL A   1      42.510  27.995  31.267  1.00  0.00    -0.354 N 
ATOM     31  N   UNL A   1      41.463  29.682  33.519  1.00  0.00    -0.248 NA
ATOM     32  C   UNL A   1      41.625  30.418  35.730  1.00  0.00     0.031 C 
ATOM     33  C   UNL A   1      44.330  26.787  31.657  1.00  0.00     0.029 A 
ATOM     34  C   UNL A   1      43.450  27.692  32.236  1.00  0.00     0.049 A 
ATOM     35  H   UNL A   1      41.749  28.606  31.391  1.00  0.00     0.167 HD
ATOM     36  C   UNL A   1      42.583  29.111  34.101  1.00  0.00     0.074 A 
ATOM     37  C   UNL A   1      42.650  29.622  35.457  1.00  0.00     0.031 C 
ATOM     38  C   UNL A   1      43.475  28.235  33.572  1.00  0.00     0.037 A 
BRANCH  25  39
ATOM     39  C   UNL A   1      42.415  26.631  27.673  1.00  0.00     0.064 A 
ATOM     40  C   UNL A   1      41.945  25.333  27.420  1.00  0.00     0.173 A 
ATOM     41  C   UNL A   1      43.338  27.182  26.771  1.00  0.00     0.173 A 
ATOM     42  F   UNL A   1      41.089  24.748  28.270  1.00  0.00    -0.203 F 
ATOM     43  C   UNL A   1      42.411  24.603  26.327  1.00  0.00     0.198 A 
ATOM     44  C   UNL A   1      43.782  26.459  25.666  1.00  0.00     0.198 A 
ATOM     45  F   UNL A   1      43.828  28.414  26.972  1.00  0.00    -0.203 F 
ATOM     46  F   UNL A   1      42.000  23.342  26.142  1.00  0.00    -0.200 F 
ATOM     47  C   UNL A   1      43.327  25.167  25.452  1.00  0.00     0.200 A 
ATOM     48  F   UNL A   1      44.668  27.005  24.822  1.00  0.00    -0.200 F 
ATOM     49  F   UNL A   1      43.786  24.458  24.411  1.00  0.00    -0.200 F 
ENDBRANCH  25  39
BRANCH  26  50
ATOM     50  C   UNL A   1      39.196  32.087  35.519  1.00  0.00     0.064 A 
ATOM     51  C   UNL A   1      38.389  31.525  36.517  1.00  0.00     0.173 A 
ATOM     52  C   UNL A   1      39.545  33.441  35.653  1.00  0.00     0.173 A 
ATOM     53  F   UNL A   1      38.007  30.244  36.427  1.00  0.00    -0.203 F 
ATOM     54  C   UNL A   1      37.945  32.287  37.599  1.00  0.00     0.198 A 
ATOM     55  C   UNL A   1      39.126  34.192  36.749  1.00  0.00     0.198 A 
ATOM     56  F   UNL A   1      40.312  34.032  34.725  1.00  0.00    -0.203 F 
ATOM     57  F   UNL A   1      37.143  31.733  38.519  1.00  0.00    -0.200 F 
ATOM     58  C   UNL A   1      38.321  33.616  37.718  1.00  0.00     0.200 A 
ATOM     59  F   UNL A   1      39.504  35.473  36.865  1.00  0.00    -0.200 F 
ATOM     60  F   UNL A   1      37.900  34.344  38.761  1.00  0.00    -0.200 F 
ENDBRANCH  26  50
BRANCH  38  61
ATOM     61  C   UNL A   1      44.601  27.805  34.459  1.00  0.00     0.064 A 
ATOM     62  C   UNL A   1      44.527  26.627  35.214  1.00  0.00     0.173 A 
ATOM     63  C   UNL A   1      45.785  28.555  34.510  1.00  0.00     0.173 A 
ATOM     64  F   UNL A   1      43.406  25.889  35.207  1.00  0.00    -0.203 F 
ATOM     65  C   UNL A   1      45.597  26.222  36.005  1.00  0.00     0.198 A 
ATOM     66  C   UNL A   1      46.862  28.133  35.281  1.00  0.00     0.198 A 
ATOM     67  F   UNL A   1      45.900  29.686  33.798  1.00  0.00    -0.203 F 
ATOM     68  F   UNL A   1      45.495  25.112  36.749  1.00  0.00    -0.200 F 
ATOM     69  C   UNL A   1      46.765  26.970  36.032  1.00  0.00     0.200 A 
ATOM     70  F   UNL A   1      47.993  28.850  35.298  1.00  0.00    -0.200 F 
ATOM     71  F   UNL A   1      47.799  26.572  36.787  1.00  0.00    -0.200 F 
ENDBRANCH  38  61
ENDBRANCH  12  13
ENDBRANCH   5   7
ENDBRANCH   4   5
ENDBRANCH   3   4
ENDBRANCH   2   3
ENDBRANCH   1   2
BRANCH   1  72
ATOM     72  C   UNL A   1      31.717  27.147  22.929  1.00  0.00     0.202 C 
BRANCH  72  73
ATOM     73  C   UNL A   1      33.149  26.738  22.592  1.00  0.00     0.261 C 
BRANCH  73  74
ATOM     74  O   UNL A   1      33.631  25.826  23.598  1.00  0.00    -0.462 OA
BRANCH  74  75
ATOM     75  C   UNL A   1      33.625  24.506  23.242  1.00  0.00     0.334 C 
ATOM     76  O   UNL A   1      33.588  24.092  22.085  1.00  0.00    -0.250 OA
BRANCH  75  77
ATOM     77  C   UNL A   1      33.662  23.608  24.492  1.00  0.00     0.249 C 
ATOM     78  C   UNL A   1      33.607  24.536  25.732  1.00  0.00     0.298 C 
ATOM     79  N   UNL A   1      32.523  22.657  24.539  1.00  0.00    -0.331 N 
ATOM     80  N   UNL A   1      32.299  25.205  25.951  1.00  0.00    -0.343 N 
ATOM     81  C   UNL A   1      31.195  23.263  24.726  1.00  0.00     0.180 C 
ATOM     82  C   UNL A   1      31.221  24.192  25.964  1.00  0.00     0.282 C 
ATOM     83  H   UNL A   1      32.128  25.873  25.199  1.00  0.00     0.346 HD
ATOM     84  H   UNL A   1      32.314  25.697  26.845  1.00  0.00     0.346 HD
BRANCH  79  85
ATOM     85  C   UNL A   1      32.605  21.286  24.471  1.00  0.00     0.148 A 
ATOM     86  N   UNL A   1      33.054  20.674  25.602  1.00  0.00    -0.237 NA
ATOM     87  C   UNL A   1      32.297  20.502  23.347  1.00  0.00     0.084 A 
ATOM     88  C   UNL A   1      33.184  19.325  25.640  1.00  0.00     0.126 A 
ATOM     89  C   UNL A   1      32.432  19.107  23.412  1.00  0.00     0.039 A 
ATOM     90  Cl  UNL A   1      31.875  21.144  21.798  1.00  0.00    -0.080 Cl
ATOM     91  C   UNL A   1      32.888  18.496  24.579  1.00  0.00     0.075 A 
BRANCH  91  92
ATOM     92  C   UNL A   1      33.058  17.016  24.712  1.00  0.00     0.417 C 
ATOM     93  F   UNL A   1      33.352  16.416  23.526  1.00  0.00    -0.166 F 
ATOM     94  F   UNL A   1      34.072  16.689  25.559  1.00  0.00    -0.166 F 
ATOM     95  F   UNL A   1      31.951  16.384  25.187  1.00  0.00    -0.166 F 
ENDBRANCH  91  92
ENDBRANCH  79  85
ENDBRANCH  75  77
ENDBRANCH  74  75
ENDBRANCH  73  74
ENDBRANCH  72  73
ENDBRANCH   1  72
TORSDOF 16
ENDMDL
