MODEL 1
REMARK VINA RESULT:     -10.7      0.000      0.000
REMARK SMILES CC[C@](C)(NC(=O)NC[C@@H](C)[NH+](C)C)C(=O)OCCOCCOC(=O)c1ccc(-c2c3nc(c(-c4c(F)c(F)c(F)c(F)c4F)c4ccc([nH]4)c(-c4c(F)c(F)c(F)c(F)c4F)c4nc(c(-c5c(F)c(F)c(F)c(F)c5F)c5ccc2[nH]5)C=C4)C=C3)cc1
REMARK SMILES IDX 19 1 18 2 17 3 15 4 16 5 3 6 4 7 2 8 1 9 5 10 6 11 7 13 8 14
REMARK SMILES IDX 9 16 10 17 11 18 12 19 13 20 14 21 20 23 21 24 22 25 23 26
REMARK SMILES IDX 24 27 25 28 26 29 27 30 88 31 28 32 87 33 29 34 30 35 31 36
REMARK SMILES IDX 81 37 32 38 86 39 80 40 82 41 33 42 85 43 79 44 78 45 34 47
REMARK SMILES IDX 66 48 46 49 65 50 47 51 50 52 64 53 83 54 48 55 49 56 63 58
REMARK SMILES IDX 84 59 51 60 35 61 36 62 44 63 37 64 38 65 42 66 45 67 39 68
REMARK SMILES IDX 40 69 43 70 41 71 67 72 68 73 76 74 69 75 70 76 74 77 77 78
REMARK SMILES IDX 71 79 72 80 75 81 73 82 52 83 53 84 61 85 54 86 55 87 59 88
REMARK SMILES IDX 62 89 56 90 57 91 60 92 58 93
REMARK H PARENT 5 12 8 15 12 22 82 46 50 57
REMARK Flexibility Score: inf
ROOT
ATOM      1  C   UNL A   1      33.238  28.331  24.561  1.00  0.00     0.202 C 
ENDROOT
BRANCH   1   2
ATOM      2  C   UNL A   1      33.572  27.500  25.805  1.00  0.00     0.261 C 
BRANCH   2   3
ATOM      3  O   UNL A   1      32.727  26.340  25.793  1.00  0.00    -0.462 OA
BRANCH   3   4
ATOM      4  C   UNL A   1      31.445  26.444  26.223  1.00  0.00     0.331 C 
ATOM      5  O   UNL A   1      31.096  27.189  27.128  1.00  0.00    -0.249 OA
BRANCH   4   6
ATOM      6  C   UNL A   1      30.499  25.570  25.336  1.00  0.00     0.136 C 
ATOM      7  C   UNL A   1      31.463  24.995  24.270  1.00  0.00     0.047 C 
BRANCH   6   8
ATOM      8  C   UNL A   1      29.350  26.336  24.629  1.00  0.00     0.037 C 
ATOM      9  C   UNL A   1      29.736  27.310  23.525  1.00  0.00     0.007 C 
ENDBRANCH   6   8
BRANCH   6  10
ATOM     10  N   UNL A   1      29.902  24.388  26.051  1.00  0.00    -0.322 N 
ATOM     11  C   UNL A   1      30.354  23.428  26.876  1.00  0.00     0.315 C 
ATOM     12  H   UNL A   1      28.939  24.295  25.870  1.00  0.00     0.166 HD
ATOM     13  O   UNL A   1      29.522  22.821  27.552  1.00  0.00    -0.249 OA
ATOM     14  N   UNL A   1      31.648  23.087  27.008  1.00  0.00    -0.332 N 
ATOM     15  H   UNL A   1      31.885  22.642  27.853  1.00  0.00     0.165 HD
BRANCH  14  16
ATOM     16  C   UNL A   1      32.736  23.283  26.080  1.00  0.00     0.182 C 
BRANCH  16  17
ATOM     17  C   UNL A   1      33.846  22.210  26.018  1.00  0.00     0.200 C 
ATOM     18  C   UNL A   1      33.760  21.355  27.289  1.00  0.00     0.077 C 
BRANCH  17  19
ATOM     19  N   UNL A   1      33.805  21.425  24.753  1.00  0.00    -0.336 N 
ATOM     20  C   UNL A   1      32.686  20.488  24.673  1.00  0.00     0.332 C 
ATOM     21  C   UNL A   1      33.886  22.188  23.509  1.00  0.00     0.332 C 
ATOM     22  H   UNL A   1      34.678  20.903  24.824  1.00  0.00     0.347 HD
ENDBRANCH  17  19
ENDBRANCH  16  17
ENDBRANCH  14  16
ENDBRANCH   6  10
ENDBRANCH   4   6
ENDBRANCH   3   4
ENDBRANCH   2   3
ENDBRANCH   1   2
BRANCH   1  23
ATOM     23  O   UNL A   1      33.008  29.714  24.834  1.00  0.00    -0.374 OA
BRANCH  23  24
ATOM     24  C   UNL A   1      31.691  30.083  25.242  1.00  0.00     0.202 C 
BRANCH  24  25
ATOM     25  C   UNL A   1      31.598  31.139  26.348  1.00  0.00     0.261 C 
BRANCH  25  26
ATOM     26  O   UNL A   1      32.549  30.986  27.421  1.00  0.00    -0.460 OA
BRANCH  26  27
ATOM     27  C   UNL A   1      33.355  32.049  27.620  1.00  0.00     0.338 C 
ATOM     28  O   UNL A   1      33.014  33.234  27.626  1.00  0.00    -0.246 OA
BRANCH  27  29
ATOM     29  C   UNL A   1      34.757  31.658  27.877  1.00  0.00     0.060 A 
ATOM     30  C   UNL A   1      35.026  30.296  28.053  1.00  0.00     0.016 A 
ATOM     31  C   UNL A   1      35.765  32.602  28.110  1.00  0.00     0.016 A 
ATOM     32  C   UNL A   1      36.275  29.877  28.516  1.00  0.00     0.010 A 
ATOM     33  C   UNL A   1      37.020  32.178  28.583  1.00  0.00     0.010 A 
ATOM     34  C   UNL A   1      37.270  30.815  28.828  1.00  0.00    -0.014 A 
BRANCH  34  35
ATOM     35  C   UNL A   1      38.491  30.346  29.540  1.00  0.00     0.031 A 
ATOM     36  C   UNL A   1      38.740  30.793  30.955  1.00  0.00     0.074 A 
ATOM     37  C   UNL A   1      39.328  29.452  28.980  1.00  0.00     0.049 A 
ATOM     38  N   UNL A   1      39.652  30.392  31.806  1.00  0.00    -0.248 NA
ATOM     39  C   UNL A   1      37.839  31.829  31.483  1.00  0.00     0.031 C 
ATOM     40  C   UNL A   1      39.213  28.935  27.622  1.00  0.00     0.029 A 
ATOM     41  N   UNL A   1      40.434  28.814  29.488  1.00  0.00    -0.354 N 
ATOM     42  C   UNL A   1      39.414  31.097  32.978  1.00  0.00     0.074 A 
ATOM     43  C   UNL A   1      38.311  31.997  32.710  1.00  0.00     0.031 C 
ATOM     44  C   UNL A   1      40.200  28.051  27.401  1.00  0.00     0.029 A 
ATOM     45  C   UNL A   1      41.028  27.950  28.601  1.00  0.00     0.049 A 
ATOM     46  H   UNL A   1      40.767  28.962  30.402  1.00  0.00     0.167 HD
ATOM     47  C   UNL A   1      40.039  30.991  34.176  1.00  0.00     0.037 A 
ATOM     48  C   UNL A   1      42.117  27.167  28.739  1.00  0.00     0.037 A 
ATOM     49  C   UNL A   1      41.160  30.127  34.443  1.00  0.00     0.049 A 
ATOM     50  C   UNL A   1      42.838  27.118  30.062  1.00  0.00     0.074 A 
ATOM     51  C   UNL A   1      41.860  29.961  35.626  1.00  0.00     0.029 A 
ATOM     52  N   UNL A   1      41.757  29.294  33.509  1.00  0.00    -0.354 N 
ATOM     53  N   UNL A   1      42.561  27.740  31.182  1.00  0.00    -0.248 NA
ATOM     54  C   UNL A   1      44.013  26.238  30.143  1.00  0.00     0.031 C 
ATOM     55  C   UNL A   1      42.911  29.066  35.396  1.00  0.00     0.029 A 
ATOM     56  C   UNL A   1      42.831  28.629  34.084  1.00  0.00     0.049 A 
ATOM     57  H   UNL A   1      41.463  29.190  32.576  1.00  0.00     0.167 HD
ATOM     58  C   UNL A   1      43.507  27.308  32.104  1.00  0.00     0.074 A 
ATOM     59  C   UNL A   1      44.350  26.351  31.420  1.00  0.00     0.031 C 
ATOM     60  C   UNL A   1      43.667  27.676  33.399  1.00  0.00     0.037 A 
BRANCH  47  61
ATOM     61  C   UNL A   1      39.520  31.841  35.298  1.00  0.00     0.064 A 
ATOM     62  C   UNL A   1      38.603  31.334  36.232  1.00  0.00     0.173 A 
ATOM     63  C   UNL A   1      39.968  33.159  35.468  1.00  0.00     0.173 A 
ATOM     64  F   UNL A   1      38.135  30.083  36.108  1.00  0.00    -0.203 F 
ATOM     65  C   UNL A   1      38.137  32.123  37.280  1.00  0.00     0.198 A 
ATOM     66  C   UNL A   1      39.522  33.937  36.534  1.00  0.00     0.198 A 
ATOM     67  F   UNL A   1      40.849  33.690  34.607  1.00  0.00    -0.203 F 
ATOM     68  F   UNL A   1      37.229  31.631  38.135  1.00  0.00    -0.200 F 
ATOM     69  C   UNL A   1      38.601  33.420  37.435  1.00  0.00     0.200 A 
ATOM     70  F   UNL A   1      39.982  35.185  36.691  1.00  0.00    -0.200 F 
ATOM     71  F   UNL A   1      38.159  34.176  38.449  1.00  0.00    -0.200 F 
ENDBRANCH  47  61
BRANCH  48  72
ATOM     72  C   UNL A   1      42.605  26.358  27.589  1.00  0.00     0.064 A 
ATOM     73  C   UNL A   1      42.132  25.059  27.356  1.00  0.00     0.173 A 
ATOM     74  C   UNL A   1      43.598  26.852  26.729  1.00  0.00     0.173 A 
ATOM     75  F   UNL A   1      41.202  24.531  28.166  1.00  0.00    -0.203 F 
ATOM     76  C   UNL A   1      42.653  24.275  26.329  1.00  0.00     0.198 A 
ATOM     77  C   UNL A   1      44.095  26.080  25.682  1.00  0.00     0.198 A 
ATOM     78  F   UNL A   1      44.086  28.089  26.908  1.00  0.00    -0.203 F 
ATOM     79  F   UNL A   1      42.227  23.015  26.168  1.00  0.00    -0.200 F 
ATOM     80  C   UNL A   1      43.632  24.787  25.490  1.00  0.00     0.200 A 
ATOM     81  F   UNL A   1      45.033  26.583  24.868  1.00  0.00    -0.200 F 
ATOM     82  F   UNL A   1      44.137  24.033  24.506  1.00  0.00    -0.200 F 
ENDBRANCH  48  72
BRANCH  60  83
ATOM     83  C   UNL A   1      44.776  27.018  34.172  1.00  0.00     0.064 A 
ATOM     84  C   UNL A   1      44.591  25.795  34.836  1.00  0.00     0.173 A 
ATOM     85  C   UNL A   1      46.047  27.611  34.241  1.00  0.00     0.173 A 
ATOM     86  F   UNL A   1      43.392  25.190  34.816  1.00  0.00    -0.203 F 
ATOM     87  C   UNL A   1      45.620  25.212  35.570  1.00  0.00     0.198 A 
ATOM     88  C   UNL A   1      47.084  27.007  34.946  1.00  0.00     0.198 A 
ATOM     89  F   UNL A   1      46.284  28.775  33.618  1.00  0.00    -0.203 F 
ATOM     90  F   UNL A   1      45.399  24.076  36.248  1.00  0.00    -0.200 F 
ATOM     91  C   UNL A   1      46.868  25.815  35.621  1.00  0.00     0.200 A 
ATOM     92  F   UNL A   1      48.294  27.586  34.982  1.00  0.00    -0.200 F 
ATOM     93  F   UNL A   1      47.858  25.254  36.327  1.00  0.00    -0.200 F 
ENDBRANCH  60  83
ENDBRANCH  34  35
ENDBRANCH  27  29
ENDBRANCH  26  27
ENDBRANCH  25  26
ENDBRANCH  24  25
ENDBRANCH  23  24
ENDBRANCH   1  23
TORSDOF 19
ENDMDL
MODEL 2
REMARK VINA RESULT:     -10.7      1.374      2.638
REMARK SMILES CC[C@](C)(NC(=O)NC[C@@H](C)[NH+](C)C)C(=O)OCCOCCOC(=O)c1ccc(-c2c3nc(c(-c4c(F)c(F)c(F)c(F)c4F)c4ccc([nH]4)c(-c4c(F)c(F)c(F)c(F)c4F)c4nc(c(-c5c(F)c(F)c(F)c(F)c5F)c5ccc2[nH]5)C=C4)C=C3)cc1
REMARK SMILES IDX 19 1 18 2 17 3 15 4 16 5 3 6 4 7 2 8 1 9 5 10 6 11 7 13 8 14
REMARK SMILES IDX 9 16 10 17 11 18 12 19 13 20 14 21 20 23 21 24 22 25 23 26
REMARK SMILES IDX 24 27 25 28 26 29 27 30 88 31 28 32 87 33 29 34 30 35 31 36
REMARK SMILES IDX 81 37 32 38 86 39 80 40 82 41 33 42 85 43 79 44 78 45 34 47
REMARK SMILES IDX 66 48 46 49 65 50 47 51 50 52 64 53 83 54 48 55 49 56 63 58
REMARK SMILES IDX 84 59 51 60 35 61 36 62 44 63 37 64 38 65 42 66 45 67 39 68
REMARK SMILES IDX 40 69 43 70 41 71 67 72 68 73 76 74 69 75 70 76 74 77 77 78
REMARK SMILES IDX 71 79 72 80 75 81 73 82 52 83 53 84 61 85 54 86 55 87 59 88
REMARK SMILES IDX 62 89 56 90 57 91 60 92 58 93
REMARK H PARENT 5 12 8 15 12 22 82 46 50 57
REMARK Flexibility Score: inf
ROOT
ATOM      1  C   UNL A   1      32.542  28.423  26.355  1.00  0.00     0.202 C 
ENDROOT
BRANCH   1   2
ATOM      2  C   UNL A   1      31.863  27.089  26.685  1.00  0.00     0.261 C 
BRANCH   2   3
ATOM      3  O   UNL A   1      32.595  26.052  26.014  1.00  0.00    -0.462 OA
BRANCH   3   4
ATOM      4  C   UNL A   1      32.077  24.800  25.960  1.00  0.00     0.331 C 
ATOM      5  O   UNL A   1      30.886  24.556  26.094  1.00  0.00    -0.249 OA
BRANCH   4   6
ATOM      6  C   UNL A   1      33.193  23.763  25.606  1.00  0.00     0.136 C 
ATOM      7  C   UNL A   1      33.594  23.204  26.993  1.00  0.00     0.047 C 
BRANCH   6   8
ATOM      8  C   UNL A   1      34.449  24.345  24.905  1.00  0.00     0.037 C 
ATOM      9  C   UNL A   1      35.793  24.122  25.582  1.00  0.00     0.007 C 
ENDBRANCH   6   8
BRANCH   6  10
ATOM     10  N   UNL A   1      32.709  22.588  24.799  1.00  0.00    -0.322 N 
ATOM     11  C   UNL A   1      32.453  22.346  23.503  1.00  0.00     0.315 C 
ATOM     12  H   UNL A   1      32.537  21.800  25.362  1.00  0.00     0.166 HD
ATOM     13  O   UNL A   1      32.401  21.168  23.143  1.00  0.00    -0.249 OA
ATOM     14  N   UNL A   1      32.247  23.300  22.577  1.00  0.00    -0.332 N 
ATOM     15  H   UNL A   1      32.412  23.030  21.645  1.00  0.00     0.165 HD
BRANCH  14  16
ATOM     16  C   UNL A   1      31.816  24.665  22.764  1.00  0.00     0.182 C 
BRANCH  16  17
ATOM     17  C   UNL A   1      32.696  25.795  22.182  1.00  0.00     0.200 C 
ATOM     18  C   UNL A   1      32.405  25.907  20.680  1.00  0.00     0.077 C 
BRANCH  17  19
ATOM     19  N   UNL A   1      32.543  27.074  22.929  1.00  0.00    -0.336 N 
ATOM     20  C   UNL A   1      33.649  28.009  22.736  1.00  0.00     0.332 C 
ATOM     21  C   UNL A   1      31.275  27.782  22.756  1.00  0.00     0.332 C 
ATOM     22  H   UNL A   1      32.550  26.736  23.890  1.00  0.00     0.347 HD
ENDBRANCH  17  19
ENDBRANCH  16  17
ENDBRANCH  14  16
ENDBRANCH   6  10
ENDBRANCH   4   6
ENDBRANCH   3   4
ENDBRANCH   2   3
ENDBRANCH   1   2
BRANCH   1  23
ATOM     23  O   UNL A   1      31.976  29.544  27.037  1.00  0.00    -0.374 OA
BRANCH  23  24
ATOM     24  C   UNL A   1      31.778  30.734  26.274  1.00  0.00     0.202 C 
BRANCH  24  25
ATOM     25  C   UNL A   1      31.634  32.033  27.074  1.00  0.00     0.261 C 
BRANCH  25  26
ATOM     26  O   UNL A   1      32.702  32.983  26.893  1.00  0.00    -0.460 OA
BRANCH  26  27
ATOM     27  C   UNL A   1      33.295  33.394  28.032  1.00  0.00     0.338 C 
ATOM     28  O   UNL A   1      32.826  34.179  28.860  1.00  0.00    -0.246 OA
BRANCH  27  29
ATOM     29  C   UNL A   1      34.618  32.769  28.241  1.00  0.00     0.060 A 
ATOM     30  C   UNL A   1      34.642  31.439  28.678  1.00  0.00     0.016 A 
ATOM     31  C   UNL A   1      35.809  33.502  28.179  1.00  0.00     0.016 A 
ATOM     32  C   UNL A   1      35.837  30.859  29.108  1.00  0.00     0.010 A 
ATOM     33  C   UNL A   1      37.011  32.917  28.619  1.00  0.00     0.010 A 
ATOM     34  C   UNL A   1      37.025  31.604  29.124  1.00  0.00    -0.014 A 
BRANCH  34  35
ATOM     35  C   UNL A   1      38.216  31.028  29.810  1.00  0.00     0.031 A 
ATOM     36  C   UNL A   1      38.488  31.386  31.246  1.00  0.00     0.074 A 
ATOM     37  C   UNL A   1      39.001  30.119  29.203  1.00  0.00     0.049 A 
ATOM     38  N   UNL A   1      39.373  30.888  32.073  1.00  0.00    -0.248 NA
ATOM     39  C   UNL A   1      37.647  32.442  31.829  1.00  0.00     0.031 C 
ATOM     40  C   UNL A   1      38.859  29.681  27.819  1.00  0.00     0.029 A 
ATOM     41  N   UNL A   1      40.067  29.393  29.675  1.00  0.00    -0.354 N 
ATOM     42  C   UNL A   1      39.174  31.543  33.281  1.00  0.00     0.074 A 
ATOM     43  C   UNL A   1      38.125  32.518  33.062  1.00  0.00     0.031 C 
ATOM     44  C   UNL A   1      39.794  28.755  27.551  1.00  0.00     0.029 A 
ATOM     45  C   UNL A   1      40.613  28.543  28.743  1.00  0.00     0.049 A 
ATOM     46  H   UNL A   1      40.407  29.472  30.595  1.00  0.00     0.167 HD
ATOM     47  C   UNL A   1      39.790  31.339  34.471  1.00  0.00     0.037 A 
ATOM     48  C   UNL A   1      41.655  27.693  28.838  1.00  0.00     0.037 A 
ATOM     49  C   UNL A   1      40.859  30.399  34.692  1.00  0.00     0.049 A 
ATOM     50  C   UNL A   1      42.369  27.532  30.156  1.00  0.00     0.074 A 
ATOM     51  C   UNL A   1      41.545  30.131  35.864  1.00  0.00     0.029 A 
ATOM     52  N   UNL A   1      41.408  29.583  33.714  1.00  0.00    -0.354 N 
ATOM     53  N   UNL A   1      42.126  28.110  31.308  1.00  0.00    -0.248 NA
ATOM     54  C   UNL A   1      43.491  26.583  30.190  1.00  0.00     0.031 C 
ATOM     55  C   UNL A   1      42.543  29.190  35.585  1.00  0.00     0.029 A 
ATOM     56  C   UNL A   1      42.440  28.828  34.252  1.00  0.00     0.049 A 
ATOM     57  H   UNL A   1      41.110  29.545  32.777  1.00  0.00     0.167 HD
ATOM     58  C   UNL A   1      43.044  27.576  32.204  1.00  0.00     0.074 A 
ATOM     59  C   UNL A   1      43.831  26.609  31.471  1.00  0.00     0.031 C 
ATOM     60  C   UNL A   1      43.222  27.865  33.517  1.00  0.00     0.037 A 
BRANCH  47  61
ATOM     61  C   UNL A   1      39.318  32.157  35.637  1.00  0.00     0.064 A 
ATOM     62  C   UNL A   1      38.392  31.645  36.560  1.00  0.00     0.173 A 
ATOM     63  C   UNL A   1      39.821  33.447  35.861  1.00  0.00     0.173 A 
ATOM     64  F   UNL A   1      37.871  30.421  36.385  1.00  0.00    -0.203 F 
ATOM     65  C   UNL A   1      37.970  32.404  37.648  1.00  0.00     0.198 A 
ATOM     66  C   UNL A   1      39.419  34.192  36.966  1.00  0.00     0.198 A 
ATOM     67  F   UNL A   1      40.713  33.981  35.013  1.00  0.00    -0.203 F 
ATOM     68  F   UNL A   1      37.052  31.910  38.492  1.00  0.00    -0.200 F 
ATOM     69  C   UNL A   1      38.488  33.673  37.855  1.00  0.00     0.200 A 
ATOM     70  F   UNL A   1      39.932  35.413  37.173  1.00  0.00    -0.200 F 
ATOM     71  F   UNL A   1      38.088  34.399  38.908  1.00  0.00    -0.200 F 
ENDBRANCH  47  61
BRANCH  48  72
ATOM     72  C   UNL A   1      42.097  26.918  27.647  1.00  0.00     0.064 A 
ATOM     73  C   UNL A   1      41.586  25.642  27.374  1.00  0.00     0.173 A 
ATOM     74  C   UNL A   1      43.084  27.422  26.786  1.00  0.00     0.173 A 
ATOM     75  F   UNL A   1      40.660  25.104  28.183  1.00  0.00    -0.203 F 
ATOM     76  C   UNL A   1      42.065  24.887  26.305  1.00  0.00     0.198 A 
ATOM     77  C   UNL A   1      43.539  26.680  25.698  1.00  0.00     0.198 A 
ATOM     78  F   UNL A   1      43.606  28.638  27.002  1.00  0.00    -0.203 F 
ATOM     79  F   UNL A   1      41.604  23.645  26.104  1.00  0.00    -0.200 F 
ATOM     80  C   UNL A   1      43.039  25.408  25.465  1.00  0.00     0.200 A 
ATOM     81  F   UNL A   1      44.471  27.193  24.883  1.00  0.00    -0.200 F 
ATOM     82  F   UNL A   1      43.504  24.681  24.442  1.00  0.00    -0.200 F 
ENDBRANCH  48  72
BRANCH  60  83
ATOM     83  C   UNL A   1      44.289  27.105  34.254  1.00  0.00     0.064 A 
ATOM     84  C   UNL A   1      45.601  27.591  34.365  1.00  0.00     0.173 A 
ATOM     85  C   UNL A   1      43.994  25.878  34.870  1.00  0.00     0.173 A 
ATOM     86  F   UNL A   1      45.942  28.752  33.783  1.00  0.00    -0.203 F 
ATOM     87  C   UNL A   1      46.585  26.862  35.027  1.00  0.00     0.198 A 
ATOM     88  C   UNL A   1      44.972  25.168  35.562  1.00  0.00     0.198 A 
ATOM     89  F   UNL A   1      42.756  25.368  34.805  1.00  0.00    -0.203 F 
ATOM     90  F   UNL A   1      47.845  27.317  35.064  1.00  0.00    -0.200 F 
ATOM     91  C   UNL A   1      46.269  25.653  35.630  1.00  0.00     0.200 A 
ATOM     92  F   UNL A   1      44.660  24.007  36.156  1.00  0.00    -0.200 F 
ATOM     93  F   UNL A   1      47.216  24.952  36.267  1.00  0.00    -0.200 F 
ENDBRANCH  60  83
ENDBRANCH  34  35
ENDBRANCH  27  29
ENDBRANCH  26  27
ENDBRANCH  25  26
ENDBRANCH  24  25
ENDBRANCH  23  24
ENDBRANCH   1  23
TORSDOF 19
ENDMDL
MODEL 3
REMARK VINA RESULT:     -10.5      4.446      9.770
REMARK SMILES CC[C@](C)(NC(=O)NC[C@@H](C)[NH+](C)C)C(=O)OCCOCCOC(=O)c1ccc(-c2c3nc(c(-c4c(F)c(F)c(F)c(F)c4F)c4ccc([nH]4)c(-c4c(F)c(F)c(F)c(F)c4F)c4nc(c(-c5c(F)c(F)c(F)c(F)c5F)c5ccc2[nH]5)C=C4)C=C3)cc1
REMARK SMILES IDX 19 1 18 2 17 3 15 4 16 5 3 6 4 7 2 8 1 9 5 10 6 11 7 13 8 14
REMARK SMILES IDX 9 16 10 17 11 18 12 19 13 20 14 21 20 23 21 24 22 25 23 26
REMARK SMILES IDX 24 27 25 28 26 29 27 30 88 31 28 32 87 33 29 34 30 35 31 36
REMARK SMILES IDX 81 37 32 38 86 39 80 40 82 41 33 42 85 43 79 44 78 45 34 47
REMARK SMILES IDX 66 48 46 49 65 50 47 51 50 52 64 53 83 54 48 55 49 56 63 58
REMARK SMILES IDX 84 59 51 60 35 61 36 62 44 63 37 64 38 65 42 66 45 67 39 68
REMARK SMILES IDX 40 69 43 70 41 71 67 72 68 73 76 74 69 75 70 76 74 77 77 78
REMARK SMILES IDX 71 79 72 80 75 81 73 82 52 83 53 84 61 85 54 86 55 87 59 88
REMARK SMILES IDX 62 89 56 90 57 91 60 92 58 93
REMARK H PARENT 5 12 8 15 12 22 82 46 50 57
REMARK Flexibility Score: inf
ROOT
ATOM      1  C   UNL A   1      35.629  23.200  24.817  1.00  0.00     0.202 C 
ENDROOT
BRANCH   1   2
ATOM      2  C   UNL A   1      34.933  24.289  25.640  1.00  0.00     0.261 C 
BRANCH   2   3
ATOM      3  O   UNL A   1      34.456  25.288  24.726  1.00  0.00    -0.462 OA
BRANCH   3   4
ATOM      4  C   UNL A   1      33.403  26.065  25.079  1.00  0.00     0.331 C 
ATOM      5  O   UNL A   1      32.905  26.060  26.196  1.00  0.00    -0.249 OA
BRANCH   4   6
ATOM      6  C   UNL A   1      33.008  27.016  23.901  1.00  0.00     0.136 C 
ATOM      7  C   UNL A   1      33.942  28.233  24.115  1.00  0.00     0.047 C 
BRANCH   6   8
ATOM      8  C   UNL A   1      31.533  27.497  23.897  1.00  0.00     0.037 C 
ATOM      9  C   UNL A   1      31.210  28.756  23.106  1.00  0.00     0.007 C 
ENDBRANCH   6   8
BRANCH   6  10
ATOM     10  N   UNL A   1      33.327  26.471  22.535  1.00  0.00    -0.322 N 
ATOM     11  C   UNL A   1      32.707  25.686  21.639  1.00  0.00     0.315 C 
ATOM     12  H   UNL A   1      34.212  26.764  22.219  1.00  0.00     0.166 HD
ATOM     13  O   UNL A   1      33.109  25.724  20.475  1.00  0.00    -0.249 OA
ATOM     14  N   UNL A   1      31.682  24.863  21.928  1.00  0.00    -0.332 N 
ATOM     15  H   UNL A   1      31.108  24.617  21.168  1.00  0.00     0.165 HD
BRANCH  14  16
ATOM     16  C   UNL A   1      31.312  24.292  23.201  1.00  0.00     0.182 C 
BRANCH  16  17
ATOM     17  C   UNL A   1      31.653  22.808  23.463  1.00  0.00     0.200 C 
ATOM     18  C   UNL A   1      32.756  22.388  22.483  1.00  0.00     0.077 C 
BRANCH  17  19
ATOM     19  N   UNL A   1      31.976  22.543  24.893  1.00  0.00    -0.336 N 
ATOM     20  C   UNL A   1      30.952  23.007  25.827  1.00  0.00     0.332 C 
ATOM     21  C   UNL A   1      32.357  21.174  25.232  1.00  0.00     0.332 C 
ATOM     22  H   UNL A   1      32.817  23.109  25.005  1.00  0.00     0.347 HD
ENDBRANCH  17  19
ENDBRANCH  16  17
ENDBRANCH  14  16
ENDBRANCH   6  10
ENDBRANCH   4   6
ENDBRANCH   3   4
ENDBRANCH   2   3
ENDBRANCH   1   2
BRANCH   1  23
ATOM     23  O   UNL A   1      36.466  22.337  25.589  1.00  0.00    -0.374 OA
BRANCH  23  24
ATOM     24  C   UNL A   1      36.736  21.044  25.049  1.00  0.00     0.202 C 
BRANCH  24  25
ATOM     25  C   UNL A   1      38.201  20.596  25.069  1.00  0.00     0.261 C 
BRANCH  25  26
ATOM     26  O   UNL A   1      38.813  20.565  26.373  1.00  0.00    -0.460 OA
BRANCH  26  27
ATOM     27  C   UNL A   1      40.128  20.861  26.390  1.00  0.00     0.338 C 
ATOM     28  O   UNL A   1      41.035  20.195  25.885  1.00  0.00    -0.246 OA
BRANCH  27  29
ATOM     29  C   UNL A   1      40.415  22.139  27.075  1.00  0.00     0.060 A 
ATOM     30  C   UNL A   1      39.843  23.301  26.541  1.00  0.00     0.016 A 
ATOM     31  C   UNL A   1      41.351  22.238  28.111  1.00  0.00     0.016 A 
ATOM     32  C   UNL A   1      40.245  24.558  26.995  1.00  0.00     0.010 A 
ATOM     33  C   UNL A   1      41.760  23.507  28.562  1.00  0.00     0.010 A 
ATOM     34  C   UNL A   1      41.238  24.676  27.978  1.00  0.00    -0.014 A 
BRANCH  34  35
ATOM     35  C   UNL A   1      41.804  26.026  28.259  1.00  0.00     0.031 A 
ATOM     36  C   UNL A   1      43.171  26.378  27.737  1.00  0.00     0.074 A 
ATOM     37  C   UNL A   1      41.079  26.971  28.885  1.00  0.00     0.049 A 
ATOM     38  N   UNL A   1      43.788  27.534  27.736  1.00  0.00    -0.248 NA
ATOM     39  C   UNL A   1      43.944  25.283  27.133  1.00  0.00     0.031 C 
ATOM     40  C   UNL A   1      39.747  26.772  29.444  1.00  0.00     0.029 A 
ATOM     41  N   UNL A   1      41.358  28.291  29.148  1.00  0.00    -0.354 N 
ATOM     42  C   UNL A   1      45.003  27.314  27.102  1.00  0.00     0.074 A 
ATOM     43  C   UNL A   1      45.064  25.901  26.788  1.00  0.00     0.031 C 
ATOM     44  C   UNL A   1      39.315  27.927  29.976  1.00  0.00     0.029 A 
ATOM     45  C   UNL A   1      40.348  28.948  29.809  1.00  0.00     0.049 A 
ATOM     46  H   UNL A   1      42.202  28.725  28.885  1.00  0.00     0.167 HD
ATOM     47  C   UNL A   1      45.973  28.208  26.789  1.00  0.00     0.037 A 
ATOM     48  C   UNL A   1      40.266  30.224  30.233  1.00  0.00     0.037 A 
ATOM     49  C   UNL A   1      45.940  29.607  27.129  1.00  0.00     0.049 A 
ATOM     50  C   UNL A   1      41.388  31.184  29.932  1.00  0.00     0.074 A 
ATOM     51  C   UNL A   1      46.882  30.584  26.857  1.00  0.00     0.029 A 
ATOM     52  N   UNL A   1      44.917  30.226  27.831  1.00  0.00    -0.354 N 
ATOM     53  N   UNL A   1      42.503  30.979  29.273  1.00  0.00    -0.248 NA
ATOM     54  C   UNL A   1      41.229  32.563  30.418  1.00  0.00     0.031 C 
ATOM     55  C   UNL A   1      46.454  31.784  27.437  1.00  0.00     0.029 A 
ATOM     56  C   UNL A   1      45.217  31.568  28.021  1.00  0.00     0.049 A 
ATOM     57  H   UNL A   1      44.100  29.781  28.148  1.00  0.00     0.167 HD
ATOM     58  C   UNL A   1      43.161  32.202  29.243  1.00  0.00     0.074 A 
ATOM     59  C   UNL A   1      42.310  33.152  29.926  1.00  0.00     0.031 C 
ATOM     60  C   UNL A   1      44.366  32.510  28.701  1.00  0.00     0.037 A 
BRANCH  47  61
ATOM     61  C   UNL A   1      47.163  27.692  26.034  1.00  0.00     0.064 A 
ATOM     62  C   UNL A   1      47.192  27.692  24.631  1.00  0.00     0.173 A 
ATOM     63  C   UNL A   1      48.300  27.232  26.713  1.00  0.00     0.173 A 
ATOM     64  F   UNL A   1      46.125  28.112  23.933  1.00  0.00    -0.203 F 
ATOM     65  C   UNL A   1      48.305  27.227  23.937  1.00  0.00     0.198 A 
ATOM     66  C   UNL A   1      49.424  26.794  26.016  1.00  0.00     0.198 A 
ATOM     67  F   UNL A   1      48.327  27.217  28.054  1.00  0.00    -0.203 F 
ATOM     68  F   UNL A   1      48.293  27.195  22.597  1.00  0.00    -0.200 F 
ATOM     69  C   UNL A   1      49.422  26.785  24.629  1.00  0.00     0.200 A 
ATOM     70  F   UNL A   1      50.508  26.381  26.686  1.00  0.00    -0.200 F 
ATOM     71  F   UNL A   1      50.497  26.346  23.960  1.00  0.00    -0.200 F 
ENDBRANCH  47  61
BRANCH  48  72
ATOM     72  C   UNL A   1      39.073  30.683  30.996  1.00  0.00     0.064 A 
ATOM     73  C   UNL A   1      39.019  30.592  32.394  1.00  0.00     0.173 A 
ATOM     74  C   UNL A   1      37.938  31.174  30.332  1.00  0.00     0.173 A 
ATOM     75  F   UNL A   1      40.068  30.104  33.073  1.00  0.00    -0.203 F 
ATOM     76  C   UNL A   1      37.868  30.945  33.095  1.00  0.00     0.198 A 
ATOM     77  C   UNL A   1      36.800  31.558  31.036  1.00  0.00     0.198 A 
ATOM     78  F   UNL A   1      37.937  31.282  28.995  1.00  0.00    -0.203 F 
ATOM     79  F   UNL A   1      37.822  30.788  34.426  1.00  0.00    -0.200 F 
ATOM     80  C   UNL A   1      36.760  31.431  32.417  1.00  0.00     0.200 A 
ATOM     81  F   UNL A   1      35.736  32.037  30.378  1.00  0.00    -0.200 F 
ATOM     82  F   UNL A   1      35.652  31.765  33.090  1.00  0.00    -0.200 F 
ENDBRANCH  48  72
BRANCH  60  83
ATOM     83  C   UNL A   1      44.821  33.940  28.799  1.00  0.00     0.064 A 
ATOM     84  C   UNL A   1      44.472  34.895  27.832  1.00  0.00     0.173 A 
ATOM     85  C   UNL A   1      45.608  34.365  29.881  1.00  0.00     0.173 A 
ATOM     86  F   UNL A   1      43.733  34.541  26.769  1.00  0.00    -0.203 F 
ATOM     87  C   UNL A   1      44.925  36.209  27.923  1.00  0.00     0.198 A 
ATOM     88  C   UNL A   1      46.030  35.688  29.988  1.00  0.00     0.198 A 
ATOM     89  F   UNL A   1      45.965  33.498  30.840  1.00  0.00    -0.203 F 
ATOM     90  F   UNL A   1      44.630  37.087  26.953  1.00  0.00    -0.200 F 
ATOM     91  C   UNL A   1      45.699  36.606  29.003  1.00  0.00     0.200 A 
ATOM     92  F   UNL A   1      46.766  36.072  31.040  1.00  0.00    -0.200 F 
ATOM     93  F   UNL A   1      46.134  37.870  29.089  1.00  0.00    -0.200 F 
ENDBRANCH  60  83
ENDBRANCH  34  35
ENDBRANCH  27  29
ENDBRANCH  26  27
ENDBRANCH  25  26
ENDBRANCH  24  25
ENDBRANCH  23  24
ENDBRANCH   1  23
TORSDOF 19
ENDMDL
