MODEL 1
REMARK VINA RESULT:     -10.7      0.000      0.000
REMARK SMILES C[C@H](CCCO)NS(=O)(=O)c1cc(Cl)cc(C(=O)OCCOCCOC(=O)c2ccc(-c3c4nc(c(-c5c(F)c(F)c(F)c(F)c5F)c5ccc([nH]5)c(-c5c(F)c(F)c(F)c(F)c5F)c5nc(c(-c6c(F)c(F)c(F)c(F)c6F)c6ccc3[nH]6)C=C5)C=C4)cc2)c1Cl
REMARK SMILES IDX 20 1 19 2 17 3 18 4 16 5 11 6 12 7 91 8 13 9 92 10 14 11
REMARK SMILES IDX 15 12 8 13 9 14 10 15 7 16 2 18 1 19 3 20 4 21 5 22 6 23
REMARK SMILES IDX 21 25 22 26 23 27 24 28 25 29 26 30 27 31 28 32 29 33 90 34
REMARK SMILES IDX 30 35 89 36 31 37 32 38 33 39 83 40 34 41 88 42 82 43 84 44
REMARK SMILES IDX 35 45 87 46 81 47 80 48 36 50 68 51 48 52 67 53 49 54 52 55
REMARK SMILES IDX 66 56 85 57 50 58 51 59 65 61 86 62 53 63 37 64 38 65 46 66
REMARK SMILES IDX 39 67 40 68 44 69 47 70 41 71 42 72 45 73 43 74 69 75 70 76
REMARK SMILES IDX 78 77 71 78 72 79 76 80 79 81 73 82 74 83 77 84 75 85 54 86
REMARK SMILES IDX 55 87 63 88 56 89 57 90 61 91 64 92 58 93 59 94 62 95 60 96
REMARK H PARENT 7 17 6 24 84 49 52 60
REMARK Flexibility Score: inf
ROOT
ATOM      1  C   UNL A   1      33.957  27.777  23.672  1.00  0.00     0.261 C 
ENDROOT
BRANCH   1   2
ATOM      2  O   UNL A   1      33.289  26.509  23.798  1.00  0.00    -0.460 OA
BRANCH   2   3
ATOM      3  C   UNL A   1      33.475  25.644  22.775  1.00  0.00     0.339 C 
ATOM      4  O   UNL A   1      33.875  25.897  21.653  1.00  0.00    -0.246 OA
BRANCH   3   5
ATOM      5  C   UNL A   1      33.359  24.262  23.283  1.00  0.00     0.081 A 
ATOM      6  C   UNL A   1      33.640  22.496  24.897  1.00  0.00     0.103 A 
ATOM      7  C   UNL A   1      33.001  21.601  24.018  1.00  0.00     0.044 A 
ATOM      8  C   UNL A   1      33.835  23.838  24.536  1.00  0.00     0.075 A 
ATOM      9  C   UNL A   1      32.547  22.041  22.780  1.00  0.00     0.043 A 
ATOM     10  Cl  UNL A   1      34.638  24.962  25.578  1.00  0.00    -0.082 Cl
ATOM     11  Cl  UNL A   1      31.777  20.944  21.707  1.00  0.00    -0.084 Cl
ATOM     12  C   UNL A   1      32.712  23.368  22.411  1.00  0.00     0.037 A 
BRANCH   6  13
ATOM     13  S   UNL A   1      34.098  21.857  26.491  1.00  0.00     0.242 S 
ATOM     14  O   UNL A   1      33.532  20.537  26.615  1.00  0.00    -0.207 OA
ATOM     15  O   UNL A   1      33.800  22.880  27.473  1.00  0.00    -0.207 OA
BRANCH  13  16
ATOM     16  N   UNL A   1      35.766  21.696  26.442  1.00  0.00    -0.208 NA
ATOM     17  H   UNL A   1      36.140  22.543  26.867  1.00  0.00     0.141 HD
BRANCH  16  18
ATOM     18  C   UNL A   1      36.527  21.500  25.196  1.00  0.00     0.067 C 
ATOM     19  C   UNL A   1      36.966  20.051  25.045  1.00  0.00     0.025 C 
BRANCH  18  20
ATOM     20  C   UNL A   1      37.665  22.549  25.143  1.00  0.00     0.022 C 
BRANCH  20  21
ATOM     21  C   UNL A   1      38.847  22.417  26.117  1.00  0.00     0.030 C 
BRANCH  21  22
ATOM     22  C   UNL A   1      39.271  23.695  26.838  1.00  0.00     0.156 C 
BRANCH  22  23
ATOM     23  O   UNL A   1      39.689  24.688  25.910  1.00  0.00    -0.396 OA
ATOM     24  H   UNL A   1      40.016  25.464  26.390  1.00  0.00     0.210 HD
ENDBRANCH  22  23
ENDBRANCH  21  22
ENDBRANCH  20  21
ENDBRANCH  18  20
ENDBRANCH  16  18
ENDBRANCH  13  16
ENDBRANCH   6  13
ENDBRANCH   3   5
ENDBRANCH   2   3
ENDBRANCH   1   2
BRANCH   1  25
ATOM     25  C   UNL A   1      32.954  28.908  23.905  1.00  0.00     0.202 C 
BRANCH  25  26
ATOM     26  O   UNL A   1      32.581  29.091  25.274  1.00  0.00    -0.374 OA
BRANCH  26  27
ATOM     27  C   UNL A   1      31.482  29.967  25.529  1.00  0.00     0.202 C 
BRANCH  27  28
ATOM     28  C   UNL A   1      31.796  31.154  26.447  1.00  0.00     0.261 C 
BRANCH  28  29
ATOM     29  O   UNL A   1      32.874  30.853  27.354  1.00  0.00    -0.460 OA
BRANCH  29  30
ATOM     30  C   UNL A   1      33.664  31.911  27.658  1.00  0.00     0.338 C 
ATOM     31  O   UNL A   1      33.328  33.080  27.753  1.00  0.00    -0.246 OA
BRANCH  30  32
ATOM     32  C   UNL A   1      35.015  31.451  28.032  1.00  0.00     0.060 A 
ATOM     33  C   UNL A   1      35.177  30.083  28.287  1.00  0.00     0.016 A 
ATOM     34  C   UNL A   1      36.079  32.338  28.216  1.00  0.00     0.016 A 
ATOM     35  C   UNL A   1      36.386  29.604  28.784  1.00  0.00     0.010 A 
ATOM     36  C   UNL A   1      37.293  31.855  28.717  1.00  0.00     0.010 A 
ATOM     37  C   UNL A   1      37.439  30.493  29.041  1.00  0.00    -0.014 A 
BRANCH  37  38
ATOM     38  C   UNL A   1      38.622  30.017  29.799  1.00  0.00     0.031 A 
ATOM     39  C   UNL A   1      38.838  30.516  31.201  1.00  0.00     0.074 A 
ATOM     40  C   UNL A   1      39.469  29.121  29.264  1.00  0.00     0.049 A 
ATOM     41  N   UNL A   1      39.804  30.243  32.042  1.00  0.00    -0.248 NA
ATOM     42  C   UNL A   1      37.828  31.446  31.728  1.00  0.00     0.031 C 
ATOM     43  C   UNL A   1      39.346  28.534  27.932  1.00  0.00     0.029 A 
ATOM     44  N   UNL A   1      40.606  28.550  29.781  1.00  0.00    -0.354 N 
ATOM     45  C   UNL A   1      39.521  30.970  33.191  1.00  0.00     0.074 A 
ATOM     46  C   UNL A   1      38.311  31.719  32.931  1.00  0.00     0.031 C 
ATOM     47  C   UNL A   1      40.372  27.689  27.732  1.00  0.00     0.029 A 
ATOM     48  C   UNL A   1      41.237  27.698  28.911  1.00  0.00     0.049 A 
ATOM     49  H   UNL A   1      40.935  28.735  30.690  1.00  0.00     0.167 HD
ATOM     50  C   UNL A   1      40.203  31.002  34.360  1.00  0.00     0.037 A 
ATOM     51  C   UNL A   1      42.392  27.017  29.045  1.00  0.00     0.037 A 
ATOM     52  C   UNL A   1      41.404  30.254  34.622  1.00  0.00     0.049 A 
ATOM     53  C   UNL A   1      43.165  27.118  30.335  1.00  0.00     0.074 A 
ATOM     54  C   UNL A   1      42.157  30.207  35.782  1.00  0.00     0.029 A 
ATOM     55  N   UNL A   1      42.030  29.423  33.704  1.00  0.00    -0.354 N 
ATOM     56  N   UNL A   1      42.878  27.788  31.425  1.00  0.00    -0.248 NA
ATOM     57  C   UNL A   1      44.424  26.362  30.414  1.00  0.00     0.031 C 
ATOM     58  C   UNL A   1      43.264  29.383  35.551  1.00  0.00     0.029 A 
ATOM     59  C   UNL A   1      43.173  28.878  34.264  1.00  0.00     0.049 A 
ATOM     60  H   UNL A   1      41.709  29.249  32.790  1.00  0.00     0.167 HD
ATOM     61  C   UNL A   1      43.898  27.512  32.325  1.00  0.00     0.074 A 
ATOM     62  C   UNL A   1      44.809  26.606  31.659  1.00  0.00     0.031 C 
ATOM     63  C   UNL A   1      44.065  27.967  33.591  1.00  0.00     0.037 A 
BRANCH  50  64
ATOM     64  C   UNL A   1      39.677  31.898  35.443  1.00  0.00     0.064 A 
ATOM     65  C   UNL A   1      40.069  33.242  35.544  1.00  0.00     0.173 A 
ATOM     66  C   UNL A   1      38.743  31.415  36.371  1.00  0.00     0.173 A 
ATOM     67  F   UNL A   1      40.970  33.747  34.688  1.00  0.00    -0.203 F 
ATOM     68  C   UNL A   1      39.563  34.061  36.549  1.00  0.00     0.198 A 
ATOM     69  C   UNL A   1      38.218  32.245  37.359  1.00  0.00     0.198 A 
ATOM     70  F   UNL A   1      38.332  30.139  36.316  1.00  0.00    -0.203 F 
ATOM     71  F   UNL A   1      39.983  35.330  36.652  1.00  0.00    -0.200 F 
ATOM     72  C   UNL A   1      38.632  33.565  37.450  1.00  0.00     0.200 A 
ATOM     73  F   UNL A   1      37.312  31.767  38.223  1.00  0.00    -0.200 F 
ATOM     74  F   UNL A   1      38.141  34.357  38.413  1.00  0.00    -0.200 F 
ENDBRANCH  50  64
BRANCH  51  75
ATOM     75  C   UNL A   1      42.893  26.180  27.926  1.00  0.00     0.064 A 
ATOM     76  C   UNL A   1      42.609  24.809  27.861  1.00  0.00     0.173 A 
ATOM     77  C   UNL A   1      43.682  26.732  26.905  1.00  0.00     0.173 A 
ATOM     78  F   UNL A   1      41.882  24.230  28.828  1.00  0.00    -0.203 F 
ATOM     79  C   UNL A   1      43.109  24.019  26.829  1.00  0.00     0.198 A 
ATOM     80  C   UNL A   1      44.159  25.946  25.859  1.00  0.00     0.198 A 
ATOM     81  F   UNL A   1      43.985  28.038  26.923  1.00  0.00    -0.203 F 
ATOM     82  F   UNL A   1      42.860  22.702  26.814  1.00  0.00    -0.200 F 
ATOM     83  C   UNL A   1      43.879  24.589  25.825  1.00  0.00     0.200 A 
ATOM     84  F   UNL A   1      44.894  26.503  24.886  1.00  0.00    -0.200 F 
ATOM     85  F   UNL A   1      44.356  23.828  24.830  1.00  0.00    -0.200 F 
ENDBRANCH  51  75
BRANCH  63  86
ATOM     86  C   UNL A   1      45.254  27.464  34.356  1.00  0.00     0.064 A 
ATOM     87  C   UNL A   1      46.483  28.136  34.333  1.00  0.00     0.173 A 
ATOM     88  C   UNL A   1      45.146  26.319  35.160  1.00  0.00     0.173 A 
ATOM     89  F   UNL A   1      46.641  29.228  33.568  1.00  0.00    -0.203 F 
ATOM     90  C   UNL A   1      47.570  27.668  35.069  1.00  0.00     0.198 A 
ATOM     91  C   UNL A   1      46.225  25.869  35.917  1.00  0.00     0.198 A 
ATOM     92  F   UNL A   1      43.988  25.643  35.224  1.00  0.00    -0.203 F 
ATOM     93  F   UNL A   1      48.748  28.302  34.997  1.00  0.00    -0.200 F 
ATOM     94  C   UNL A   1      47.437  26.540  35.864  1.00  0.00     0.200 A 
ATOM     95  F   UNL A   1      46.091  24.787  36.696  1.00  0.00    -0.200 F 
ATOM     96  F   UNL A   1      48.480  26.095  36.577  1.00  0.00    -0.200 F 
ENDBRANCH  63  86
ENDBRANCH  37  38
ENDBRANCH  30  32
ENDBRANCH  29  30
ENDBRANCH  28  29
ENDBRANCH  27  28
ENDBRANCH  26  27
ENDBRANCH  25  26
ENDBRANCH   1  25
TORSDOF 21
ENDMDL
MODEL 2
REMARK VINA RESULT:     -10.6      1.547      2.825
REMARK SMILES C[C@H](CCCO)NS(=O)(=O)c1cc(Cl)cc(C(=O)OCCOCCOC(=O)c2ccc(-c3c4nc(c(-c5c(F)c(F)c(F)c(F)c5F)c5ccc([nH]5)c(-c5c(F)c(F)c(F)c(F)c5F)c5nc(c(-c6c(F)c(F)c(F)c(F)c6F)c6ccc3[nH]6)C=C5)C=C4)cc2)c1Cl
REMARK SMILES IDX 20 1 19 2 17 3 18 4 16 5 11 6 12 7 91 8 13 9 92 10 14 11
REMARK SMILES IDX 15 12 8 13 9 14 10 15 7 16 2 18 1 19 3 20 4 21 5 22 6 23
REMARK SMILES IDX 21 25 22 26 23 27 24 28 25 29 26 30 27 31 28 32 29 33 90 34
REMARK SMILES IDX 30 35 89 36 31 37 32 38 33 39 83 40 34 41 88 42 82 43 84 44
REMARK SMILES IDX 35 45 87 46 81 47 80 48 36 50 68 51 48 52 67 53 49 54 52 55
REMARK SMILES IDX 66 56 85 57 50 58 51 59 65 61 86 62 53 63 37 64 38 65 46 66
REMARK SMILES IDX 39 67 40 68 44 69 47 70 41 71 42 72 45 73 43 74 69 75 70 76
REMARK SMILES IDX 78 77 71 78 72 79 76 80 79 81 73 82 74 83 77 84 75 85 54 86
REMARK SMILES IDX 55 87 63 88 56 89 57 90 61 91 64 92 58 93 59 94 62 95 60 96
REMARK H PARENT 7 17 6 24 84 49 52 60
REMARK Flexibility Score: inf
ROOT
ATOM      1  C   UNL A   1      33.968  28.380  23.647  1.00  0.00     0.261 C 
ENDROOT
BRANCH   1   2
ATOM      2  O   UNL A   1      33.133  28.159  22.496  1.00  0.00    -0.460 OA
BRANCH   2   3
ATOM      3  C   UNL A   1      33.005  26.872  22.103  1.00  0.00     0.339 C 
ATOM      4  O   UNL A   1      33.652  26.290  21.251  1.00  0.00    -0.246 OA
BRANCH   3   5
ATOM      5  C   UNL A   1      32.110  26.165  23.041  1.00  0.00     0.081 A 
ATOM      6  C   UNL A   1      31.552  24.510  24.700  1.00  0.00     0.103 A 
ATOM      7  C   UNL A   1      30.237  25.012  24.747  1.00  0.00     0.044 A 
ATOM      8  C   UNL A   1      32.504  25.076  23.839  1.00  0.00     0.075 A 
ATOM      9  C   UNL A   1      29.868  26.084  23.942  1.00  0.00     0.043 A 
ATOM     10  Cl  UNL A   1      34.122  24.471  23.735  1.00  0.00    -0.082 Cl
ATOM     11  Cl  UNL A   1      28.262  26.687  23.995  1.00  0.00    -0.084 Cl
ATOM     12  C   UNL A   1      30.799  26.670  23.097  1.00  0.00     0.037 A 
BRANCH   6  13
ATOM     13  S   UNL A   1      31.946  23.201  25.836  1.00  0.00     0.242 S 
ATOM     14  O   UNL A   1      31.000  23.261  26.922  1.00  0.00    -0.207 OA
ATOM     15  O   UNL A   1      33.370  23.264  26.096  1.00  0.00    -0.207 OA
BRANCH  13  16
ATOM     16  N   UNL A   1      31.664  21.781  24.991  1.00  0.00    -0.208 NA
ATOM     17  H   UNL A   1      31.584  21.049  25.696  1.00  0.00     0.141 HD
BRANCH  16  18
ATOM     18  C   UNL A   1      32.577  21.253  23.962  1.00  0.00     0.067 C 
ATOM     19  C   UNL A   1      32.168  21.723  22.574  1.00  0.00     0.025 C 
BRANCH  18  20
ATOM     20  C   UNL A   1      32.683  19.718  24.140  1.00  0.00     0.022 C 
BRANCH  20  21
ATOM     21  C   UNL A   1      33.204  19.156  25.473  1.00  0.00     0.030 C 
BRANCH  21  22
ATOM     22  C   UNL A   1      32.894  17.685  25.750  1.00  0.00     0.156 C 
BRANCH  22  23
ATOM     23  O   UNL A   1      31.779  17.248  24.985  1.00  0.00    -0.396 OA
ATOM     24  H   UNL A   1      31.441  16.416  25.351  1.00  0.00     0.210 HD
ENDBRANCH  22  23
ENDBRANCH  21  22
ENDBRANCH  20  21
ENDBRANCH  18  20
ENDBRANCH  16  18
ENDBRANCH  13  16
ENDBRANCH   6  13
ENDBRANCH   3   5
ENDBRANCH   2   3
ENDBRANCH   1   2
BRANCH   1  25
ATOM     25  C   UNL A   1      33.416  29.552  24.461  1.00  0.00     0.202 C 
BRANCH  25  26
ATOM     26  O   UNL A   1      32.340  29.206  25.337  1.00  0.00    -0.374 OA
BRANCH  26  27
ATOM     27  C   UNL A   1      31.322  30.190  25.526  1.00  0.00     0.202 C 
BRANCH  27  28
ATOM     28  C   UNL A   1      31.690  31.331  26.480  1.00  0.00     0.261 C 
BRANCH  28  29
ATOM     29  O   UNL A   1      32.821  30.991  27.305  1.00  0.00    -0.460 OA
BRANCH  29  30
ATOM     30  C   UNL A   1      33.634  32.034  27.600  1.00  0.00     0.338 C 
ATOM     31  O   UNL A   1      33.328  33.212  27.673  1.00  0.00    -0.246 OA
BRANCH  30  32
ATOM     32  C   UNL A   1      34.970  31.545  27.995  1.00  0.00     0.060 A 
ATOM     33  C   UNL A   1      35.110  30.168  28.208  1.00  0.00     0.016 A 
ATOM     34  C   UNL A   1      36.038  32.413  28.235  1.00  0.00     0.016 A 
ATOM     35  C   UNL A   1      36.300  29.658  28.721  1.00  0.00     0.010 A 
ATOM     36  C   UNL A   1      37.233  31.899  28.753  1.00  0.00     0.010 A 
ATOM     37  C   UNL A   1      37.355  30.526  29.036  1.00  0.00    -0.014 A 
BRANCH  37  38
ATOM     38  C   UNL A   1      38.512  30.011  29.809  1.00  0.00     0.031 A 
ATOM     39  C   UNL A   1      38.711  30.482  31.223  1.00  0.00     0.074 A 
ATOM     40  C   UNL A   1      39.349  29.104  29.276  1.00  0.00     0.049 A 
ATOM     41  N   UNL A   1      39.654  30.175  32.078  1.00  0.00    -0.248 NA
ATOM     42  C   UNL A   1      37.711  31.427  31.745  1.00  0.00     0.031 C 
ATOM     43  C   UNL A   1      39.239  28.541  27.933  1.00  0.00     0.029 A 
ATOM     44  N   UNL A   1      40.462  28.500  29.806  1.00  0.00    -0.354 N 
ATOM     45  C   UNL A   1      39.364  30.890  33.233  1.00  0.00     0.074 A 
ATOM     46  C   UNL A   1      38.176  31.670  32.962  1.00  0.00     0.031 C 
ATOM     47  C   UNL A   1      40.250  27.677  27.739  1.00  0.00     0.029 A 
ATOM     48  C   UNL A   1      41.091  27.647  28.934  1.00  0.00     0.049 A 
ATOM     49  H   UNL A   1      40.778  28.662  30.724  1.00  0.00     0.167 HD
ATOM     50  C   UNL A   1      40.023  30.888  34.416  1.00  0.00     0.037 A 
ATOM     51  C   UNL A   1      42.228  26.938  29.081  1.00  0.00     0.037 A 
ATOM     52  C   UNL A   1      41.201  30.108  34.688  1.00  0.00     0.049 A 
ATOM     53  C   UNL A   1      42.977  27.001  30.387  1.00  0.00     0.074 A 
ATOM     54  C   UNL A   1      41.929  30.026  35.862  1.00  0.00     0.029 A 
ATOM     55  N   UNL A   1      41.827  29.278  33.769  1.00  0.00    -0.354 N 
ATOM     56  N   UNL A   1      42.683  27.660  31.481  1.00  0.00    -0.248 NA
ATOM     57  C   UNL A   1      44.217  26.216  30.478  1.00  0.00     0.031 C 
ATOM     58  C   UNL A   1      43.023  29.180  35.640  1.00  0.00     0.029 A 
ATOM     59  C   UNL A   1      42.946  28.698  34.343  1.00  0.00     0.049 A 
ATOM     60  H   UNL A   1      41.520  29.125  32.847  1.00  0.00     0.167 HD
ATOM     61  C   UNL A   1      43.679  27.347  32.397  1.00  0.00     0.074 A 
ATOM     62  C   UNL A   1      44.583  26.431  31.734  1.00  0.00     0.031 C 
ATOM     63  C   UNL A   1      43.830  27.778  33.673  1.00  0.00     0.037 A 
BRANCH  50  64
ATOM     64  C   UNL A   1      39.495  31.777  35.503  1.00  0.00     0.064 A 
ATOM     65  C   UNL A   1      38.555  31.319  36.439  1.00  0.00     0.173 A 
ATOM     66  C   UNL A   1      39.961  33.094  35.630  1.00  0.00     0.173 A 
ATOM     67  F   UNL A   1      38.070  30.072  36.351  1.00  0.00    -0.203 F 
ATOM     68  C   UNL A   1      38.085  32.154  37.448  1.00  0.00     0.198 A 
ATOM     69  C   UNL A   1      39.508  33.919  36.657  1.00  0.00     0.198 A 
ATOM     70  F   UNL A   1      40.862  33.580  34.763  1.00  0.00    -0.203 F 
ATOM     71  F   UNL A   1      37.156  31.709  38.306  1.00  0.00    -0.200 F 
ATOM     72  C   UNL A   1      38.566  33.451  37.561  1.00  0.00     0.200 A 
ATOM     73  F   UNL A   1      39.981  35.167  36.770  1.00  0.00    -0.200 F 
ATOM     74  F   UNL A   1      38.117  34.252  38.537  1.00  0.00    -0.200 F 
ENDBRANCH  50  64
BRANCH  51  75
ATOM     75  C   UNL A   1      42.733  26.108  27.957  1.00  0.00     0.064 A 
ATOM     76  C   UNL A   1      43.610  26.637  27.002  1.00  0.00     0.173 A 
ATOM     77  C   UNL A   1      42.333  24.771  27.808  1.00  0.00     0.173 A 
ATOM     78  F   UNL A   1      44.000  27.918  27.087  1.00  0.00    -0.203 F 
ATOM     79  C   UNL A   1      44.055  25.867  25.930  1.00  0.00     0.198 A 
ATOM     80  C   UNL A   1      42.800  23.994  26.751  1.00  0.00     0.198 A 
ATOM     81  F   UNL A   1      41.491  24.219  28.694  1.00  0.00    -0.203 F 
ATOM     82  F   UNL A   1      44.859  26.410  25.005  1.00  0.00    -0.200 F 
ATOM     83  C   UNL A   1      43.655  24.544  25.808  1.00  0.00     0.200 A 
ATOM     84  F   UNL A   1      42.417  22.714  26.643  1.00  0.00    -0.200 F 
ATOM     85  F   UNL A   1      44.086  23.804  24.778  1.00  0.00    -0.200 F 
ENDBRANCH  51  75
BRANCH  63  86
ATOM     86  C   UNL A   1      44.992  27.236  34.453  1.00  0.00     0.064 A 
ATOM     87  C   UNL A   1      46.230  27.894  34.484  1.00  0.00     0.173 A 
ATOM     88  C   UNL A   1      44.849  26.068  35.216  1.00  0.00     0.173 A 
ATOM     89  F   UNL A   1      46.421  29.007  33.760  1.00  0.00    -0.203 F 
ATOM     90  C   UNL A   1      47.290  27.389  35.234  1.00  0.00     0.198 A 
ATOM     91  C   UNL A   1      45.903  25.581  35.987  1.00  0.00     0.198 A 
ATOM     92  F   UNL A   1      43.683  25.404  35.228  1.00  0.00    -0.203 F 
ATOM     93  F   UNL A   1      48.478  28.010  35.214  1.00  0.00    -0.200 F 
ATOM     94  C   UNL A   1      47.123  26.238  35.988  1.00  0.00     0.200 A 
ATOM     95  F   UNL A   1      45.735  24.475  36.726  1.00  0.00    -0.200 F 
ATOM     96  F   UNL A   1      48.142  25.757  36.714  1.00  0.00    -0.200 F 
ENDBRANCH  63  86
ENDBRANCH  37  38
ENDBRANCH  30  32
ENDBRANCH  29  30
ENDBRANCH  28  29
ENDBRANCH  27  28
ENDBRANCH  26  27
ENDBRANCH  25  26
ENDBRANCH   1  25
TORSDOF 21
ENDMDL
MODEL 3
REMARK VINA RESULT:     -10.5      1.397      7.587
REMARK SMILES C[C@H](CCCO)NS(=O)(=O)c1cc(Cl)cc(C(=O)OCCOCCOC(=O)c2ccc(-c3c4nc(c(-c5c(F)c(F)c(F)c(F)c5F)c5ccc([nH]5)c(-c5c(F)c(F)c(F)c(F)c5F)c5nc(c(-c6c(F)c(F)c(F)c(F)c6F)c6ccc3[nH]6)C=C5)C=C4)cc2)c1Cl
REMARK SMILES IDX 20 1 19 2 17 3 18 4 16 5 11 6 12 7 91 8 13 9 92 10 14 11
REMARK SMILES IDX 15 12 8 13 9 14 10 15 7 16 2 18 1 19 3 20 4 21 5 22 6 23
REMARK SMILES IDX 21 25 22 26 23 27 24 28 25 29 26 30 27 31 28 32 29 33 90 34
REMARK SMILES IDX 30 35 89 36 31 37 32 38 33 39 83 40 34 41 88 42 82 43 84 44
REMARK SMILES IDX 35 45 87 46 81 47 80 48 36 50 68 51 48 52 67 53 49 54 52 55
REMARK SMILES IDX 66 56 85 57 50 58 51 59 65 61 86 62 53 63 37 64 38 65 46 66
REMARK SMILES IDX 39 67 40 68 44 69 47 70 41 71 42 72 45 73 43 74 69 75 70 76
REMARK SMILES IDX 78 77 71 78 72 79 76 80 79 81 73 82 74 83 77 84 75 85 54 86
REMARK SMILES IDX 55 87 63 88 56 89 57 90 61 91 64 92 58 93 59 94 62 95 60 96
REMARK H PARENT 7 17 6 24 84 49 52 60
REMARK Flexibility Score: inf
ROOT
ATOM      1  C   UNL A   1      33.827  27.655  22.849  1.00  0.00     0.261 C 
ENDROOT
BRANCH   1   2
ATOM      2  O   UNL A   1      32.665  26.967  22.352  1.00  0.00    -0.460 OA
BRANCH   2   3
ATOM      3  C   UNL A   1      32.776  25.622  22.257  1.00  0.00     0.339 C 
ATOM      4  O   UNL A   1      33.200  24.978  21.316  1.00  0.00    -0.246 OA
BRANCH   3   5
ATOM      5  C   UNL A   1      32.534  25.022  23.585  1.00  0.00     0.081 A 
ATOM      6  C   UNL A   1      33.055  23.631  25.481  1.00  0.00     0.103 A 
ATOM      7  C   UNL A   1      31.860  24.044  26.102  1.00  0.00     0.044 A 
ATOM      8  C   UNL A   1      33.403  24.109  24.209  1.00  0.00     0.075 A 
ATOM      9  C   UNL A   1      31.013  24.940  25.462  1.00  0.00     0.043 A 
ATOM     10  Cl  UNL A   1      34.849  23.606  23.403  1.00  0.00    -0.082 Cl
ATOM     11  Cl  UNL A   1      29.553  25.433  26.218  1.00  0.00    -0.084 Cl
ATOM     12  C   UNL A   1      31.347  25.439  24.212  1.00  0.00     0.037 A 
BRANCH   6  13
ATOM     13  S   UNL A   1      34.114  22.557  26.423  1.00  0.00     0.242 S 
ATOM     14  O   UNL A   1      33.759  22.699  27.813  1.00  0.00    -0.207 OA
ATOM     15  O   UNL A   1      35.474  22.792  25.983  1.00  0.00    -0.207 OA
BRANCH  13  16
ATOM     16  N   UNL A   1      33.705  21.003  25.948  1.00  0.00    -0.208 NA
ATOM     17  H   UNL A   1      34.269  20.378  26.523  1.00  0.00     0.141 HD
BRANCH  16  18
ATOM     18  C   UNL A   1      33.845  20.513  24.565  1.00  0.00     0.067 C 
ATOM     19  C   UNL A   1      32.519  20.585  23.823  1.00  0.00     0.025 C 
BRANCH  18  20
ATOM     20  C   UNL A   1      34.512  19.116  24.603  1.00  0.00     0.022 C 
BRANCH  20  21
ATOM     21  C   UNL A   1      33.620  17.865  24.667  1.00  0.00     0.030 C 
BRANCH  21  22
ATOM     22  C   UNL A   1      34.244  16.568  24.154  1.00  0.00     0.156 C 
BRANCH  22  23
ATOM     23  O   UNL A   1      34.062  16.436  22.750  1.00  0.00    -0.396 OA
ATOM     24  H   UNL A   1      34.109  17.310  22.334  1.00  0.00     0.210 HD
ENDBRANCH  22  23
ENDBRANCH  21  22
ENDBRANCH  20  21
ENDBRANCH  18  20
ENDBRANCH  16  18
ENDBRANCH  13  16
ENDBRANCH   6  13
ENDBRANCH   3   5
ENDBRANCH   2   3
ENDBRANCH   1   2
BRANCH   1  25
ATOM     25  C   UNL A   1      33.397  28.962  23.519  1.00  0.00     0.202 C 
BRANCH  25  26
ATOM     26  O   UNL A   1      32.654  28.788  24.729  1.00  0.00    -0.374 OA
BRANCH  26  27
ATOM     27  C   UNL A   1      31.449  29.543  24.857  1.00  0.00     0.202 C 
BRANCH  27  28
ATOM     28  C   UNL A   1      31.494  30.668  25.896  1.00  0.00     0.261 C 
BRANCH  28  29
ATOM     29  O   UNL A   1      32.539  30.456  26.865  1.00  0.00    -0.460 OA
BRANCH  29  30
ATOM     30  C   UNL A   1      33.205  31.578  27.228  1.00  0.00     0.338 C 
ATOM     31  O   UNL A   1      32.762  32.713  27.288  1.00  0.00    -0.246 OA
BRANCH  30  32
ATOM     32  C   UNL A   1      34.556  31.237  27.716  1.00  0.00     0.060 A 
ATOM     33  C   UNL A   1      34.809  29.891  28.009  1.00  0.00     0.016 A 
ATOM     34  C   UNL A   1      35.525  32.212  27.966  1.00  0.00     0.016 A 
ATOM     35  C   UNL A   1      36.010  29.520  28.608  1.00  0.00     0.010 A 
ATOM     36  C   UNL A   1      36.730  31.838  28.570  1.00  0.00     0.010 A 
ATOM     37  C   UNL A   1      36.961  30.498  28.931  1.00  0.00    -0.014 A 
BRANCH  37  38
ATOM     38  C   UNL A   1      38.116  30.132  29.788  1.00  0.00     0.031 A 
ATOM     39  C   UNL A   1      39.142  29.169  29.258  1.00  0.00     0.074 A 
ATOM     40  C   UNL A   1      38.272  30.682  31.005  1.00  0.00     0.049 A 
ATOM     41  N   UNL A   1      40.221  28.703  29.833  1.00  0.00    -0.248 NA
ATOM     42  C   UNL A   1      38.923  28.666  27.893  1.00  0.00     0.031 C 
ATOM     43  C   UNL A   1      37.370  31.656  31.614  1.00  0.00     0.029 A 
ATOM     44  N   UNL A   1      39.252  30.494  31.948  1.00  0.00    -0.354 N 
ATOM     45  C   UNL A   1      40.804  27.849  28.906  1.00  0.00     0.074 A 
ATOM     46  C   UNL A   1      39.946  27.838  27.741  1.00  0.00     0.031 C 
ATOM     47  C   UNL A   1      37.833  31.976  32.834  1.00  0.00     0.029 A 
ATOM     48  C   UNL A   1      39.050  31.209  33.101  1.00  0.00     0.049 A 
ATOM     49  H   UNL A   1      40.027  29.902  31.809  1.00  0.00     0.167 HD
ATOM     50  C   UNL A   1      41.957  27.147  29.011  1.00  0.00     0.037 A 
ATOM     51  C   UNL A   1      39.757  31.228  34.248  1.00  0.00     0.037 A 
ATOM     52  C   UNL A   1      42.815  27.162  30.167  1.00  0.00     0.049 A 
ATOM     53  C   UNL A   1      41.003  30.389  34.363  1.00  0.00     0.074 A 
ATOM     54  C   UNL A   1      44.013  26.497  30.361  1.00  0.00     0.029 A 
ATOM     55  N   UNL A   1      42.560  27.876  31.328  1.00  0.00    -0.354 N 
ATOM     56  N   UNL A   1      41.561  29.605  33.473  1.00  0.00    -0.248 NA
ATOM     57  C   UNL A   1      41.722  30.442  35.645  1.00  0.00     0.031 C 
ATOM     58  C   UNL A   1      44.461  26.774  31.658  1.00  0.00     0.029 A 
ATOM     59  C   UNL A   1      43.567  27.651  32.252  1.00  0.00     0.049 A 
ATOM     60  H   UNL A   1      41.779  28.457  31.473  1.00  0.00     0.167 HD
ATOM     61  C   UNL A   1      42.706  29.097  34.072  1.00  0.00     0.074 A 
ATOM     62  C   UNL A   1      42.771  29.669  35.400  1.00  0.00     0.031 C 
ATOM     63  C   UNL A   1      43.623  28.237  33.567  1.00  0.00     0.037 A 
BRANCH  50  64
ATOM     64  C   UNL A   1      42.348  26.281  27.850  1.00  0.00     0.064 A 
ATOM     65  C   UNL A   1      41.814  24.995  27.677  1.00  0.00     0.173 A 
ATOM     66  C   UNL A   1      43.242  26.757  26.880  1.00  0.00     0.173 A 
ATOM     67  F   UNL A   1      40.965  24.490  28.585  1.00  0.00    -0.203 F 
ATOM     68  C   UNL A   1      42.180  24.209  26.588  1.00  0.00     0.198 A 
ATOM     69  C   UNL A   1      43.585  25.978  25.777  1.00  0.00     0.198 A 
ATOM     70  F   UNL A   1      43.779  27.981  26.996  1.00  0.00    -0.203 F 
ATOM     71  F   UNL A   1      41.690  22.967  26.465  1.00  0.00    -0.200 F 
ATOM     72  C   UNL A   1      43.059  24.704  25.635  1.00  0.00     0.200 A 
ATOM     73  F   UNL A   1      44.427  26.461  24.853  1.00  0.00    -0.200 F 
ATOM     74  F   UNL A   1      43.404  23.948  24.583  1.00  0.00    -0.200 F 
ENDBRANCH  50  64
BRANCH  51  75
ATOM     75  C   UNL A   1      39.301  32.068  35.385  1.00  0.00     0.064 A 
ATOM     76  C   UNL A   1      39.674  33.415  35.487  1.00  0.00     0.173 A 
ATOM     77  C   UNL A   1      38.498  31.534  36.404  1.00  0.00     0.173 A 
ATOM     78  F   UNL A   1      40.463  33.963  34.551  1.00  0.00    -0.203 F 
ATOM     79  C   UNL A   1      39.274  34.192  36.572  1.00  0.00     0.198 A 
ATOM     80  C   UNL A   1      38.077  32.319  37.475  1.00  0.00     0.198 A 
ATOM     81  F   UNL A   1      38.117  30.249  36.355  1.00  0.00    -0.203 F 
ATOM     82  F   UNL A   1      39.681  35.465  36.668  1.00  0.00    -0.200 F 
ATOM     83  C   UNL A   1      38.471  33.645  37.562  1.00  0.00     0.200 A 
ATOM     84  F   UNL A   1      37.293  31.789  38.424  1.00  0.00    -0.200 F 
ATOM     85  F   UNL A   1      38.085  34.394  38.604  1.00  0.00    -0.200 F 
ENDBRANCH  51  75
BRANCH  63  86
ATOM     86  C   UNL A   1      44.797  27.889  34.434  1.00  0.00     0.064 A 
ATOM     87  C   UNL A   1      45.957  28.678  34.455  1.00  0.00     0.173 A 
ATOM     88  C   UNL A   1      44.742  26.779  35.290  1.00  0.00     0.173 A 
ATOM     89  F   UNL A   1      46.064  29.742  33.645  1.00  0.00    -0.203 F 
ATOM     90  C   UNL A   1      47.028  28.353  35.285  1.00  0.00     0.198 A 
ATOM     91  C   UNL A   1      45.803  26.474  36.139  1.00  0.00     0.198 A 
ATOM     92  F   UNL A   1      43.652  25.997  35.315  1.00  0.00    -0.203 F 
ATOM     93  F   UNL A   1      48.143  29.095  35.257  1.00  0.00    -0.200 F 
ATOM     94  C   UNL A   1      46.947  27.257  36.130  1.00  0.00     0.200 A 
ATOM     95  F   UNL A   1      45.718  25.421  36.965  1.00  0.00    -0.200 F 
ATOM     96  F   UNL A   1      47.975  26.950  36.933  1.00  0.00    -0.200 F 
ENDBRANCH  63  86
ENDBRANCH  37  38
ENDBRANCH  30  32
ENDBRANCH  29  30
ENDBRANCH  28  29
ENDBRANCH  27  28
ENDBRANCH  26  27
ENDBRANCH  25  26
ENDBRANCH   1  25
TORSDOF 21
ENDMDL
