MODEL 1
REMARK VINA RESULT:     -10.9      0.000      0.000
REMARK SMILES CC(C)[NH+]1CCC(NC(=O)OC(C)(C)C)(C(=O)OCCOCCOC(=O)c2ccc(-c3c4nc(c(-c5c(F)c(F)c(F)c(F)c5F)c5ccc([nH]5)c(-c5c(F)c(F)c(F)c(F)c5F)c5nc(c(-c6c(F)c(F)c(F)c(F)c6F)c6ccc3[nH]6)C=C5)C=C4)cc2)CC1
REMARK SMILES IDX 20 1 19 2 18 3 16 4 17 5 7 6 4 7 5 8 91 9 6 11 90 12 2 13
REMARK SMILES IDX 1 14 3 15 8 16 9 17 10 19 11 20 12 21 13 22 14 23 15 24
REMARK SMILES IDX 21 25 22 26 23 27 24 28 25 29 26 30 27 31 28 32 89 33 29 34
REMARK SMILES IDX 88 35 30 36 31 37 32 38 82 39 33 40 87 41 81 42 83 43 34 44
REMARK SMILES IDX 86 45 80 46 79 47 35 49 67 50 47 51 66 52 48 53 51 54 65 55
REMARK SMILES IDX 84 56 49 57 50 58 64 60 85 61 52 62 36 63 37 64 45 65 38 66
REMARK SMILES IDX 39 67 43 68 46 69 40 70 41 71 44 72 42 73 68 74 69 75 77 76
REMARK SMILES IDX 70 77 71 78 75 79 78 80 72 81 73 82 76 83 74 84 53 85 54 86
REMARK SMILES IDX 62 87 55 88 56 89 60 90 63 91 57 92 58 93 61 94 59 95
REMARK H PARENT 4 10 8 18 83 48 51 59
REMARK Flexibility Score: inf
ROOT
ATOM      1  C   UNL A   1      36.366  21.806  25.331  1.00  0.00     0.202 C 
ENDROOT
BRANCH   1   2
ATOM      2  C   UNL A   1      35.618  22.229  24.067  1.00  0.00     0.261 C 
BRANCH   2   3
ATOM      3  O   UNL A   1      34.376  22.930  24.236  1.00  0.00    -0.461 OA
BRANCH   3   4
ATOM      4  C   UNL A   1      33.587  22.948  23.117  1.00  0.00     0.332 C 
ATOM      5  O   UNL A   1      33.965  23.334  22.014  1.00  0.00    -0.249 OA
BRANCH   4   6
ATOM      6  C   UNL A   1      32.115  22.559  23.411  1.00  0.00     0.151 C 
ATOM      7  N   UNL A   1      32.324  19.634  23.979  1.00  0.00    -0.333 N 
ATOM      8  C   UNL A   1      32.408  20.610  25.073  1.00  0.00     0.265 C 
ATOM      9  C   UNL A   1      32.553  20.177  22.645  1.00  0.00     0.265 C 
ATOM     10  H   UNL A   1      31.342  19.366  23.924  1.00  0.00     0.348 HD
ATOM     11  C   UNL A   1      31.812  22.001  24.808  1.00  0.00     0.102 C 
ATOM     12  C   UNL A   1      31.743  21.446  22.404  1.00  0.00     0.102 C 
BRANCH   7  13
ATOM     13  C   UNL A   1      33.062  18.380  24.289  1.00  0.00     0.177 C 
ATOM     14  C   UNL A   1      32.905  17.412  23.114  1.00  0.00     0.075 C 
ATOM     15  C   UNL A   1      34.558  18.507  24.626  1.00  0.00     0.075 C 
ENDBRANCH   7  13
BRANCH   6  16
ATOM     16  N   UNL A   1      31.216  23.706  23.117  1.00  0.00    -0.305 N 
ATOM     17  C   UNL A   1      30.830  24.781  23.864  1.00  0.00     0.408 C 
ATOM     18  H   UNL A   1      30.824  23.685  22.215  1.00  0.00     0.168 HD
ATOM     19  O   UNL A   1      29.869  25.443  23.495  1.00  0.00    -0.225 OA
BRANCH  17  20
ATOM     20  O   UNL A   1      31.629  25.080  24.921  1.00  0.00    -0.444 OA
BRANCH  20  21
ATOM     21  C   UNL A   1      32.440  26.295  24.872  1.00  0.00     0.106 C 
ATOM     22  C   UNL A   1      32.964  26.547  23.450  1.00  0.00     0.056 C 
ATOM     23  C   UNL A   1      31.678  27.494  25.443  1.00  0.00     0.056 C 
ATOM     24  C   UNL A   1      33.674  26.066  25.762  1.00  0.00     0.056 C 
ENDBRANCH  20  21
ENDBRANCH  17  20
ENDBRANCH   6  16
ENDBRANCH   4   6
ENDBRANCH   3   4
ENDBRANCH   2   3
ENDBRANCH   1   2
BRANCH   1  25
ATOM     25  O   UNL A   1      37.723  21.416  25.213  1.00  0.00    -0.374 OA
BRANCH  25  26
ATOM     26  C   UNL A   1      37.986  20.033  25.012  1.00  0.00     0.202 C 
BRANCH  26  27
ATOM     27  C   UNL A   1      39.308  19.471  25.556  1.00  0.00     0.261 C 
BRANCH  27  28
ATOM     28  O   UNL A   1      40.306  20.478  25.824  1.00  0.00    -0.460 OA
BRANCH  28  29
ATOM     29  C   UNL A   1      40.694  20.549  27.123  1.00  0.00     0.338 C 
ATOM     30  O   UNL A   1      40.958  19.622  27.870  1.00  0.00    -0.246 OA
BRANCH  29  31
ATOM     31  C   UNL A   1      40.902  21.949  27.535  1.00  0.00     0.060 A 
ATOM     32  C   UNL A   1      40.224  22.954  26.831  1.00  0.00     0.016 A 
ATOM     33  C   UNL A   1      41.878  22.278  28.476  1.00  0.00     0.016 A 
ATOM     34  C   UNL A   1      40.536  24.295  27.053  1.00  0.00     0.010 A 
ATOM     35  C   UNL A   1      42.200  23.625  28.686  1.00  0.00     0.010 A 
ATOM     36  C   UNL A   1      41.551  24.637  27.956  1.00  0.00    -0.014 A 
BRANCH  36  37
ATOM     37  C   UNL A   1      42.001  26.047  28.054  1.00  0.00     0.031 A 
ATOM     38  C   UNL A   1      43.312  26.452  27.437  1.00  0.00     0.074 A 
ATOM     39  C   UNL A   1      41.233  26.965  28.666  1.00  0.00     0.049 A 
ATOM     40  N   UNL A   1      43.901  27.621  27.432  1.00  0.00    -0.248 NA
ATOM     41  C   UNL A   1      44.055  25.400  26.727  1.00  0.00     0.031 C 
ATOM     42  C   UNL A   1      39.927  26.703  29.265  1.00  0.00     0.029 A 
ATOM     43  N   UNL A   1      41.448  28.302  28.891  1.00  0.00    -0.354 N 
ATOM     44  C   UNL A   1      45.082  27.447  26.721  1.00  0.00     0.074 A 
ATOM     45  C   UNL A   1      45.137  26.054  26.330  1.00  0.00     0.031 C 
ATOM     46  C   UNL A   1      39.460  27.843  29.804  1.00  0.00     0.029 A 
ATOM     47  C   UNL A   1      40.449  28.903  29.616  1.00  0.00     0.049 A 
ATOM     48  H   UNL A   1      42.243  28.783  28.564  1.00  0.00     0.167 HD
ATOM     49  C   UNL A   1      46.028  28.367  26.418  1.00  0.00     0.037 A 
ATOM     50  C   UNL A   1      40.357  30.159  30.094  1.00  0.00     0.037 A 
ATOM     51  C   UNL A   1      45.974  29.751  26.811  1.00  0.00     0.049 A 
ATOM     52  C   UNL A   1      41.466  31.140  29.817  1.00  0.00     0.074 A 
ATOM     53  C   UNL A   1      46.869  30.767  26.524  1.00  0.00     0.029 A 
ATOM     54  N   UNL A   1      44.971  30.311  27.589  1.00  0.00    -0.354 N 
ATOM     55  N   UNL A   1      42.562  30.976  29.118  1.00  0.00    -0.248 NA
ATOM     56  C   UNL A   1      41.325  32.483  30.401  1.00  0.00     0.031 C 
ATOM     57  C   UNL A   1      46.437  31.929  27.173  1.00  0.00     0.029 A 
ATOM     58  C   UNL A   1      45.246  31.649  27.823  1.00  0.00     0.049 A 
ATOM     59  H   UNL A   1      44.181  29.829  27.926  1.00  0.00     0.167 HD
ATOM     60  C   UNL A   1      43.232  32.191  29.164  1.00  0.00     0.074 A 
ATOM     61  C   UNL A   1      42.409  33.092  29.944  1.00  0.00     0.031 C 
ATOM     62  C   UNL A   1      44.422  32.531  28.610  1.00  0.00     0.037 A 
BRANCH  49  63
ATOM     63  C   UNL A   1      47.225  27.902  25.640  1.00  0.00     0.064 A 
ATOM     64  C   UNL A   1      47.220  27.861  24.237  1.00  0.00     0.173 A 
ATOM     65  C   UNL A   1      48.405  27.537  26.305  1.00  0.00     0.173 A 
ATOM     66  F   UNL A   1      46.113  28.191  23.556  1.00  0.00    -0.203 F 
ATOM     67  C   UNL A   1      48.348  27.451  23.531  1.00  0.00     0.198 A 
ATOM     68  C   UNL A   1      49.538  27.152  25.594  1.00  0.00     0.198 A 
ATOM     69  F   UNL A   1      48.462  27.565  27.645  1.00  0.00    -0.203 F 
ATOM     70  F   UNL A   1      48.311  27.383  22.193  1.00  0.00    -0.200 F 
ATOM     71  C   UNL A   1      49.507  27.103  24.209  1.00  0.00     0.200 A 
ATOM     72  F   UNL A   1      50.660  26.826  26.251  1.00  0.00    -0.200 F 
ATOM     73  F   UNL A   1      50.594  26.716  23.527  1.00  0.00    -0.200 F 
ENDBRANCH  49  63
BRANCH  50  74
ATOM     74  C   UNL A   1      39.182  30.553  30.912  1.00  0.00     0.064 A 
ATOM     75  C   UNL A   1      38.055  31.145  30.325  1.00  0.00     0.173 A 
ATOM     76  C   UNL A   1      39.169  30.360  32.302  1.00  0.00     0.173 A 
ATOM     77  F   UNL A   1      38.033  31.376  29.004  1.00  0.00    -0.203 F 
ATOM     78  C   UNL A   1      36.965  31.538  31.098  1.00  0.00     0.198 A 
ATOM     79  C   UNL A   1      38.066  30.728  33.070  1.00  0.00     0.198 A 
ATOM     80  F   UNL A   1      40.224  29.802  32.912  1.00  0.00    -0.203 F 
ATOM     81  F   UNL A   1      35.918  32.140  30.518  1.00  0.00    -0.200 F 
ATOM     82  C   UNL A   1      36.968  31.324  32.468  1.00  0.00     0.200 A 
ATOM     83  F   UNL A   1      38.071  30.510  34.392  1.00  0.00    -0.200 F 
ATOM     84  F   UNL A   1      35.917  31.699  33.210  1.00  0.00    -0.200 F 
ENDBRANCH  50  74
BRANCH  62  85
ATOM     85  C   UNL A   1      44.903  33.937  28.823  1.00  0.00     0.064 A 
ATOM     86  C   UNL A   1      44.543  34.974  27.949  1.00  0.00     0.173 A 
ATOM     87  C   UNL A   1      45.698  34.259  29.933  1.00  0.00     0.173 A 
ATOM     88  F   UNL A   1      43.798  34.713  26.865  1.00  0.00    -0.203 F 
ATOM     89  C   UNL A   1      44.980  36.277  28.168  1.00  0.00     0.198 A 
ATOM     90  C   UNL A   1      46.110  35.569  30.163  1.00  0.00     0.198 A 
ATOM     91  F   UNL A   1      46.065  33.306  30.803  1.00  0.00    -0.203 F 
ATOM     92  F   UNL A   1      44.660  37.245  27.297  1.00  0.00    -0.200 F 
ATOM     93  C   UNL A   1      45.756  36.576  29.278  1.00  0.00     0.200 A 
ATOM     94  F   UNL A   1      46.850  35.858  31.243  1.00  0.00    -0.200 F 
ATOM     95  F   UNL A   1      46.170  37.832  29.489  1.00  0.00    -0.200 F 
ENDBRANCH  62  85
ENDBRANCH  36  37
ENDBRANCH  29  31
ENDBRANCH  28  29
ENDBRANCH  27  28
ENDBRANCH  26  27
ENDBRANCH  25  26
ENDBRANCH   1  25
TORSDOF 18
ENDMDL
MODEL 2
REMARK VINA RESULT:     -10.8      0.419      7.149
REMARK SMILES CC(C)[NH+]1CCC(NC(=O)OC(C)(C)C)(C(=O)OCCOCCOC(=O)c2ccc(-c3c4nc(c(-c5c(F)c(F)c(F)c(F)c5F)c5ccc([nH]5)c(-c5c(F)c(F)c(F)c(F)c5F)c5nc(c(-c6c(F)c(F)c(F)c(F)c6F)c6ccc3[nH]6)C=C5)C=C4)cc2)CC1
REMARK SMILES IDX 20 1 19 2 18 3 16 4 17 5 7 6 4 7 5 8 91 9 6 11 90 12 2 13
REMARK SMILES IDX 1 14 3 15 8 16 9 17 10 19 11 20 12 21 13 22 14 23 15 24
REMARK SMILES IDX 21 25 22 26 23 27 24 28 25 29 26 30 27 31 28 32 89 33 29 34
REMARK SMILES IDX 88 35 30 36 31 37 32 38 82 39 33 40 87 41 81 42 83 43 34 44
REMARK SMILES IDX 86 45 80 46 79 47 35 49 67 50 47 51 66 52 48 53 51 54 65 55
REMARK SMILES IDX 84 56 49 57 50 58 64 60 85 61 52 62 36 63 37 64 45 65 38 66
REMARK SMILES IDX 39 67 43 68 46 69 40 70 41 71 44 72 42 73 68 74 69 75 77 76
REMARK SMILES IDX 70 77 71 78 75 79 78 80 72 81 73 82 76 83 74 84 53 85 54 86
REMARK SMILES IDX 62 87 55 88 56 89 60 90 63 91 57 92 58 93 61 94 59 95
REMARK H PARENT 4 10 8 18 83 48 51 59
REMARK Flexibility Score: inf
ROOT
ATOM      1  C   UNL A   1      36.415  21.839  25.184  1.00  0.00     0.202 C 
ENDROOT
BRANCH   1   2
ATOM      2  C   UNL A   1      35.639  22.291  23.948  1.00  0.00     0.261 C 
BRANCH   2   3
ATOM      3  O   UNL A   1      34.370  22.930  24.159  1.00  0.00    -0.461 OA
BRANCH   3   4
ATOM      4  C   UNL A   1      33.560  22.942  23.055  1.00  0.00     0.332 C 
ATOM      5  O   UNL A   1      33.913  23.332  21.946  1.00  0.00    -0.249 OA
BRANCH   4   6
ATOM      6  C   UNL A   1      32.097  22.540  23.377  1.00  0.00     0.151 C 
ATOM      7  N   UNL A   1      32.333  19.606  23.885  1.00  0.00    -0.333 N 
ATOM      8  C   UNL A   1      32.438  20.562  24.994  1.00  0.00     0.265 C 
ATOM      9  C   UNL A   1      32.527  20.175  22.556  1.00  0.00     0.265 C 
ATOM     10  H   UNL A   1      31.350  19.334  23.848  1.00  0.00     0.348 HD
ATOM     11  C   UNL A   1      31.830  21.955  24.770  1.00  0.00     0.102 C 
ATOM     12  C   UNL A   1      31.706  21.444  22.358  1.00  0.00     0.102 C 
BRANCH   7  13
ATOM     13  C   UNL A   1      33.083  18.351  24.154  1.00  0.00     0.177 C 
ATOM     14  C   UNL A   1      33.058  17.481  22.894  1.00  0.00     0.075 C 
ATOM     15  C   UNL A   1      34.541  18.487  24.627  1.00  0.00     0.075 C 
ENDBRANCH   7  13
BRANCH   6  16
ATOM     16  N   UNL A   1      31.185  23.688  23.126  1.00  0.00    -0.305 N 
ATOM     17  C   UNL A   1      30.858  24.778  23.879  1.00  0.00     0.408 C 
ATOM     18  H   UNL A   1      30.732  23.654  22.253  1.00  0.00     0.168 HD
ATOM     19  O   UNL A   1      29.877  25.440  23.566  1.00  0.00    -0.225 OA
BRANCH  17  20
ATOM     20  O   UNL A   1      31.729  25.089  24.874  1.00  0.00    -0.444 OA
BRANCH  20  21
ATOM     21  C   UNL A   1      32.455  26.356  24.806  1.00  0.00     0.106 C 
ATOM     22  C   UNL A   1      33.012  26.593  23.394  1.00  0.00     0.056 C 
ATOM     23  C   UNL A   1      31.591  27.518  25.303  1.00  0.00     0.056 C 
ATOM     24  C   UNL A   1      33.668  26.247  25.747  1.00  0.00     0.056 C 
ENDBRANCH  20  21
ENDBRANCH  17  20
ENDBRANCH   6  16
ENDBRANCH   4   6
ENDBRANCH   3   4
ENDBRANCH   2   3
ENDBRANCH   1   2
BRANCH   1  25
ATOM     25  O   UNL A   1      37.749  21.392  25.018  1.00  0.00    -0.374 OA
BRANCH  25  26
ATOM     26  C   UNL A   1      37.965  19.987  24.999  1.00  0.00     0.202 C 
BRANCH  26  27
ATOM     27  C   UNL A   1      39.262  19.455  25.629  1.00  0.00     0.261 C 
BRANCH  27  28
ATOM     28  O   UNL A   1      40.263  20.470  25.852  1.00  0.00    -0.460 OA
BRANCH  28  29
ATOM     29  C   UNL A   1      40.707  20.546  27.133  1.00  0.00     0.338 C 
ATOM     30  O   UNL A   1      40.966  19.622  27.884  1.00  0.00    -0.246 OA
BRANCH  29  31
ATOM     31  C   UNL A   1      40.987  21.943  27.511  1.00  0.00     0.060 A 
ATOM     32  C   UNL A   1      40.506  22.963  26.679  1.00  0.00     0.016 A 
ATOM     33  C   UNL A   1      41.855  22.237  28.563  1.00  0.00     0.016 A 
ATOM     34  C   UNL A   1      40.908  24.282  26.886  1.00  0.00     0.010 A 
ATOM     35  C   UNL A   1      42.269  23.560  28.760  1.00  0.00     0.010 A 
ATOM     36  C   UNL A   1      41.820  24.584  27.906  1.00  0.00    -0.014 A 
BRANCH  36  37
ATOM     37  C   UNL A   1      42.382  25.953  28.006  1.00  0.00     0.031 A 
ATOM     38  C   UNL A   1      41.597  27.028  28.706  1.00  0.00     0.074 A 
ATOM     39  C   UNL A   1      43.596  26.228  27.498  1.00  0.00     0.049 A 
ATOM     40  N   UNL A   1      41.891  28.292  28.880  1.00  0.00    -0.248 NA
ATOM     41  C   UNL A   1      40.311  26.624  29.292  1.00  0.00     0.031 C 
ATOM     42  C   UNL A   1      44.468  25.263  26.835  1.00  0.00     0.029 A 
ATOM     43  N   UNL A   1      44.299  27.407  27.455  1.00  0.00    -0.354 N 
ATOM     44  C   UNL A   1      40.830  28.834  29.593  1.00  0.00     0.074 A 
ATOM     45  C   UNL A   1      39.873  27.767  29.801  1.00  0.00     0.031 C 
ATOM     46  C   UNL A   1      45.588  25.890  26.437  1.00  0.00     0.029 A 
ATOM     47  C   UNL A   1      45.496  27.307  26.788  1.00  0.00     0.049 A 
ATOM     48  H   UNL A   1      43.977  28.243  27.863  1.00  0.00     0.167 HD
ATOM     49  C   UNL A   1      40.673  30.103  30.040  1.00  0.00     0.037 A 
ATOM     50  C   UNL A   1      46.398  28.256  26.476  1.00  0.00     0.037 A 
ATOM     51  C   UNL A   1      41.624  31.163  29.830  1.00  0.00     0.049 A 
ATOM     52  C   UNL A   1      46.157  29.679  26.908  1.00  0.00     0.074 A 
ATOM     53  C   UNL A   1      41.568  32.474  30.270  1.00  0.00     0.029 A 
ATOM     54  N   UNL A   1      42.799  31.036  29.104  1.00  0.00    -0.354 N 
ATOM     55  N   UNL A   1      45.167  30.175  27.610  1.00  0.00    -0.248 NA
ATOM     56  C   UNL A   1      47.160  30.675  26.501  1.00  0.00     0.031 C 
ATOM     57  C   UNL A   1      42.683  33.154  29.767  1.00  0.00     0.029 A 
ATOM     58  C   UNL A   1      43.458  32.254  29.054  1.00  0.00     0.049 A 
ATOM     59  H   UNL A   1      43.118  30.204  28.686  1.00  0.00     0.167 HD
ATOM     60  C   UNL A   1      45.433  31.532  27.741  1.00  0.00     0.074 A 
ATOM     61  C   UNL A   1      46.689  31.778  27.064  1.00  0.00     0.031 C 
ATOM     62  C   UNL A   1      44.703  32.487  28.367  1.00  0.00     0.037 A 
BRANCH  49  63
ATOM     63  C   UNL A   1      39.410  30.426  30.783  1.00  0.00     0.064 A 
ATOM     64  C   UNL A   1      38.268  30.902  30.121  1.00  0.00     0.173 A 
ATOM     65  C   UNL A   1      39.327  30.213  32.167  1.00  0.00     0.173 A 
ATOM     66  F   UNL A   1      38.300  31.132  28.800  1.00  0.00    -0.203 F 
ATOM     67  C   UNL A   1      37.096  31.173  30.823  1.00  0.00     0.198 A 
ATOM     68  C   UNL A   1      38.146  30.460  32.861  1.00  0.00     0.198 A 
ATOM     69  F   UNL A   1      40.389  29.753  32.845  1.00  0.00    -0.203 F 
ATOM     70  F   UNL A   1      36.028  31.662  30.177  1.00  0.00    -0.200 F 
ATOM     71  C   UNL A   1      37.034  30.947  32.189  1.00  0.00     0.200 A 
ATOM     72  F   UNL A   1      38.084  30.231  34.179  1.00  0.00    -0.200 F 
ATOM     73  F   UNL A   1      35.902  31.200  32.862  1.00  0.00    -0.200 F 
ENDBRANCH  49  63
BRANCH  50  74
ATOM     74  C   UNL A   1      47.603  27.897  25.684  1.00  0.00     0.064 A 
ATOM     75  C   UNL A   1      47.554  27.817  24.286  1.00  0.00     0.173 A 
ATOM     76  C   UNL A   1      48.824  27.612  26.314  1.00  0.00     0.173 A 
ATOM     77  F   UNL A   1      46.402  28.053  23.642  1.00  0.00    -0.203 F 
ATOM     78  C   UNL A   1      48.679  27.453  23.548  1.00  0.00     0.198 A 
ATOM     79  C   UNL A   1      49.955  27.275  25.573  1.00  0.00     0.198 A 
ATOM     80  F   UNL A   1      48.920  27.671  27.650  1.00  0.00    -0.203 F 
ATOM     81  F   UNL A   1      48.596  27.343  22.216  1.00  0.00    -0.200 F 
ATOM     82  C   UNL A   1      49.880  27.190  24.191  1.00  0.00     0.200 A 
ATOM     83  F   UNL A   1      51.114  27.031  26.198  1.00  0.00    -0.200 F 
ATOM     84  F   UNL A   1      50.961  26.844  23.480  1.00  0.00    -0.200 F 
ENDBRANCH  50  74
BRANCH  62  85
ATOM     85  C   UNL A   1      45.246  33.887  28.353  1.00  0.00     0.064 A 
ATOM     86  C   UNL A   1      44.800  34.835  27.420  1.00  0.00     0.173 A 
ATOM     87  C   UNL A   1      46.189  34.296  29.307  1.00  0.00     0.173 A 
ATOM     88  F   UNL A   1      43.910  34.488  26.478  1.00  0.00    -0.203 F 
ATOM     89  C   UNL A   1      45.297  36.136  27.430  1.00  0.00     0.198 A 
ATOM     90  C   UNL A   1      46.663  35.606  29.331  1.00  0.00     0.198 A 
ATOM     91  F   UNL A   1      46.643  33.430  30.225  1.00  0.00    -0.203 F 
ATOM     92  F   UNL A   1      44.889  37.014  26.503  1.00  0.00    -0.200 F 
ATOM     93  C   UNL A   1      46.221  36.522  28.389  1.00  0.00     0.200 A 
ATOM     94  F   UNL A   1      47.547  35.980  30.265  1.00  0.00    -0.200 F 
ATOM     95  F   UNL A   1      46.693  37.776  28.400  1.00  0.00    -0.200 F 
ENDBRANCH  62  85
ENDBRANCH  36  37
ENDBRANCH  29  31
ENDBRANCH  28  29
ENDBRANCH  27  28
ENDBRANCH  26  27
ENDBRANCH  25  26
ENDBRANCH   1  25
TORSDOF 18
ENDMDL
MODEL 3
REMARK VINA RESULT:     -10.6      1.508      7.289
REMARK SMILES CC(C)[NH+]1CCC(NC(=O)OC(C)(C)C)(C(=O)OCCOCCOC(=O)c2ccc(-c3c4nc(c(-c5c(F)c(F)c(F)c(F)c5F)c5ccc([nH]5)c(-c5c(F)c(F)c(F)c(F)c5F)c5nc(c(-c6c(F)c(F)c(F)c(F)c6F)c6ccc3[nH]6)C=C5)C=C4)cc2)CC1
REMARK SMILES IDX 20 1 19 2 18 3 16 4 17 5 7 6 4 7 5 8 91 9 6 11 90 12 2 13
REMARK SMILES IDX 1 14 3 15 8 16 9 17 10 19 11 20 12 21 13 22 14 23 15 24
REMARK SMILES IDX 21 25 22 26 23 27 24 28 25 29 26 30 27 31 28 32 89 33 29 34
REMARK SMILES IDX 88 35 30 36 31 37 32 38 82 39 33 40 87 41 81 42 83 43 34 44
REMARK SMILES IDX 86 45 80 46 79 47 35 49 67 50 47 51 66 52 48 53 51 54 65 55
REMARK SMILES IDX 84 56 49 57 50 58 64 60 85 61 52 62 36 63 37 64 45 65 38 66
REMARK SMILES IDX 39 67 43 68 46 69 40 70 41 71 44 72 42 73 68 74 69 75 77 76
REMARK SMILES IDX 70 77 71 78 75 79 78 80 72 81 73 82 76 83 74 84 53 85 54 86
REMARK SMILES IDX 62 87 55 88 56 89 60 90 63 91 57 92 58 93 61 94 59 95
REMARK H PARENT 4 10 8 18 83 48 51 59
REMARK Flexibility Score: inf
ROOT
ATOM      1  C   UNL A   1      36.860  22.786  24.954  1.00  0.00     0.202 C 
ENDROOT
BRANCH   1   2
ATOM      2  C   UNL A   1      35.797  23.262  23.965  1.00  0.00     0.261 C 
BRANCH   2   3
ATOM      3  O   UNL A   1      34.431  22.913  24.243  1.00  0.00    -0.461 OA
BRANCH   3   4
ATOM      4  C   UNL A   1      33.619  22.912  23.140  1.00  0.00     0.332 C 
ATOM      5  O   UNL A   1      33.968  23.297  22.027  1.00  0.00    -0.249 OA
BRANCH   4   6
ATOM      6  C   UNL A   1      32.160  22.500  23.467  1.00  0.00     0.151 C 
ATOM      7  N   UNL A   1      32.422  19.573  24.005  1.00  0.00    -0.333 N 
ATOM      8  C   UNL A   1      32.519  20.542  25.104  1.00  0.00     0.265 C 
ATOM      9  C   UNL A   1      32.611  20.130  22.671  1.00  0.00     0.265 C 
ATOM     10  H   UNL A   1      31.442  19.292  23.972  1.00  0.00     0.348 HD
ATOM     11  C   UNL A   1      31.899  21.927  24.866  1.00  0.00     0.102 C 
ATOM     12  C   UNL A   1      31.779  21.390  22.460  1.00  0.00     0.102 C 
BRANCH   7  13
ATOM     13  C   UNL A   1      33.184  18.328  24.286  1.00  0.00     0.177 C 
ATOM     14  C   UNL A   1      32.528  17.604  25.465  1.00  0.00     0.075 C 
ATOM     15  C   UNL A   1      33.354  17.328  23.129  1.00  0.00     0.075 C 
ENDBRANCH   7  13
BRANCH   6  16
ATOM     16  N   UNL A   1      31.238  23.637  23.205  1.00  0.00    -0.305 N 
ATOM     17  C   UNL A   1      30.884  24.720  23.955  1.00  0.00     0.408 C 
ATOM     18  H   UNL A   1      30.800  23.601  22.324  1.00  0.00     0.168 HD
ATOM     19  O   UNL A   1      29.901  25.371  23.628  1.00  0.00    -0.225 OA
BRANCH  17  20
ATOM     20  O   UNL A   1      31.735  25.039  24.966  1.00  0.00    -0.444 OA
BRANCH  20  21
ATOM     21  C   UNL A   1      32.502  26.280  24.877  1.00  0.00     0.106 C 
ATOM     22  C   UNL A   1      32.994  26.520  23.442  1.00  0.00     0.056 C 
ATOM     23  C   UNL A   1      31.709  27.464  25.436  1.00  0.00     0.056 C 
ATOM     24  C   UNL A   1      33.758  26.113  25.751  1.00  0.00     0.056 C 
ENDBRANCH  20  21
ENDBRANCH  17  20
ENDBRANCH   6  16
ENDBRANCH   4   6
ENDBRANCH   3   4
ENDBRANCH   2   3
ENDBRANCH   1   2
BRANCH   1  25
ATOM     25  O   UNL A   1      37.778  21.793  24.531  1.00  0.00    -0.374 OA
BRANCH  25  26
ATOM     26  C   UNL A   1      37.629  20.492  25.086  1.00  0.00     0.202 C 
BRANCH  26  27
ATOM     27  C   UNL A   1      38.882  19.608  25.180  1.00  0.00     0.261 C 
BRANCH  27  28
ATOM     28  O   UNL A   1      39.706  19.881  26.332  1.00  0.00    -0.460 OA
BRANCH  28  29
ATOM     29  C   UNL A   1      41.024  19.604  26.155  1.00  0.00     0.338 C 
ATOM     30  O   UNL A   1      41.515  18.564  25.751  1.00  0.00    -0.246 OA
BRANCH  29  31
ATOM     31  C   UNL A   1      41.850  20.801  26.391  1.00  0.00     0.060 A 
ATOM     32  C   UNL A   1      42.051  21.216  27.715  1.00  0.00     0.016 A 
ATOM     33  C   UNL A   1      42.271  21.599  25.327  1.00  0.00     0.016 A 
ATOM     34  C   UNL A   1      42.658  22.444  27.978  1.00  0.00     0.010 A 
ATOM     35  C   UNL A   1      42.866  22.839  25.594  1.00  0.00     0.010 A 
ATOM     36  C   UNL A   1      43.037  23.279  26.919  1.00  0.00    -0.014 A 
BRANCH  36  37
ATOM     37  C   UNL A   1      43.512  24.655  27.204  1.00  0.00     0.031 A 
ATOM     38  C   UNL A   1      42.549  25.676  27.745  1.00  0.00     0.074 A 
ATOM     39  C   UNL A   1      44.801  24.983  27.007  1.00  0.00     0.049 A 
ATOM     40  N   UNL A   1      42.751  26.936  28.034  1.00  0.00    -0.248 NA
ATOM     41  C   UNL A   1      41.176  25.214  27.996  1.00  0.00     0.031 C 
ATOM     42  C   UNL A   1      45.836  24.071  26.528  1.00  0.00     0.029 A 
ATOM     43  N   UNL A   1      45.454  26.178  27.178  1.00  0.00    -0.354 N 
ATOM     44  C   UNL A   1      41.535  27.418  28.500  1.00  0.00     0.074 A 
ATOM     45  C   UNL A   1      40.593  26.320  28.434  1.00  0.00     0.031 C 
ATOM     46  C   UNL A   1      46.996  24.743  26.429  1.00  0.00     0.029 A 
ATOM     47  C   UNL A   1      46.775  26.138  26.807  1.00  0.00     0.049 A 
ATOM     48  H   UNL A   1      45.017  26.986  27.534  1.00  0.00     0.167 HD
ATOM     49  C   UNL A   1      41.235  28.660  28.950  1.00  0.00     0.037 A 
ATOM     50  C   UNL A   1      47.693  27.123  26.754  1.00  0.00     0.037 A 
ATOM     51  C   UNL A   1      42.171  29.752  29.012  1.00  0.00     0.049 A 
ATOM     52  C   UNL A   1      47.309  28.517  27.176  1.00  0.00     0.074 A 
ATOM     53  C   UNL A   1      41.969  31.038  29.481  1.00  0.00     0.029 A 
ATOM     54  N   UNL A   1      43.487  29.688  28.577  1.00  0.00    -0.354 N 
ATOM     55  N   UNL A   1      46.166  28.956  27.646  1.00  0.00    -0.248 NA
ATOM     56  C   UNL A   1      48.344  29.555  27.056  1.00  0.00     0.031 C 
ATOM     57  C   UNL A   1      43.147  31.768  29.281  1.00  0.00     0.029 A 
ATOM     58  C   UNL A   1      44.097  30.922  28.733  1.00  0.00     0.049 A 
ATOM     59  H   UNL A   1      43.923  28.884  28.212  1.00  0.00     0.167 HD
ATOM     60  C   UNL A   1      46.348  30.310  27.892  1.00  0.00     0.074 A 
ATOM     61  C   UNL A   1      47.717  30.619  27.538  1.00  0.00     0.031 C 
ATOM     62  C   UNL A   1      45.459  31.217  28.367  1.00  0.00     0.037 A 
BRANCH  49  63
ATOM     63  C   UNL A   1      39.823  28.917  29.389  1.00  0.00     0.064 A 
ATOM     64  C   UNL A   1      38.847  29.384  28.494  1.00  0.00     0.173 A 
ATOM     65  C   UNL A   1      39.430  28.650  30.709  1.00  0.00     0.173 A 
ATOM     66  F   UNL A   1      39.175  29.664  27.224  1.00  0.00    -0.203 F 
ATOM     67  C   UNL A   1      37.536  29.592  28.913  1.00  0.00     0.198 A 
ATOM     68  C   UNL A   1      38.113  28.835  31.116  1.00  0.00     0.198 A 
ATOM     69  F   UNL A   1      40.324  28.196  31.601  1.00  0.00    -0.203 F 
ATOM     70  F   UNL A   1      36.628  30.074  28.052  1.00  0.00    -0.200 F 
ATOM     71  C   UNL A   1      37.168  29.313  30.220  1.00  0.00     0.200 A 
ATOM     72  F   UNL A   1      37.757  28.555  32.377  1.00  0.00    -0.200 F 
ATOM     73  F   UNL A   1      35.903  29.507  30.619  1.00  0.00    -0.200 F 
ENDBRANCH  49  63
BRANCH  50  74
ATOM     74  C   UNL A   1      49.060  26.831  26.253  1.00  0.00     0.064 A 
ATOM     75  C   UNL A   1      49.389  27.002  24.902  1.00  0.00     0.173 A 
ATOM     76  C   UNL A   1      50.062  26.360  27.115  1.00  0.00     0.173 A 
ATOM     77  F   UNL A   1      48.457  27.423  24.034  1.00  0.00    -0.203 F 
ATOM     78  C   UNL A   1      50.666  26.702  24.429  1.00  0.00     0.198 A 
ATOM     79  C   UNL A   1      51.345  26.086  26.647  1.00  0.00     0.198 A 
ATOM     80  F   UNL A   1      49.795  26.175  28.416  1.00  0.00    -0.203 F 
ATOM     81  F   UNL A   1      50.943  26.834  23.126  1.00  0.00    -0.200 F 
ATOM     82  C   UNL A   1      51.644  26.251  25.303  1.00  0.00     0.200 A 
ATOM     83  F   UNL A   1      52.289  25.660  27.496  1.00  0.00    -0.200 F 
ATOM     84  F   UNL A   1      52.872  25.966  24.848  1.00  0.00    -0.200 F 
ENDBRANCH  50  74
BRANCH  62  85
ATOM     85  C   UNL A   1      45.942  32.628  28.538  1.00  0.00     0.064 A 
ATOM     86  C   UNL A   1      45.784  33.584  27.523  1.00  0.00     0.173 A 
ATOM     87  C   UNL A   1      46.530  33.041  29.743  1.00  0.00     0.173 A 
ATOM     88  F   UNL A   1      45.242  33.235  26.347  1.00  0.00    -0.203 F 
ATOM     89  C   UNL A   1      46.218  34.895  27.701  1.00  0.00     0.198 A 
ATOM     90  C   UNL A   1      46.938  34.359  29.928  1.00  0.00     0.198 A 
ATOM     91  F   UNL A   1      46.698  32.167  30.748  1.00  0.00    -0.203 F 
ATOM     92  F   UNL A   1      46.097  35.780  26.703  1.00  0.00    -0.200 F 
ATOM     93  C   UNL A   1      46.787  35.284  28.905  1.00  0.00     0.200 A 
ATOM     94  F   UNL A   1      47.476  34.736  31.096  1.00  0.00    -0.200 F 
ATOM     95  F   UNL A   1      47.198  36.547  29.076  1.00  0.00    -0.200 F 
ENDBRANCH  62  85
ENDBRANCH  36  37
ENDBRANCH  29  31
ENDBRANCH  28  29
ENDBRANCH  27  28
ENDBRANCH  26  27
ENDBRANCH  25  26
ENDBRANCH   1  25
TORSDOF 18
ENDMDL
