MODEL 1
REMARK VINA RESULT:     -11.9      0.000      0.000
REMARK SMILES O=C(CSc1nnc(Cc2ccncc2)n1-c1ccccc1Cl)OCCOCCOC(=O)c1ccc(-c2c3nc(c(-c4c(F)c(F)c(F)c(F)c4F)c4ccc([nH]4)c(-c4c(F)c(F)c(F)c(F)c4F)c4nc(c(-c5c(F)c(F)c(F)c(F)c5F)c5ccc2[nH]5)C=C4)C=C3)cc1
REMARK SMILES IDX 26 1 25 2 24 3 2 4 1 5 3 6 4 7 5 8 6 9 16 10 7 11 8 12 17 13
REMARK SMILES IDX 18 14 22 15 19 16 21 17 23 18 20 19 9 20 10 21 11 22 15 23
REMARK SMILES IDX 12 24 14 25 13 26 27 27 28 28 29 29 30 30 31 31 32 32 33 33
REMARK SMILES IDX 34 34 95 35 35 36 94 37 36 38 37 39 38 40 88 41 39 42 93 43
REMARK SMILES IDX 87 44 89 45 40 46 92 47 86 48 85 49 41 51 73 52 53 53 72 54
REMARK SMILES IDX 54 55 57 56 71 57 90 58 55 59 56 60 70 62 91 63 58 64 42 65
REMARK SMILES IDX 43 66 51 67 44 68 45 69 49 70 52 71 46 72 47 73 50 74 48 75
REMARK SMILES IDX 74 76 75 77 83 78 76 79 77 80 81 81 84 82 78 83 79 84 82 85
REMARK SMILES IDX 80 86 59 87 60 88 68 89 61 90 62 91 66 92 69 93 63 94 64 95
REMARK SMILES IDX 67 96 65 97
REMARK H PARENT 89 50 57 61
REMARK Flexibility Score: inf
ROOT
ATOM      1  C   UNL A   1      39.493  21.898  26.146  1.00  0.00     0.202 C 
ENDROOT
BRANCH   1   2
ATOM      2  C   UNL A   1      38.210  21.459  25.468  1.00  0.00     0.261 C 
BRANCH   2   3
ATOM      3  O   UNL A   1      37.179  22.460  25.519  1.00  0.00    -0.463 OA
BRANCH   3   4
ATOM      4  C   UNL A   1      35.961  22.398  24.933  1.00  0.00     0.316 C 
ATOM      5  O   UNL A   1      35.888  22.630  23.726  1.00  0.00    -0.251 OA
BRANCH   4   6
ATOM      6  C   UNL A   1      34.717  22.131  25.752  1.00  0.00     0.200 C 
BRANCH   6   7
ATOM      7  S   UNL A   1      33.231  21.802  24.790  1.00  0.00    -0.074 SA
BRANCH   7   8
ATOM      8  C   UNL A   1      32.184  22.933  25.552  1.00  0.00     0.196 A 
ATOM      9  N   UNL A   1      31.799  22.776  26.796  1.00  0.00    -0.123 NA
ATOM     10  N   UNL A   1      31.873  24.202  25.099  1.00  0.00    -0.272 N 
ATOM     11  N   UNL A   1      31.158  23.912  27.178  1.00  0.00    -0.134 NA
ATOM     12  C   UNL A   1      31.136  24.733  26.147  1.00  0.00     0.142 A 
BRANCH  10  13
ATOM     13  C   UNL A   1      32.329  24.906  23.949  1.00  0.00     0.068 A 
ATOM     14  C   UNL A   1      31.541  24.821  22.783  1.00  0.00     0.028 A 
ATOM     15  C   UNL A   1      33.507  25.664  23.922  1.00  0.00     0.065 A 
ATOM     16  C   UNL A   1      31.924  25.478  21.612  1.00  0.00     0.002 A 
ATOM     17  C   UNL A   1      33.868  26.341  22.746  1.00  0.00     0.023 A 
ATOM     18  Cl  UNL A   1      34.657  25.695  25.208  1.00  0.00    -0.082 Cl
ATOM     19  C   UNL A   1      33.085  26.244  21.595  1.00  0.00     0.002 A 
ENDBRANCH  10  13
BRANCH  12  20
ATOM     20  C   UNL A   1      30.252  25.926  26.056  1.00  0.00     0.113 C 
BRANCH  20  21
ATOM     21  C   UNL A   1      31.072  27.194  26.102  1.00  0.00    -0.037 A 
ATOM     22  C   UNL A   1      31.114  28.045  24.991  1.00  0.00     0.024 A 
ATOM     23  C   UNL A   1      31.854  27.512  27.213  1.00  0.00     0.024 A 
ATOM     24  C   UNL A   1      31.916  29.172  25.043  1.00  0.00     0.111 A 
ATOM     25  C   UNL A   1      32.617  28.670  27.172  1.00  0.00     0.111 A 
ATOM     26  N   UNL A   1      32.662  29.508  26.115  1.00  0.00    -0.265 NA
ENDBRANCH  20  21
ENDBRANCH  12  20
ENDBRANCH   7   8
ENDBRANCH   6   7
ENDBRANCH   4   6
ENDBRANCH   3   4
ENDBRANCH   2   3
ENDBRANCH   1   2
BRANCH   1  27
ATOM     27  O   UNL A   1      40.178  20.889  26.889  1.00  0.00    -0.374 OA
BRANCH  27  28
ATOM     28  C   UNL A   1      40.741  19.791  26.165  1.00  0.00     0.202 C 
BRANCH  28  29
ATOM     29  C   UNL A   1      42.250  19.651  26.219  1.00  0.00     0.261 C 
BRANCH  29  30
ATOM     30  O   UNL A   1      42.827  20.678  25.437  1.00  0.00    -0.460 OA
BRANCH  30  31
ATOM     31  C   UNL A   1      44.036  20.394  24.900  1.00  0.00     0.338 C 
ATOM     32  O   UNL A   1      44.496  19.305  24.629  1.00  0.00    -0.246 OA
BRANCH  31  33
ATOM     33  C   UNL A   1      44.764  21.675  24.805  1.00  0.00     0.060 A 
ATOM     34  C   UNL A   1      45.534  21.891  25.940  1.00  0.00     0.016 A 
ATOM     35  C   UNL A   1      44.130  22.715  24.108  1.00  0.00     0.016 A 
ATOM     36  C   UNL A   1      45.262  23.035  26.640  1.00  0.00     0.010 A 
ATOM     37  C   UNL A   1      43.831  23.845  24.820  1.00  0.00     0.010 A 
ATOM     38  C   UNL A   1      44.318  23.934  26.119  1.00  0.00    -0.014 A 
BRANCH  38  39
ATOM     39  C   UNL A   1      44.039  25.108  26.902  1.00  0.00     0.031 A 
ATOM     40  C   UNL A   1      45.096  26.110  26.676  1.00  0.00     0.074 A 
ATOM     41  C   UNL A   1      42.949  25.266  27.670  1.00  0.00     0.049 A 
ATOM     42  N   UNL A   1      46.078  26.384  27.465  1.00  0.00    -0.248 NA
ATOM     43  C   UNL A   1      45.248  26.633  25.308  1.00  0.00     0.031 C 
ATOM     44  C   UNL A   1      41.745  24.442  27.749  1.00  0.00     0.029 A 
ATOM     45  N   UNL A   1      42.674  26.299  28.510  1.00  0.00    -0.354 N 
ATOM     46  C   UNL A   1      46.851  27.300  26.766  1.00  0.00     0.074 A 
ATOM     47  C   UNL A   1      46.454  27.194  25.391  1.00  0.00     0.031 C 
ATOM     48  C   UNL A   1      40.782  25.129  28.411  1.00  0.00     0.029 A 
ATOM     49  C   UNL A   1      41.345  26.372  28.908  1.00  0.00     0.049 A 
ATOM     50  H   UNL A   1      43.357  26.940  28.811  1.00  0.00     0.167 HD
ATOM     51  C   UNL A   1      47.480  28.300  27.437  1.00  0.00     0.037 A 
ATOM     52  C   UNL A   1      40.778  27.451  29.508  1.00  0.00     0.037 A 
ATOM     53  C   UNL A   1      47.616  27.959  28.836  1.00  0.00     0.049 A 
ATOM     54  C   UNL A   1      41.886  28.266  30.083  1.00  0.00     0.074 A 
ATOM     55  C   UNL A   1      48.234  26.940  29.536  1.00  0.00     0.029 A 
ATOM     56  N   UNL A   1      46.719  28.522  29.712  1.00  0.00    -0.354 N 
ATOM     57  N   UNL A   1      42.625  27.873  31.084  1.00  0.00    -0.248 NA
ATOM     58  C   UNL A   1      42.483  29.288  29.233  1.00  0.00     0.031 C 
ATOM     59  C   UNL A   1      47.367  26.658  30.634  1.00  0.00     0.029 A 
ATOM     60  C   UNL A   1      46.300  27.556  30.586  1.00  0.00     0.049 A 
ATOM     61  H   UNL A   1      46.426  29.462  29.710  1.00  0.00     0.167 HD
ATOM     62  C   UNL A   1      43.914  28.259  30.745  1.00  0.00     0.074 A 
ATOM     63  C   UNL A   1      43.754  29.190  29.631  1.00  0.00     0.031 C 
ATOM     64  C   UNL A   1      44.994  27.557  31.201  1.00  0.00     0.037 A 
BRANCH  51  65
ATOM     65  C   UNL A   1      47.494  29.735  26.948  1.00  0.00     0.064 A 
ATOM     66  C   UNL A   1      48.696  30.457  27.080  1.00  0.00     0.173 A 
ATOM     67  C   UNL A   1      46.348  30.520  26.680  1.00  0.00     0.173 A 
ATOM     68  F   UNL A   1      49.854  29.820  27.310  1.00  0.00    -0.203 F 
ATOM     69  C   UNL A   1      48.720  31.853  27.097  1.00  0.00     0.198 A 
ATOM     70  C   UNL A   1      46.384  31.911  26.654  1.00  0.00     0.198 A 
ATOM     71  F   UNL A   1      45.124  30.009  26.528  1.00  0.00    -0.203 F 
ATOM     72  F   UNL A   1      49.862  32.491  27.383  1.00  0.00    -0.200 F 
ATOM     73  C   UNL A   1      47.560  32.579  26.905  1.00  0.00     0.200 A 
ATOM     74  F   UNL A   1      45.244  32.592  26.469  1.00  0.00    -0.200 F 
ATOM     75  F   UNL A   1      47.564  33.913  27.003  1.00  0.00    -0.200 F 
ENDBRANCH  51  65
BRANCH  52  76
ATOM     76  C   UNL A   1      39.421  28.008  29.290  1.00  0.00     0.064 A 
ATOM     77  C   UNL A   1      38.528  28.179  30.362  1.00  0.00     0.173 A 
ATOM     78  C   UNL A   1      39.076  28.652  28.085  1.00  0.00     0.173 A 
ATOM     79  F   UNL A   1      38.806  27.644  31.561  1.00  0.00    -0.203 F 
ATOM     80  C   UNL A   1      37.376  28.964  30.243  1.00  0.00     0.198 A 
ATOM     81  C   UNL A   1      37.923  29.428  27.965  1.00  0.00     0.198 A 
ATOM     82  F   UNL A   1      39.900  28.623  27.028  1.00  0.00    -0.203 F 
ATOM     83  F   UNL A   1      36.582  29.154  31.307  1.00  0.00    -0.200 F 
ATOM     84  C   UNL A   1      37.079  29.595  29.047  1.00  0.00     0.200 A 
ATOM     85  F   UNL A   1      37.670  30.068  26.814  1.00  0.00    -0.200 F 
ATOM     86  F   UNL A   1      36.010  30.398  28.949  1.00  0.00    -0.200 F 
ENDBRANCH  52  76
BRANCH  64  87
ATOM     87  C   UNL A   1      44.760  26.554  32.294  1.00  0.00     0.064 A 
ATOM     88  C   UNL A   1      44.660  26.879  33.658  1.00  0.00     0.173 A 
ATOM     89  C   UNL A   1      44.491  25.229  31.923  1.00  0.00     0.173 A 
ATOM     90  F   UNL A   1      44.807  28.142  34.077  1.00  0.00    -0.203 F 
ATOM     91  C   UNL A   1      44.346  25.908  34.609  1.00  0.00     0.198 A 
ATOM     92  C   UNL A   1      44.142  24.272  32.870  1.00  0.00     0.198 A 
ATOM     93  F   UNL A   1      44.521  24.876  30.629  1.00  0.00    -0.203 F 
ATOM     94  F   UNL A   1      44.269  26.237  35.907  1.00  0.00    -0.200 F 
ATOM     95  C   UNL A   1      44.081  24.608  34.212  1.00  0.00     0.200 A 
ATOM     96  F   UNL A   1      43.837  23.028  32.474  1.00  0.00    -0.200 F 
ATOM     97  F   UNL A   1      43.738  23.682  35.120  1.00  0.00    -0.200 F 
ENDBRANCH  64  87
ENDBRANCH  38  39
ENDBRANCH  31  33
ENDBRANCH  30  31
ENDBRANCH  29  30
ENDBRANCH  28  29
ENDBRANCH  27  28
ENDBRANCH   1  27
TORSDOF 19
ENDMDL
MODEL 2
REMARK VINA RESULT:     -11.5      3.543      8.573
REMARK SMILES O=C(CSc1nnc(Cc2ccncc2)n1-c1ccccc1Cl)OCCOCCOC(=O)c1ccc(-c2c3nc(c(-c4c(F)c(F)c(F)c(F)c4F)c4ccc([nH]4)c(-c4c(F)c(F)c(F)c(F)c4F)c4nc(c(-c5c(F)c(F)c(F)c(F)c5F)c5ccc2[nH]5)C=C4)C=C3)cc1
REMARK SMILES IDX 26 1 25 2 24 3 2 4 1 5 3 6 4 7 5 8 6 9 16 10 7 11 8 12 17 13
REMARK SMILES IDX 18 14 22 15 19 16 21 17 23 18 20 19 9 20 10 21 11 22 15 23
REMARK SMILES IDX 12 24 14 25 13 26 27 27 28 28 29 29 30 30 31 31 32 32 33 33
REMARK SMILES IDX 34 34 95 35 35 36 94 37 36 38 37 39 38 40 88 41 39 42 93 43
REMARK SMILES IDX 87 44 89 45 40 46 92 47 86 48 85 49 41 51 73 52 53 53 72 54
REMARK SMILES IDX 54 55 57 56 71 57 90 58 55 59 56 60 70 62 91 63 58 64 42 65
REMARK SMILES IDX 43 66 51 67 44 68 45 69 49 70 52 71 46 72 47 73 50 74 48 75
REMARK SMILES IDX 74 76 75 77 83 78 76 79 77 80 81 81 84 82 78 83 79 84 82 85
REMARK SMILES IDX 80 86 59 87 60 88 68 89 61 90 62 91 66 92 69 93 63 94 64 95
REMARK SMILES IDX 67 96 65 97
REMARK H PARENT 89 50 57 61
REMARK Flexibility Score: inf
ROOT
ATOM      1  C   UNL A   1      31.569  29.634  25.133  1.00  0.00     0.202 C 
ENDROOT
BRANCH   1   2
ATOM      2  C   UNL A   1      30.622  29.090  24.082  1.00  0.00     0.261 C 
BRANCH   2   3
ATOM      3  O   UNL A   1      30.771  27.676  23.870  1.00  0.00    -0.463 OA
BRANCH   3   4
ATOM      4  C   UNL A   1      30.072  26.688  24.475  1.00  0.00     0.316 C 
ATOM      5  O   UNL A   1      29.021  26.319  23.953  1.00  0.00    -0.251 OA
BRANCH   4   6
ATOM      6  C   UNL A   1      30.528  26.112  25.799  1.00  0.00     0.200 C 
BRANCH   6   7
ATOM      7  S   UNL A   1      30.974  24.369  25.755  1.00  0.00    -0.074 SA
BRANCH   7   8
ATOM      8  C   UNL A   1      32.555  24.530  25.099  1.00  0.00     0.196 A 
ATOM      9  N   UNL A   1      33.232  25.648  25.217  1.00  0.00    -0.123 NA
ATOM     10  N   UNL A   1      33.373  23.506  24.661  1.00  0.00    -0.272 N 
ATOM     11  N   UNL A   1      34.500  25.411  24.792  1.00  0.00    -0.134 NA
ATOM     12  C   UNL A   1      34.568  24.157  24.390  1.00  0.00     0.142 A 
BRANCH  10  13
ATOM     13  C   UNL A   1      33.162  22.098  24.654  1.00  0.00     0.068 A 
ATOM     14  C   UNL A   1      32.538  21.543  23.518  1.00  0.00     0.028 A 
ATOM     15  C   UNL A   1      33.535  21.254  25.708  1.00  0.00     0.065 A 
ATOM     16  C   UNL A   1      32.290  20.171  23.439  1.00  0.00     0.002 A 
ATOM     17  C   UNL A   1      33.304  19.873  25.605  1.00  0.00     0.023 A 
ATOM     18  Cl  UNL A   1      34.124  21.820  27.227  1.00  0.00    -0.082 Cl
ATOM     19  C   UNL A   1      32.679  19.334  24.479  1.00  0.00     0.002 A 
ENDBRANCH  10  13
BRANCH  12  20
ATOM     20  C   UNL A   1      35.674  23.610  23.560  1.00  0.00     0.113 C 
BRANCH  20  21
ATOM     21  C   UNL A   1      36.750  23.019  24.440  1.00  0.00    -0.037 A 
ATOM     22  C   UNL A   1      37.054  21.654  24.360  1.00  0.00     0.024 A 
ATOM     23  C   UNL A   1      37.416  23.794  25.391  1.00  0.00     0.024 A 
ATOM     24  C   UNL A   1      38.006  21.131  25.216  1.00  0.00     0.111 A 
ATOM     25  C   UNL A   1      38.363  23.178  26.196  1.00  0.00     0.111 A 
ATOM     26  N   UNL A   1      38.676  21.867  26.127  1.00  0.00    -0.265 NA
ENDBRANCH  20  21
ENDBRANCH  12  20
ENDBRANCH   7   8
ENDBRANCH   6   7
ENDBRANCH   4   6
ENDBRANCH   3   4
ENDBRANCH   2   3
ENDBRANCH   1   2
BRANCH   1  27
ATOM     27  O   UNL A   1      32.957  29.401  24.896  1.00  0.00    -0.374 OA
BRANCH  27  28
ATOM     28  C   UNL A   1      33.811  29.236  26.033  1.00  0.00     0.202 C 
BRANCH  28  29
ATOM     29  C   UNL A   1      33.825  30.372  27.037  1.00  0.00     0.261 C 
BRANCH  29  30
ATOM     30  O   UNL A   1      34.965  30.232  27.861  1.00  0.00    -0.460 OA
BRANCH  30  31
ATOM     31  C   UNL A   1      35.602  31.382  28.178  1.00  0.00     0.338 C 
ATOM     32  O   UNL A   1      35.608  32.427  27.563  1.00  0.00    -0.246 OA
BRANCH  31  33
ATOM     33  C   UNL A   1      36.409  31.097  29.382  1.00  0.00     0.060 A 
ATOM     34  C   UNL A   1      37.558  31.876  29.403  1.00  0.00     0.016 A 
ATOM     35  C   UNL A   1      36.373  29.782  29.872  1.00  0.00     0.016 A 
ATOM     36  C   UNL A   1      38.743  31.194  29.445  1.00  0.00     0.010 A 
ATOM     37  C   UNL A   1      37.555  29.093  29.883  1.00  0.00     0.010 A 
ATOM     38  C   UNL A   1      38.712  29.796  29.561  1.00  0.00    -0.014 A 
BRANCH  38  39
ATOM     39  C   UNL A   1      39.980  29.116  29.570  1.00  0.00     0.031 A 
ATOM     40  C   UNL A   1      40.460  28.994  30.958  1.00  0.00     0.074 A 
ATOM     41  C   UNL A   1      40.586  28.628  28.477  1.00  0.00     0.049 A 
ATOM     42  N   UNL A   1      41.367  29.715  31.524  1.00  0.00    -0.248 NA
ATOM     43  C   UNL A   1      39.637  28.207  31.891  1.00  0.00     0.031 C 
ATOM     44  C   UNL A   1      40.067  28.480  27.119  1.00  0.00     0.029 A 
ATOM     45  N   UNL A   1      41.823  28.069  28.399  1.00  0.00    -0.354 N 
ATOM     46  C   UNL A   1      41.380  29.296  32.847  1.00  0.00     0.074 A 
ATOM     47  C   UNL A   1      40.145  28.598  33.060  1.00  0.00     0.031 C 
ATOM     48  C   UNL A   1      40.892  27.667  26.416  1.00  0.00     0.029 A 
ATOM     49  C   UNL A   1      42.052  27.350  27.233  1.00  0.00     0.049 A 
ATOM     50  H   UNL A   1      42.499  28.167  29.107  1.00  0.00     0.167 HD
ATOM     51  C   UNL A   1      42.555  29.255  33.528  1.00  0.00     0.037 A 
ATOM     52  C   UNL A   1      43.085  26.488  27.048  1.00  0.00     0.037 A 
ATOM     53  C   UNL A   1      43.535  30.108  32.893  1.00  0.00     0.049 A 
ATOM     54  C   UNL A   1      44.128  26.833  28.055  1.00  0.00     0.074 A 
ATOM     55  C   UNL A   1      43.612  31.458  32.605  1.00  0.00     0.029 A 
ATOM     56  N   UNL A   1      44.475  29.502  32.095  1.00  0.00    -0.354 N 
ATOM     57  N   UNL A   1      44.815  27.942  28.031  1.00  0.00    -0.248 NA
ATOM     58  C   UNL A   1      44.057  26.174  29.353  1.00  0.00     0.031 C 
ATOM     59  C   UNL A   1      44.271  31.536  31.341  1.00  0.00     0.029 A 
ATOM     60  C   UNL A   1      44.616  30.241  30.952  1.00  0.00     0.049 A 
ATOM     61  H   UNL A   1      44.964  28.674  32.309  1.00  0.00     0.167 HD
ATOM     62  C   UNL A   1      44.885  28.345  29.357  1.00  0.00     0.074 A 
ATOM     63  C   UNL A   1      44.465  27.180  30.132  1.00  0.00     0.031 C 
ATOM     64  C   UNL A   1      44.986  29.668  29.680  1.00  0.00     0.037 A 
BRANCH  51  65
ATOM     65  C   UNL A   1      42.948  28.091  34.417  1.00  0.00     0.064 A 
ATOM     66  C   UNL A   1      43.282  28.376  35.755  1.00  0.00     0.173 A 
ATOM     67  C   UNL A   1      43.332  26.807  33.962  1.00  0.00     0.173 A 
ATOM     68  F   UNL A   1      42.948  29.551  36.307  1.00  0.00    -0.203 F 
ATOM     69  C   UNL A   1      44.067  27.511  36.519  1.00  0.00     0.198 A 
ATOM     70  C   UNL A   1      44.077  25.929  34.743  1.00  0.00     0.198 A 
ATOM     71  F   UNL A   1      43.103  26.365  32.723  1.00  0.00    -0.203 F 
ATOM     72  F   UNL A   1      44.489  27.897  37.730  1.00  0.00    -0.200 F 
ATOM     73  C   UNL A   1      44.482  26.297  36.005  1.00  0.00     0.200 A 
ATOM     74  F   UNL A   1      44.470  24.759  34.220  1.00  0.00    -0.200 F 
ATOM     75  F   UNL A   1      45.302  25.503  36.703  1.00  0.00    -0.200 F 
ENDBRANCH  51  65
BRANCH  52  76
ATOM     76  C   UNL A   1      43.070  25.183  26.344  1.00  0.00     0.064 A 
ATOM     77  C   UNL A   1      43.992  24.904  25.320  1.00  0.00     0.173 A 
ATOM     78  C   UNL A   1      42.351  24.083  26.850  1.00  0.00     0.173 A 
ATOM     79  F   UNL A   1      44.758  25.884  24.817  1.00  0.00    -0.203 F 
ATOM     80  C   UNL A   1      44.199  23.602  24.849  1.00  0.00     0.198 A 
ATOM     81  C   UNL A   1      42.552  22.786  26.375  1.00  0.00     0.198 A 
ATOM     82  F   UNL A   1      41.510  24.226  27.883  1.00  0.00    -0.203 F 
ATOM     83  F   UNL A   1      45.132  23.367  23.916  1.00  0.00    -0.200 F 
ATOM     84  C   UNL A   1      43.485  22.543  25.384  1.00  0.00     0.200 A 
ATOM     85  F   UNL A   1      41.884  21.765  26.931  1.00  0.00    -0.200 F 
ATOM     86  F   UNL A   1      43.725  21.288  24.979  1.00  0.00    -0.200 F 
ENDBRANCH  52  76
BRANCH  64  87
ATOM     87  C   UNL A   1      45.307  30.631  28.572  1.00  0.00     0.064 A 
ATOM     88  C   UNL A   1      44.353  31.167  27.689  1.00  0.00     0.173 A 
ATOM     89  C   UNL A   1      46.614  31.131  28.494  1.00  0.00     0.173 A 
ATOM     90  F   UNL A   1      43.065  30.811  27.768  1.00  0.00    -0.203 F 
ATOM     91  C   UNL A   1      44.708  32.130  26.744  1.00  0.00     0.198 A 
ATOM     92  C   UNL A   1      46.956  32.118  27.576  1.00  0.00     0.198 A 
ATOM     93  F   UNL A   1      47.552  30.692  29.348  1.00  0.00    -0.203 F 
ATOM     94  F   UNL A   1      43.785  32.619  25.902  1.00  0.00    -0.200 F 
ATOM     95  C   UNL A   1      46.007  32.608  26.694  1.00  0.00     0.200 A 
ATOM     96  F   UNL A   1      48.201  32.613  27.566  1.00  0.00    -0.200 F 
ATOM     97  F   UNL A   1      46.340  33.564  25.814  1.00  0.00    -0.200 F 
ENDBRANCH  64  87
ENDBRANCH  38  39
ENDBRANCH  31  33
ENDBRANCH  30  31
ENDBRANCH  29  30
ENDBRANCH  28  29
ENDBRANCH  27  28
ENDBRANCH   1  27
TORSDOF 19
ENDMDL
MODEL 3
REMARK VINA RESULT:     -11.5      1.334      2.155
REMARK SMILES O=C(CSc1nnc(Cc2ccncc2)n1-c1ccccc1Cl)OCCOCCOC(=O)c1ccc(-c2c3nc(c(-c4c(F)c(F)c(F)c(F)c4F)c4ccc([nH]4)c(-c4c(F)c(F)c(F)c(F)c4F)c4nc(c(-c5c(F)c(F)c(F)c(F)c5F)c5ccc2[nH]5)C=C4)C=C3)cc1
REMARK SMILES IDX 26 1 25 2 24 3 2 4 1 5 3 6 4 7 5 8 6 9 16 10 7 11 8 12 17 13
REMARK SMILES IDX 18 14 22 15 19 16 21 17 23 18 20 19 9 20 10 21 11 22 15 23
REMARK SMILES IDX 12 24 14 25 13 26 27 27 28 28 29 29 30 30 31 31 32 32 33 33
REMARK SMILES IDX 34 34 95 35 35 36 94 37 36 38 37 39 38 40 88 41 39 42 93 43
REMARK SMILES IDX 87 44 89 45 40 46 92 47 86 48 85 49 41 51 73 52 53 53 72 54
REMARK SMILES IDX 54 55 57 56 71 57 90 58 55 59 56 60 70 62 91 63 58 64 42 65
REMARK SMILES IDX 43 66 51 67 44 68 45 69 49 70 52 71 46 72 47 73 50 74 48 75
REMARK SMILES IDX 74 76 75 77 83 78 76 79 77 80 81 81 84 82 78 83 79 84 82 85
REMARK SMILES IDX 80 86 59 87 60 88 68 89 61 90 62 91 66 92 69 93 63 94 64 95
REMARK SMILES IDX 67 96 65 97
REMARK H PARENT 89 50 57 61
REMARK Flexibility Score: inf
ROOT
ATOM      1  C   UNL A   1      41.087  20.278  26.853  1.00  0.00     0.202 C 
ENDROOT
BRANCH   1   2
ATOM      2  C   UNL A   1      40.430  21.465  26.177  1.00  0.00     0.261 C 
BRANCH   2   3
ATOM      3  O   UNL A   1      39.011  21.524  26.404  1.00  0.00    -0.463 OA
BRANCH   3   4
ATOM      4  C   UNL A   1      38.065  21.912  25.517  1.00  0.00     0.316 C 
ATOM      5  O   UNL A   1      37.759  21.129  24.619  1.00  0.00    -0.251 OA
BRANCH   4   6
ATOM      6  C   UNL A   1      37.462  23.299  25.581  1.00  0.00     0.200 C 
BRANCH   6   7
ATOM      7  S   UNL A   1      35.726  23.351  26.056  1.00  0.00    -0.074 SA
BRANCH   7   8
ATOM      8  C   UNL A   1      35.056  23.724  24.518  1.00  0.00     0.196 A 
ATOM      9  N   UNL A   1      35.752  23.574  23.416  1.00  0.00    -0.123 NA
ATOM     10  N   UNL A   1      33.720  23.929  24.230  1.00  0.00    -0.272 N 
ATOM     11  N   UNL A   1      34.907  23.747  22.366  1.00  0.00    -0.134 NA
ATOM     12  C   UNL A   1      33.713  24.031  22.846  1.00  0.00     0.142 A 
BRANCH  10  13
ATOM     13  C   UNL A   1      32.576  23.864  25.075  1.00  0.00     0.068 A 
ATOM     14  C   UNL A   1      31.837  22.663  25.073  1.00  0.00     0.028 A 
ATOM     15  C   UNL A   1      32.156  24.923  25.890  1.00  0.00     0.065 A 
ATOM     16  C   UNL A   1      30.698  22.525  25.870  1.00  0.00     0.002 A 
ATOM     17  C   UNL A   1      31.024  24.762  26.706  1.00  0.00     0.023 A 
ATOM     18  Cl  UNL A   1      32.847  26.502  25.844  1.00  0.00    -0.082 Cl
ATOM     19  C   UNL A   1      30.295  23.571  26.692  1.00  0.00     0.002 A 
ENDBRANCH  10  13
BRANCH  12  20
ATOM     20  C   UNL A   1      32.607  24.606  22.034  1.00  0.00     0.113 C 
BRANCH  20  21
ATOM     21  C   UNL A   1      32.487  26.091  22.285  1.00  0.00    -0.037 A 
ATOM     22  C   UNL A   1      31.230  26.669  22.501  1.00  0.00     0.024 A 
ATOM     23  C   UNL A   1      33.604  26.926  22.242  1.00  0.00     0.024 A 
ATOM     24  C   UNL A   1      31.145  28.039  22.674  1.00  0.00     0.111 A 
ATOM     25  C   UNL A   1      33.417  28.287  22.438  1.00  0.00     0.111 A 
ATOM     26  N   UNL A   1      32.215  28.861  22.658  1.00  0.00    -0.265 NA
ENDBRANCH  20  21
ENDBRANCH  12  20
ENDBRANCH   7   8
ENDBRANCH   6   7
ENDBRANCH   4   6
ENDBRANCH   3   4
ENDBRANCH   2   3
ENDBRANCH   1   2
BRANCH   1  27
ATOM     27  O   UNL A   1      42.481  20.112  26.595  1.00  0.00    -0.374 OA
BRANCH  27  28
ATOM     28  C   UNL A   1      42.889  18.974  25.828  1.00  0.00     0.202 C 
BRANCH  28  29
ATOM     29  C   UNL A   1      44.069  19.177  24.896  1.00  0.00     0.261 C 
BRANCH  29  30
ATOM     30  O   UNL A   1      44.178  20.555  24.600  1.00  0.00    -0.460 OA
BRANCH  30  31
ATOM     31  C   UNL A   1      45.398  21.102  24.805  1.00  0.00     0.338 C 
ATOM     32  O   UNL A   1      46.372  20.587  25.312  1.00  0.00    -0.246 OA
BRANCH  31  33
ATOM     33  C   UNL A   1      45.299  22.516  24.394  1.00  0.00     0.060 A 
ATOM     34  C   UNL A   1      46.330  23.266  24.944  1.00  0.00     0.016 A 
ATOM     35  C   UNL A   1      44.006  23.030  24.199  1.00  0.00     0.016 A 
ATOM     36  C   UNL A   1      45.952  24.317  25.734  1.00  0.00     0.010 A 
ATOM     37  C   UNL A   1      43.621  24.061  25.013  1.00  0.00     0.010 A 
ATOM     38  C   UNL A   1      44.585  24.616  25.848  1.00  0.00    -0.014 A 
BRANCH  38  39
ATOM     39  C   UNL A   1      44.229  25.709  26.712  1.00  0.00     0.031 A 
ATOM     40  C   UNL A   1      45.189  26.813  26.526  1.00  0.00     0.074 A 
ATOM     41  C   UNL A   1      43.154  25.722  27.515  1.00  0.00     0.049 A 
ATOM     42  N   UNL A   1      46.167  27.121  27.308  1.00  0.00    -0.248 NA
ATOM     43  C   UNL A   1      45.255  27.432  25.193  1.00  0.00     0.031 C 
ATOM     44  C   UNL A   1      42.028  24.792  27.569  1.00  0.00     0.029 A 
ATOM     45  N   UNL A   1      42.816  26.671  28.427  1.00  0.00    -0.354 N 
ATOM     46  C   UNL A   1      46.837  28.144  26.652  1.00  0.00     0.074 A 
ATOM     47  C   UNL A   1      46.410  28.091  25.283  1.00  0.00     0.031 C 
ATOM     48  C   UNL A   1      41.030  25.348  28.298  1.00  0.00     0.029 A 
ATOM     49  C   UNL A   1      41.499  26.602  28.861  1.00  0.00     0.049 A 
ATOM     50  H   UNL A   1      43.450  27.349  28.753  1.00  0.00     0.167 HD
ATOM     51  C   UNL A   1      47.397  29.151  27.371  1.00  0.00     0.037 A 
ATOM     52  C   UNL A   1      40.858  27.587  29.544  1.00  0.00     0.037 A 
ATOM     53  C   UNL A   1      47.604  28.736  28.741  1.00  0.00     0.049 A 
ATOM     54  C   UNL A   1      41.908  28.458  30.144  1.00  0.00     0.074 A 
ATOM     55  C   UNL A   1      48.328  27.732  29.358  1.00  0.00     0.029 A 
ATOM     56  N   UNL A   1      46.689  29.161  29.674  1.00  0.00    -0.354 N 
ATOM     57  N   UNL A   1      42.708  28.070  31.099  1.00  0.00    -0.248 NA
ATOM     58  C   UNL A   1      42.389  29.581  29.349  1.00  0.00     0.031 C 
ATOM     59  C   UNL A   1      47.522  27.307  30.456  1.00  0.00     0.029 A 
ATOM     60  C   UNL A   1      46.381  28.109  30.492  1.00  0.00     0.049 A 
ATOM     61  H   UNL A   1      46.316  30.070  29.741  1.00  0.00     0.167 HD
ATOM     62  C   UNL A   1      43.949  28.588  30.755  1.00  0.00     0.074 A 
ATOM     63  C   UNL A   1      43.676  29.569  29.709  1.00  0.00     0.031 C 
ATOM     64  C   UNL A   1      45.099  27.956  31.137  1.00  0.00     0.037 A 
BRANCH  51  65
ATOM     65  C   UNL A   1      47.273  30.610  26.977  1.00  0.00     0.064 A 
ATOM     66  C   UNL A   1      48.420  31.419  27.101  1.00  0.00     0.173 A 
ATOM     67  C   UNL A   1      46.057  31.314  26.815  1.00  0.00     0.173 A 
ATOM     68  F   UNL A   1      49.634  30.866  27.236  1.00  0.00    -0.203 F 
ATOM     69  C   UNL A   1      48.334  32.808  27.209  1.00  0.00     0.198 A 
ATOM     70  C   UNL A   1      45.981  32.702  26.878  1.00  0.00     0.198 A 
ATOM     71  F   UNL A   1      44.871  30.714  26.686  1.00  0.00    -0.203 F 
ATOM     72  F   UNL A   1      49.435  33.519  27.483  1.00  0.00    -0.200 F 
ATOM     73  C   UNL A   1      47.112  33.446  27.118  1.00  0.00     0.200 A 
ATOM     74  F   UNL A   1      44.783  33.297  26.790  1.00  0.00    -0.200 F 
ATOM     75  F   UNL A   1      47.016  34.768  27.303  1.00  0.00    -0.200 F 
ENDBRANCH  51  65
BRANCH  52  76
ATOM     76  C   UNL A   1      39.452  28.036  29.396  1.00  0.00     0.064 A 
ATOM     77  C   UNL A   1      38.613  28.164  30.516  1.00  0.00     0.173 A 
ATOM     78  C   UNL A   1      38.990  28.623  28.202  1.00  0.00     0.173 A 
ATOM     79  F   UNL A   1      38.999  27.681  31.706  1.00  0.00    -0.203 F 
ATOM     80  C   UNL A   1      37.399  28.857  30.450  1.00  0.00     0.198 A 
ATOM     81  C   UNL A   1      37.776  29.307  28.135  1.00  0.00     0.198 A 
ATOM     82  F   UNL A   1      39.752  28.630  27.098  1.00  0.00    -0.203 F 
ATOM     83  F   UNL A   1      36.656  29.013  31.555  1.00  0.00    -0.200 F 
ATOM     84  C   UNL A   1      36.986  29.436  29.262  1.00  0.00     0.200 A 
ATOM     85  F   UNL A   1      37.410  29.898  26.989  1.00  0.00    -0.200 F 
ATOM     86  F   UNL A   1      35.855  30.153  29.212  1.00  0.00    -0.200 F 
ENDBRANCH  52  76
BRANCH  64  87
ATOM     87  C   UNL A   1      44.985  26.869  32.168  1.00  0.00     0.064 A 
ATOM     88  C   UNL A   1      44.984  27.092  33.556  1.00  0.00     0.173 A 
ATOM     89  C   UNL A   1      44.728  25.566  31.722  1.00  0.00     0.173 A 
ATOM     90  F   UNL A   1      45.125  28.326  34.056  1.00  0.00    -0.203 F 
ATOM     91  C   UNL A   1      44.778  26.044  34.454  1.00  0.00     0.198 A 
ATOM     92  C   UNL A   1      44.486  24.530  32.619  1.00  0.00     0.198 A 
ATOM     93  F   UNL A   1      44.665  25.307  30.406  1.00  0.00    -0.203 F 
ATOM     94  F   UNL A   1      44.795  26.276  35.775  1.00  0.00    -0.200 F 
ATOM     95  C   UNL A   1      44.523  24.767  33.983  1.00  0.00     0.200 A 
ATOM     96  F   UNL A   1      44.189  23.308  32.156  1.00  0.00    -0.200 F 
ATOM     97  F   UNL A   1      44.284  23.767  34.843  1.00  0.00    -0.200 F 
ENDBRANCH  64  87
ENDBRANCH  38  39
ENDBRANCH  31  33
ENDBRANCH  30  31
ENDBRANCH  29  30
ENDBRANCH  28  29
ENDBRANCH  27  28
ENDBRANCH   1  27
TORSDOF 19
ENDMDL
