MODEL 1
REMARK VINA RESULT:     -14.6      0.000      0.000
REMARK SMILES Cc1ccc(-c2cc(Cl)cc3c2O[C@H](C(F)(F)F)C(C(=O)OCCOCCOC(=O)c2ccc(-c4c5nc(c(-c6c(F)c(F)c(F)c(F)c6F)c6ccc([nH]6)c(-c6c(F)c(F)c(F)c(F)c6F)c6nc(c(-c7c(F)c(F)c(F)c(F)c7F)c7ccc4[nH]7)C=C6)C=C5)cc2)=C3)cc1F
REMARK SMILES IDX 26 1 25 2 24 3 23 4 22 5 20 6 21 7 19 8 6 9 7 10 12 11 8 12
REMARK SMILES IDX 11 13 13 14 9 15 10 16 94 17 14 18 5 19 1 20 2 21 3 22 96 23
REMARK SMILES IDX 4 24 95 25 97 26 15 27 16 28 17 29 18 30 27 31 28 32 29 33
REMARK SMILES IDX 30 34 31 35 32 36 93 37 33 38 92 39 34 40 35 41 36 42 86 43
REMARK SMILES IDX 37 44 91 45 85 46 87 47 38 48 90 49 84 50 83 51 39 53 71 54
REMARK SMILES IDX 51 55 70 56 52 57 55 58 69 59 88 60 53 61 54 62 68 64 89 65
REMARK SMILES IDX 56 66 40 67 41 68 49 69 42 70 43 71 47 72 50 73 44 74 45 75
REMARK SMILES IDX 48 76 46 77 72 78 73 79 81 80 74 81 75 82 79 83 82 84 76 85
REMARK SMILES IDX 77 86 80 87 78 88 57 89 58 90 66 91 59 92 60 93 64 94 67 95
REMARK SMILES IDX 61 96 62 97 65 98 63 99
REMARK H PARENT 87 52 55 63
REMARK Flexibility Score: inf
ROOT
ATOM      1  C   UNL A   1      32.943  30.351  26.417  1.00  0.00     0.202 C 
ENDROOT
BRANCH   1   2
ATOM      2  O   UNL A   1      32.184  29.137  26.415  1.00  0.00    -0.374 OA
BRANCH   2   3
ATOM      3  C   UNL A   1      31.363  28.842  25.305  1.00  0.00     0.202 C 
BRANCH   3   4
ATOM      4  C   UNL A   1      31.158  27.274  24.980  1.00  0.00     0.261 C 
BRANCH   4   5
ATOM      5  O   UNL A   1      32.358  26.092  23.859  1.00  0.00    -0.460 OA
BRANCH   5   6
ATOM      6  C   UNL A   1      33.415  25.417  23.216  1.00  0.00     0.338 C 
ATOM      7  O   UNL A   1      33.921  25.709  22.139  1.00  0.00    -0.246 OA
BRANCH   6   8
ATOM      8  C   UNL A   1      33.956  24.318  24.041  1.00  0.00     0.087 C 
ATOM      9  C   UNL A   1      35.759  20.799  25.164  1.00  0.00     0.026 A 
ATOM     10  C   UNL A   1      37.127  20.782  25.449  1.00  0.00     0.033 A 
ATOM     11  C   UNL A   1      35.114  22.045  25.035  1.00  0.00     0.135 A 
ATOM     12  C   UNL A   1      37.820  21.988  25.595  1.00  0.00     0.042 A 
ATOM     13  C   UNL A   1      35.826  23.244  25.069  1.00  0.00     0.019 A 
ATOM     14  O   UNL A   1      33.752  22.012  24.878  1.00  0.00    -0.475 OA
ATOM     15  Cl  UNL A   1      39.509  21.962  25.929  1.00  0.00    -0.084 Cl
ATOM     16  C   UNL A   1      37.181  23.217  25.401  1.00  0.00     0.032 A 
ATOM     17  C   UNL A   1      35.186  24.453  24.566  1.00  0.00     0.027 C 
ATOM     18  C   UNL A   1      33.136  23.063  24.116  1.00  0.00     0.316 C 
BRANCH   9  19
ATOM     19  C   UNL A   1      34.990  19.587  24.850  1.00  0.00    -0.012 A 
ATOM     20  C   UNL A   1      32.953  15.794  25.037  1.00  0.00     0.047 C 
ATOM     21  C   UNL A   1      33.630  17.119  24.863  1.00  0.00    -0.015 A 
ATOM     22  C   UNL A   1      34.916  17.220  24.316  1.00  0.00     0.007 A 
ATOM     23  C   UNL A   1      33.012  18.272  25.338  1.00  0.00     0.126 A 
ATOM     24  C   UNL A   1      35.592  18.447  24.307  1.00  0.00     0.009 A 
ATOM     25  C   UNL A   1      33.664  19.495  25.312  1.00  0.00     0.048 A 
ATOM     26  F   UNL A   1      31.795  18.202  25.898  1.00  0.00    -0.207 F 
ENDBRANCH   9  19
BRANCH  18  27
ATOM     27  C   UNL A   1      32.684  22.523  22.755  1.00  0.00     0.430 C 
ATOM     28  F   UNL A   1      31.498  23.061  22.388  1.00  0.00    -0.167 F 
ATOM     29  F   UNL A   1      33.570  22.859  21.786  1.00  0.00    -0.167 F 
ATOM     30  F   UNL A   1      32.551  21.182  22.757  1.00  0.00    -0.167 F 
ENDBRANCH  18  27
ENDBRANCH   6   8
ENDBRANCH   5   6
ENDBRANCH   4   5
ENDBRANCH   3   4
ENDBRANCH   2   3
ENDBRANCH   1   2
BRANCH   1  31
ATOM     31  C   UNL A   1      33.754  30.913  27.621  1.00  0.00     0.261 C 
BRANCH  31  32
ATOM     32  O   UNL A   1      35.158  30.641  27.607  1.00  0.00    -0.460 OA
BRANCH  32  33
ATOM     33  C   UNL A   1      35.851  30.797  28.757  1.00  0.00     0.338 C 
ATOM     34  O   UNL A   1      35.498  31.393  29.756  1.00  0.00    -0.246 OA
BRANCH  33  35
ATOM     35  C   UNL A   1      36.918  29.767  28.710  1.00  0.00     0.060 A 
ATOM     36  C   UNL A   1      37.315  29.034  29.844  1.00  0.00     0.016 A 
ATOM     37  C   UNL A   1      37.735  29.819  27.578  1.00  0.00     0.016 A 
ATOM     38  C   UNL A   1      38.587  28.445  29.874  1.00  0.00     0.010 A 
ATOM     39  C   UNL A   1      39.005  29.255  27.623  1.00  0.00     0.010 A 
ATOM     40  C   UNL A   1      39.452  28.607  28.783  1.00  0.00    -0.014 A 
BRANCH  40  41
ATOM     41  C   UNL A   1      40.822  28.088  28.768  1.00  0.00     0.031 A 
ATOM     42  C   UNL A   1      41.056  26.684  28.375  1.00  0.00     0.074 A 
ATOM     43  C   UNL A   1      41.907  28.840  29.073  1.00  0.00     0.049 A 
ATOM     44  N   UNL A   1      42.000  25.940  28.850  1.00  0.00    -0.248 NA
ATOM     45  C   UNL A   1      40.224  26.020  27.380  1.00  0.00     0.031 C 
ATOM     46  C   UNL A   1      43.313  28.456  28.943  1.00  0.00     0.029 A 
ATOM     47  N   UNL A   1      41.964  30.041  29.794  1.00  0.00    -0.354 N 
ATOM     48  C   UNL A   1      42.128  24.878  27.988  1.00  0.00     0.074 A 
ATOM     49  C   UNL A   1      40.932  24.905  27.169  1.00  0.00     0.031 C 
ATOM     50  C   UNL A   1      44.029  29.145  29.845  1.00  0.00     0.029 A 
ATOM     51  C   UNL A   1      43.092  29.919  30.645  1.00  0.00     0.049 A 
ATOM     52  H   UNL A   1      41.350  30.808  29.724  1.00  0.00     0.167 HD
ATOM     53  C   UNL A   1      43.308  24.197  27.902  1.00  0.00     0.037 A 
ATOM     54  C   UNL A   1      42.981  29.881  32.004  1.00  0.00     0.037 A 
ATOM     55  C   UNL A   1      44.319  24.674  28.843  1.00  0.00     0.049 A 
ATOM     56  C   UNL A   1      43.545  28.615  32.645  1.00  0.00     0.074 A 
ATOM     57  C   UNL A   1      45.485  25.415  28.728  1.00  0.00     0.029 A 
ATOM     58  N   UNL A   1      44.048  24.622  30.202  1.00  0.00    -0.354 N 
ATOM     59  N   UNL A   1      43.990  27.591  31.969  1.00  0.00    -0.248 NA
ATOM     60  C   UNL A   1      43.581  28.361  34.088  1.00  0.00     0.031 C 
ATOM     61  C   UNL A   1      45.930  25.775  30.027  1.00  0.00     0.029 A 
ATOM     62  C   UNL A   1      45.009  25.290  30.932  1.00  0.00     0.049 A 
ATOM     63  H   UNL A   1      43.269  24.166  30.596  1.00  0.00     0.167 HD
ATOM     64  C   UNL A   1      44.363  26.586  32.825  1.00  0.00     0.074 A 
ATOM     65  C   UNL A   1      44.074  27.108  34.145  1.00  0.00     0.031 C 
ATOM     66  C   UNL A   1      44.871  25.401  32.373  1.00  0.00     0.037 A 
BRANCH  53  67
ATOM     67  C   UNL A   1      43.583  23.300  26.723  1.00  0.00     0.064 A 
ATOM     68  C   UNL A   1      43.132  21.968  26.680  1.00  0.00     0.173 A 
ATOM     69  C   UNL A   1      44.374  23.704  25.632  1.00  0.00     0.173 A 
ATOM     70  F   UNL A   1      42.301  21.473  27.602  1.00  0.00    -0.203 F 
ATOM     71  C   UNL A   1      43.543  21.074  25.690  1.00  0.00     0.198 A 
ATOM     72  C   UNL A   1      44.829  22.797  24.671  1.00  0.00     0.198 A 
ATOM     73  F   UNL A   1      44.731  24.989  25.484  1.00  0.00    -0.203 F 
ATOM     74  F   UNL A   1      43.101  19.809  25.715  1.00  0.00    -0.200 F 
ATOM     75  C   UNL A   1      44.426  21.477  24.710  1.00  0.00     0.200 A 
ATOM     76  F   UNL A   1      45.684  23.205  23.722  1.00  0.00    -0.200 F 
ATOM     77  F   UNL A   1      44.877  20.599  23.804  1.00  0.00    -0.200 F 
ENDBRANCH  53  67
BRANCH  54  78
ATOM     78  C   UNL A   1      41.859  30.698  32.547  1.00  0.00     0.064 A 
ATOM     79  C   UNL A   1      41.968  32.514  32.498  1.00  0.00     0.173 A 
ATOM     80  C   UNL A   1      40.258  29.923  32.846  1.00  0.00     0.173 A 
ATOM     81  F   UNL A   1      43.126  33.104  32.175  1.00  0.00    -0.203 F 
ATOM     82  C   UNL A   1      40.475  33.533  32.682  1.00  0.00     0.198 A 
ATOM     83  C   UNL A   1      38.770  30.925  33.013  1.00  0.00     0.198 A 
ATOM     84  F   UNL A   1      40.143  28.591  32.789  1.00  0.00    -0.203 F 
ATOM     85  F   UNL A   1      40.556  34.867  32.622  1.00  0.00    -0.200 F 
ATOM     86  C   UNL A   1      38.870  32.736  32.963  1.00  0.00     0.200 A 
ATOM     87  F   UNL A   1      37.582  30.326  33.157  1.00  0.00    -0.200 F 
ATOM     88  F   UNL A   1      37.760  33.464  33.127  1.00  0.00    -0.200 F 
ENDBRANCH  54  78
BRANCH  66  89
ATOM     89  C   UNL A   1      45.366  24.257  33.215  1.00  0.00     0.064 A 
ATOM     90  C   UNL A   1      44.586  23.129  33.505  1.00  0.00     0.173 A 
ATOM     91  C   UNL A   1      46.585  24.368  33.927  1.00  0.00     0.173 A 
ATOM     92  F   UNL A   1      43.391  22.955  32.921  1.00  0.00    -0.203 F 
ATOM     93  C   UNL A   1      44.997  22.176  34.444  1.00  0.00     0.198 A 
ATOM     94  C   UNL A   1      46.970  23.441  34.893  1.00  0.00     0.198 A 
ATOM     95  F   UNL A   1      47.433  25.381  33.697  1.00  0.00    -0.203 F 
ATOM     96  F   UNL A   1      44.230  21.102  34.683  1.00  0.00    -0.200 F 
ATOM     97  C   UNL A   1      46.177  22.341  35.150  1.00  0.00     0.200 A 
ATOM     98  F   UNL A   1      48.106  23.628  35.581  1.00  0.00    -0.200 F 
ATOM     99  F   UNL A   1      46.547  21.448  36.078  1.00  0.00    -0.200 F 
ENDBRANCH  66  89
ENDBRANCH  40  41
ENDBRANCH  33  35
ENDBRANCH  32  33
ENDBRANCH  31  32
ENDBRANCH   1  31
TORSDOF 16
ENDMDL
MODEL 2
REMARK VINA RESULT:     -14.2      3.903     10.589
REMARK SMILES Cc1ccc(-c2cc(Cl)cc3c2O[C@H](C(F)(F)F)C(C(=O)OCCOCCOC(=O)c2ccc(-c4c5nc(c(-c6c(F)c(F)c(F)c(F)c6F)c6ccc([nH]6)c(-c6c(F)c(F)c(F)c(F)c6F)c6nc(c(-c7c(F)c(F)c(F)c(F)c7F)c7ccc4[nH]7)C=C6)C=C5)cc2)=C3)cc1F
REMARK SMILES IDX 26 1 25 2 24 3 23 4 22 5 20 6 21 7 19 8 6 9 7 10 12 11 8 12
REMARK SMILES IDX 11 13 13 14 9 15 10 16 94 17 14 18 5 19 1 20 2 21 3 22 96 23
REMARK SMILES IDX 4 24 95 25 97 26 15 27 16 28 17 29 18 30 27 31 28 32 29 33
REMARK SMILES IDX 30 34 31 35 32 36 93 37 33 38 92 39 34 40 35 41 36 42 86 43
REMARK SMILES IDX 37 44 91 45 85 46 87 47 38 48 90 49 84 50 83 51 39 53 71 54
REMARK SMILES IDX 51 55 70 56 52 57 55 58 69 59 88 60 53 61 54 62 68 64 89 65
REMARK SMILES IDX 56 66 40 67 41 68 49 69 42 70 43 71 47 72 50 73 44 74 45 75
REMARK SMILES IDX 48 76 46 77 72 78 73 79 81 80 74 81 75 82 79 83 82 84 76 85
REMARK SMILES IDX 77 86 80 87 78 88 57 89 58 90 66 91 59 92 60 93 64 94 67 95
REMARK SMILES IDX 61 96 62 97 65 98 63 99
REMARK H PARENT 87 52 55 63
REMARK Flexibility Score: inf
ROOT
ATOM      1  C   UNL A   1      36.863  22.594  25.361  1.00  0.00     0.202 C 
ENDROOT
BRANCH   1   2
ATOM      2  O   UNL A   1      36.082  21.511  25.878  1.00  0.00    -0.374 OA
BRANCH   2   3
ATOM      3  C   UNL A   1      35.301  20.741  24.989  1.00  0.00     0.202 C 
BRANCH   3   4
ATOM      4  C   UNL A   1      33.838  21.331  24.646  1.00  0.00     0.261 C 
BRANCH   4   5
ATOM      5  O   UNL A   1      32.976  22.989  25.422  1.00  0.00    -0.460 OA
BRANCH   5   6
ATOM      6  C   UNL A   1      32.354  23.976  26.211  1.00  0.00     0.338 C 
ATOM      7  O   UNL A   1      31.695  23.793  27.228  1.00  0.00    -0.246 OA
BRANCH   6   8
ATOM      8  C   UNL A   1      32.657  25.341  25.734  1.00  0.00     0.087 C 
ATOM      9  C   UNL A   1      32.354  29.367  24.963  1.00  0.00     0.026 A 
ATOM     10  C   UNL A   1      32.903  30.287  25.861  1.00  0.00     0.033 A 
ATOM     11  C   UNL A   1      32.688  28.006  25.107  1.00  0.00     0.135 A 
ATOM     12  C   UNL A   1      33.759  29.843  26.873  1.00  0.00     0.042 A 
ATOM     13  C   UNL A   1      33.450  27.550  26.182  1.00  0.00     0.019 A 
ATOM     14  O   UNL A   1      32.225  27.160  24.132  1.00  0.00    -0.475 OA
ATOM     15  Cl  UNL A   1      34.418  30.978  27.987  1.00  0.00    -0.084 Cl
ATOM     16  C   UNL A   1      34.031  28.481  27.044  1.00  0.00     0.032 A 
ATOM     17  C   UNL A   1      33.450  26.124  26.486  1.00  0.00     0.027 C 
ATOM     18  C   UNL A   1      31.936  25.802  24.501  1.00  0.00     0.316 C 
BRANCH   9  19
ATOM     19  C   UNL A   1      31.334  29.727  23.969  1.00  0.00    -0.012 A 
ATOM     20  C   UNL A   1      27.719  30.010  21.640  1.00  0.00     0.047 C 
ATOM     21  C   UNL A   1      29.020  29.990  22.381  1.00  0.00    -0.015 A 
ATOM     22  C   UNL A   1      30.107  29.226  21.934  1.00  0.00     0.007 A 
ATOM     23  C   UNL A   1      29.131  30.669  23.591  1.00  0.00     0.126 A 
ATOM     24  C   UNL A   1      31.259  29.097  22.722  1.00  0.00     0.009 A 
ATOM     25  C   UNL A   1      30.276  30.565  24.366  1.00  0.00     0.048 A 
ATOM     26  F   UNL A   1      28.095  31.379  24.062  1.00  0.00    -0.207 F 
ENDBRANCH   9  19
BRANCH  18  27
ATOM     27  C   UNL A   1      30.420  25.584  24.540  1.00  0.00     0.430 C 
ATOM     28  F   UNL A   1      29.906  25.947  25.738  1.00  0.00    -0.167 F 
ATOM     29  F   UNL A   1      29.799  26.351  23.612  1.00  0.00    -0.167 F 
ATOM     30  F   UNL A   1      30.084  24.298  24.314  1.00  0.00    -0.167 F 
ENDBRANCH  18  27
ENDBRANCH   6   8
ENDBRANCH   5   6
ENDBRANCH   4   5
ENDBRANCH   3   4
ENDBRANCH   2   3
ENDBRANCH   1   2
BRANCH   1  31
ATOM     31  C   UNL A   1      37.410  23.795  26.187  1.00  0.00     0.261 C 
BRANCH  31  32
ATOM     32  O   UNL A   1      38.750  24.196  25.890  1.00  0.00    -0.460 OA
BRANCH  32  33
ATOM     33  C   UNL A   1      39.637  24.264  26.907  1.00  0.00     0.338 C 
ATOM     34  O   UNL A   1      40.561  23.508  27.133  1.00  0.00    -0.246 OA
BRANCH  33  35
ATOM     35  C   UNL A   1      39.518  25.647  27.433  1.00  0.00     0.060 A 
ATOM     36  C   UNL A   1      40.083  26.758  26.779  1.00  0.00     0.016 A 
ATOM     37  C   UNL A   1      39.131  25.735  28.773  1.00  0.00     0.016 A 
ATOM     38  C   UNL A   1      40.356  27.923  27.510  1.00  0.00     0.010 A 
ATOM     39  C   UNL A   1      39.427  26.883  29.498  1.00  0.00     0.010 A 
ATOM     40  C   UNL A   1      40.079  27.962  28.884  1.00  0.00    -0.014 A 
BRANCH  40  41
ATOM     41  C   UNL A   1      40.404  29.112  29.731  1.00  0.00     0.031 A 
ATOM     42  C   UNL A   1      39.385  30.157  29.947  1.00  0.00     0.074 A 
ATOM     43  C   UNL A   1      41.596  29.262  30.358  1.00  0.00     0.049 A 
ATOM     44  N   UNL A   1      39.649  31.411  30.118  1.00  0.00    -0.248 NA
ATOM     45  C   UNL A   1      37.964  29.840  30.004  1.00  0.00     0.031 C 
ATOM     46  C   UNL A   1      41.957  30.290  31.334  1.00  0.00     0.029 A 
ATOM     47  N   UNL A   1      42.822  28.647  30.066  1.00  0.00    -0.354 N 
ATOM     48  C   UNL A   1      38.519  31.975  30.659  1.00  0.00     0.074 A 
ATOM     49  C   UNL A   1      37.469  30.998  30.454  1.00  0.00     0.031 C 
ATOM     50  C   UNL A   1      43.282  30.492  31.271  1.00  0.00     0.029 A 
ATOM     51  C   UNL A   1      43.797  29.669  30.187  1.00  0.00     0.049 A 
ATOM     52  H   UNL A   1      42.973  27.703  29.828  1.00  0.00     0.167 HD
ATOM     53  C   UNL A   1      38.606  33.116  31.403  1.00  0.00     0.037 A 
ATOM     54  C   UNL A   1      44.524  30.115  29.123  1.00  0.00     0.037 A 
ATOM     55  C   UNL A   1      39.962  33.655  31.477  1.00  0.00     0.049 A 
ATOM     56  C   UNL A   1      44.367  31.606  28.834  1.00  0.00     0.074 A 
ATOM     57  C   UNL A   1      40.937  33.711  32.461  1.00  0.00     0.029 A 
ATOM     58  N   UNL A   1      40.602  34.022  30.303  1.00  0.00    -0.354 N 
ATOM     59  N   UNL A   1      43.526  32.385  29.459  1.00  0.00    -0.248 NA
ATOM     60  C   UNL A   1      45.077  32.325  27.773  1.00  0.00     0.031 C 
ATOM     61  C   UNL A   1      42.155  34.147  31.876  1.00  0.00     0.029 A 
ATOM     62  C   UNL A   1      41.932  34.316  30.526  1.00  0.00     0.049 A 
ATOM     63  H   UNL A   1      40.164  34.068  29.422  1.00  0.00     0.167 HD
ATOM     64  C   UNL A   1      43.571  33.649  28.928  1.00  0.00     0.074 A 
ATOM     65  C   UNL A   1      44.547  33.561  27.862  1.00  0.00     0.031 C 
ATOM     66  C   UNL A   1      42.789  34.663  29.408  1.00  0.00     0.037 A 
BRANCH  53  67
ATOM     67  C   UNL A   1      37.466  33.527  32.299  1.00  0.00     0.064 A 
ATOM     68  C   UNL A   1      36.340  34.212  31.804  1.00  0.00     0.173 A 
ATOM     69  C   UNL A   1      37.487  33.330  33.692  1.00  0.00     0.173 A 
ATOM     70  F   UNL A   1      36.142  34.393  30.495  1.00  0.00    -0.203 F 
ATOM     71  C   UNL A   1      35.376  34.766  32.646  1.00  0.00     0.198 A 
ATOM     72  C   UNL A   1      36.551  33.931  34.539  1.00  0.00     0.198 A 
ATOM     73  F   UNL A   1      38.426  32.559  34.260  1.00  0.00    -0.203 F 
ATOM     74  F   UNL A   1      34.339  35.431  32.118  1.00  0.00    -0.200 F 
ATOM     75  C   UNL A   1      35.504  34.663  34.016  1.00  0.00     0.200 A 
ATOM     76  F   UNL A   1      36.687  33.818  35.868  1.00  0.00    -0.200 F 
ATOM     77  F   UNL A   1      34.617  35.259  34.824  1.00  0.00    -0.200 F 
ENDBRANCH  53  67
BRANCH  54  78
ATOM     78  C   UNL A   1      44.824  29.066  28.107  1.00  0.00     0.064 A 
ATOM     79  C   UNL A   1      45.992  27.731  28.516  1.00  0.00     0.173 A 
ATOM     80  C   UNL A   1      43.740  28.875  26.678  1.00  0.00     0.173 A 
ATOM     81  F   UNL A   1      46.730  27.810  29.630  1.00  0.00    -0.203 F 
ATOM     82  C   UNL A   1      46.021  26.200  27.539  1.00  0.00     0.198 A 
ATOM     83  C   UNL A   1      43.750  27.353  25.714  1.00  0.00     0.198 A 
ATOM     84  F   UNL A   1      42.809  29.802  26.421  1.00  0.00    -0.203 F 
ATOM     85  F   UNL A   1      46.865  25.212  27.856  1.00  0.00    -0.200 F 
ATOM     86  C   UNL A   1      44.911  26.017  26.117  1.00  0.00     0.200 A 
ATOM     87  F   UNL A   1      42.883  27.203  24.705  1.00  0.00    -0.200 F 
ATOM     88  F   UNL A   1      44.930  24.911  25.365  1.00  0.00    -0.200 F 
ENDBRANCH  54  78
BRANCH  66  89
ATOM     89  C   UNL A   1      42.796  36.095  28.947  1.00  0.00     0.064 A 
ATOM     90  C   UNL A   1      42.004  36.560  27.888  1.00  0.00     0.173 A 
ATOM     91  C   UNL A   1      43.767  37.000  29.439  1.00  0.00     0.173 A 
ATOM     92  F   UNL A   1      41.088  35.763  27.318  1.00  0.00    -0.203 F 
ATOM     93  C   UNL A   1      42.172  37.844  27.357  1.00  0.00     0.198 A 
ATOM     94  C   UNL A   1      43.962  38.261  28.879  1.00  0.00     0.198 A 
ATOM     95  F   UNL A   1      44.549  36.681  30.481  1.00  0.00    -0.203 F 
ATOM     96  F   UNL A   1      41.384  38.258  26.354  1.00  0.00    -0.200 F 
ATOM     97  C   UNL A   1      43.160  38.686  27.839  1.00  0.00     0.200 A 
ATOM     98  F   UNL A   1      44.936  39.055  29.345  1.00  0.00    -0.200 F 
ATOM     99  F   UNL A   1      43.345  39.899  27.300  1.00  0.00    -0.200 F 
ENDBRANCH  66  89
ENDBRANCH  40  41
ENDBRANCH  33  35
ENDBRANCH  32  33
ENDBRANCH  31  32
ENDBRANCH   1  31
TORSDOF 16
ENDMDL
MODEL 3
REMARK VINA RESULT:     -14.2      1.740      2.696
REMARK SMILES Cc1ccc(-c2cc(Cl)cc3c2O[C@H](C(F)(F)F)C(C(=O)OCCOCCOC(=O)c2ccc(-c4c5nc(c(-c6c(F)c(F)c(F)c(F)c6F)c6ccc([nH]6)c(-c6c(F)c(F)c(F)c(F)c6F)c6nc(c(-c7c(F)c(F)c(F)c(F)c7F)c7ccc4[nH]7)C=C6)C=C5)cc2)=C3)cc1F
REMARK SMILES IDX 26 1 25 2 24 3 23 4 22 5 20 6 21 7 19 8 6 9 7 10 12 11 8 12
REMARK SMILES IDX 11 13 13 14 9 15 10 16 94 17 14 18 5 19 1 20 2 21 3 22 96 23
REMARK SMILES IDX 4 24 95 25 97 26 15 27 16 28 17 29 18 30 27 31 28 32 29 33
REMARK SMILES IDX 30 34 31 35 32 36 93 37 33 38 92 39 34 40 35 41 36 42 86 43
REMARK SMILES IDX 37 44 91 45 85 46 87 47 38 48 90 49 84 50 83 51 39 53 71 54
REMARK SMILES IDX 51 55 70 56 52 57 55 58 69 59 88 60 53 61 54 62 68 64 89 65
REMARK SMILES IDX 56 66 40 67 41 68 49 69 42 70 43 71 47 72 50 73 44 74 45 75
REMARK SMILES IDX 48 76 46 77 72 78 73 79 81 80 74 81 75 82 79 83 82 84 76 85
REMARK SMILES IDX 77 86 80 87 78 88 57 89 58 90 66 91 59 92 60 93 64 94 67 95
REMARK SMILES IDX 61 96 62 97 65 98 63 99
REMARK H PARENT 87 52 55 63
REMARK Flexibility Score: inf
ROOT
ATOM      1  C   UNL A   1      32.952  30.001  26.283  1.00  0.00     0.202 C 
ENDROOT
BRANCH   1   2
ATOM      2  O   UNL A   1      32.113  29.006  25.686  1.00  0.00    -0.374 OA
BRANCH   2   3
ATOM      3  C   UNL A   1      31.784  29.116  24.318  1.00  0.00     0.202 C 
BRANCH   3   4
ATOM      4  C   UNL A   1      31.266  27.761  23.608  1.00  0.00     0.261 C 
BRANCH   4   5
ATOM      5  O   UNL A   1      31.080  25.932  24.455  1.00  0.00    -0.460 OA
BRANCH   5   6
ATOM      6  C   UNL A   1      31.093  24.787  25.275  1.00  0.00     0.338 C 
ATOM      7  O   UNL A   1      30.388  24.583  26.257  1.00  0.00    -0.246 OA
BRANCH   6   8
ATOM      8  C   UNL A   1      32.018  23.753  24.770  1.00  0.00     0.087 C 
ATOM      9  C   UNL A   1      34.873  20.800  24.627  1.00  0.00     0.026 A 
ATOM     10  C   UNL A   1      34.487  19.458  24.700  1.00  0.00     0.033 A 
ATOM     11  C   UNL A   1      33.879  21.775  24.419  1.00  0.00     0.135 A 
ATOM     12  C   UNL A   1      33.137  19.117  24.570  1.00  0.00     0.042 A 
ATOM     13  C   UNL A   1      32.524  21.447  24.402  1.00  0.00     0.019 A 
ATOM     14  O   UNL A   1      34.318  23.061  24.232  1.00  0.00    -0.475 OA
ATOM     15  Cl  UNL A   1      32.664  17.465  24.679  1.00  0.00    -0.084 Cl
ATOM     16  C   UNL A   1      32.153  20.102  24.429  1.00  0.00     0.032 A 
ATOM     17  C   UNL A   1      31.543  22.513  24.559  1.00  0.00     0.027 C 
ATOM     18  C   UNL A   1      33.466  24.133  24.664  1.00  0.00     0.316 C 
BRANCH   9  19
ATOM     19  C   UNL A   1      36.243  21.256  24.900  1.00  0.00    -0.012 A 
ATOM     20  C   UNL A   1      40.080  22.040  26.699  1.00  0.00     0.047 C 
ATOM     21  C   UNL A   1      38.782  21.825  25.983  1.00  0.00    -0.015 A 
ATOM     22  C   UNL A   1      37.772  22.797  25.987  1.00  0.00     0.007 A 
ATOM     23  C   UNL A   1      38.529  20.598  25.376  1.00  0.00     0.126 A 
ATOM     24  C   UNL A   1      36.511  22.515  25.447  1.00  0.00     0.009 A 
ATOM     25  C   UNL A   1      37.291  20.320  24.818  1.00  0.00     0.048 A 
ATOM     26  F   UNL A   1      39.463  19.637  25.386  1.00  0.00    -0.207 F 
ENDBRANCH   9  19
BRANCH  18  27
ATOM     27  C   UNL A   1      34.042  24.781  25.928  1.00  0.00     0.430 C 
ATOM     28  F   UNL A   1      35.337  25.126  25.750  1.00  0.00    -0.167 F 
ATOM     29  F   UNL A   1      33.380  25.924  26.227  1.00  0.00    -0.167 F 
ATOM     30  F   UNL A   1      33.970  23.962  26.997  1.00  0.00    -0.167 F 
ENDBRANCH  18  27
ENDBRANCH   6   8
ENDBRANCH   5   6
ENDBRANCH   4   5
ENDBRANCH   3   4
ENDBRANCH   2   3
ENDBRANCH   1   2
BRANCH   1  31
ATOM     31  C   UNL A   1      33.893  29.782  27.504  1.00  0.00     0.261 C 
BRANCH  31  32
ATOM     32  O   UNL A   1      35.231  30.263  27.352  1.00  0.00    -0.460 OA
BRANCH  32  33
ATOM     33  C   UNL A   1      35.915  30.609  28.465  1.00  0.00     0.338 C 
ATOM     34  O   UNL A   1      35.525  31.299  29.387  1.00  0.00    -0.246 OA
BRANCH  33  35
ATOM     35  C   UNL A   1      37.052  29.658  28.533  1.00  0.00     0.060 A 
ATOM     36  C   UNL A   1      37.381  28.952  29.705  1.00  0.00     0.016 A 
ATOM     37  C   UNL A   1      37.977  29.773  27.491  1.00  0.00     0.016 A 
ATOM     38  C   UNL A   1      38.682  28.456  29.869  1.00  0.00     0.010 A 
ATOM     39  C   UNL A   1      39.272  29.300  27.670  1.00  0.00     0.010 A 
ATOM     40  C   UNL A   1      39.642  28.682  28.873  1.00  0.00    -0.014 A 
BRANCH  40  41
ATOM     41  C   UNL A   1      41.040  28.262  29.001  1.00  0.00     0.031 A 
ATOM     42  C   UNL A   1      41.439  26.929  28.510  1.00  0.00     0.074 A 
ATOM     43  C   UNL A   1      42.008  29.049  29.531  1.00  0.00     0.049 A 
ATOM     44  N   UNL A   1      42.369  26.203  29.038  1.00  0.00    -0.248 NA
ATOM     45  C   UNL A   1      40.807  26.323  27.345  1.00  0.00     0.031 C 
ATOM     46  C   UNL A   1      43.445  28.778  29.565  1.00  0.00     0.029 A 
ATOM     47  N   UNL A   1      41.868  30.165  30.368  1.00  0.00    -0.354 N 
ATOM     48  C   UNL A   1      42.700  25.254  28.102  1.00  0.00     0.074 A 
ATOM     49  C   UNL A   1      41.626  25.288  27.128  1.00  0.00     0.031 C 
ATOM     50  C   UNL A   1      43.974  29.412  30.623  1.00  0.00     0.029 A 
ATOM     51  C   UNL A   1      42.877  30.028  31.354  1.00  0.00     0.049 A 
ATOM     52  H   UNL A   1      41.208  30.891  30.287  1.00  0.00     0.167 HD
ATOM     53  C   UNL A   1      43.932  24.668  28.119  1.00  0.00     0.037 A 
ATOM     54  C   UNL A   1      42.588  29.834  32.673  1.00  0.00     0.037 A 
ATOM     55  C   UNL A   1      44.765  25.107  29.236  1.00  0.00     0.049 A 
ATOM     56  C   UNL A   1      43.163  28.547  33.260  1.00  0.00     0.074 A 
ATOM     57  C   UNL A   1      45.870  25.934  29.362  1.00  0.00     0.029 A 
ATOM     58  N   UNL A   1      44.319  24.888  30.531  1.00  0.00    -0.354 N 
ATOM     59  N   UNL A   1      43.779  27.636  32.556  1.00  0.00    -0.248 NA
ATOM     60  C   UNL A   1      43.026  28.141  34.661  1.00  0.00     0.031 C 
ATOM     61  C   UNL A   1      46.105  26.180  30.740  1.00  0.00     0.029 A 
ATOM     62  C   UNL A   1      45.115  25.537  31.453  1.00  0.00     0.049 A 
ATOM     63  H   UNL A   1      43.534  24.340  30.763  1.00  0.00     0.167 HD
ATOM     64  C   UNL A   1      44.115  26.571  33.354  1.00  0.00     0.074 A 
ATOM     65  C   UNL A   1      43.609  26.925  34.663  1.00  0.00     0.031 C 
ATOM     66  C   UNL A   1      44.776  25.480  32.863  1.00  0.00     0.037 A 
BRANCH  53  67
ATOM     67  C   UNL A   1      44.437  23.927  26.908  1.00  0.00     0.064 A 
ATOM     68  C   UNL A   1      44.101  22.581  26.666  1.00  0.00     0.173 A 
ATOM     69  C   UNL A   1      45.337  24.497  25.990  1.00  0.00     0.173 A 
ATOM     70  F   UNL A   1      43.192  21.936  27.402  1.00  0.00    -0.203 F 
ATOM     71  C   UNL A   1      44.714  21.830  25.661  1.00  0.00     0.198 A 
ATOM     72  C   UNL A   1      45.990  23.732  25.019  1.00  0.00     0.198 A 
ATOM     73  F   UNL A   1      45.610  25.811  26.026  1.00  0.00    -0.203 F 
ATOM     74  F   UNL A   1      44.372  20.545  25.495  1.00  0.00    -0.200 F 
ATOM     75  C   UNL A   1      45.689  22.394  24.866  1.00  0.00     0.200 A 
ATOM     76  F   UNL A   1      46.933  24.296  24.251  1.00  0.00    -0.200 F 
ATOM     77  F   UNL A   1      46.328  21.651  23.952  1.00  0.00    -0.200 F 
ENDBRANCH  53  67
BRANCH  54  78
ATOM     78  C   UNL A   1      41.339  30.509  33.129  1.00  0.00     0.064 A 
ATOM     79  C   UNL A   1      41.302  32.322  33.270  1.00  0.00     0.173 A 
ATOM     80  C   UNL A   1      39.784  29.597  33.124  1.00  0.00     0.173 A 
ATOM     81  F   UNL A   1      42.439  33.022  33.172  1.00  0.00    -0.203 F 
ATOM     82  C   UNL A   1      39.718  33.209  33.339  1.00  0.00     0.198 A 
ATOM     83  C   UNL A   1      38.208  30.469  33.175  1.00  0.00     0.198 A 
ATOM     84  F   UNL A   1      39.789  28.273  32.924  1.00  0.00    -0.203 F 
ATOM     85  F   UNL A   1      39.694  34.545  33.420  1.00  0.00    -0.200 F 
ATOM     86  C   UNL A   1      38.162  32.278  33.315  1.00  0.00     0.200 A 
ATOM     87  F   UNL A   1      37.065  29.777  33.093  1.00  0.00    -0.200 F 
ATOM     88  F   UNL A   1      36.983  32.905  33.390  1.00  0.00    -0.200 F 
ENDBRANCH  54  78
BRANCH  66  89
ATOM     89  C   UNL A   1      45.245  24.287  33.650  1.00  0.00     0.064 A 
ATOM     90  C   UNL A   1      44.509  23.099  33.748  1.00  0.00     0.173 A 
ATOM     91  C   UNL A   1      46.371  24.392  34.503  1.00  0.00     0.173 A 
ATOM     92  F   UNL A   1      43.398  22.921  33.019  1.00  0.00    -0.203 F 
ATOM     93  C   UNL A   1      44.874  22.082  34.638  1.00  0.00     0.198 A 
ATOM     94  C   UNL A   1      46.706  23.397  35.419  1.00  0.00     0.198 A 
ATOM     95  F   UNL A   1      47.176  25.463  34.462  1.00  0.00    -0.203 F 
ATOM     96  F   UNL A   1      44.153  20.953  34.691  1.00  0.00    -0.200 F 
ATOM     97  C   UNL A   1      45.958  22.239  35.485  1.00  0.00     0.200 A 
ATOM     98  F   UNL A   1      47.747  23.574  36.245  1.00  0.00    -0.200 F 
ATOM     99  F   UNL A   1      46.280  21.280  36.365  1.00  0.00    -0.200 F 
ENDBRANCH  66  89
ENDBRANCH  40  41
ENDBRANCH  33  35
ENDBRANCH  32  33
ENDBRANCH  31  32
ENDBRANCH   1  31
TORSDOF 16
ENDMDL
