MODEL 1
REMARK VINA RESULT:     -11.1      0.000      0.000
REMARK SMILES CC[C@@H](C)c1nc2cc(C(=O)OCCOCCOC(=O)c3ccc(-c4c5nc(c(-c6c(F)c(F)c(F)c(F)c6F)c6ccc([nH]6)c(-c6c(F)c(F)c(F)c(F)c6F)c6nc(c(-c7c(F)c(F)c(F)c(F)c7F)c7ccc4[nH]7)C=C6)C=C5)cc3)ccc2n1[C@@H](C)CC
REMARK SMILES IDX 15 1 14 2 13 3 12 4 10 5 11 6 9 7 5 8 6 9 87 10 7 11 86 12
REMARK SMILES IDX 8 13 85 14 84 15 3 16 4 17 2 18 1 19 88 20 89 21 90 22 91 23
REMARK SMILES IDX 16 24 17 25 18 26 19 27 20 28 21 29 22 30 83 31 23 32 82 33
REMARK SMILES IDX 24 34 25 35 26 36 76 37 27 38 81 39 75 40 77 41 28 42 80 43
REMARK SMILES IDX 74 44 73 45 29 47 61 48 41 49 60 50 42 51 45 52 59 53 78 54
REMARK SMILES IDX 43 55 44 56 58 58 79 59 46 60 30 61 31 62 39 63 32 64 33 65
REMARK SMILES IDX 37 66 40 67 34 68 35 69 38 70 36 71 62 72 63 73 71 74 64 75
REMARK SMILES IDX 65 76 69 77 72 78 66 79 67 80 70 81 68 82 47 83 48 84 56 85
REMARK SMILES IDX 49 86 50 87 54 88 57 89 51 90 52 91 55 92 53 93
REMARK H PARENT 77 46 45 57
REMARK Flexibility Score: inf
ROOT
ATOM      1  O   UNL A   1      42.205  20.541  27.211  1.00  0.00    -0.374 OA
ENDROOT
BRANCH   1   2
ATOM      2  C   UNL A   1      41.228  21.555  27.397  1.00  0.00     0.202 C 
BRANCH   2   3
ATOM      3  C   UNL A   1      40.350  21.980  26.215  1.00  0.00     0.261 C 
BRANCH   3   4
ATOM      4  O   UNL A   1      38.954  21.883  26.484  1.00  0.00    -0.460 OA
BRANCH   4   5
ATOM      5  C   UNL A   1      38.289  21.234  25.500  1.00  0.00     0.338 C 
ATOM      6  O   UNL A   1      38.413  20.064  25.176  1.00  0.00    -0.246 OA
BRANCH   5   7
ATOM      7  C   UNL A   1      37.233  22.090  24.945  1.00  0.00     0.062 A 
ATOM      8  C   UNL A   1      33.424  24.420  25.336  1.00  0.00     0.112 A 
ATOM      9  N   UNL A   1      34.349  24.025  26.185  1.00  0.00    -0.233 NA
ATOM     10  N   UNL A   1      33.799  24.129  24.035  1.00  0.00    -0.325 N 
ATOM     11  C   UNL A   1      35.299  23.403  25.444  1.00  0.00     0.090 A 
ATOM     12  C   UNL A   1      35.037  23.506  24.085  1.00  0.00     0.068 A 
ATOM     13  C   UNL A   1      36.407  22.696  25.895  1.00  0.00     0.046 A 
ATOM     14  C   UNL A   1      35.914  22.992  23.114  1.00  0.00     0.029 A 
ATOM     15  C   UNL A   1      37.028  22.274  23.575  1.00  0.00     0.018 A 
BRANCH   8  16
ATOM     16  C   UNL A   1      32.136  25.046  25.799  1.00  0.00     0.052 C 
ATOM     17  C   UNL A   1      32.397  26.492  26.230  1.00  0.00     0.016 C 
BRANCH  16  18
ATOM     18  C   UNL A   1      31.554  24.198  26.953  1.00  0.00     0.008 C 
ATOM     19  C   UNL A   1      30.576  23.131  26.489  1.00  0.00     0.004 C 
ENDBRANCH  16  18
ENDBRANCH   8  16
BRANCH  10  20
ATOM     20  C   UNL A   1      33.032  24.309  22.805  1.00  0.00     0.085 C 
ATOM     21  C   UNL A   1      31.611  23.750  22.941  1.00  0.00     0.031 C 
BRANCH  20  22
ATOM     22  C   UNL A   1      33.060  25.742  22.246  1.00  0.00     0.022 C 
ATOM     23  C   UNL A   1      32.480  25.833  20.839  1.00  0.00     0.006 C 
ENDBRANCH  20  22
ENDBRANCH  10  20
ENDBRANCH   5   7
ENDBRANCH   4   5
ENDBRANCH   3   4
ENDBRANCH   2   3
ENDBRANCH   1   2
BRANCH   1  24
ATOM     24  C   UNL A   1      42.075  19.669  26.080  1.00  0.00     0.202 C 
BRANCH  24  25
ATOM     25  C   UNL A   1      43.338  19.234  25.310  1.00  0.00     0.261 C 
BRANCH  25  26
ATOM     26  O   UNL A   1      44.425  20.146  25.526  1.00  0.00    -0.460 OA
BRANCH  26  27
ATOM     27  C   UNL A   1      44.683  21.003  24.495  1.00  0.00     0.338 C 
ATOM     28  O   UNL A   1      44.639  20.775  23.309  1.00  0.00    -0.246 OA
BRANCH  27  29
ATOM     29  C   UNL A   1      44.604  22.351  25.100  1.00  0.00     0.060 A 
ATOM     30  C   UNL A   1      45.249  22.624  26.307  1.00  0.00     0.016 A 
ATOM     31  C   UNL A   1      43.582  23.186  24.613  1.00  0.00     0.016 A 
ATOM     32  C   UNL A   1      44.801  23.693  27.074  1.00  0.00     0.010 A 
ATOM     33  C   UNL A   1      43.097  24.215  25.412  1.00  0.00     0.010 A 
ATOM     34  C   UNL A   1      43.686  24.449  26.656  1.00  0.00    -0.014 A 
BRANCH  34  35
ATOM     35  C   UNL A   1      43.384  25.672  27.406  1.00  0.00     0.031 A 
ATOM     36  C   UNL A   1      44.411  26.705  27.105  1.00  0.00     0.074 A 
ATOM     37  C   UNL A   1      42.293  25.935  28.158  1.00  0.00     0.049 A 
ATOM     38  N   UNL A   1      45.262  27.234  27.920  1.00  0.00    -0.248 NA
ATOM     39  C   UNL A   1      44.647  27.038  25.687  1.00  0.00     0.031 C 
ATOM     40  C   UNL A   1      41.090  25.112  28.308  1.00  0.00     0.029 A 
ATOM     41  N   UNL A   1      41.980  27.055  28.890  1.00  0.00    -0.354 N 
ATOM     42  C   UNL A   1      46.003  28.119  27.143  1.00  0.00     0.074 A 
ATOM     43  C   UNL A   1      45.726  27.813  25.768  1.00  0.00     0.031 C 
ATOM     44  C   UNL A   1      40.108  25.847  28.881  1.00  0.00     0.029 A 
ATOM     45  C   UNL A   1      40.633  27.154  29.242  1.00  0.00     0.049 A 
ATOM     46  H   UNL A   1      42.649  27.731  29.144  1.00  0.00     0.167 HD
ATOM     47  C   UNL A   1      46.510  29.251  27.692  1.00  0.00     0.037 A 
ATOM     48  C   UNL A   1      39.988  28.249  29.729  1.00  0.00     0.037 A 
ATOM     49  C   UNL A   1      46.608  29.137  29.121  1.00  0.00     0.049 A 
ATOM     50  C   UNL A   1      41.015  29.155  30.289  1.00  0.00     0.074 A 
ATOM     51  C   UNL A   1      47.343  28.384  30.010  1.00  0.00     0.029 A 
ATOM     52  N   UNL A   1      45.531  29.633  29.798  1.00  0.00    -0.354 N 
ATOM     53  N   UNL A   1      41.693  28.912  31.374  1.00  0.00    -0.248 NA
ATOM     54  C   UNL A   1      41.521  30.242  29.460  1.00  0.00     0.031 C 
ATOM     55  C   UNL A   1      46.527  28.247  31.171  1.00  0.00     0.029 A 
ATOM     56  C   UNL A   1      45.344  28.957  30.970  1.00  0.00     0.049 A 
ATOM     57  H   UNL A   1      44.968  30.377  29.486  1.00  0.00     0.167 HD
ATOM     58  C   UNL A   1      42.923  29.493  31.138  1.00  0.00     0.074 A 
ATOM     59  C   UNL A   1      42.701  30.434  30.049  1.00  0.00     0.031 C 
ATOM     60  C   UNL A   1      44.055  28.913  31.624  1.00  0.00     0.037 A 
BRANCH  47  61
ATOM     61  C   UNL A   1      46.383  30.598  27.012  1.00  0.00     0.064 A 
ATOM     62  C   UNL A   1      47.501  31.451  26.961  1.00  0.00     0.173 A 
ATOM     63  C   UNL A   1      45.142  31.207  26.704  1.00  0.00     0.173 A 
ATOM     64  F   UNL A   1      48.716  30.999  27.308  1.00  0.00    -0.203 F 
ATOM     65  C   UNL A   1      47.379  32.808  26.650  1.00  0.00     0.198 A 
ATOM     66  C   UNL A   1      45.033  32.543  26.334  1.00  0.00     0.198 A 
ATOM     67  F   UNL A   1      43.975  30.576  26.874  1.00  0.00    -0.203 F 
ATOM     68  F   UNL A   1      48.451  33.608  26.729  1.00  0.00    -0.200 F 
ATOM     69  C   UNL A   1      46.148  33.352  26.329  1.00  0.00     0.200 A 
ATOM     70  F   UNL A   1      43.822  33.056  26.070  1.00  0.00    -0.200 F 
ATOM     71  F   UNL A   1      46.022  34.660  26.075  1.00  0.00    -0.200 F 
ENDBRANCH  47  61
BRANCH  48  72
ATOM     72  C   UNL A   1      38.588  28.724  29.536  1.00  0.00     0.064 A 
ATOM     73  C   UNL A   1      37.757  29.006  30.643  1.00  0.00     0.173 A 
ATOM     74  C   UNL A   1      38.142  29.214  28.296  1.00  0.00     0.173 A 
ATOM     75  F   UNL A   1      38.110  28.607  31.875  1.00  0.00    -0.203 F 
ATOM     76  C   UNL A   1      36.598  29.782  30.523  1.00  0.00     0.198 A 
ATOM     77  C   UNL A   1      36.978  29.980  28.176  1.00  0.00     0.198 A 
ATOM     78  F   UNL A   1      38.877  29.051  27.189  1.00  0.00    -0.203 F 
ATOM     79  F   UNL A   1      35.889  30.102  31.615  1.00  0.00    -0.200 F 
ATOM     80  C   UNL A   1      36.219  30.283  29.291  1.00  0.00     0.200 A 
ATOM     81  F   UNL A   1      36.638  30.486  26.982  1.00  0.00    -0.200 F 
ATOM     82  F   UNL A   1      35.155  31.092  29.185  1.00  0.00    -0.200 F 
ENDBRANCH  48  72
BRANCH  60  83
ATOM     83  C   UNL A   1      43.928  28.017  32.815  1.00  0.00     0.064 A 
ATOM     84  C   UNL A   1      43.826  26.618  32.761  1.00  0.00     0.173 A 
ATOM     85  C   UNL A   1      44.051  28.617  34.078  1.00  0.00     0.173 A 
ATOM     86  F   UNL A   1      43.777  25.973  31.587  1.00  0.00    -0.203 F 
ATOM     87  C   UNL A   1      43.837  25.859  33.930  1.00  0.00     0.198 A 
ATOM     88  C   UNL A   1      44.102  27.854  35.236  1.00  0.00     0.198 A 
ATOM     89  F   UNL A   1      44.182  29.949  34.178  1.00  0.00    -0.203 F 
ATOM     90  F   UNL A   1      43.738  24.523  33.864  1.00  0.00    -0.200 F 
ATOM     91  C   UNL A   1      43.990  26.475  35.163  1.00  0.00     0.200 A 
ATOM     92  F   UNL A   1      44.297  28.453  36.419  1.00  0.00    -0.200 F 
ATOM     93  F   UNL A   1      44.060  25.739  36.281  1.00  0.00    -0.200 F 
ENDBRANCH  60  83
ENDBRANCH  34  35
ENDBRANCH  27  29
ENDBRANCH  26  27
ENDBRANCH  25  26
ENDBRANCH  24  25
ENDBRANCH   1  24
TORSDOF 18
ENDMDL
MODEL 2
REMARK VINA RESULT:     -10.7      3.368      7.586
REMARK SMILES CC[C@@H](C)c1nc2cc(C(=O)OCCOCCOC(=O)c3ccc(-c4c5nc(c(-c6c(F)c(F)c(F)c(F)c6F)c6ccc([nH]6)c(-c6c(F)c(F)c(F)c(F)c6F)c6nc(c(-c7c(F)c(F)c(F)c(F)c7F)c7ccc4[nH]7)C=C6)C=C5)cc3)ccc2n1[C@@H](C)CC
REMARK SMILES IDX 15 1 14 2 13 3 12 4 10 5 11 6 9 7 5 8 6 9 87 10 7 11 86 12
REMARK SMILES IDX 8 13 85 14 84 15 3 16 4 17 2 18 1 19 88 20 89 21 90 22 91 23
REMARK SMILES IDX 16 24 17 25 18 26 19 27 20 28 21 29 22 30 83 31 23 32 82 33
REMARK SMILES IDX 24 34 25 35 26 36 76 37 27 38 81 39 75 40 77 41 28 42 80 43
REMARK SMILES IDX 74 44 73 45 29 47 61 48 41 49 60 50 42 51 45 52 59 53 78 54
REMARK SMILES IDX 43 55 44 56 58 58 79 59 46 60 30 61 31 62 39 63 32 64 33 65
REMARK SMILES IDX 37 66 40 67 34 68 35 69 38 70 36 71 62 72 63 73 71 74 64 75
REMARK SMILES IDX 65 76 69 77 72 78 66 79 67 80 70 81 68 82 47 83 48 84 56 85
REMARK SMILES IDX 49 86 50 87 54 88 57 89 51 90 52 91 55 92 53 93
REMARK H PARENT 77 46 45 57
REMARK Flexibility Score: inf
ROOT
ATOM      1  O   UNL A   1      43.306  19.634  24.622  1.00  0.00    -0.374 OA
ENDROOT
BRANCH   1   2
ATOM      2  C   UNL A   1      44.683  19.981  24.635  1.00  0.00     0.202 C 
BRANCH   2   3
ATOM      3  C   UNL A   1      45.182  21.040  25.625  1.00  0.00     0.261 C 
BRANCH   3   4
ATOM      4  O   UNL A   1      44.178  21.981  25.999  1.00  0.00    -0.460 OA
BRANCH   4   5
ATOM      5  C   UNL A   1      44.323  23.163  25.357  1.00  0.00     0.338 C 
ATOM      6  O   UNL A   1      43.674  23.567  24.405  1.00  0.00    -0.246 OA
BRANCH   5   7
ATOM      7  C   UNL A   1      45.282  24.018  26.067  1.00  0.00     0.062 A 
ATOM      8  C   UNL A   1      49.195  26.187  26.339  1.00  0.00     0.112 A 
ATOM      9  N   UNL A   1      48.446  25.767  25.341  1.00  0.00    -0.233 NA
ATOM     10  N   UNL A   1      48.547  25.997  27.549  1.00  0.00    -0.325 N 
ATOM     11  C   UNL A   1      47.336  25.229  25.904  1.00  0.00     0.090 A 
ATOM     12  C   UNL A   1      47.319  25.414  27.280  1.00  0.00     0.068 A 
ATOM     13  C   UNL A   1      46.313  24.531  25.276  1.00  0.00     0.046 A 
ATOM     14  C   UNL A   1      46.238  24.996  28.076  1.00  0.00     0.029 A 
ATOM     15  C   UNL A   1      45.209  24.287  27.437  1.00  0.00     0.018 A 
BRANCH   8  16
ATOM     16  C   UNL A   1      50.578  26.737  26.118  1.00  0.00     0.052 C 
ATOM     17  C   UNL A   1      50.522  27.853  25.072  1.00  0.00     0.016 C 
BRANCH  16  18
ATOM     18  C   UNL A   1      51.510  25.584  25.680  1.00  0.00     0.008 C 
ATOM     19  C   UNL A   1      52.852  25.583  26.393  1.00  0.00     0.004 C 
ENDBRANCH  16  18
ENDBRANCH   8  16
BRANCH  10  20
ATOM     20  C   UNL A   1      49.054  26.234  28.899  1.00  0.00     0.085 C 
ATOM     21  C   UNL A   1      50.114  25.198  29.291  1.00  0.00     0.031 C 
BRANCH  20  22
ATOM     22  C   UNL A   1      49.505  27.681  29.160  1.00  0.00     0.022 C 
ATOM     23  C   UNL A   1      50.763  27.756  30.017  1.00  0.00     0.006 C 
ENDBRANCH  20  22
ENDBRANCH  10  20
ENDBRANCH   5   7
ENDBRANCH   4   5
ENDBRANCH   3   4
ENDBRANCH   2   3
ENDBRANCH   1   2
BRANCH   1  24
ATOM     24  C   UNL A   1      42.721  19.124  25.827  1.00  0.00     0.202 C 
BRANCH  24  25
ATOM     25  C   UNL A   1      41.277  19.523  26.196  1.00  0.00     0.261 C 
BRANCH  25  26
ATOM     26  O   UNL A   1      41.214  20.872  26.684  1.00  0.00    -0.460 OA
BRANCH  26  27
ATOM     27  C   UNL A   1      40.093  21.568  26.334  1.00  0.00     0.338 C 
ATOM     28  O   UNL A   1      39.111  21.159  25.762  1.00  0.00    -0.246 OA
BRANCH  27  29
ATOM     29  C   UNL A   1      40.141  22.794  27.161  1.00  0.00     0.060 A 
ATOM     30  C   UNL A   1      39.285  23.863  26.894  1.00  0.00     0.016 A 
ATOM     31  C   UNL A   1      41.297  22.962  27.945  1.00  0.00     0.016 A 
ATOM     32  C   UNL A   1      39.641  25.129  27.342  1.00  0.00     0.010 A 
ATOM     33  C   UNL A   1      41.680  24.240  28.338  1.00  0.00     0.010 A 
ATOM     34  C   UNL A   1      40.867  25.327  28.010  1.00  0.00    -0.014 A 
BRANCH  34  35
ATOM     35  C   UNL A   1      41.096  26.640  28.621  1.00  0.00     0.031 A 
ATOM     36  C   UNL A   1      42.353  27.226  28.083  1.00  0.00     0.074 A 
ATOM     37  C   UNL A   1      40.272  27.327  29.443  1.00  0.00     0.049 A 
ATOM     38  N   UNL A   1      43.438  27.498  28.729  1.00  0.00    -0.248 NA
ATOM     39  C   UNL A   1      42.481  27.333  26.617  1.00  0.00     0.031 C 
ATOM     40  C   UNL A   1      38.900  26.984  29.823  1.00  0.00     0.029 A 
ATOM     41  N   UNL A   1      40.455  28.545  30.051  1.00  0.00    -0.354 N 
ATOM     42  C   UNL A   1      44.311  28.003  27.770  1.00  0.00     0.074 A 
ATOM     43  C   UNL A   1      43.756  27.693  26.484  1.00  0.00     0.031 C 
ATOM     44  C   UNL A   1      38.308  28.059  30.396  1.00  0.00     0.029 A 
ATOM     45  C   UNL A   1      39.280  29.132  30.526  1.00  0.00     0.049 A 
ATOM     46  H   UNL A   1      41.338  28.969  30.144  1.00  0.00     0.167 HD
ATOM     47  C   UNL A   1      45.236  28.935  28.112  1.00  0.00     0.037 A 
ATOM     48  C   UNL A   1      39.110  30.420  30.932  1.00  0.00     0.037 A 
ATOM     49  C   UNL A   1      45.493  28.918  29.525  1.00  0.00     0.049 A 
ATOM     50  C   UNL A   1      40.447  30.962  31.259  1.00  0.00     0.074 A 
ATOM     51  C   UNL A   1      46.057  28.039  30.422  1.00  0.00     0.029 A 
ATOM     52  N   UNL A   1      44.748  29.812  30.240  1.00  0.00    -0.354 N 
ATOM     53  N   UNL A   1      41.154  30.596  32.289  1.00  0.00    -0.248 NA
ATOM     54  C   UNL A   1      41.160  31.732  30.247  1.00  0.00     0.031 C 
ATOM     55  C   UNL A   1      45.415  28.293  31.670  1.00  0.00     0.029 A 
ATOM     56  C   UNL A   1      44.518  29.347  31.503  1.00  0.00     0.049 A 
ATOM     57  H   UNL A   1      44.425  30.674  29.894  1.00  0.00     0.167 HD
ATOM     58  C   UNL A   1      42.460  30.695  31.852  1.00  0.00     0.074 A 
ATOM     59  C   UNL A   1      42.409  31.557  30.679  1.00  0.00     0.031 C 
ATOM     60  C   UNL A   1      43.394  29.805  32.288  1.00  0.00     0.037 A 
BRANCH  47  61
ATOM     61  C   UNL A   1      45.466  30.179  27.279  1.00  0.00     0.064 A 
ATOM     62  C   UNL A   1      46.782  30.614  27.043  1.00  0.00     0.173 A 
ATOM     63  C   UNL A   1      44.453  31.123  26.986  1.00  0.00     0.173 A 
ATOM     64  F   UNL A   1      47.824  29.829  27.357  1.00  0.00    -0.203 F 
ATOM     65  C   UNL A   1      47.060  31.902  26.574  1.00  0.00     0.198 A 
ATOM     66  C   UNL A   1      44.729  32.381  26.459  1.00  0.00     0.198 A 
ATOM     67  F   UNL A   1      43.171  30.924  27.315  1.00  0.00    -0.203 F 
ATOM     68  F   UNL A   1      48.330  32.316  26.476  1.00  0.00    -0.200 F 
ATOM     69  C   UNL A   1      46.034  32.782  26.275  1.00  0.00     0.200 A 
ATOM     70  F   UNL A   1      43.719  33.230  26.220  1.00  0.00    -0.200 F 
ATOM     71  F   UNL A   1      46.298  34.029  25.868  1.00  0.00    -0.200 F 
ENDBRANCH  47  61
BRANCH  48  72
ATOM     72  C   UNL A   1      37.932  31.329  30.825  1.00  0.00     0.064 A 
ATOM     73  C   UNL A   1      37.396  31.678  29.567  1.00  0.00     0.173 A 
ATOM     74  C   UNL A   1      37.119  31.612  31.937  1.00  0.00     0.173 A 
ATOM     75  F   UNL A   1      38.082  31.422  28.442  1.00  0.00    -0.203 F 
ATOM     76  C   UNL A   1      36.109  32.212  29.430  1.00  0.00     0.198 A 
ATOM     77  C   UNL A   1      35.838  32.155  31.799  1.00  0.00     0.198 A 
ATOM     78  F   UNL A   1      37.504  31.274  33.174  1.00  0.00    -0.203 F 
ATOM     79  F   UNL A   1      35.605  32.444  28.209  1.00  0.00    -0.200 F 
ATOM     80  C   UNL A   1      35.324  32.434  30.546  1.00  0.00     0.200 A 
ATOM     81  F   UNL A   1      35.074  32.336  32.887  1.00  0.00    -0.200 F 
ATOM     82  F   UNL A   1      34.063  32.870  30.414  1.00  0.00    -0.200 F 
ENDBRANCH  48  72
BRANCH  60  83
ATOM     83  C   UNL A   1      43.149  29.116  33.593  1.00  0.00     0.064 A 
ATOM     84  C   UNL A   1      43.524  29.616  34.849  1.00  0.00     0.173 A 
ATOM     85  C   UNL A   1      42.370  27.949  33.559  1.00  0.00     0.173 A 
ATOM     86  F   UNL A   1      44.208  30.764  34.961  1.00  0.00    -0.203 F 
ATOM     87  C   UNL A   1      43.142  28.961  36.019  1.00  0.00     0.198 A 
ATOM     88  C   UNL A   1      41.957  27.323  34.727  1.00  0.00     0.198 A 
ATOM     89  F   UNL A   1      41.960  27.450  32.382  1.00  0.00    -0.203 F 
ATOM     90  F   UNL A   1      43.509  29.449  37.213  1.00  0.00    -0.200 F 
ATOM     91  C   UNL A   1      42.347  27.826  35.958  1.00  0.00     0.200 A 
ATOM     92  F   UNL A   1      41.151  26.255  34.660  1.00  0.00    -0.200 F 
ATOM     93  F   UNL A   1      41.930  27.233  37.084  1.00  0.00    -0.200 F 
ENDBRANCH  60  83
ENDBRANCH  34  35
ENDBRANCH  27  29
ENDBRANCH  26  27
ENDBRANCH  25  26
ENDBRANCH  24  25
ENDBRANCH   1  24
TORSDOF 18
ENDMDL
MODEL 3
REMARK VINA RESULT:     -10.6      5.145     11.141
REMARK SMILES CC[C@@H](C)c1nc2cc(C(=O)OCCOCCOC(=O)c3ccc(-c4c5nc(c(-c6c(F)c(F)c(F)c(F)c6F)c6ccc([nH]6)c(-c6c(F)c(F)c(F)c(F)c6F)c6nc(c(-c7c(F)c(F)c(F)c(F)c7F)c7ccc4[nH]7)C=C6)C=C5)cc3)ccc2n1[C@@H](C)CC
REMARK SMILES IDX 15 1 14 2 13 3 12 4 10 5 11 6 9 7 5 8 6 9 87 10 7 11 86 12
REMARK SMILES IDX 8 13 85 14 84 15 3 16 4 17 2 18 1 19 88 20 89 21 90 22 91 23
REMARK SMILES IDX 16 24 17 25 18 26 19 27 20 28 21 29 22 30 83 31 23 32 82 33
REMARK SMILES IDX 24 34 25 35 26 36 76 37 27 38 81 39 75 40 77 41 28 42 80 43
REMARK SMILES IDX 74 44 73 45 29 47 61 48 41 49 60 50 42 51 45 52 59 53 78 54
REMARK SMILES IDX 43 55 44 56 58 58 79 59 46 60 30 61 31 62 39 63 32 64 33 65
REMARK SMILES IDX 37 66 40 67 34 68 35 69 38 70 36 71 62 72 63 73 71 74 64 75
REMARK SMILES IDX 65 76 69 77 72 78 66 79 67 80 70 81 68 82 47 83 48 84 56 85
REMARK SMILES IDX 49 86 50 87 54 88 57 89 51 90 52 91 55 92 53 93
REMARK H PARENT 77 46 45 57
REMARK Flexibility Score: inf
ROOT
ATOM      1  O   UNL A   1      33.158  35.303  29.387  1.00  0.00    -0.374 OA
ENDROOT
BRANCH   1   2
ATOM      2  C   UNL A   1      32.936  36.682  29.646  1.00  0.00     0.202 C 
BRANCH   2   3
ATOM      3  C   UNL A   1      33.247  37.246  31.037  1.00  0.00     0.261 C 
BRANCH   3   4
ATOM      4  O   UNL A   1      32.925  36.347  32.096  1.00  0.00    -0.460 OA
BRANCH   4   5
ATOM      5  C   UNL A   1      33.820  36.412  33.108  1.00  0.00     0.338 C 
ATOM      6  O   UNL A   1      33.938  37.306  33.931  1.00  0.00    -0.246 OA
BRANCH   5   7
ATOM      7  C   UNL A   1      34.563  35.150  33.217  1.00  0.00     0.062 A 
ATOM      8  C   UNL A   1      37.382  32.395  35.351  1.00  0.00     0.112 A 
ATOM      9  N   UNL A   1      36.600  33.383  35.732  1.00  0.00    -0.233 NA
ATOM     10  N   UNL A   1      37.180  32.101  34.012  1.00  0.00    -0.325 N 
ATOM     11  C   UNL A   1      35.938  33.790  34.620  1.00  0.00     0.090 A 
ATOM     12  C   UNL A   1      36.213  32.971  33.533  1.00  0.00     0.068 A 
ATOM     13  C   UNL A   1      35.103  34.891  34.478  1.00  0.00     0.046 A 
ATOM     14  C   UNL A   1      35.596  33.157  32.284  1.00  0.00     0.029 A 
ATOM     15  C   UNL A   1      34.757  34.274  32.144  1.00  0.00     0.018 A 
BRANCH   8  16
ATOM     16  C   UNL A   1      38.373  31.760  36.288  1.00  0.00     0.052 C 
ATOM     17  C   UNL A   1      37.828  31.809  37.718  1.00  0.00     0.016 C 
BRANCH  16  18
ATOM     18  C   UNL A   1      39.725  32.499  36.162  1.00  0.00     0.008 C 
ATOM     19  C   UNL A   1      40.820  31.657  35.528  1.00  0.00     0.004 C 
ENDBRANCH  16  18
ENDBRANCH   8  16
BRANCH  10  20
ATOM     20  C   UNL A   1      37.901  31.148  33.171  1.00  0.00     0.085 C 
ATOM     21  C   UNL A   1      36.939  30.281  32.351  1.00  0.00     0.031 C 
BRANCH  20  22
ATOM     22  C   UNL A   1      39.016  31.776  32.318  1.00  0.00     0.022 C 
ATOM     23  C   UNL A   1      39.198  33.264  32.596  1.00  0.00     0.006 C 
ENDBRANCH  20  22
ENDBRANCH  10  20
ENDBRANCH   5   7
ENDBRANCH   4   5
ENDBRANCH   3   4
ENDBRANCH   2   3
ENDBRANCH   1   2
BRANCH   1  24
ATOM     24  C   UNL A   1      34.243  34.938  28.525  1.00  0.00     0.202 C 
BRANCH  24  25
ATOM     25  C   UNL A   1      34.311  33.505  27.959  1.00  0.00     0.261 C 
BRANCH  25  26
ATOM     26  O   UNL A   1      35.185  32.674  28.737  1.00  0.00    -0.460 OA
BRANCH  26  27
ATOM     27  C   UNL A   1      35.074  31.332  28.507  1.00  0.00     0.338 C 
ATOM     28  O   UNL A   1      34.087  30.709  28.196  1.00  0.00    -0.246 OA
BRANCH  27  29
ATOM     29  C   UNL A   1      36.466  30.873  28.296  1.00  0.00     0.060 A 
ATOM     30  C   UNL A   1      36.728  29.554  27.924  1.00  0.00     0.016 A 
ATOM     31  C   UNL A   1      37.473  31.694  28.835  1.00  0.00     0.016 A 
ATOM     32  C   UNL A   1      37.988  29.028  28.182  1.00  0.00     0.010 A 
ATOM     33  C   UNL A   1      38.711  31.146  29.147  1.00  0.00     0.010 A 
ATOM     34  C   UNL A   1      38.959  29.804  28.848  1.00  0.00    -0.014 A 
BRANCH  34  35
ATOM     35  C   UNL A   1      40.319  29.264  28.919  1.00  0.00     0.031 A 
ATOM     36  C   UNL A   1      40.693  29.044  30.342  1.00  0.00     0.074 A 
ATOM     37  C   UNL A   1      41.112  28.876  27.895  1.00  0.00     0.049 A 
ATOM     38  N   UNL A   1      41.626  29.631  31.014  1.00  0.00    -0.248 NA
ATOM     39  C   UNL A   1      39.787  28.217  31.163  1.00  0.00     0.031 C 
ATOM     40  C   UNL A   1      40.759  28.784  26.477  1.00  0.00     0.029 A 
ATOM     41  N   UNL A   1      42.395  28.384  27.916  1.00  0.00    -0.354 N 
ATOM     42  C   UNL A   1      41.546  29.087  32.293  1.00  0.00     0.074 A 
ATOM     43  C   UNL A   1      40.294  28.391  32.382  1.00  0.00     0.031 C 
ATOM     44  C   UNL A   1      41.703  28.067  25.822  1.00  0.00     0.029 A 
ATOM     45  C   UNL A   1      42.782  27.739  26.740  1.00  0.00     0.049 A 
ATOM     46  H   UNL A   1      42.990  28.477  28.695  1.00  0.00     0.167 HD
ATOM     47  C   UNL A   1      42.664  28.958  33.052  1.00  0.00     0.037 A 
ATOM     48  C   UNL A   1      43.871  26.944  26.557  1.00  0.00     0.037 A 
ATOM     49  C   UNL A   1      43.701  29.844  32.603  1.00  0.00     0.049 A 
ATOM     50  C   UNL A   1      44.835  27.260  27.634  1.00  0.00     0.074 A 
ATOM     51  C   UNL A   1      43.895  31.207  32.559  1.00  0.00     0.029 A 
ATOM     52  N   UNL A   1      44.581  29.278  31.724  1.00  0.00    -0.354 N 
ATOM     53  N   UNL A   1      45.503  28.375  27.716  1.00  0.00    -0.248 NA
ATOM     54  C   UNL A   1      44.850  26.428  28.831  1.00  0.00     0.031 C 
ATOM     55  C   UNL A   1      44.745  31.443  31.439  1.00  0.00     0.029 A 
ATOM     56  C   UNL A   1      45.078  30.216  30.866  1.00  0.00     0.049 A 
ATOM     57  H   UNL A   1      44.824  28.324  31.713  1.00  0.00     0.167 HD
ATOM     58  C   UNL A   1      45.635  28.589  29.074  1.00  0.00     0.074 A 
ATOM     59  C   UNL A   1      45.385  27.294  29.692  1.00  0.00     0.031 C 
ATOM     60  C   UNL A   1      45.609  29.856  29.570  1.00  0.00     0.037 A 
BRANCH  47  61
ATOM     61  C   UNL A   1      42.981  27.681  33.800  1.00  0.00     0.064 A 
ATOM     62  C   UNL A   1      43.170  27.730  35.194  1.00  0.00     0.173 A 
ATOM     63  C   UNL A   1      43.422  26.492  33.171  1.00  0.00     0.173 A 
ATOM     64  F   UNL A   1      42.859  28.839  35.883  1.00  0.00    -0.203 F 
ATOM     65  C   UNL A   1      43.774  26.681  35.893  1.00  0.00     0.198 A 
ATOM     66  C   UNL A   1      43.965  25.424  33.878  1.00  0.00     0.198 A 
ATOM     67  F   UNL A   1      43.468  26.363  31.840  1.00  0.00    -0.203 F 
ATOM     68  F   UNL A   1      44.042  26.818  37.199  1.00  0.00    -0.200 F 
ATOM     69  C   UNL A   1      44.164  25.526  35.237  1.00  0.00     0.200 A 
ATOM     70  F   UNL A   1      44.374  24.335  33.213  1.00  0.00    -0.200 F 
ATOM     71  F   UNL A   1      44.782  24.540  35.897  1.00  0.00    -0.200 F 
ENDBRANCH  47  61
BRANCH  48  72
ATOM     72  C   UNL A   1      44.071  25.745  25.694  1.00  0.00     0.064 A 
ATOM     73  C   UNL A   1      45.335  25.454  25.136  1.00  0.00     0.173 A 
ATOM     74  C   UNL A   1      43.131  24.699  25.659  1.00  0.00     0.173 A 
ATOM     75  F   UNL A   1      46.310  26.376  25.148  1.00  0.00    -0.203 F 
ATOM     76  C   UNL A   1      45.654  24.184  24.641  1.00  0.00     0.198 A 
ATOM     77  C   UNL A   1      43.448  23.434  25.154  1.00  0.00     0.198 A 
ATOM     78  F   UNL A   1      41.919  24.847  26.208  1.00  0.00    -0.203 F 
ATOM     79  F   UNL A   1      46.895  23.926  24.204  1.00  0.00    -0.200 F 
ATOM     80  C   UNL A   1      44.714  23.170  24.666  1.00  0.00     0.200 A 
ATOM     81  F   UNL A   1      42.539  22.450  25.213  1.00  0.00    -0.200 F 
ATOM     82  F   UNL A   1      45.040  21.932  24.266  1.00  0.00    -0.200 F 
ENDBRANCH  48  72
BRANCH  60  83
ATOM     83  C   UNL A   1      45.981  30.976  28.652  1.00  0.00     0.064 A 
ATOM     84  C   UNL A   1      47.294  31.393  28.385  1.00  0.00     0.173 A 
ATOM     85  C   UNL A   1      44.945  31.560  27.908  1.00  0.00     0.173 A 
ATOM     86  F   UNL A   1      48.340  30.829  29.007  1.00  0.00    -0.203 F 
ATOM     87  C   UNL A   1      47.550  32.365  27.419  1.00  0.00     0.198 A 
ATOM     88  C   UNL A   1      45.207  32.498  26.918  1.00  0.00     0.198 A 
ATOM     89  F   UNL A   1      43.675  31.171  28.106  1.00  0.00    -0.203 F 
ATOM     90  F   UNL A   1      48.809  32.755  27.174  1.00  0.00    -0.200 F 
ATOM     91  C   UNL A   1      46.509  32.904  26.676  1.00  0.00     0.200 A 
ATOM     92  F   UNL A   1      44.202  32.978  26.175  1.00  0.00    -0.200 F 
ATOM     93  F   UNL A   1      46.762  33.793  25.707  1.00  0.00    -0.200 F 
ENDBRANCH  60  83
ENDBRANCH  34  35
ENDBRANCH  27  29
ENDBRANCH  26  27
ENDBRANCH  25  26
ENDBRANCH  24  25
ENDBRANCH   1  24
TORSDOF 18
ENDMDL
