MODEL 1
REMARK VINA RESULT:     -11.3      0.000      0.000
REMARK SMILES [NH3+][C@@H](CNc1ccc(C(=O)OCCOCCOC(=O)c2ccc(-c3c4nc(c(-c5c(F)c(F)c(F)c(F)c5F)c5ccc([nH]5)c(-c5c(F)c(F)c(F)c(F)c5F)c5nc(c(-c6c(F)c(F)c(F)c(F)c6F)c6ccc3[nH]6)C=C5)C=C4)cc2)c(F)c1F)c1ccccc1
REMARK SMILES IDX 13 1 12 2 11 3 9 4 10 5 8 6 5 7 6 8 85 9 7 10 83 11 86 12
REMARK SMILES IDX 84 13 4 14 3 16 2 17 1 18 87 22 88 23 92 24 89 25 91 26
REMARK SMILES IDX 90 27 14 28 15 29 16 30 17 31 18 32 19 33 20 34 21 35 82 36
REMARK SMILES IDX 22 37 81 38 23 39 24 40 25 41 75 42 26 43 80 44 74 45 76 46
REMARK SMILES IDX 27 47 79 48 73 49 72 50 28 52 60 53 40 54 59 55 41 56 44 57
REMARK SMILES IDX 58 58 77 59 42 60 43 61 57 63 78 64 45 65 29 66 30 67 38 68
REMARK SMILES IDX 31 69 32 70 36 71 39 72 33 73 34 74 37 75 35 76 61 77 62 78
REMARK SMILES IDX 70 79 63 80 64 81 68 82 71 83 65 84 66 85 69 86 67 87 46 88
REMARK SMILES IDX 47 89 55 90 48 91 49 92 53 93 56 94 50 95 51 96 54 97 52 98
REMARK H PARENT 4 15 1 19 1 20 1 21 76 51 44 62
REMARK Flexibility Score: inf
ROOT
ATOM      1  C   UNL A   1      32.801  29.475  25.944  1.00  0.00     0.202 C 
ENDROOT
BRANCH   1   2
ATOM      2  C   UNL A   1      31.780  29.284  24.820  1.00  0.00     0.261 C 
BRANCH   2   3
ATOM      3  O   UNL A   1      31.869  27.963  24.260  1.00  0.00    -0.460 OA
BRANCH   3   4
ATOM      4  C   UNL A   1      30.718  27.255  24.271  1.00  0.00     0.341 C 
ATOM      5  O   UNL A   1      29.623  27.624  23.874  1.00  0.00    -0.246 OA
BRANCH   4   6
ATOM      6  C   UNL A   1      30.964  25.861  24.671  1.00  0.00     0.099 A 
ATOM      7  C   UNL A   1      31.251  23.142  25.356  1.00  0.00     0.074 A 
ATOM      8  C   UNL A   1      30.853  23.509  24.068  1.00  0.00     0.030 A 
ATOM      9  C   UNL A   1      31.524  24.171  26.280  1.00  0.00     0.182 A 
ATOM     10  C   UNL A   1      30.700  24.857  23.729  1.00  0.00     0.021 A 
ATOM     11  C   UNL A   1      31.398  25.516  25.943  1.00  0.00     0.175 A 
ATOM     12  F   UNL A   1      31.918  23.840  27.522  1.00  0.00    -0.201 F 
ATOM     13  F   UNL A   1      31.661  26.452  26.867  1.00  0.00    -0.203 F 
BRANCH   7  14
ATOM     14  N   UNL A   1      31.370  21.815  25.751  1.00  0.00    -0.376 N 
ATOM     15  H   UNL A   1      30.894  21.516  26.559  1.00  0.00     0.160 HD
BRANCH  14  16
ATOM     16  C   UNL A   1      32.179  20.847  25.007  1.00  0.00     0.183 C 
BRANCH  16  17
ATOM     17  C   UNL A   1      33.571  20.618  25.685  1.00  0.00     0.231 C 
BRANCH  17  18
ATOM     18  N   UNL A   1      33.583  21.016  27.105  1.00  0.00    -0.350 N 
ATOM     19  H   UNL A   1      33.325  21.999  27.185  1.00  0.00     0.345 HD
ATOM     20  H   UNL A   1      34.517  20.876  27.489  1.00  0.00     0.345 HD
ATOM     21  H   UNL A   1      32.914  20.446  27.623  1.00  0.00     0.345 HD
ENDBRANCH  17  18
BRANCH  17  22
ATOM     22  C   UNL A   1      34.671  21.288  24.868  1.00  0.00     0.011 A 
ATOM     23  C   UNL A   1      36.035  21.015  25.067  1.00  0.00     0.010 A 
ATOM     24  C   UNL A   1      34.325  22.296  23.951  1.00  0.00     0.010 A 
ATOM     25  C   UNL A   1      37.019  21.743  24.395  1.00  0.00     0.001 A 
ATOM     26  C   UNL A   1      35.310  23.018  23.272  1.00  0.00     0.001 A 
ATOM     27  C   UNL A   1      36.656  22.746  23.501  1.00  0.00     0.000 A 
ENDBRANCH  17  22
ENDBRANCH  16  17
ENDBRANCH  14  16
ENDBRANCH   7  14
ENDBRANCH   4   6
ENDBRANCH   3   4
ENDBRANCH   2   3
ENDBRANCH   1   2
BRANCH   1  28
ATOM     28  O   UNL A   1      32.545  30.563  26.833  1.00  0.00    -0.374 OA
BRANCH  28  29
ATOM     29  C   UNL A   1      31.539  31.498  26.437  1.00  0.00     0.202 C 
BRANCH  29  30
ATOM     30  C   UNL A   1      31.749  32.944  26.898  1.00  0.00     0.261 C 
BRANCH  30  31
ATOM     31  O   UNL A   1      33.139  33.316  26.877  1.00  0.00    -0.460 OA
BRANCH  31  32
ATOM     32  C   UNL A   1      33.626  33.778  28.052  1.00  0.00     0.338 C 
ATOM     33  O   UNL A   1      33.109  34.598  28.798  1.00  0.00    -0.246 OA
BRANCH  32  34
ATOM     34  C   UNL A   1      34.834  33.023  28.431  1.00  0.00     0.060 A 
ATOM     35  C   UNL A   1      34.657  31.725  28.927  1.00  0.00     0.016 A 
ATOM     36  C   UNL A   1      36.109  33.591  28.370  1.00  0.00     0.016 A 
ATOM     37  C   UNL A   1      35.747  31.007  29.411  1.00  0.00     0.010 A 
ATOM     38  C   UNL A   1      37.203  32.873  28.865  1.00  0.00     0.010 A 
ATOM     39  C   UNL A   1      37.021  31.592  29.419  1.00  0.00    -0.014 A 
BRANCH  39  40
ATOM     40  C   UNL A   1      38.133  30.916  30.130  1.00  0.00     0.031 A 
ATOM     41  C   UNL A   1      38.376  31.237  31.578  1.00  0.00     0.074 A 
ATOM     42  C   UNL A   1      38.887  29.995  29.506  1.00  0.00     0.049 A 
ATOM     43  N   UNL A   1      39.301  30.782  32.385  1.00  0.00    -0.248 NA
ATOM     44  C   UNL A   1      37.449  32.194  32.202  1.00  0.00     0.031 C 
ATOM     45  C   UNL A   1      38.710  29.559  28.123  1.00  0.00     0.029 A 
ATOM     46  N   UNL A   1      39.951  29.257  29.961  1.00  0.00    -0.354 N 
ATOM     47  C   UNL A   1      39.064  31.392  33.610  1.00  0.00     0.074 A 
ATOM     48  C   UNL A   1      37.933  32.278  33.432  1.00  0.00     0.031 C 
ATOM     49  C   UNL A   1      39.632  28.621  27.843  1.00  0.00     0.029 A 
ATOM     50  C   UNL A   1      40.482  28.418  29.015  1.00  0.00     0.049 A 
ATOM     51  H   UNL A   1      40.298  29.322  30.880  1.00  0.00     0.167 HD
ATOM     52  C   UNL A   1      39.722  31.218  34.780  1.00  0.00     0.037 A 
ATOM     53  C   UNL A   1      41.544  27.590  29.083  1.00  0.00     0.037 A 
ATOM     54  C   UNL A   1      40.851  30.343  34.954  1.00  0.00     0.049 A 
ATOM     55  C   UNL A   1      42.323  27.489  30.368  1.00  0.00     0.074 A 
ATOM     56  C   UNL A   1      41.591  30.107  36.098  1.00  0.00     0.029 A 
ATOM     57  N   UNL A   1      41.404  29.560  33.950  1.00  0.00    -0.354 N 
ATOM     58  N   UNL A   1      42.099  28.075  31.519  1.00  0.00    -0.248 NA
ATOM     59  C   UNL A   1      43.506  26.616  30.362  1.00  0.00     0.031 C 
ATOM     60  C   UNL A   1      42.620  29.216  35.777  1.00  0.00     0.029 A 
ATOM     61  C   UNL A   1      42.489  28.857  34.445  1.00  0.00     0.049 A 
ATOM     62  H   UNL A   1      41.073  29.512  33.024  1.00  0.00     0.167 HD
ATOM     63  C   UNL A   1      43.094  27.626  32.378  1.00  0.00     0.074 A 
ATOM     64  C   UNL A   1      43.919  26.711  31.619  1.00  0.00     0.031 C 
ATOM     65  C   UNL A   1      43.301  27.945  33.679  1.00  0.00     0.037 A 
BRANCH  52  66
ATOM     66  C   UNL A   1      39.245  31.999  35.969  1.00  0.00     0.064 A 
ATOM     67  C   UNL A   1      38.273  31.467  36.829  1.00  0.00     0.173 A 
ATOM     68  C   UNL A   1      39.711  33.297  36.226  1.00  0.00     0.173 A 
ATOM     69  F   UNL A   1      37.793  30.231  36.624  1.00  0.00    -0.203 F 
ATOM     70  C   UNL A   1      37.778  32.209  37.897  1.00  0.00     0.198 A 
ATOM     71  C   UNL A   1      39.232  34.027  37.311  1.00  0.00     0.198 A 
ATOM     72  F   UNL A   1      40.649  33.846  35.440  1.00  0.00    -0.203 F 
ATOM     73  F   UNL A   1      36.830  31.690  38.690  1.00  0.00    -0.200 F 
ATOM     74  C   UNL A   1      38.259  33.487  38.140  1.00  0.00     0.200 A 
ATOM     75  F   UNL A   1      39.715  35.252  37.558  1.00  0.00    -0.200 F 
ATOM     76  F   UNL A   1      37.790  34.195  39.175  1.00  0.00    -0.200 F 
ENDBRANCH  52  66
BRANCH  53  77
ATOM     77  C   UNL A   1      41.919  26.781  27.897  1.00  0.00     0.064 A 
ATOM     78  C   UNL A   1      41.355  25.517  27.666  1.00  0.00     0.173 A 
ATOM     79  C   UNL A   1      42.870  27.249  26.980  1.00  0.00     0.173 A 
ATOM     80  F   UNL A   1      40.438  25.027  28.512  1.00  0.00    -0.203 F 
ATOM     81  C   UNL A   1      41.747  24.743  26.576  1.00  0.00     0.198 A 
ATOM     82  C   UNL A   1      43.242  26.484  25.876  1.00  0.00     0.198 A 
ATOM     83  F   UNL A   1      43.416  28.463  27.144  1.00  0.00    -0.203 F 
ATOM     84  F   UNL A   1      41.217  23.525  26.396  1.00  0.00    -0.200 F 
ATOM     85  C   UNL A   1      42.689  25.227  25.681  1.00  0.00     0.200 A 
ATOM     86  F   UNL A   1      44.135  26.965  25.001  1.00  0.00    -0.200 F 
ATOM     87  F   UNL A   1      43.058  24.487  24.628  1.00  0.00    -0.200 F 
ENDBRANCH  53  77
BRANCH  65  88
ATOM     88  C   UNL A   1      44.451  27.289  34.385  1.00  0.00     0.064 A 
ATOM     89  C   UNL A   1      45.720  27.888  34.386  1.00  0.00     0.173 A 
ATOM     90  C   UNL A   1      44.319  26.028  34.985  1.00  0.00     0.173 A 
ATOM     91  F   UNL A   1      45.900  29.090  33.818  1.00  0.00    -0.203 F 
ATOM     92  C   UNL A   1      46.818  27.241  34.945  1.00  0.00     0.198 A 
ATOM     93  C   UNL A   1      45.415  25.396  35.567  1.00  0.00     0.198 A 
ATOM     94  F   UNL A   1      43.125  25.419  35.021  1.00  0.00    -0.203 F 
ATOM     95  F   UNL A   1      48.027  27.817  34.901  1.00  0.00    -0.200 F 
ATOM     96  C   UNL A   1      46.664  25.998  35.537  1.00  0.00     0.200 A 
ATOM     97  F   UNL A   1      45.261  24.202  36.158  1.00  0.00    -0.200 F 
ATOM     98  F   UNL A   1      47.722  25.377  36.081  1.00  0.00    -0.200 F 
ENDBRANCH  65  88
ENDBRANCH  39  40
ENDBRANCH  32  34
ENDBRANCH  31  32
ENDBRANCH  30  31
ENDBRANCH  29  30
ENDBRANCH  28  29
ENDBRANCH   1  28
TORSDOF 19
ENDMDL
MODEL 2
REMARK VINA RESULT:     -11.3      4.025      9.461
REMARK SMILES [NH3+][C@@H](CNc1ccc(C(=O)OCCOCCOC(=O)c2ccc(-c3c4nc(c(-c5c(F)c(F)c(F)c(F)c5F)c5ccc([nH]5)c(-c5c(F)c(F)c(F)c(F)c5F)c5nc(c(-c6c(F)c(F)c(F)c(F)c6F)c6ccc3[nH]6)C=C5)C=C4)cc2)c(F)c1F)c1ccccc1
REMARK SMILES IDX 13 1 12 2 11 3 9 4 10 5 8 6 5 7 6 8 85 9 7 10 83 11 86 12
REMARK SMILES IDX 84 13 4 14 3 16 2 17 1 18 87 22 88 23 92 24 89 25 91 26
REMARK SMILES IDX 90 27 14 28 15 29 16 30 17 31 18 32 19 33 20 34 21 35 82 36
REMARK SMILES IDX 22 37 81 38 23 39 24 40 25 41 75 42 26 43 80 44 74 45 76 46
REMARK SMILES IDX 27 47 79 48 73 49 72 50 28 52 60 53 40 54 59 55 41 56 44 57
REMARK SMILES IDX 58 58 77 59 42 60 43 61 57 63 78 64 45 65 29 66 30 67 38 68
REMARK SMILES IDX 31 69 32 70 36 71 39 72 33 73 34 74 37 75 35 76 61 77 62 78
REMARK SMILES IDX 70 79 63 80 64 81 68 82 71 83 65 84 66 85 69 86 67 87 46 88
REMARK SMILES IDX 47 89 55 90 48 91 49 92 53 93 56 94 50 95 51 96 54 97 52 98
REMARK H PARENT 4 15 1 19 1 20 1 21 76 51 44 62
REMARK Flexibility Score: inf
ROOT
ATOM      1  C   UNL A   1      45.129  19.898  24.413  1.00  0.00     0.202 C 
ENDROOT
BRANCH   1   2
ATOM      2  C   UNL A   1      44.247  18.810  25.029  1.00  0.00     0.261 C 
BRANCH   2   3
ATOM      3  O   UNL A   1      42.865  19.206  25.034  1.00  0.00    -0.460 OA
BRANCH   3   4
ATOM      4  C   UNL A   1      42.253  19.145  26.238  1.00  0.00     0.341 C 
ATOM      5  O   UNL A   1      42.657  18.575  27.241  1.00  0.00    -0.246 OA
BRANCH   4   6
ATOM      6  C   UNL A   1      41.073  20.022  26.271  1.00  0.00     0.099 A 
ATOM      7  C   UNL A   1      38.798  21.681  26.128  1.00  0.00     0.074 A 
ATOM      8  C   UNL A   1      38.817  20.447  25.472  1.00  0.00     0.030 A 
ATOM      9  C   UNL A   1      39.936  22.047  26.875  1.00  0.00     0.182 A 
ATOM     10  C   UNL A   1      39.948  19.628  25.533  1.00  0.00     0.021 A 
ATOM     11  C   UNL A   1      41.058  21.226  26.961  1.00  0.00     0.175 A 
ATOM     12  F   UNL A   1      39.936  23.225  27.522  1.00  0.00    -0.201 F 
ATOM     13  F   UNL A   1      42.116  21.631  27.678  1.00  0.00    -0.203 F 
BRANCH   7  14
ATOM     14  N   UNL A   1      37.716  22.549  26.056  1.00  0.00    -0.376 N 
ATOM     15  H   UNL A   1      37.588  23.210  26.774  1.00  0.00     0.160 HD
BRANCH  14  16
ATOM     16  C   UNL A   1      36.759  22.515  24.947  1.00  0.00     0.183 C 
BRANCH  16  17
ATOM     17  C   UNL A   1      35.281  22.548  25.462  1.00  0.00     0.231 C 
BRANCH  17  18
ATOM     18  N   UNL A   1      35.193  22.679  26.929  1.00  0.00    -0.350 N 
ATOM     19  H   UNL A   1      35.320  23.656  27.190  1.00  0.00     0.345 HD
ATOM     20  H   UNL A   1      35.920  22.111  27.365  1.00  0.00     0.345 HD
ATOM     21  H   UNL A   1      34.277  22.359  27.243  1.00  0.00     0.345 HD
ENDBRANCH  17  18
BRANCH  17  22
ATOM     22  C   UNL A   1      34.508  21.349  24.922  1.00  0.00     0.011 A 
ATOM     23  C   UNL A   1      33.189  21.451  24.446  1.00  0.00     0.010 A 
ATOM     24  C   UNL A   1      35.089  20.071  24.997  1.00  0.00     0.010 A 
ATOM     25  C   UNL A   1      32.467  20.311  24.084  1.00  0.00     0.001 A 
ATOM     26  C   UNL A   1      34.368  18.933  24.626  1.00  0.00     0.001 A 
ATOM     27  C   UNL A   1      33.056  19.053  24.178  1.00  0.00     0.000 A 
ENDBRANCH  17  22
ENDBRANCH  16  17
ENDBRANCH  14  16
ENDBRANCH   7  14
ENDBRANCH   4   6
ENDBRANCH   3   4
ENDBRANCH   2   3
ENDBRANCH   1   2
BRANCH   1  28
ATOM     28  O   UNL A   1      45.575  20.915  25.310  1.00  0.00    -0.374 OA
BRANCH  28  29
ATOM     29  C   UNL A   1      44.682  22.006  25.545  1.00  0.00     0.202 C 
BRANCH  29  30
ATOM     30  C   UNL A   1      44.141  22.710  24.295  1.00  0.00     0.261 C 
BRANCH  30  31
ATOM     31  O   UNL A   1      43.409  23.903  24.629  1.00  0.00    -0.460 OA
BRANCH  31  32
ATOM     32  C   UNL A   1      44.165  24.932  25.074  1.00  0.00     0.338 C 
ATOM     33  O   UNL A   1      45.238  25.314  24.626  1.00  0.00    -0.246 OA
BRANCH  32  34
ATOM     34  C   UNL A   1      43.437  25.682  26.114  1.00  0.00     0.060 A 
ATOM     35  C   UNL A   1      43.772  27.029  26.295  1.00  0.00     0.016 A 
ATOM     36  C   UNL A   1      42.495  25.068  26.944  1.00  0.00     0.016 A 
ATOM     37  C   UNL A   1      43.206  27.757  27.338  1.00  0.00     0.010 A 
ATOM     38  C   UNL A   1      41.933  25.797  27.997  1.00  0.00     0.010 A 
ATOM     39  C   UNL A   1      42.311  27.134  28.219  1.00  0.00    -0.014 A 
BRANCH  39  40
ATOM     40  C   UNL A   1      41.881  27.843  29.448  1.00  0.00     0.031 A 
ATOM     41  C   UNL A   1      40.663  28.722  29.396  1.00  0.00     0.074 A 
ATOM     42  C   UNL A   1      42.542  27.671  30.606  1.00  0.00     0.049 A 
ATOM     43  N   UNL A   1      40.123  29.449  30.342  1.00  0.00    -0.248 NA
ATOM     44  C   UNL A   1      39.955  28.785  28.109  1.00  0.00     0.031 C 
ATOM     45  C   UNL A   1      43.701  26.801  30.793  1.00  0.00     0.029 A 
ATOM     46  N   UNL A   1      42.326  28.218  31.846  1.00  0.00    -0.354 N 
ATOM     47  C   UNL A   1      39.011  30.049  29.766  1.00  0.00     0.074 A 
ATOM     48  C   UNL A   1      38.974  29.632  28.380  1.00  0.00     0.031 C 
ATOM     49  C   UNL A   1      44.091  26.869  32.077  1.00  0.00     0.029 A 
ATOM     50  C   UNL A   1      43.231  27.810  32.792  1.00  0.00     0.049 A 
ATOM     51  H   UNL A   1      41.590  28.843  32.038  1.00  0.00     0.167 HD
ATOM     52  C   UNL A   1      38.097  30.863  30.345  1.00  0.00     0.037 A 
ATOM     53  C   UNL A   1      43.359  28.168  34.085  1.00  0.00     0.037 A 
ATOM     54  C   UNL A   1      38.140  31.282  31.721  1.00  0.00     0.049 A 
ATOM     55  C   UNL A   1      42.390  29.154  34.681  1.00  0.00     0.074 A 
ATOM     56  C   UNL A   1      37.266  32.114  32.396  1.00  0.00     0.029 A 
ATOM     57  N   UNL A   1      39.116  30.901  32.631  1.00  0.00    -0.354 N 
ATOM     58  N   UNL A   1      41.346  29.724  34.128  1.00  0.00    -0.248 NA
ATOM     59  C   UNL A   1      42.618  29.550  36.078  1.00  0.00     0.031 C 
ATOM     60  C   UNL A   1      37.736  32.272  33.704  1.00  0.00     0.029 A 
ATOM     61  C   UNL A   1      38.875  31.498  33.857  1.00  0.00     0.049 A 
ATOM     62  H   UNL A   1      39.867  30.295  32.435  1.00  0.00     0.167 HD
ATOM     63  C   UNL A   1      40.781  30.525  35.112  1.00  0.00     0.074 A 
ATOM     64  C   UNL A   1      41.592  30.362  36.300  1.00  0.00     0.031 C 
ATOM     65  C   UNL A   1      39.688  31.323  35.034  1.00  0.00     0.037 A 
BRANCH  52  66
ATOM     66  C   UNL A   1      36.974  31.365  29.489  1.00  0.00     0.064 A 
ATOM     67  C   UNL A   1      36.936  32.705  29.074  1.00  0.00     0.173 A 
ATOM     68  C   UNL A   1      35.904  30.534  29.123  1.00  0.00     0.173 A 
ATOM     69  F   UNL A   1      37.932  33.542  29.400  1.00  0.00    -0.203 F 
ATOM     70  C   UNL A   1      35.864  33.196  28.334  1.00  0.00     0.198 A 
ATOM     71  C   UNL A   1      34.846  31.022  28.361  1.00  0.00     0.198 A 
ATOM     72  F   UNL A   1      35.900  29.242  29.485  1.00  0.00    -0.203 F 
ATOM     73  F   UNL A   1      35.837  34.487  27.971  1.00  0.00    -0.200 F 
ATOM     74  C   UNL A   1      34.822  32.354  27.975  1.00  0.00     0.200 A 
ATOM     75  F   UNL A   1      33.852  30.202  27.994  1.00  0.00    -0.200 F 
ATOM     76  F   UNL A   1      33.798  32.825  27.252  1.00  0.00    -0.200 F 
ENDBRANCH  52  66
BRANCH  53  77
ATOM     77  C   UNL A   1      44.445  27.574  34.906  1.00  0.00     0.064 A 
ATOM     78  C   UNL A   1      45.739  28.115  34.907  1.00  0.00     0.173 A 
ATOM     79  C   UNL A   1      44.212  26.435  35.689  1.00  0.00     0.173 A 
ATOM     80  F   UNL A   1      46.011  29.206  34.178  1.00  0.00    -0.203 F 
ATOM     81  C   UNL A   1      46.764  27.524  35.643  1.00  0.00     0.198 A 
ATOM     82  C   UNL A   1      45.232  25.861  36.444  1.00  0.00     0.198 A 
ATOM     83  F   UNL A   1      42.983  25.899  35.741  1.00  0.00    -0.203 F 
ATOM     84  F   UNL A   1      48.000  28.041  35.601  1.00  0.00    -0.200 F 
ATOM     85  C   UNL A   1      46.510  26.399  36.412  1.00  0.00     0.200 A 
ATOM     86  F   UNL A   1      44.977  24.787  37.204  1.00  0.00    -0.200 F 
ATOM     87  F   UNL A   1      47.494  25.837  37.126  1.00  0.00    -0.200 F 
ENDBRANCH  53  77
BRANCH  65  88
ATOM     88  C   UNL A   1      39.279  32.071  36.270  1.00  0.00     0.064 A 
ATOM     89  C   UNL A   1      38.252  31.579  37.090  1.00  0.00     0.173 A 
ATOM     90  C   UNL A   1      39.841  33.314  36.593  1.00  0.00     0.173 A 
ATOM     91  F   UNL A   1      37.676  30.398  36.819  1.00  0.00    -0.203 F 
ATOM     92  C   UNL A   1      37.792  32.314  38.180  1.00  0.00     0.198 A 
ATOM     93  C   UNL A   1      39.395  34.033  37.699  1.00  0.00     0.198 A 
ATOM     94  F   UNL A   1      40.833  33.821  35.847  1.00  0.00    -0.203 F 
ATOM     95  F   UNL A   1      36.785  31.840  38.927  1.00  0.00    -0.200 F 
ATOM     96  C   UNL A   1      38.365  33.538  38.484  1.00  0.00     0.200 A 
ATOM     97  F   UNL A   1      39.964  35.208  38.006  1.00  0.00    -0.200 F 
ATOM     98  F   UNL A   1      37.924  34.242  39.537  1.00  0.00    -0.200 F 
ENDBRANCH  65  88
ENDBRANCH  39  40
ENDBRANCH  32  34
ENDBRANCH  31  32
ENDBRANCH  30  31
ENDBRANCH  29  30
ENDBRANCH  28  29
ENDBRANCH   1  28
TORSDOF 19
ENDMDL
MODEL 3
REMARK VINA RESULT:     -11.2      3.488      8.608
REMARK SMILES [NH3+][C@@H](CNc1ccc(C(=O)OCCOCCOC(=O)c2ccc(-c3c4nc(c(-c5c(F)c(F)c(F)c(F)c5F)c5ccc([nH]5)c(-c5c(F)c(F)c(F)c(F)c5F)c5nc(c(-c6c(F)c(F)c(F)c(F)c6F)c6ccc3[nH]6)C=C5)C=C4)cc2)c(F)c1F)c1ccccc1
REMARK SMILES IDX 13 1 12 2 11 3 9 4 10 5 8 6 5 7 6 8 85 9 7 10 83 11 86 12
REMARK SMILES IDX 84 13 4 14 3 16 2 17 1 18 87 22 88 23 92 24 89 25 91 26
REMARK SMILES IDX 90 27 14 28 15 29 16 30 17 31 18 32 19 33 20 34 21 35 82 36
REMARK SMILES IDX 22 37 81 38 23 39 24 40 25 41 75 42 26 43 80 44 74 45 76 46
REMARK SMILES IDX 27 47 79 48 73 49 72 50 28 52 60 53 40 54 59 55 41 56 44 57
REMARK SMILES IDX 58 58 77 59 42 60 43 61 57 63 78 64 45 65 29 66 30 67 38 68
REMARK SMILES IDX 31 69 32 70 36 71 39 72 33 73 34 74 37 75 35 76 61 77 62 78
REMARK SMILES IDX 70 79 63 80 64 81 68 82 71 83 65 84 66 85 69 86 67 87 46 88
REMARK SMILES IDX 47 89 55 90 48 91 49 92 53 93 56 94 50 95 51 96 54 97 52 98
REMARK H PARENT 4 15 1 19 1 20 1 21 76 51 44 62
REMARK Flexibility Score: inf
ROOT
ATOM      1  C   UNL A   1      40.416  20.025  26.053  1.00  0.00     0.202 C 
ENDROOT
BRANCH   1   2
ATOM      2  C   UNL A   1      39.891  21.458  26.170  1.00  0.00     0.261 C 
BRANCH   2   3
ATOM      3  O   UNL A   1      38.511  21.537  25.780  1.00  0.00    -0.460 OA
BRANCH   3   4
ATOM      4  C   UNL A   1      37.976  22.779  25.802  1.00  0.00     0.341 C 
ATOM      5  O   UNL A   1      38.570  23.833  25.976  1.00  0.00    -0.246 OA
BRANCH   4   6
ATOM      6  C   UNL A   1      36.560  22.747  25.403  1.00  0.00     0.099 A 
ATOM      7  C   UNL A   1      33.829  22.509  24.747  1.00  0.00     0.074 A 
ATOM      8  C   UNL A   1      34.257  22.345  26.067  1.00  0.00     0.030 A 
ATOM      9  C   UNL A   1      34.801  22.819  23.774  1.00  0.00     0.182 A 
ATOM     10  C   UNL A   1      35.613  22.453  26.393  1.00  0.00     0.021 A 
ATOM     11  C   UNL A   1      36.149  22.951  24.094  1.00  0.00     0.175 A 
ATOM     12  F   UNL A   1      34.410  22.989  22.499  1.00  0.00    -0.201 F 
ATOM     13  F   UNL A   1      37.031  23.236  23.124  1.00  0.00    -0.203 F 
BRANCH   7  14
ATOM     14  N   UNL A   1      32.500  22.364  24.369  1.00  0.00    -0.376 N 
ATOM     15  H   UNL A   1      31.981  23.168  24.140  1.00  0.00     0.160 HD
BRANCH  14  16
ATOM     16  C   UNL A   1      31.846  21.055  24.299  1.00  0.00     0.183 C 
BRANCH  16  17
ATOM     17  C   UNL A   1      32.526  20.127  23.239  1.00  0.00     0.231 C 
BRANCH  17  18
ATOM     18  N   UNL A   1      31.799  20.102  21.956  1.00  0.00    -0.350 N 
ATOM     19  H   UNL A   1      32.468  20.084  21.188  1.00  0.00     0.345 HD
ATOM     20  H   UNL A   1      31.214  20.933  21.881  1.00  0.00     0.345 HD
ATOM     21  H   UNL A   1      31.212  19.268  21.915  1.00  0.00     0.345 HD
ENDBRANCH  17  18
BRANCH  17  22
ATOM     22  C   UNL A   1      32.752  18.736  23.825  1.00  0.00     0.011 A 
ATOM     23  C   UNL A   1      32.525  18.439  25.180  1.00  0.00     0.010 A 
ATOM     24  C   UNL A   1      33.309  17.734  23.012  1.00  0.00     0.010 A 
ATOM     25  C   UNL A   1      32.868  17.193  25.709  1.00  0.00     0.001 A 
ATOM     26  C   UNL A   1      33.643  16.485  23.540  1.00  0.00     0.001 A 
ATOM     27  C   UNL A   1      33.431  16.219  24.890  1.00  0.00     0.000 A 
ENDBRANCH  17  22
ENDBRANCH  16  17
ENDBRANCH  14  16
ENDBRANCH   7  14
ENDBRANCH   4   6
ENDBRANCH   3   4
ENDBRANCH   2   3
ENDBRANCH   1   2
BRANCH   1  28
ATOM     28  O   UNL A   1      41.808  19.899  25.761  1.00  0.00    -0.374 OA
BRANCH  28  29
ATOM     29  C   UNL A   1      42.684  20.853  26.364  1.00  0.00     0.202 C 
BRANCH  29  30
ATOM     30  C   UNL A   1      43.571  21.651  25.401  1.00  0.00     0.261 C 
BRANCH  30  31
ATOM     31  O   UNL A   1      42.905  22.830  24.913  1.00  0.00    -0.460 OA
BRANCH  31  32
ATOM     32  C   UNL A   1      43.606  23.979  25.045  1.00  0.00     0.338 C 
ATOM     33  O   UNL A   1      44.596  24.321  24.412  1.00  0.00    -0.246 OA
BRANCH  32  34
ATOM     34  C   UNL A   1      42.915  24.890  25.975  1.00  0.00     0.060 A 
ATOM     35  C   UNL A   1      43.393  26.202  26.071  1.00  0.00     0.016 A 
ATOM     36  C   UNL A   1      41.863  24.457  26.787  1.00  0.00     0.016 A 
ATOM     37  C   UNL A   1      42.859  27.073  27.016  1.00  0.00     0.010 A 
ATOM     38  C   UNL A   1      41.332  25.331  27.742  1.00  0.00     0.010 A 
ATOM     39  C   UNL A   1      41.850  26.631  27.884  1.00  0.00    -0.014 A 
BRANCH  39  40
ATOM     40  C   UNL A   1      41.439  27.485  29.024  1.00  0.00     0.031 A 
ATOM     41  C   UNL A   1      42.258  27.466  30.283  1.00  0.00     0.074 A 
ATOM     42  C   UNL A   1      40.374  28.299  28.921  1.00  0.00     0.049 A 
ATOM     43  N   UNL A   1      42.069  28.114  31.405  1.00  0.00    -0.248 NA
ATOM     44  C   UNL A   1      43.452  26.608  30.276  1.00  0.00     0.031 C 
ATOM     45  C   UNL A   1      39.538  28.446  27.733  1.00  0.00     0.029 A 
ATOM     46  N   UNL A   1      39.820  29.161  29.834  1.00  0.00    -0.354 N 
ATOM     47  C   UNL A   1      43.123  27.746  32.233  1.00  0.00     0.074 A 
ATOM     48  C   UNL A   1      43.926  26.791  31.499  1.00  0.00     0.031 C 
ATOM     49  C   UNL A   1      38.578  29.352  27.987  1.00  0.00     0.029 A 
ATOM     50  C   UNL A   1      38.714  29.822  29.365  1.00  0.00     0.049 A 
ATOM     51  H   UNL A   1      40.184  29.294  30.739  1.00  0.00     0.167 HD
ATOM     52  C   UNL A   1      43.401  28.177  33.485  1.00  0.00     0.037 A 
ATOM     53  C   UNL A   1      37.894  30.695  29.983  1.00  0.00     0.037 A 
ATOM     54  C   UNL A   1      42.598  29.122  34.216  1.00  0.00     0.049 A 
ATOM     55  C   UNL A   1      38.166  31.083  31.412  1.00  0.00     0.074 A 
ATOM     56  C   UNL A   1      42.792  29.612  35.494  1.00  0.00     0.029 A 
ATOM     57  N   UNL A   1      41.442  29.716  33.730  1.00  0.00    -0.354 N 
ATOM     58  N   UNL A   1      39.159  30.725  32.191  1.00  0.00    -0.248 NA
ATOM     59  C   UNL A   1      37.203  31.992  32.050  1.00  0.00     0.031 C 
ATOM     60  C   UNL A   1      41.730  30.470  35.800  1.00  0.00     0.029 A 
ATOM     61  C   UNL A   1      40.902  30.553  34.692  1.00  0.00     0.049 A 
ATOM     62  H   UNL A   1      41.063  29.566  32.833  1.00  0.00     0.167 HD
ATOM     63  C   UNL A   1      38.954  31.380  33.398  1.00  0.00     0.074 A 
ATOM     64  C   UNL A   1      37.747  32.166  33.248  1.00  0.00     0.031 C 
ATOM     65  C   UNL A   1      39.702  31.334  34.528  1.00  0.00     0.037 A 
BRANCH  52  66
ATOM     66  C   UNL A   1      44.624  27.625  34.155  1.00  0.00     0.064 A 
ATOM     67  C   UNL A   1      45.882  28.204  33.935  1.00  0.00     0.173 A 
ATOM     68  C   UNL A   1      44.559  26.486  34.973  1.00  0.00     0.173 A 
ATOM     69  F   UNL A   1      45.998  29.292  33.158  1.00  0.00    -0.203 F 
ATOM     70  C   UNL A   1      47.031  27.659  34.500  1.00  0.00     0.198 A 
ATOM     71  C   UNL A   1      45.707  25.959  35.558  1.00  0.00     0.198 A 
ATOM     72  F   UNL A   1      43.377  25.903  35.224  1.00  0.00    -0.203 F 
ATOM     73  F   UNL A   1      48.226  28.215  34.254  1.00  0.00    -0.200 F 
ATOM     74  C   UNL A   1      46.943  26.540  35.314  1.00  0.00     0.200 A 
ATOM     75  F   UNL A   1      45.617  24.892  36.363  1.00  0.00    -0.200 F 
ATOM     76  F   UNL A   1      48.048  26.024  35.868  1.00  0.00    -0.200 F 
ENDBRANCH  52  66
BRANCH  53  77
ATOM     77  C   UNL A   1      36.744  31.272  29.241  1.00  0.00     0.064 A 
ATOM     78  C   UNL A   1      35.641  30.485  28.877  1.00  0.00     0.173 A 
ATOM     79  C   UNL A   1      36.738  32.621  28.862  1.00  0.00     0.173 A 
ATOM     80  F   UNL A   1      35.598  29.190  29.220  1.00  0.00    -0.203 F 
ATOM     81  C   UNL A   1      34.587  31.022  28.140  1.00  0.00     0.198 A 
ATOM     82  C   UNL A   1      35.672  33.162  28.147  1.00  0.00     0.198 A 
ATOM     83  F   UNL A   1      37.758  33.419  29.212  1.00  0.00    -0.203 F 
ATOM     84  F   UNL A   1      33.561  30.241  27.776  1.00  0.00    -0.200 F 
ATOM     85  C   UNL A   1      34.602  32.360  27.777  1.00  0.00     0.200 A 
ATOM     86  F   UNL A   1      35.679  34.461  27.819  1.00  0.00    -0.200 F 
ATOM     87  F   UNL A   1      33.585  32.878  27.077  1.00  0.00    -0.200 F 
ENDBRANCH  53  77
BRANCH  65  88
ATOM     88  C   UNL A   1      39.260  32.169  35.694  1.00  0.00     0.064 A 
ATOM     89  C   UNL A   1      39.738  33.479  35.851  1.00  0.00     0.173 A 
ATOM     90  C   UNL A   1      38.434  31.645  36.699  1.00  0.00     0.173 A 
ATOM     91  F   UNL A   1      40.537  34.023  34.922  1.00  0.00    -0.203 F 
ATOM     92  C   UNL A   1      39.420  34.227  36.981  1.00  0.00     0.198 A 
ATOM     93  C   UNL A   1      38.097  32.406  37.815  1.00  0.00     0.198 A 
ATOM     94  F   UNL A   1      37.942  30.403  36.589  1.00  0.00    -0.203 F 
ATOM     95  F   UNL A   1      39.918  35.463  37.127  1.00  0.00    -0.200 F 
ATOM     96  C   UNL A   1      38.598  33.691  37.960  1.00  0.00     0.200 A 
ATOM     97  F   UNL A   1      37.285  31.895  38.752  1.00  0.00    -0.200 F 
ATOM     98  F   UNL A   1      38.288  34.415  39.046  1.00  0.00    -0.200 F 
ENDBRANCH  65  88
ENDBRANCH  39  40
ENDBRANCH  32  34
ENDBRANCH  31  32
ENDBRANCH  30  31
ENDBRANCH  29  30
ENDBRANCH  28  29
ENDBRANCH   1  28
TORSDOF 19
ENDMDL
