MODEL 1
REMARK VINA RESULT:     -11.9      0.000      0.000
REMARK SMILES Cn1cc([N+](=O)[O-])cc1C(=O)N1CCC[C@@H](C(=O)OCCOCCOC(=O)c2ccc(-c3c4nc(c(-c5c(F)c(F)c(F)c(F)c5F)c5ccc([nH]5)c(-c5c(F)c(F)c(F)c(F)c5F)c5nc(c(-c6c(F)c(F)c(F)c(F)c6F)c6ccc3[nH]6)C=C5)C=C4)cc2)C1
REMARK SMILES IDX 21 1 20 2 19 3 17 4 18 5 16 6 12 7 13 8 91 9 14 10 15 11
REMARK SMILES IDX 10 12 11 13 9 14 1 15 2 16 3 17 4 18 8 19 5 20 6 21 7 22
REMARK SMILES IDX 22 23 23 24 24 25 25 26 26 27 27 28 28 29 29 30 90 31 30 32
REMARK SMILES IDX 89 33 31 34 32 35 33 36 83 37 34 38 88 39 82 40 84 41 35 42
REMARK SMILES IDX 87 43 81 44 80 45 36 47 68 48 48 49 67 50 49 51 52 52 66 53
REMARK SMILES IDX 85 54 50 55 51 56 65 58 86 59 53 60 37 61 38 62 46 63 39 64
REMARK SMILES IDX 40 65 44 66 47 67 41 68 42 69 45 70 43 71 69 72 70 73 78 74
REMARK SMILES IDX 71 75 72 76 76 77 79 78 73 79 74 80 77 81 75 82 54 83 55 84
REMARK SMILES IDX 63 85 56 86 57 87 61 88 64 89 58 90 59 91 62 92 60 93
REMARK H PARENT 84 46 52 57
REMARK Flexibility Score: inf
ROOT
ATOM      1  C   UNL A   1      33.069  28.257  24.023  1.00  0.00     0.202 C 
ENDROOT
BRANCH   1   2
ATOM      2  C   UNL A   1      32.638  26.871  23.538  1.00  0.00     0.261 C 
BRANCH   2   3
ATOM      3  O   UNL A   1      33.336  25.827  24.250  1.00  0.00    -0.463 OA
BRANCH   3   4
ATOM      4  C   UNL A   1      33.775  24.784  23.494  1.00  0.00     0.310 C 
ATOM      5  O   UNL A   1      34.021  24.838  22.296  1.00  0.00    -0.252 OA
BRANCH   4   6
ATOM      6  C   UNL A   1      33.902  23.508  24.297  1.00  0.00     0.119 C 
ATOM      7  N   UNL A   1      33.756  21.037  24.325  1.00  0.00    -0.337 N 
ATOM      8  C   UNL A   1      35.032  20.923  25.023  1.00  0.00     0.120 C 
ATOM      9  C   UNL A   1      33.543  22.238  23.509  1.00  0.00     0.135 C 
ATOM     10  C   UNL A   1      35.383  22.181  25.805  1.00  0.00     0.022 C 
ATOM     11  C   UNL A   1      35.305  23.407  24.902  1.00  0.00     0.019 C 
BRANCH   7  12
ATOM     12  C   UNL A   1      32.717  20.209  24.732  1.00  0.00     0.270 C 
ATOM     13  O   UNL A   1      31.776  20.673  25.375  1.00  0.00    -0.267 OA
BRANCH  12  14
ATOM     14  C   UNL A   1      32.825  18.775  24.481  1.00  0.00     0.114 A 
ATOM     15  C   UNL A   1      32.396  18.591  21.973  1.00  0.00     0.150 C 
ATOM     16  N   UNL A   1      32.692  18.075  23.292  1.00  0.00    -0.340 N 
ATOM     17  C   UNL A   1      33.051  16.756  23.476  1.00  0.00     0.172 A 
ATOM     18  C   UNL A   1      33.486  16.600  24.775  1.00  0.00     0.287 A 
ATOM     19  C   UNL A   1      33.306  17.852  25.412  1.00  0.00     0.119 A 
BRANCH  18  20
ATOM     20  N   UNL A   1      34.063  15.400  25.328  1.00  0.00     0.064 N 
ATOM     21  O   UNL A   1      33.277  14.517  25.700  1.00  0.00    -0.258 OA
ATOM     22  O   UNL A   1      35.297  15.341  25.375  1.00  0.00    -0.258 OA
ENDBRANCH  18  20
ENDBRANCH  12  14
ENDBRANCH   7  12
ENDBRANCH   4   6
ENDBRANCH   3   4
ENDBRANCH   2   3
ENDBRANCH   1   2
BRANCH   1  23
ATOM     23  O   UNL A   1      32.415  28.735  25.198  1.00  0.00    -0.374 OA
BRANCH  23  24
ATOM     24  C   UNL A   1      31.409  29.729  25.025  1.00  0.00     0.202 C 
BRANCH  24  25
ATOM     25  C   UNL A   1      31.501  30.943  25.957  1.00  0.00     0.261 C 
BRANCH  25  26
ATOM     26  O   UNL A   1      32.464  30.743  27.011  1.00  0.00    -0.460 OA
BRANCH  26  27
ATOM     27  C   UNL A   1      33.211  31.836  27.295  1.00  0.00     0.338 C 
ATOM     28  O   UNL A   1      32.847  33.004  27.291  1.00  0.00    -0.246 OA
BRANCH  27  29
ATOM     29  C   UNL A   1      34.547  31.444  27.781  1.00  0.00     0.060 A 
ATOM     30  C   UNL A   1      34.738  30.097  28.116  1.00  0.00     0.016 A 
ATOM     31  C   UNL A   1      35.562  32.379  27.999  1.00  0.00     0.016 A 
ATOM     32  C   UNL A   1      35.923  29.687  28.724  1.00  0.00     0.010 A 
ATOM     33  C   UNL A   1      36.749  31.967  28.617  1.00  0.00     0.010 A 
ATOM     34  C   UNL A   1      36.919  30.627  29.017  1.00  0.00    -0.014 A 
BRANCH  34  35
ATOM     35  C   UNL A   1      38.059  30.240  29.883  1.00  0.00     0.031 A 
ATOM     36  C   UNL A   1      39.088  29.282  29.347  1.00  0.00     0.074 A 
ATOM     37  C   UNL A   1      38.197  30.754  31.117  1.00  0.00     0.049 A 
ATOM     38  N   UNL A   1      40.135  28.769  29.939  1.00  0.00    -0.248 NA
ATOM     39  C   UNL A   1      38.911  28.845  27.952  1.00  0.00     0.031 C 
ATOM     40  C   UNL A   1      37.296  31.726  31.732  1.00  0.00     0.029 A 
ATOM     41  N   UNL A   1      39.150  30.519  32.078  1.00  0.00    -0.354 N 
ATOM     42  C   UNL A   1      40.735  27.944  28.996  1.00  0.00     0.074 A 
ATOM     43  C   UNL A   1      39.923  28.005  27.800  1.00  0.00     0.031 C 
ATOM     44  C   UNL A   1      37.731  31.996  32.975  1.00  0.00     0.029 A 
ATOM     45  C   UNL A   1      38.920  31.191  33.254  1.00  0.00     0.049 A 
ATOM     46  H   UNL A   1      39.923  29.926  31.938  1.00  0.00     0.167 HD
ATOM     47  C   UNL A   1      41.866  27.207  29.116  1.00  0.00     0.037 A 
ATOM     48  C   UNL A   1      39.581  31.141  34.426  1.00  0.00     0.037 A 
ATOM     49  C   UNL A   1      42.679  27.154  30.301  1.00  0.00     0.049 A 
ATOM     50  C   UNL A   1      40.797  30.260  34.556  1.00  0.00     0.074 A 
ATOM     51  C   UNL A   1      43.854  26.454  30.510  1.00  0.00     0.029 A 
ATOM     52  N   UNL A   1      42.397  27.825  31.481  1.00  0.00    -0.354 N 
ATOM     53  N   UNL A   1      41.367  29.498  33.655  1.00  0.00    -0.248 NA
ATOM     54  C   UNL A   1      41.461  30.233  35.868  1.00  0.00     0.031 C 
ATOM     55  C   UNL A   1      44.259  26.664  31.832  1.00  0.00     0.029 A 
ATOM     56  C   UNL A   1      43.362  27.535  32.431  1.00  0.00     0.049 A 
ATOM     57  H   UNL A   1      41.625  28.420  31.623  1.00  0.00     0.167 HD
ATOM     58  C   UNL A   1      42.468  28.924  34.279  1.00  0.00     0.074 A 
ATOM     59  C   UNL A   1      42.492  29.432  35.635  1.00  0.00     0.031 C 
ATOM     60  C   UNL A   1      43.379  28.057  33.773  1.00  0.00     0.037 A 
BRANCH  47  61
ATOM     61  C   UNL A   1      42.278  26.376  27.937  1.00  0.00     0.064 A 
ATOM     62  C   UNL A   1      41.734  25.106  27.704  1.00  0.00     0.173 A 
ATOM     63  C   UNL A   1      43.203  26.878  27.007  1.00  0.00     0.173 A 
ATOM     64  F   UNL A   1      40.858  24.577  28.570  1.00  0.00    -0.203 F 
ATOM     65  C   UNL A   1      42.116  24.357  26.593  1.00  0.00     0.198 A 
ATOM     66  C   UNL A   1      43.564  26.137  25.886  1.00  0.00     0.198 A 
ATOM     67  F   UNL A   1      43.749  28.089  27.185  1.00  0.00    -0.203 F 
ATOM     68  F   UNL A   1      41.614  23.128  26.411  1.00  0.00    -0.200 F 
ATOM     69  C   UNL A   1      43.025  24.875  25.682  1.00  0.00     0.200 A 
ATOM     70  F   UNL A   1      44.434  26.644  25.002  1.00  0.00    -0.200 F 
ATOM     71  F   UNL A   1      43.387  24.156  24.612  1.00  0.00    -0.200 F 
ENDBRANCH  47  61
BRANCH  48  72
ATOM     72  C   UNL A   1      39.096  31.937  35.584  1.00  0.00     0.064 A 
ATOM     73  C   UNL A   1      39.470  33.277  35.750  1.00  0.00     0.173 A 
ATOM     74  C   UNL A   1      38.260  31.367  36.555  1.00  0.00     0.173 A 
ATOM     75  F   UNL A   1      40.290  33.858  34.862  1.00  0.00    -0.203 F 
ATOM     76  C   UNL A   1      39.038  34.013  36.851  1.00  0.00     0.198 A 
ATOM     77  C   UNL A   1      37.806  32.110  37.641  1.00  0.00     0.198 A 
ATOM     78  F   UNL A   1      37.875  30.086  36.442  1.00  0.00    -0.203 F 
ATOM     79  F   UNL A   1      39.443  35.279  37.009  1.00  0.00    -0.200 F 
ATOM     80  C   UNL A   1      38.201  33.430  37.793  1.00  0.00     0.200 A 
ATOM     81  F   UNL A   1      36.989  31.547  38.541  1.00  0.00    -0.200 F 
ATOM     82  F   UNL A   1      37.781  34.141  38.849  1.00  0.00    -0.200 F 
ENDBRANCH  48  72
BRANCH  60  83
ATOM     83  C   UNL A   1      44.501  27.628  34.671  1.00  0.00     0.064 A 
ATOM     84  C   UNL A   1      44.434  26.442  35.416  1.00  0.00     0.173 A 
ATOM     85  C   UNL A   1      45.684  28.382  34.738  1.00  0.00     0.173 A 
ATOM     86  F   UNL A   1      43.320  25.694  35.395  1.00  0.00    -0.203 F 
ATOM     87  C   UNL A   1      45.505  26.034  36.208  1.00  0.00     0.198 A 
ATOM     88  C   UNL A   1      46.761  27.957  35.511  1.00  0.00     0.198 A 
ATOM     89  F   UNL A   1      45.800  29.520  34.038  1.00  0.00    -0.203 F 
ATOM     90  F   UNL A   1      45.406  24.915  36.939  1.00  0.00    -0.200 F 
ATOM     91  C   UNL A   1      46.669  26.786  36.247  1.00  0.00     0.200 A 
ATOM     92  F   UNL A   1      47.890  28.679  35.537  1.00  0.00    -0.200 F 
ATOM     93  F   UNL A   1      47.702  26.385  37.002  1.00  0.00    -0.200 F 
ENDBRANCH  60  83
ENDBRANCH  34  35
ENDBRANCH  27  29
ENDBRANCH  26  27
ENDBRANCH  25  26
ENDBRANCH  24  25
ENDBRANCH  23  24
ENDBRANCH   1  23
TORSDOF 17
ENDMDL
MODEL 2
REMARK VINA RESULT:     -11.7      0.535      7.321
REMARK SMILES Cn1cc([N+](=O)[O-])cc1C(=O)N1CCC[C@@H](C(=O)OCCOCCOC(=O)c2ccc(-c3c4nc(c(-c5c(F)c(F)c(F)c(F)c5F)c5ccc([nH]5)c(-c5c(F)c(F)c(F)c(F)c5F)c5nc(c(-c6c(F)c(F)c(F)c(F)c6F)c6ccc3[nH]6)C=C5)C=C4)cc2)C1
REMARK SMILES IDX 21 1 20 2 19 3 17 4 18 5 16 6 12 7 13 8 91 9 14 10 15 11
REMARK SMILES IDX 10 12 11 13 9 14 1 15 2 16 3 17 4 18 8 19 5 20 6 21 7 22
REMARK SMILES IDX 22 23 23 24 24 25 25 26 26 27 27 28 28 29 29 30 90 31 30 32
REMARK SMILES IDX 89 33 31 34 32 35 33 36 83 37 34 38 88 39 82 40 84 41 35 42
REMARK SMILES IDX 87 43 81 44 80 45 36 47 68 48 48 49 67 50 49 51 52 52 66 53
REMARK SMILES IDX 85 54 50 55 51 56 65 58 86 59 53 60 37 61 38 62 46 63 39 64
REMARK SMILES IDX 40 65 44 66 47 67 41 68 42 69 45 70 43 71 69 72 70 73 78 74
REMARK SMILES IDX 71 75 72 76 76 77 79 78 73 79 74 80 77 81 75 82 54 83 55 84
REMARK SMILES IDX 63 85 56 86 57 87 61 88 64 89 58 90 59 91 62 92 60 93
REMARK H PARENT 84 46 52 57
REMARK Flexibility Score: inf
ROOT
ATOM      1  C   UNL A   1      33.021  28.281  24.068  1.00  0.00     0.202 C 
ENDROOT
BRANCH   1   2
ATOM      2  C   UNL A   1      32.560  26.896  23.609  1.00  0.00     0.261 C 
BRANCH   2   3
ATOM      3  O   UNL A   1      33.246  25.851  24.329  1.00  0.00    -0.463 OA
BRANCH   3   4
ATOM      4  C   UNL A   1      33.730  24.827  23.574  1.00  0.00     0.310 C 
ATOM      5  O   UNL A   1      34.006  24.901  22.384  1.00  0.00    -0.252 OA
BRANCH   4   6
ATOM      6  C   UNL A   1      33.866  23.545  24.366  1.00  0.00     0.119 C 
ATOM      7  N   UNL A   1      33.773  21.072  24.364  1.00  0.00    -0.337 N 
ATOM      8  C   UNL A   1      35.034  20.977  25.090  1.00  0.00     0.120 C 
ATOM      9  C   UNL A   1      33.552  22.277  23.556  1.00  0.00     0.135 C 
ATOM     10  C   UNL A   1      35.340  22.233  25.894  1.00  0.00     0.022 C 
ATOM     11  C   UNL A   1      35.256  23.467  25.002  1.00  0.00     0.019 C 
BRANCH   7  12
ATOM     12  C   UNL A   1      32.742  20.218  24.737  1.00  0.00     0.270 C 
ATOM     13  O   UNL A   1      31.782  20.652  25.372  1.00  0.00    -0.267 OA
BRANCH  12  14
ATOM     14  C   UNL A   1      32.881  18.791  24.462  1.00  0.00     0.114 A 
ATOM     15  C   UNL A   1      32.380  18.629  21.966  1.00  0.00     0.150 C 
ATOM     16  N   UNL A   1      32.730  18.103  23.268  1.00  0.00    -0.340 N 
ATOM     17  C   UNL A   1      33.130  16.793  23.421  1.00  0.00     0.172 A 
ATOM     18  C   UNL A   1      33.611  16.630  24.703  1.00  0.00     0.287 A 
ATOM     19  C   UNL A   1      33.416  17.869  25.364  1.00  0.00     0.119 A 
BRANCH  18  20
ATOM     20  N   UNL A   1      34.236  15.439  25.221  1.00  0.00     0.064 N 
ATOM     21  O   UNL A   1      33.499  14.472  25.457  1.00  0.00    -0.258 OA
ATOM     22  O   UNL A   1      35.463  15.473  25.376  1.00  0.00    -0.258 OA
ENDBRANCH  18  20
ENDBRANCH  12  14
ENDBRANCH   7  12
ENDBRANCH   4   6
ENDBRANCH   3   4
ENDBRANCH   2   3
ENDBRANCH   1   2
BRANCH   1  23
ATOM     23  O   UNL A   1      32.427  28.766  25.272  1.00  0.00    -0.374 OA
BRANCH  23  24
ATOM     24  C   UNL A   1      31.472  29.816  25.151  1.00  0.00     0.202 C 
BRANCH  24  25
ATOM     25  C   UNL A   1      31.649  30.995  26.115  1.00  0.00     0.261 C 
BRANCH  25  26
ATOM     26  O   UNL A   1      32.591  30.698  27.164  1.00  0.00    -0.460 OA
BRANCH  26  27
ATOM     27  C   UNL A   1      33.395  31.736  27.500  1.00  0.00     0.338 C 
ATOM     28  O   UNL A   1      33.076  32.911  27.616  1.00  0.00    -0.246 OA
BRANCH  27  29
ATOM     29  C   UNL A   1      34.737  31.257  27.877  1.00  0.00     0.060 A 
ATOM     30  C   UNL A   1      34.866  29.901  28.202  1.00  0.00     0.016 A 
ATOM     31  C   UNL A   1      35.826  32.122  28.005  1.00  0.00     0.016 A 
ATOM     32  C   UNL A   1      36.068  29.413  28.714  1.00  0.00     0.010 A 
ATOM     33  C   UNL A   1      37.030  31.633  28.526  1.00  0.00     0.010 A 
ATOM     34  C   UNL A   1      37.143  30.285  28.919  1.00  0.00    -0.014 A 
BRANCH  34  35
ATOM     35  C   UNL A   1      38.323  29.824  29.690  1.00  0.00     0.031 A 
ATOM     36  C   UNL A   1      38.540  30.358  31.079  1.00  0.00     0.074 A 
ATOM     37  C   UNL A   1      39.175  28.919  29.176  1.00  0.00     0.049 A 
ATOM     38  N   UNL A   1      39.522  30.134  31.914  1.00  0.00    -0.248 NA
ATOM     39  C   UNL A   1      37.506  31.268  31.598  1.00  0.00     0.031 C 
ATOM     40  C   UNL A   1      39.049  28.291  27.864  1.00  0.00     0.029 A 
ATOM     41  N   UNL A   1      40.324  28.379  29.702  1.00  0.00    -0.354 N 
ATOM     42  C   UNL A   1      39.231  30.880  33.049  1.00  0.00     0.074 A 
ATOM     43  C   UNL A   1      37.993  31.583  32.789  1.00  0.00     0.031 C 
ATOM     44  C   UNL A   1      40.089  27.459  27.678  1.00  0.00     0.029 A 
ATOM     45  C   UNL A   1      40.969  27.523  28.844  1.00  0.00     0.049 A 
ATOM     46  H   UNL A   1      40.653  28.587  30.606  1.00  0.00     0.167 HD
ATOM     47  C   UNL A   1      39.930  30.965  34.206  1.00  0.00     0.037 A 
ATOM     48  C   UNL A   1      42.147  26.883  28.978  1.00  0.00     0.037 A 
ATOM     49  C   UNL A   1      41.156  30.259  34.468  1.00  0.00     0.049 A 
ATOM     50  C   UNL A   1      42.942  27.049  30.249  1.00  0.00     0.074 A 
ATOM     51  C   UNL A   1      41.925  30.264  35.618  1.00  0.00     0.029 A 
ATOM     52  N   UNL A   1      41.793  29.424  33.563  1.00  0.00    -0.354 N 
ATOM     53  N   UNL A   1      42.651  27.742  31.322  1.00  0.00    -0.248 NA
ATOM     54  C   UNL A   1      44.229  26.343  30.324  1.00  0.00     0.031 C 
ATOM     55  C   UNL A   1      43.053  29.468  35.394  1.00  0.00     0.029 A 
ATOM     56  C   UNL A   1      42.961  28.928  34.120  1.00  0.00     0.049 A 
ATOM     57  H   UNL A   1      41.465  29.214  32.659  1.00  0.00     0.167 HD
ATOM     58  C   UNL A   1      43.700  27.534  32.209  1.00  0.00     0.074 A 
ATOM     59  C   UNL A   1      44.633  26.643  31.551  1.00  0.00     0.031 C 
ATOM     60  C   UNL A   1      43.873  28.034  33.457  1.00  0.00     0.037 A 
BRANCH  47  61
ATOM     61  C   UNL A   1      39.397  31.877  35.271  1.00  0.00     0.064 A 
ATOM     62  C   UNL A   1      39.702  33.245  35.291  1.00  0.00     0.173 A 
ATOM     63  C   UNL A   1      38.537  31.379  36.262  1.00  0.00     0.173 A 
ATOM     64  F   UNL A   1      40.531  33.765  34.374  1.00  0.00    -0.203 F 
ATOM     65  C   UNL A   1      39.182  34.079  36.278  1.00  0.00     0.198 A 
ATOM     66  C   UNL A   1      38.000  32.220  37.232  1.00  0.00     0.198 A 
ATOM     67  F   UNL A   1      38.213  30.078  36.283  1.00  0.00    -0.203 F 
ATOM     68  F   UNL A   1      39.520  35.376  36.303  1.00  0.00    -0.200 F 
ATOM     69  C   UNL A   1      38.328  33.568  37.243  1.00  0.00     0.200 A 
ATOM     70  F   UNL A   1      37.166  31.726  38.157  1.00  0.00    -0.200 F 
ATOM     71  F   UNL A   1      37.824  34.372  38.188  1.00  0.00    -0.200 F 
ENDBRANCH  47  61
BRANCH  48  72
ATOM     72  C   UNL A   1      42.662  26.039  27.869  1.00  0.00     0.064 A 
ATOM     73  C   UNL A   1      42.284  24.696  27.744  1.00  0.00     0.173 A 
ATOM     74  C   UNL A   1      43.554  26.558  26.919  1.00  0.00     0.173 A 
ATOM     75  F   UNL A   1      41.454  24.148  28.643  1.00  0.00    -0.203 F 
ATOM     76  C   UNL A   1      42.790  23.899  26.719  1.00  0.00     0.198 A 
ATOM     77  C   UNL A   1      44.039  25.768  25.880  1.00  0.00     0.198 A 
ATOM     78  F   UNL A   1      43.949  27.838  26.996  1.00  0.00    -0.203 F 
ATOM     79  F   UNL A   1      42.446  22.607  26.646  1.00  0.00    -0.200 F 
ATOM     80  C   UNL A   1      43.663  24.438  25.785  1.00  0.00     0.200 A 
ATOM     81  F   UNL A   1      44.873  26.295  24.973  1.00  0.00    -0.200 F 
ATOM     82  F   UNL A   1      44.145  23.671  24.796  1.00  0.00    -0.200 F 
ENDBRANCH  48  72
BRANCH  60  83
ATOM     83  C   UNL A   1      45.096  27.604  34.213  1.00  0.00     0.064 A 
ATOM     84  C   UNL A   1      45.104  26.444  35.000  1.00  0.00     0.173 A 
ATOM     85  C   UNL A   1      46.292  28.331  34.098  1.00  0.00     0.173 A 
ATOM     86  F   UNL A   1      43.982  25.724  35.152  1.00  0.00    -0.203 F 
ATOM     87  C   UNL A   1      46.262  26.034  35.657  1.00  0.00     0.198 A 
ATOM     88  C   UNL A   1      47.454  27.903  34.736  1.00  0.00     0.198 A 
ATOM     89  F   UNL A   1      46.338  29.444  33.351  1.00  0.00    -0.203 F 
ATOM     90  F   UNL A   1      46.238  24.941  36.432  1.00  0.00    -0.200 F 
ATOM     91  C   UNL A   1      47.436  26.758  35.517  1.00  0.00     0.200 A 
ATOM     92  F   UNL A   1      48.590  28.597  34.588  1.00  0.00    -0.200 F 
ATOM     93  F   UNL A   1      48.552  26.355  36.142  1.00  0.00    -0.200 F 
ENDBRANCH  60  83
ENDBRANCH  34  35
ENDBRANCH  27  29
ENDBRANCH  26  27
ENDBRANCH  25  26
ENDBRANCH  24  25
ENDBRANCH  23  24
ENDBRANCH   1  23
TORSDOF 17
ENDMDL
MODEL 3
REMARK VINA RESULT:     -11.7      4.461     10.298
REMARK SMILES Cn1cc([N+](=O)[O-])cc1C(=O)N1CCC[C@@H](C(=O)OCCOCCOC(=O)c2ccc(-c3c4nc(c(-c5c(F)c(F)c(F)c(F)c5F)c5ccc([nH]5)c(-c5c(F)c(F)c(F)c(F)c5F)c5nc(c(-c6c(F)c(F)c(F)c(F)c6F)c6ccc3[nH]6)C=C5)C=C4)cc2)C1
REMARK SMILES IDX 21 1 20 2 19 3 17 4 18 5 16 6 12 7 13 8 91 9 14 10 15 11
REMARK SMILES IDX 10 12 11 13 9 14 1 15 2 16 3 17 4 18 8 19 5 20 6 21 7 22
REMARK SMILES IDX 22 23 23 24 24 25 25 26 26 27 27 28 28 29 29 30 90 31 30 32
REMARK SMILES IDX 89 33 31 34 32 35 33 36 83 37 34 38 88 39 82 40 84 41 35 42
REMARK SMILES IDX 87 43 81 44 80 45 36 47 68 48 48 49 67 50 49 51 52 52 66 53
REMARK SMILES IDX 85 54 50 55 51 56 65 58 86 59 53 60 37 61 38 62 46 63 39 64
REMARK SMILES IDX 40 65 44 66 47 67 41 68 42 69 45 70 43 71 69 72 70 73 78 74
REMARK SMILES IDX 71 75 72 76 76 77 79 78 73 79 74 80 77 81 75 82 54 83 55 84
REMARK SMILES IDX 63 85 56 86 57 87 61 88 64 89 58 90 59 91 62 92 60 93
REMARK H PARENT 84 46 52 57
REMARK Flexibility Score: inf
ROOT
ATOM      1  C   UNL A   1      32.894  20.504  24.553  1.00  0.00     0.202 C 
ENDROOT
BRANCH   1   2
ATOM      2  C   UNL A   1      31.826  21.553  24.865  1.00  0.00     0.261 C 
BRANCH   2   3
ATOM      3  O   UNL A   1      31.872  21.950  26.251  1.00  0.00    -0.463 OA
BRANCH   3   4
ATOM      4  C   UNL A   1      31.457  23.218  26.521  1.00  0.00     0.310 C 
ATOM      5  O   UNL A   1      30.550  23.513  27.288  1.00  0.00    -0.252 OA
BRANCH   4   6
ATOM      6  C   UNL A   1      32.228  24.254  25.733  1.00  0.00     0.119 C 
ATOM      7  N   UNL A   1      32.387  26.603  24.970  1.00  0.00    -0.337 N 
ATOM      8  C   UNL A   1      33.794  26.680  25.346  1.00  0.00     0.120 C 
ATOM      9  C   UNL A   1      31.552  25.634  25.688  1.00  0.00     0.135 C 
ATOM     10  C   UNL A   1      34.462  25.312  25.386  1.00  0.00     0.022 C 
ATOM     11  C   UNL A   1      33.661  24.355  26.263  1.00  0.00     0.019 C 
BRANCH   7  12
ATOM     12  C   UNL A   1      32.005  27.177  23.764  1.00  0.00     0.270 C 
ATOM     13  O   UNL A   1      32.581  26.864  22.723  1.00  0.00    -0.267 OA
BRANCH  12  14
ATOM     14  C   UNL A   1      30.996  28.233  23.779  1.00  0.00     0.114 A 
ATOM     15  C   UNL A   1      31.994  29.967  25.361  1.00  0.00     0.150 C 
ATOM     16  N   UNL A   1      30.990  29.438  24.463  1.00  0.00    -0.340 N 
ATOM     17  C   UNL A   1      29.927  30.213  24.049  1.00  0.00     0.172 A 
ATOM     18  C   UNL A   1      29.267  29.545  23.041  1.00  0.00     0.287 A 
ATOM     19  C   UNL A   1      29.911  28.291  22.901  1.00  0.00     0.119 A 
BRANCH  18  20
ATOM     20  N   UNL A   1      28.175  30.070  22.259  1.00  0.00     0.064 N 
ATOM     21  O   UNL A   1      27.271  30.654  22.875  1.00  0.00    -0.258 OA
ATOM     22  O   UNL A   1      28.234  29.909  21.035  1.00  0.00    -0.258 OA
ENDBRANCH  18  20
ENDBRANCH  12  14
ENDBRANCH   7  12
ENDBRANCH   4   6
ENDBRANCH   3   4
ENDBRANCH   2   3
ENDBRANCH   1   2
BRANCH   1  23
ATOM     23  O   UNL A   1      34.081  20.571  25.343  1.00  0.00    -0.374 OA
BRANCH  23  24
ATOM     24  C   UNL A   1      35.169  21.328  24.822  1.00  0.00     0.202 C 
BRANCH  24  25
ATOM     25  C   UNL A   1      36.565  20.735  25.047  1.00  0.00     0.261 C 
BRANCH  25  26
ATOM     26  O   UNL A   1      37.581  21.756  25.111  1.00  0.00    -0.460 OA
BRANCH  26  27
ATOM     27  C   UNL A   1      38.685  21.396  25.808  1.00  0.00     0.338 C 
ATOM     28  O   UNL A   1      39.236  20.303  25.812  1.00  0.00    -0.246 OA
BRANCH  27  29
ATOM     29  C   UNL A   1      39.278  22.563  26.488  1.00  0.00     0.060 A 
ATOM     30  C   UNL A   1      38.712  23.816  26.221  1.00  0.00     0.016 A 
ATOM     31  C   UNL A   1      40.417  22.457  27.290  1.00  0.00     0.016 A 
ATOM     32  C   UNL A   1      39.315  24.975  26.706  1.00  0.00     0.010 A 
ATOM     33  C   UNL A   1      41.025  23.622  27.770  1.00  0.00     0.010 A 
ATOM     34  C   UNL A   1      40.499  24.888  27.448  1.00  0.00    -0.014 A 
BRANCH  34  35
ATOM     35  C   UNL A   1      41.269  26.121  27.745  1.00  0.00     0.031 A 
ATOM     36  C   UNL A   1      40.597  27.236  28.498  1.00  0.00     0.074 A 
ATOM     37  C   UNL A   1      42.557  26.237  27.378  1.00  0.00     0.049 A 
ATOM     38  N   UNL A   1      41.058  28.416  28.823  1.00  0.00    -0.248 NA
ATOM     39  C   UNL A   1      39.217  26.984  28.945  1.00  0.00     0.031 C 
ATOM     40  C   UNL A   1      43.334  25.211  26.687  1.00  0.00     0.029 A 
ATOM     41  N   UNL A   1      43.435  27.281  27.531  1.00  0.00    -0.354 N 
ATOM     42  C   UNL A   1      40.025  29.050  29.503  1.00  0.00     0.074 A 
ATOM     43  C   UNL A   1      38.905  28.133  29.524  1.00  0.00     0.031 C 
ATOM     44  C   UNL A   1      44.573  25.681  26.462  1.00  0.00     0.029 A 
ATOM     45  C   UNL A   1      44.665  27.052  26.963  1.00  0.00     0.049 A 
ATOM     46  H   UNL A   1      43.206  28.115  28.002  1.00  0.00     0.167 HD
ATOM     47  C   UNL A   1      40.015  30.282  30.066  1.00  0.00     0.037 A 
ATOM     48  C   UNL A   1      45.731  27.866  26.842  1.00  0.00     0.037 A 
ATOM     49  C   UNL A   1      41.132  31.189  30.055  1.00  0.00     0.049 A 
ATOM     50  C   UNL A   1      45.672  29.259  27.416  1.00  0.00     0.074 A 
ATOM     51  C   UNL A   1      41.225  32.450  30.617  1.00  0.00     0.029 A 
ATOM     52  N   UNL A   1      42.350  30.932  29.444  1.00  0.00    -0.354 N 
ATOM     53  N   UNL A   1      44.699  29.842  28.071  1.00  0.00    -0.248 NA
ATOM     54  C   UNL A   1      46.860  30.105  27.231  1.00  0.00     0.031 C 
ATOM     55  C   UNL A   1      42.484  32.975  30.307  1.00  0.00     0.029 A 
ATOM     56  C   UNL A   1      43.192  32.021  29.593  1.00  0.00     0.049 A 
ATOM     57  H   UNL A   1      42.582  30.098  28.974  1.00  0.00     0.167 HD
ATOM     58  C   UNL A   1      45.165  31.109  28.402  1.00  0.00     0.074 A 
ATOM     59  C   UNL A   1      46.512  31.208  27.880  1.00  0.00     0.031 C 
ATOM     60  C   UNL A   1      44.534  32.100  29.078  1.00  0.00     0.037 A 
BRANCH  47  61
ATOM     61  C   UNL A   1      38.745  30.733  30.723  1.00  0.00     0.064 A 
ATOM     62  C   UNL A   1      38.570  30.668  32.113  1.00  0.00     0.173 A 
ATOM     63  C   UNL A   1      37.704  31.274  29.952  1.00  0.00     0.173 A 
ATOM     64  F   UNL A   1      39.529  30.145  32.890  1.00  0.00    -0.203 F 
ATOM     65  C   UNL A   1      37.389  31.109  32.705  1.00  0.00     0.198 A 
ATOM     66  C   UNL A   1      36.536  31.737  30.551  1.00  0.00     0.198 A 
ATOM     67  F   UNL A   1      37.825  31.360  28.619  1.00  0.00    -0.203 F 
ATOM     68  F   UNL A   1      37.226  30.999  34.031  1.00  0.00    -0.200 F 
ATOM     69  C   UNL A   1      36.377  31.648  31.926  1.00  0.00     0.200 A 
ATOM     70  F   UNL A   1      35.564  32.267  29.796  1.00  0.00    -0.200 F 
ATOM     71  F   UNL A   1      35.244  32.078  32.498  1.00  0.00    -0.200 F 
ENDBRANCH  47  61
BRANCH  48  72
ATOM     72  C   UNL A   1      46.946  27.393  26.128  1.00  0.00     0.064 A 
ATOM     73  C   UNL A   1      47.994  26.769  26.817  1.00  0.00     0.173 A 
ATOM     74  C   UNL A   1      47.087  27.569  24.744  1.00  0.00     0.173 A 
ATOM     75  F   UNL A   1      47.917  26.603  28.145  1.00  0.00    -0.203 F 
ATOM     76  C   UNL A   1      49.145  26.353  26.150  1.00  0.00     0.198 A 
ATOM     77  C   UNL A   1      48.225  27.129  24.074  1.00  0.00     0.198 A 
ATOM     78  F   UNL A   1      46.112  28.164  24.039  1.00  0.00    -0.203 F 
ATOM     79  F   UNL A   1      50.151  25.797  26.837  1.00  0.00    -0.200 F 
ATOM     80  C   UNL A   1      49.256  26.528  24.778  1.00  0.00     0.200 A 
ATOM     81  F   UNL A   1      48.323  27.290  22.747  1.00  0.00    -0.200 F 
ATOM     82  F   UNL A   1      50.361  26.122  24.136  1.00  0.00    -0.200 F 
ENDBRANCH  48  72
BRANCH  60  83
ATOM     83  C   UNL A   1      45.301  33.365  29.330  1.00  0.00     0.064 A 
ATOM     84  C   UNL A   1      46.138  33.508  30.446  1.00  0.00     0.173 A 
ATOM     85  C   UNL A   1      45.243  34.424  28.410  1.00  0.00     0.173 A 
ATOM     86  F   UNL A   1      46.216  32.529  31.361  1.00  0.00    -0.203 F 
ATOM     87  C   UNL A   1      46.878  34.671  30.639  1.00  0.00     0.198 A 
ATOM     88  C   UNL A   1      46.005  35.574  28.593  1.00  0.00     0.198 A 
ATOM     89  F   UNL A   1      44.463  34.333  27.323  1.00  0.00    -0.203 F 
ATOM     90  F   UNL A   1      47.646  34.801  31.731  1.00  0.00    -0.200 F 
ATOM     91  C   UNL A   1      46.819  35.698  29.709  1.00  0.00     0.200 A 
ATOM     92  F   UNL A   1      45.956  36.560  27.687  1.00  0.00    -0.200 F 
ATOM     93  F   UNL A   1      47.541  36.812  29.892  1.00  0.00    -0.200 F 
ENDBRANCH  60  83
ENDBRANCH  34  35
ENDBRANCH  27  29
ENDBRANCH  26  27
ENDBRANCH  25  26
ENDBRANCH  24  25
ENDBRANCH  23  24
ENDBRANCH   1  23
TORSDOF 17
ENDMDL
