MODEL 1
REMARK VINA RESULT:     -12.2      0.000      0.000
REMARK SMILES N#CC1=C(N)N2C(=O)[C@@H](CC(=O)OCCOCCOC(=O)c3ccc(-c4c5nc(c(-c6c(F)c(F)c(F)c(F)c6F)c6ccc([nH]6)c(-c6c(F)c(F)c(F)c(F)c6F)c6nc(c(-c7c(F)c(F)c(F)c(F)c7F)c7ccc4[nH]7)C=C6)C=C5)cc3)SC2=C(C#N)[C@H]1c1ccc(Cl)cc1
REMARK SMILES IDX 16 1 15 2 14 3 13 4 11 5 12 6 10 7 9 8 3 9 4 10 90 11 6 12
REMARK SMILES IDX 87 13 7 14 86 15 8 16 85 17 2 18 1 19 5 20 91 23 92 24 97 25
REMARK SMILES IDX 93 26 96 27 94 28 95 29 88 30 89 31 17 32 18 33 19 34 20 35
REMARK SMILES IDX 21 36 22 37 23 38 84 39 24 40 83 41 25 42 26 43 27 44 77 45
REMARK SMILES IDX 28 46 82 47 76 48 78 49 29 50 81 51 75 52 74 53 30 55 62 56
REMARK SMILES IDX 42 57 61 58 43 59 46 60 60 61 79 62 44 63 45 64 59 66 80 67
REMARK SMILES IDX 47 68 31 69 32 70 40 71 33 72 34 73 38 74 41 75 35 76 36 77
REMARK SMILES IDX 39 78 37 79 63 80 64 81 72 82 65 83 66 84 70 85 73 86 67 87
REMARK SMILES IDX 68 88 71 89 69 90 48 91 49 92 57 93 50 94 51 95 55 96 58 97
REMARK SMILES IDX 52 98 53 99 56 100 54 101
REMARK H PARENT 5 21 5 22 78 54 46 65
REMARK Flexibility Score: inf
ROOT
ATOM      1  O   UNL A   1      31.011  31.415  25.429  1.00  0.00    -0.374 OA
ENDROOT
BRANCH   1   2
ATOM      2  C   UNL A   1      31.503  30.089  25.276  1.00  0.00     0.202 C 
BRANCH   2   3
ATOM      3  C   UNL A   1      32.875  29.776  25.897  1.00  0.00     0.261 C 
BRANCH   3   4
ATOM      4  O   UNL A   1      32.825  29.123  27.195  1.00  0.00    -0.463 OA
BRANCH   4   5
ATOM      5  C   UNL A   1      31.877  28.165  27.310  1.00  0.00     0.307 C 
ATOM      6  O   UNL A   1      30.949  28.211  28.115  1.00  0.00    -0.252 OA
BRANCH   5   7
ATOM      7  C   UNL A   1      31.874  27.087  26.250  1.00  0.00     0.147 C 
BRANCH   7   8
ATOM      8  C   UNL A   1      30.632  26.414  25.670  1.00  0.00     0.154 C 
ATOM      9  C   UNL A   1      32.117  21.992  24.740  1.00  0.00     0.083 C 
ATOM     10  C   UNL A   1      31.128  22.687  25.362  1.00  0.00     0.126 C 
ATOM     11  C   UNL A   1      33.055  22.659  23.736  1.00  0.00     0.107 C 
ATOM     12  N   UNL A   1      31.065  24.079  25.206  1.00  0.00    -0.258 N 
ATOM     13  C   UNL A   1      32.481  23.992  23.272  1.00  0.00     0.073 C 
ATOM     14  C   UNL A   1      30.342  24.959  26.035  1.00  0.00     0.247 C 
ATOM     15  C   UNL A   1      31.609  24.635  24.066  1.00  0.00     0.099 C 
ATOM     16  O   UNL A   1      29.570  24.641  26.934  1.00  0.00    -0.273 OA
ATOM     17  S   UNL A   1      31.000  26.248  23.840  1.00  0.00    -0.093 SA
BRANCH   9  18
ATOM     18  C   UNL A   1      32.158  20.475  24.831  1.00  0.00     0.100 C 
ATOM     19  N   UNL A   1      32.192  19.217  24.906  1.00  0.00    -0.193 NA
ENDBRANCH   9  18
BRANCH  10  20
ATOM     20  N   UNL A   1      30.210  22.071  26.168  1.00  0.00    -0.384 N 
ATOM     21  H   UNL A   1      29.818  22.558  26.929  1.00  0.00     0.158 HD
ATOM     22  H   UNL A   1      29.942  21.140  25.988  1.00  0.00     0.158 HD
ENDBRANCH  10  20
BRANCH  11  23
ATOM     23  C   UNL A   1      34.496  22.774  24.274  1.00  0.00    -0.034 A 
ATOM     24  C   UNL A   1      35.634  22.632  23.453  1.00  0.00     0.006 A 
ATOM     25  C   UNL A   1      34.710  23.002  25.646  1.00  0.00     0.006 A 
ATOM     26  C   UNL A   1      36.926  22.705  23.985  1.00  0.00     0.021 A 
ATOM     27  C   UNL A   1      36.003  23.103  26.173  1.00  0.00     0.021 A 
ATOM     28  C   UNL A   1      37.105  22.948  25.342  1.00  0.00     0.041 A 
ATOM     29  Cl  UNL A   1      38.693  23.047  25.990  1.00  0.00    -0.084 Cl
ENDBRANCH  11  23
BRANCH  13  30
ATOM     30  C   UNL A   1      32.944  24.540  22.044  1.00  0.00     0.098 C 
ATOM     31  N   UNL A   1      33.321  25.016  21.052  1.00  0.00    -0.193 NA
ENDBRANCH  13  30
ENDBRANCH   7   8
ENDBRANCH   5   7
ENDBRANCH   4   5
ENDBRANCH   3   4
ENDBRANCH   2   3
ENDBRANCH   1   2
BRANCH   1  32
ATOM     32  C   UNL A   1      31.094  31.988  26.727  1.00  0.00     0.202 C 
BRANCH  32  33
ATOM     33  C   UNL A   1      31.941  33.256  26.859  1.00  0.00     0.261 C 
BRANCH  33  34
ATOM     34  O   UNL A   1      32.682  33.307  28.095  1.00  0.00    -0.460 OA
BRANCH  34  35
ATOM     35  C   UNL A   1      33.804  34.065  28.073  1.00  0.00     0.338 C 
ATOM     36  O   UNL A   1      33.860  35.278  27.963  1.00  0.00    -0.246 OA
BRANCH  35  37
ATOM     37  C   UNL A   1      35.009  33.257  28.368  1.00  0.00     0.060 A 
ATOM     38  C   UNL A   1      34.823  31.972  28.893  1.00  0.00     0.016 A 
ATOM     39  C   UNL A   1      36.292  33.807  28.321  1.00  0.00     0.016 A 
ATOM     40  C   UNL A   1      35.908  31.255  29.405  1.00  0.00     0.010 A 
ATOM     41  C   UNL A   1      37.382  33.081  28.829  1.00  0.00     0.010 A 
ATOM     42  C   UNL A   1      37.194  31.815  29.412  1.00  0.00    -0.014 A 
BRANCH  42  43
ATOM     43  C   UNL A   1      38.297  31.106  30.124  1.00  0.00     0.031 A 
ATOM     44  C   UNL A   1      38.549  31.381  31.586  1.00  0.00     0.074 A 
ATOM     45  C   UNL A   1      39.032  30.171  29.494  1.00  0.00     0.049 A 
ATOM     46  N   UNL A   1      39.444  30.859  32.390  1.00  0.00    -0.248 NA
ATOM     47  C   UNL A   1      37.674  32.371  32.231  1.00  0.00     0.031 C 
ATOM     48  C   UNL A   1      38.871  29.779  28.095  1.00  0.00     0.029 A 
ATOM     49  N   UNL A   1      40.057  29.376  29.948  1.00  0.00    -0.354 N 
ATOM     50  C   UNL A   1      39.242  31.455  33.628  1.00  0.00     0.074 A 
ATOM     51  C   UNL A   1      38.165  32.408  33.463  1.00  0.00     0.031 C 
ATOM     52  C   UNL A   1      39.762  28.815  27.805  1.00  0.00     0.029 A 
ATOM     53  C   UNL A   1      40.587  28.553  28.983  1.00  0.00     0.049 A 
ATOM     54  H   UNL A   1      40.383  29.395  30.877  1.00  0.00     0.167 HD
ATOM     55  C   UNL A   1      39.884  31.222  34.800  1.00  0.00     0.037 A 
ATOM     56  C   UNL A   1      41.632  27.703  29.033  1.00  0.00     0.037 A 
ATOM     57  C   UNL A   1      40.957  30.274  34.968  1.00  0.00     0.049 A 
ATOM     58  C   UNL A   1      42.387  27.528  30.328  1.00  0.00     0.074 A 
ATOM     59  C   UNL A   1      41.655  29.960  36.123  1.00  0.00     0.029 A 
ATOM     60  N   UNL A   1      41.496  29.497  33.954  1.00  0.00    -0.354 N 
ATOM     61  N   UNL A   1      42.164  28.074  31.498  1.00  0.00    -0.248 NA
ATOM     62  C   UNL A   1      43.536  26.611  30.308  1.00  0.00     0.031 C 
ATOM     63  C   UNL A   1      42.664  29.050  35.792  1.00  0.00     0.029 A 
ATOM     64  C   UNL A   1      42.542  28.732  34.449  1.00  0.00     0.049 A 
ATOM     65  H   UNL A   1      41.183  29.490  33.021  1.00  0.00     0.167 HD
ATOM     66  C   UNL A   1      43.119  27.542  32.358  1.00  0.00     0.074 A 
ATOM     67  C   UNL A   1      43.909  26.614  31.580  1.00  0.00     0.031 C 
ATOM     68  C   UNL A   1      43.320  27.799  33.674  1.00  0.00     0.037 A 
BRANCH  55  69
ATOM     69  C   UNL A   1      39.464  32.023  36.003  1.00  0.00     0.064 A 
ATOM     70  C   UNL A   1      40.056  33.255  36.318  1.00  0.00     0.173 A 
ATOM     71  C   UNL A   1      38.409  31.579  36.817  1.00  0.00     0.173 A 
ATOM     72  F   UNL A   1      41.071  33.725  35.576  1.00  0.00    -0.203 F 
ATOM     73  C   UNL A   1      39.626  34.000  37.414  1.00  0.00     0.198 A 
ATOM     74  C   UNL A   1      37.958  32.343  37.891  1.00  0.00     0.198 A 
ATOM     75  F   UNL A   1      37.798  30.413  36.557  1.00  0.00    -0.203 F 
ATOM     76  F   UNL A   1      40.236  35.152  37.720  1.00  0.00    -0.200 F 
ATOM     77  C   UNL A   1      38.571  33.548  38.193  1.00  0.00     0.200 A 
ATOM     78  F   UNL A   1      36.923  31.914  38.628  1.00  0.00    -0.200 F 
ATOM     79  F   UNL A   1      38.148  34.273  39.238  1.00  0.00    -0.200 F 
ENDBRANCH  55  69
BRANCH  56  80
ATOM     80  C   UNL A   1      42.058  26.966  27.810  1.00  0.00     0.064 A 
ATOM     81  C   UNL A   1      41.635  25.651  27.565  1.00  0.00     0.173 A 
ATOM     82  C   UNL A   1      42.940  27.546  26.885  1.00  0.00     0.173 A 
ATOM     83  F   UNL A   1      40.812  25.040  28.429  1.00  0.00    -0.203 F 
ATOM     84  C   UNL A   1      42.105  24.936  26.465  1.00  0.00     0.198 A 
ATOM     85  C   UNL A   1      43.376  26.844  25.764  1.00  0.00     0.198 A 
ATOM     86  F   UNL A   1      43.379  28.800  27.070  1.00  0.00    -0.203 F 
ATOM     87  F   UNL A   1      41.740  23.657  26.295  1.00  0.00    -0.200 F 
ATOM     88  C   UNL A   1      42.971  25.534  25.562  1.00  0.00     0.200 A 
ATOM     89  F   UNL A   1      44.200  27.434  24.886  1.00  0.00    -0.200 F 
ATOM     90  F   UNL A   1      43.424  24.845  24.507  1.00  0.00    -0.200 F 
ENDBRANCH  56  80
BRANCH  68  91
ATOM     91  C   UNL A   1      44.406  27.030  34.378  1.00  0.00     0.064 A 
ATOM     92  C   UNL A   1      44.183  25.757  34.924  1.00  0.00     0.173 A 
ATOM     93  C   UNL A   1      45.701  27.564  34.478  1.00  0.00     0.173 A 
ATOM     94  F   UNL A   1      42.963  25.202  34.869  1.00  0.00    -0.203 F 
ATOM     95  C   UNL A   1      45.204  25.065  35.572  1.00  0.00     0.198 A 
ATOM     96  C   UNL A   1      46.729  26.852  35.090  1.00  0.00     0.198 A 
ATOM     97  F   UNL A   1      45.976  28.774  33.966  1.00  0.00    -0.203 F 
ATOM     98  F   UNL A   1      44.950  23.877  36.139  1.00  0.00    -0.200 F 
ATOM     99  C   UNL A   1      46.478  25.609  35.647  1.00  0.00     0.200 A 
ATOM    100  F   UNL A   1      47.963  27.372  35.141  1.00  0.00    -0.200 F 
ATOM    101  F   UNL A   1      47.460  24.937  36.261  1.00  0.00    -0.200 F 
ENDBRANCH  68  91
ENDBRANCH  42  43
ENDBRANCH  35  37
ENDBRANCH  34  35
ENDBRANCH  33  34
ENDBRANCH  32  33
ENDBRANCH   1  32
TORSDOF 19
ENDMDL
MODEL 2
REMARK VINA RESULT:     -11.9      1.467      2.274
REMARK SMILES N#CC1=C(N)N2C(=O)[C@@H](CC(=O)OCCOCCOC(=O)c3ccc(-c4c5nc(c(-c6c(F)c(F)c(F)c(F)c6F)c6ccc([nH]6)c(-c6c(F)c(F)c(F)c(F)c6F)c6nc(c(-c7c(F)c(F)c(F)c(F)c7F)c7ccc4[nH]7)C=C6)C=C5)cc3)SC2=C(C#N)[C@H]1c1ccc(Cl)cc1
REMARK SMILES IDX 16 1 15 2 14 3 13 4 11 5 12 6 10 7 9 8 3 9 4 10 90 11 6 12
REMARK SMILES IDX 87 13 7 14 86 15 8 16 85 17 2 18 1 19 5 20 91 23 92 24 97 25
REMARK SMILES IDX 93 26 96 27 94 28 95 29 88 30 89 31 17 32 18 33 19 34 20 35
REMARK SMILES IDX 21 36 22 37 23 38 84 39 24 40 83 41 25 42 26 43 27 44 77 45
REMARK SMILES IDX 28 46 82 47 76 48 78 49 29 50 81 51 75 52 74 53 30 55 62 56
REMARK SMILES IDX 42 57 61 58 43 59 46 60 60 61 79 62 44 63 45 64 59 66 80 67
REMARK SMILES IDX 47 68 31 69 32 70 40 71 33 72 34 73 38 74 41 75 35 76 36 77
REMARK SMILES IDX 39 78 37 79 63 80 64 81 72 82 65 83 66 84 70 85 73 86 67 87
REMARK SMILES IDX 68 88 71 89 69 90 48 91 49 92 57 93 50 94 51 95 55 96 58 97
REMARK SMILES IDX 52 98 53 99 56 100 54 101
REMARK H PARENT 5 21 5 22 78 54 46 65
REMARK Flexibility Score: inf
ROOT
ATOM      1  O   UNL A   1      33.961  31.100  28.145  1.00  0.00    -0.374 OA
ENDROOT
BRANCH   1   2
ATOM      2  C   UNL A   1      34.807  30.368  27.266  1.00  0.00     0.202 C 
BRANCH   2   3
ATOM      3  C   UNL A   1      34.394  28.923  26.938  1.00  0.00     0.261 C 
BRANCH   3   4
ATOM      4  O   UNL A   1      33.710  28.756  25.667  1.00  0.00    -0.463 OA
BRANCH   4   5
ATOM      5  C   UNL A   1      32.369  28.599  25.763  1.00  0.00     0.307 C 
ATOM      6  O   UNL A   1      31.552  29.451  25.420  1.00  0.00    -0.252 OA
BRANCH   5   7
ATOM      7  C   UNL A   1      31.876  27.220  26.136  1.00  0.00     0.147 C 
BRANCH   7   8
ATOM      8  C   UNL A   1      30.628  26.540  25.575  1.00  0.00     0.154 C 
ATOM      9  C   UNL A   1      32.093  22.094  24.729  1.00  0.00     0.083 C 
ATOM     10  C   UNL A   1      31.109  22.806  25.341  1.00  0.00     0.126 C 
ATOM     11  C   UNL A   1      33.028  22.737  23.707  1.00  0.00     0.107 C 
ATOM     12  N   UNL A   1      31.051  24.194  25.157  1.00  0.00    -0.258 N 
ATOM     13  C   UNL A   1      32.457  24.062  23.218  1.00  0.00     0.073 C 
ATOM     14  C   UNL A   1      30.335  25.094  25.971  1.00  0.00     0.247 C 
ATOM     15  C   UNL A   1      31.591  24.725  24.003  1.00  0.00     0.099 C 
ATOM     16  O   UNL A   1      29.566  24.797  26.880  1.00  0.00    -0.273 OA
ATOM     17  S   UNL A   1      30.987  26.336  23.748  1.00  0.00    -0.093 SA
BRANCH   9  18
ATOM     18  C   UNL A   1      32.128  20.580  24.850  1.00  0.00     0.100 C 
ATOM     19  N   UNL A   1      32.158  19.323  24.951  1.00  0.00    -0.193 NA
ENDBRANCH   9  18
BRANCH  10  20
ATOM     20  N   UNL A   1      30.193  22.210  26.164  1.00  0.00    -0.384 N 
ATOM     21  H   UNL A   1      30.277  22.300  27.140  1.00  0.00     0.158 HD
ATOM     22  H   UNL A   1      29.449  21.691  25.779  1.00  0.00     0.158 HD
ENDBRANCH  10  20
BRANCH  11  23
ATOM     23  C   UNL A   1      34.472  22.858  24.236  1.00  0.00    -0.034 A 
ATOM     24  C   UNL A   1      35.605  22.594  23.438  1.00  0.00     0.006 A 
ATOM     25  C   UNL A   1      34.694  23.217  25.578  1.00  0.00     0.006 A 
ATOM     26  C   UNL A   1      36.898  22.677  23.964  1.00  0.00     0.021 A 
ATOM     27  C   UNL A   1      35.989  23.328  26.097  1.00  0.00     0.021 A 
ATOM     28  C   UNL A   1      37.086  23.051  25.290  1.00  0.00     0.041 A 
ATOM     29  Cl  UNL A   1      38.676  23.162  25.931  1.00  0.00    -0.084 Cl
ENDBRANCH  11  23
BRANCH  13  30
ATOM     30  C   UNL A   1      32.917  24.584  21.977  1.00  0.00     0.098 C 
ATOM     31  N   UNL A   1      33.280  25.036  20.969  1.00  0.00    -0.193 NA
ENDBRANCH  13  30
ENDBRANCH   7   8
ENDBRANCH   5   7
ENDBRANCH   4   5
ENDBRANCH   3   4
ENDBRANCH   2   3
ENDBRANCH   1   2
BRANCH   1  32
ATOM     32  C   UNL A   1      32.876  31.805  27.557  1.00  0.00     0.202 C 
BRANCH  32  33
ATOM     33  C   UNL A   1      33.072  33.309  27.354  1.00  0.00     0.261 C 
BRANCH  33  34
ATOM     34  O   UNL A   1      32.278  34.102  28.258  1.00  0.00    -0.460 OA
BRANCH  34  35
ATOM     35  C   UNL A   1      32.905  35.173  28.802  1.00  0.00     0.338 C 
ATOM     36  O   UNL A   1      32.534  36.334  28.755  1.00  0.00    -0.246 OA
BRANCH  35  37
ATOM     37  C   UNL A   1      34.058  34.760  29.633  1.00  0.00     0.060 A 
ATOM     38  C   UNL A   1      35.332  34.806  29.054  1.00  0.00     0.016 A 
ATOM     39  C   UNL A   1      33.886  34.154  30.880  1.00  0.00     0.016 A 
ATOM     40  C   UNL A   1      36.422  34.216  29.699  1.00  0.00     0.010 A 
ATOM     41  C   UNL A   1      34.984  33.568  31.530  1.00  0.00     0.010 A 
ATOM     42  C   UNL A   1      36.256  33.559  30.928  1.00  0.00    -0.014 A 
BRANCH  42  43
ATOM     43  C   UNL A   1      37.393  32.785  31.504  1.00  0.00     0.031 A 
ATOM     44  C   UNL A   1      37.919  33.126  32.877  1.00  0.00     0.074 A 
ATOM     45  C   UNL A   1      37.916  31.736  30.841  1.00  0.00     0.049 A 
ATOM     46  N   UNL A   1      38.886  32.565  33.562  1.00  0.00    -0.248 NA
ATOM     47  C   UNL A   1      37.266  34.245  33.573  1.00  0.00     0.031 C 
ATOM     48  C   UNL A   1      37.479  31.272  29.526  1.00  0.00     0.029 A 
ATOM     49  N   UNL A   1      38.924  30.867  31.185  1.00  0.00    -0.354 N 
ATOM     50  C   UNL A   1      38.958  33.261  34.762  1.00  0.00     0.074 A 
ATOM     51  C   UNL A   1      37.963  34.311  34.699  1.00  0.00     0.031 C 
ATOM     52  C   UNL A   1      38.211  30.202  29.174  1.00  0.00     0.029 A 
ATOM     53  C   UNL A   1      39.199  29.931  30.217  1.00  0.00     0.049 A 
ATOM     54  H   UNL A   1      39.406  30.913  32.042  1.00  0.00     0.167 HD
ATOM     55  C   UNL A   1      39.768  33.038  35.827  1.00  0.00     0.037 A 
ATOM     56  C   UNL A   1      40.152  28.978  30.164  1.00  0.00     0.037 A 
ATOM     57  C   UNL A   1      40.759  31.993  35.895  1.00  0.00     0.049 A 
ATOM     58  C   UNL A   1      41.099  28.809  31.327  1.00  0.00     0.074 A 
ATOM     59  C   UNL A   1      41.614  31.682  36.940  1.00  0.00     0.029 A 
ATOM     60  N   UNL A   1      41.039  31.097  34.874  1.00  0.00    -0.354 N 
ATOM     61  N   UNL A   1      41.134  29.452  32.468  1.00  0.00    -0.248 NA
ATOM     62  C   UNL A   1      42.135  27.774  31.194  1.00  0.00     0.031 C 
ATOM     63  C   UNL A   1      42.459  30.649  36.524  1.00  0.00     0.029 A 
ATOM     64  C   UNL A   1      42.077  30.258  35.251  1.00  0.00     0.049 A 
ATOM     65  H   UNL A   1      40.570  31.062  34.009  1.00  0.00     0.167 HD
ATOM     66  C   UNL A   1      42.169  28.878  33.199  1.00  0.00     0.074 A 
ATOM     67  C   UNL A   1      42.721  27.821  32.382  1.00  0.00     0.031 C 
ATOM     68  C   UNL A   1      42.618  29.199  34.438  1.00  0.00     0.037 A 
BRANCH  55  69
ATOM     69  C   UNL A   1      39.640  33.956  37.013  1.00  0.00     0.064 A 
ATOM     70  C   UNL A   1      40.301  35.193  37.067  1.00  0.00     0.173 A 
ATOM     71  C   UNL A   1      38.793  33.621  38.082  1.00  0.00     0.173 A 
ATOM     72  F   UNL A   1      41.126  35.562  36.076  1.00  0.00    -0.203 F 
ATOM     73  C   UNL A   1      40.138  36.047  38.156  1.00  0.00     0.198 A 
ATOM     74  C   UNL A   1      38.604  34.492  39.152  1.00  0.00     0.198 A 
ATOM     75  F   UNL A   1      38.127  32.457  38.077  1.00  0.00    -0.203 F 
ATOM     76  F   UNL A   1      40.814  37.202  38.206  1.00  0.00    -0.200 F 
ATOM     77  C   UNL A   1      39.283  35.700  39.192  1.00  0.00     0.200 A 
ATOM     78  F   UNL A   1      37.760  34.165  40.140  1.00  0.00    -0.200 F 
ATOM     79  F   UNL A   1      39.116  36.529  40.232  1.00  0.00    -0.200 F 
ENDBRANCH  55  69
BRANCH  56  80
ATOM     80  C   UNL A   1      40.288  28.120  28.954  1.00  0.00     0.064 A 
ATOM     81  C   UNL A   1      39.663  26.867  28.872  1.00  0.00     0.173 A 
ATOM     82  C   UNL A   1      41.090  28.516  27.872  1.00  0.00     0.173 A 
ATOM     83  F   UNL A   1      38.906  26.428  29.888  1.00  0.00    -0.203 F 
ATOM     84  C   UNL A   1      39.864  26.032  27.775  1.00  0.00     0.198 A 
ATOM     85  C   UNL A   1      41.256  27.698  26.757  1.00  0.00     0.198 A 
ATOM     86  F   UNL A   1      41.712  29.705  27.896  1.00  0.00    -0.203 F 
ATOM     87  F   UNL A   1      39.312  24.810  27.756  1.00  0.00    -0.200 F 
ATOM     88  C   UNL A   1      40.655  26.449  26.716  1.00  0.00     0.200 A 
ATOM     89  F   UNL A   1      42.008  28.115  25.730  1.00  0.00    -0.200 F 
ATOM     90  F   UNL A   1      40.850  25.645  25.662  1.00  0.00    -0.200 F 
ENDBRANCH  56  80
BRANCH  68  91
ATOM     91  C   UNL A   1      43.731  28.365  35.015  1.00  0.00     0.064 A 
ATOM     92  C   UNL A   1      45.080  28.721  34.869  1.00  0.00     0.173 A 
ATOM     93  C   UNL A   1      43.439  27.208  35.756  1.00  0.00     0.173 A 
ATOM     94  F   UNL A   1      45.420  29.809  34.161  1.00  0.00    -0.203 F 
ATOM     95  C   UNL A   1      46.094  27.932  35.411  1.00  0.00     0.198 A 
ATOM     96  C   UNL A   1      44.452  26.446  36.331  1.00  0.00     0.198 A 
ATOM     97  F   UNL A   1      42.166  26.824  35.937  1.00  0.00    -0.203 F 
ATOM     98  F   UNL A   1      47.377  28.260  35.205  1.00  0.00    -0.200 F 
ATOM     99  C   UNL A   1      45.778  26.801  36.148  1.00  0.00     0.200 A 
ATOM    100  F   UNL A   1      44.142  25.365  37.060  1.00  0.00    -0.200 F 
ATOM    101  F   UNL A   1      46.754  26.050  36.677  1.00  0.00    -0.200 F 
ENDBRANCH  68  91
ENDBRANCH  42  43
ENDBRANCH  35  37
ENDBRANCH  34  35
ENDBRANCH  33  34
ENDBRANCH  32  33
ENDBRANCH   1  32
TORSDOF 19
ENDMDL
MODEL 3
REMARK VINA RESULT:     -11.9      5.699     11.044
REMARK SMILES N#CC1=C(N)N2C(=O)[C@@H](CC(=O)OCCOCCOC(=O)c3ccc(-c4c5nc(c(-c6c(F)c(F)c(F)c(F)c6F)c6ccc([nH]6)c(-c6c(F)c(F)c(F)c(F)c6F)c6nc(c(-c7c(F)c(F)c(F)c(F)c7F)c7ccc4[nH]7)C=C6)C=C5)cc3)SC2=C(C#N)[C@H]1c1ccc(Cl)cc1
REMARK SMILES IDX 16 1 15 2 14 3 13 4 11 5 12 6 10 7 9 8 3 9 4 10 90 11 6 12
REMARK SMILES IDX 87 13 7 14 86 15 8 16 85 17 2 18 1 19 5 20 91 23 92 24 97 25
REMARK SMILES IDX 93 26 96 27 94 28 95 29 88 30 89 31 17 32 18 33 19 34 20 35
REMARK SMILES IDX 21 36 22 37 23 38 84 39 24 40 83 41 25 42 26 43 27 44 77 45
REMARK SMILES IDX 28 46 82 47 76 48 78 49 29 50 81 51 75 52 74 53 30 55 62 56
REMARK SMILES IDX 42 57 61 58 43 59 46 60 60 61 79 62 44 63 45 64 59 66 80 67
REMARK SMILES IDX 47 68 31 69 32 70 40 71 33 72 34 73 38 74 41 75 35 76 36 77
REMARK SMILES IDX 39 78 37 79 63 80 64 81 72 82 65 83 66 84 70 85 73 86 67 87
REMARK SMILES IDX 68 88 71 89 69 90 48 91 49 92 57 93 50 94 51 95 55 96 58 97
REMARK SMILES IDX 52 98 53 99 56 100 54 101
REMARK H PARENT 5 21 5 22 78 54 46 65
REMARK Flexibility Score: inf
ROOT
ATOM      1  O   UNL A   1      39.834  20.625  26.210  1.00  0.00    -0.374 OA
ENDROOT
BRANCH   1   2
ATOM      2  C   UNL A   1      39.189  21.840  25.848  1.00  0.00     0.202 C 
BRANCH   2   3
ATOM      3  C   UNL A   1      37.655  21.815  25.750  1.00  0.00     0.261 C 
BRANCH   3   4
ATOM      4  O   UNL A   1      37.130  21.563  24.418  1.00  0.00    -0.463 OA
BRANCH   4   5
ATOM      5  C   UNL A   1      36.484  22.611  23.857  1.00  0.00     0.307 C 
ATOM      6  O   UNL A   1      36.969  23.326  22.982  1.00  0.00    -0.252 OA
BRANCH   5   7
ATOM      7  C   UNL A   1      35.022  22.769  24.205  1.00  0.00     0.147 C 
BRANCH   7   8
ATOM      8  C   UNL A   1      33.847  22.373  23.314  1.00  0.00     0.154 C 
ATOM      9  C   UNL A   1      31.148  26.289  23.260  1.00  0.00     0.083 C 
ATOM     10  C   UNL A   1      31.735  25.376  22.443  1.00  0.00     0.126 C 
ATOM     11  C   UNL A   1      30.976  26.032  24.755  1.00  0.00     0.107 C 
ATOM     12  N   UNL A   1      32.344  24.244  23.004  1.00  0.00    -0.258 N 
ATOM     13  C   UNL A   1      31.163  24.553  25.069  1.00  0.00     0.073 C 
ATOM     14  C   UNL A   1      33.271  23.410  22.350  1.00  0.00     0.247 C 
ATOM     15  C   UNL A   1      31.893  23.799  24.230  1.00  0.00     0.099 C 
ATOM     16  O   UNL A   1      33.594  23.469  21.168  1.00  0.00    -0.273 OA
ATOM     17  S   UNL A   1      32.411  22.160  24.497  1.00  0.00    -0.093 SA
BRANCH   9  18
ATOM     18  C   UNL A   1      30.414  27.482  22.669  1.00  0.00     0.100 C 
ATOM     19  N   UNL A   1      29.806  28.472  22.179  1.00  0.00    -0.193 NA
ENDBRANCH   9  18
BRANCH  10  20
ATOM     20  N   UNL A   1      31.784  25.547  21.086  1.00  0.00    -0.384 N 
ATOM     21  H   UNL A   1      32.621  25.835  20.656  1.00  0.00     0.158 HD
ATOM     22  H   UNL A   1      30.981  25.381  20.540  1.00  0.00     0.158 HD
ENDBRANCH  10  20
BRANCH  11  23
ATOM     23  C   UNL A   1      31.872  26.951  25.610  1.00  0.00    -0.034 A 
ATOM     24  C   UNL A   1      31.404  27.631  26.753  1.00  0.00     0.006 A 
ATOM     25  C   UNL A   1      33.213  27.158  25.236  1.00  0.00     0.006 A 
ATOM     26  C   UNL A   1      32.238  28.487  27.482  1.00  0.00     0.021 A 
ATOM     27  C   UNL A   1      34.055  27.992  25.982  1.00  0.00     0.021 A 
ATOM     28  C   UNL A   1      33.563  28.658  27.097  1.00  0.00     0.041 A 
ATOM     29  Cl  UNL A   1      34.588  29.700  27.999  1.00  0.00    -0.084 Cl
ENDBRANCH  11  23
BRANCH  13  30
ATOM     30  C   UNL A   1      30.616  24.040  26.277  1.00  0.00     0.098 C 
ATOM     31  N   UNL A   1      30.141  23.622  27.253  1.00  0.00    -0.193 NA
ENDBRANCH  13  30
ENDBRANCH   7   8
ENDBRANCH   5   7
ENDBRANCH   4   5
ENDBRANCH   3   4
ENDBRANCH   2   3
ENDBRANCH   1   2
BRANCH   1  32
ATOM     32  C   UNL A   1      41.221  20.698  26.515  1.00  0.00     0.202 C 
BRANCH  32  33
ATOM     33  C   UNL A   1      42.028  19.412  26.322  1.00  0.00     0.261 C 
BRANCH  33  34
ATOM     34  O   UNL A   1      42.570  19.287  24.992  1.00  0.00    -0.460 OA
BRANCH  34  35
ATOM     35  C   UNL A   1      43.920  19.361  24.901  1.00  0.00     0.338 C 
ATOM     36  O   UNL A   1      44.681  18.452  24.616  1.00  0.00    -0.246 OA
BRANCH  35  37
ATOM     37  C   UNL A   1      44.395  20.757  25.035  1.00  0.00     0.060 A 
ATOM     38  C   UNL A   1      45.194  21.074  26.139  1.00  0.00     0.016 A 
ATOM     39  C   UNL A   1      43.913  21.778  24.213  1.00  0.00     0.016 A 
ATOM     40  C   UNL A   1      45.479  22.407  26.445  1.00  0.00     0.010 A 
ATOM     41  C   UNL A   1      44.207  23.118  24.517  1.00  0.00     0.010 A 
ATOM     42  C   UNL A   1      44.960  23.447  25.659  1.00  0.00    -0.014 A 
BRANCH  42  43
ATOM     43  C   UNL A   1      45.128  24.859  26.109  1.00  0.00     0.031 A 
ATOM     44  C   UNL A   1      46.470  25.538  25.980  1.00  0.00     0.074 A 
ATOM     45  C   UNL A   1      44.077  25.563  26.571  1.00  0.00     0.049 A 
ATOM     46  N   UNL A   1      46.819  26.762  26.296  1.00  0.00    -0.248 NA
ATOM     47  C   UNL A   1      47.563  24.733  25.415  1.00  0.00     0.031 C 
ATOM     48  C   UNL A   1      42.718  25.044  26.713  1.00  0.00     0.029 A 
ATOM     49  N   UNL A   1      43.985  26.865  27.000  1.00  0.00    -0.354 N 
ATOM     50  C   UNL A   1      48.165  26.872  25.971  1.00  0.00     0.074 A 
ATOM     51  C   UNL A   1      48.582  25.580  25.469  1.00  0.00     0.031 C 
ATOM     52  C   UNL A   1      41.926  26.019  27.191  1.00  0.00     0.029 A 
ATOM     53  C   UNL A   1      42.729  27.216  27.433  1.00  0.00     0.049 A 
ATOM     54  H   UNL A   1      44.747  27.488  26.999  1.00  0.00     0.167 HD
ATOM     55  C   UNL A   1      48.977  27.954  26.068  1.00  0.00     0.037 A 
ATOM     56  C   UNL A   1      42.279  28.362  27.984  1.00  0.00     0.037 A 
ATOM     57  C   UNL A   1      48.565  29.243  26.567  1.00  0.00     0.049 A 
ATOM     58  C   UNL A   1      43.227  29.522  28.162  1.00  0.00     0.074 A 
ATOM     59  C   UNL A   1      49.316  30.401  26.686  1.00  0.00     0.029 A 
ATOM     60  N   UNL A   1      47.297  29.542  27.041  1.00  0.00    -0.354 N 
ATOM     61  N   UNL A   1      44.489  29.623  27.821  1.00  0.00    -0.248 NA
ATOM     62  C   UNL A   1      42.684  30.732  28.798  1.00  0.00     0.031 C 
ATOM     63  C   UNL A   1      48.525  31.376  27.300  1.00  0.00     0.029 A 
ATOM     64  C   UNL A   1      47.256  30.854  27.487  1.00  0.00     0.049 A 
ATOM     65  H   UNL A   1      46.538  28.915  27.059  1.00  0.00     0.167 HD
ATOM     66  C   UNL A   1      44.877  30.913  28.167  1.00  0.00     0.074 A 
ATOM     67  C   UNL A   1      43.712  31.564  28.725  1.00  0.00     0.031 C 
ATOM     68  C   UNL A   1      46.091  31.504  28.032  1.00  0.00     0.037 A 
BRANCH  55  69
ATOM     69  C   UNL A   1      50.413  27.796  25.647  1.00  0.00     0.064 A 
ATOM     70  C   UNL A   1      51.435  27.545  26.575  1.00  0.00     0.173 A 
ATOM     71  C   UNL A   1      50.762  27.831  24.287  1.00  0.00     0.173 A 
ATOM     72  F   UNL A   1      51.160  27.505  27.888  1.00  0.00    -0.203 F 
ATOM     73  C   UNL A   1      52.753  27.362  26.161  1.00  0.00     0.198 A 
ATOM     74  C   UNL A   1      52.074  27.611  23.873  1.00  0.00     0.198 A 
ATOM     75  F   UNL A   1      49.824  28.054  23.354  1.00  0.00    -0.203 F 
ATOM     76  F   UNL A   1      53.718  27.168  27.070  1.00  0.00    -0.200 F 
ATOM     77  C   UNL A   1      53.069  27.385  24.811  1.00  0.00     0.200 A 
ATOM     78  F   UNL A   1      52.372  27.612  22.567  1.00  0.00    -0.200 F 
ATOM     79  F   UNL A   1      54.334  27.193  24.413  1.00  0.00    -0.200 F 
ENDBRANCH  55  69
BRANCH  56  80
ATOM     80  C   UNL A   1      40.866  28.470  28.441  1.00  0.00     0.064 A 
ATOM     81  C   UNL A   1      39.860  28.963  27.597  1.00  0.00     0.173 A 
ATOM     82  C   UNL A   1      40.500  28.128  29.752  1.00  0.00     0.173 A 
ATOM     83  F   UNL A   1      40.158  29.328  26.341  1.00  0.00    -0.203 F 
ATOM     84  C   UNL A   1      38.557  29.143  28.056  1.00  0.00     0.198 A 
ATOM     85  C   UNL A   1      39.188  28.269  30.198  1.00  0.00     0.198 A 
ATOM     86  F   UNL A   1      41.421  27.652  30.604  1.00  0.00    -0.203 F 
ATOM     87  F   UNL A   1      37.633  29.684  27.249  1.00  0.00    -0.200 F 
ATOM     88  C   UNL A   1      38.220  28.791  29.354  1.00  0.00     0.200 A 
ATOM     89  F   UNL A   1      38.866  27.912  31.448  1.00  0.00    -0.200 F 
ATOM     90  F   UNL A   1      36.968  28.968  29.797  1.00  0.00    -0.200 F 
ENDBRANCH  56  80
BRANCH  68  91
ATOM     91  C   UNL A   1      46.215  32.946  28.446  1.00  0.00     0.064 A 
ATOM     92  C   UNL A   1      45.959  34.000  27.558  1.00  0.00     0.173 A 
ATOM     93  C   UNL A   1      46.564  33.276  29.766  1.00  0.00     0.173 A 
ATOM     94  F   UNL A   1      45.633  33.745  26.282  1.00  0.00    -0.203 F 
ATOM     95  C   UNL A   1      46.082  35.328  27.964  1.00  0.00     0.198 A 
ATOM     96  C   UNL A   1      46.646  34.603  30.180  1.00  0.00     0.198 A 
ATOM     97  F   UNL A   1      46.811  32.308  30.663  1.00  0.00    -0.203 F 
ATOM     98  F   UNL A   1      45.892  36.317  27.080  1.00  0.00    -0.200 F 
ATOM     99  C   UNL A   1      46.417  35.628  29.276  1.00  0.00     0.200 A 
ATOM    100  F   UNL A   1      46.949  34.888  31.453  1.00  0.00    -0.200 F 
ATOM    101  F   UNL A   1      46.525  36.904  29.667  1.00  0.00    -0.200 F 
ENDBRANCH  68  91
ENDBRANCH  42  43
ENDBRANCH  35  37
ENDBRANCH  34  35
ENDBRANCH  33  34
ENDBRANCH  32  33
ENDBRANCH   1  32
TORSDOF 19
ENDMDL
