MODEL 1
REMARK VINA RESULT:     -11.7      0.000      0.000
REMARK SMILES CCN(CC)c1ccc([C@@H]2c3[nH]c4ccccc4c3C[C@@H](C(=O)OCCOCCOC(=O)c3ccc(-c4c5nc(c(-c6c(F)c(F)c(F)c(F)c6F)c6ccc([nH]6)c(-c6c(F)c(F)c(F)c(F)c6F)c6nc(c(-c7c(F)c(F)c(F)c(F)c7F)c7ccc4[nH]7)C=C6)C=C5)cc3)N2C(C)=O)cc1
REMARK SMILES IDX 26 1 25 2 24 3 22 4 23 5 21 6 10 7 11 8 96 9 12 10 19 11
REMARK SMILES IDX 13 12 18 14 20 15 14 16 17 17 15 18 16 19 9 20 6 21 7 22
REMARK SMILES IDX 101 23 8 24 100 25 3 26 2 27 1 28 4 29 5 30 97 31 98 32
REMARK SMILES IDX 99 33 27 34 28 35 29 36 30 37 31 38 32 39 33 40 34 41 95 42
REMARK SMILES IDX 35 43 94 44 36 45 37 46 38 47 88 48 39 49 93 50 87 51 89 52
REMARK SMILES IDX 40 53 92 54 86 55 85 56 41 58 73 59 53 60 72 61 54 62 57 63
REMARK SMILES IDX 71 64 90 65 55 66 56 67 70 69 91 70 58 71 42 72 43 73 51 74
REMARK SMILES IDX 44 75 45 76 49 77 52 78 46 79 47 80 50 81 48 82 74 83 75 84
REMARK SMILES IDX 83 85 76 86 77 87 81 88 84 89 78 90 79 91 82 92 80 93 59 94
REMARK SMILES IDX 60 95 68 96 61 97 62 98 66 99 69 100 63 101 64 102 67 103
REMARK SMILES IDX 65 104
REMARK H PARENT 12 13 89 57 57 68
REMARK Flexibility Score: inf
ROOT
ATOM      1  C   UNL A   1      31.068  26.900  25.821  1.00  0.00     0.202 C 
ENDROOT
BRANCH   1   2
ATOM      2  C   UNL A   1      30.505  25.460  25.900  1.00  0.00     0.261 C 
BRANCH   2   3
ATOM      3  O   UNL A   1      31.193  24.621  26.870  1.00  0.00    -0.462 OA
BRANCH   3   4
ATOM      4  C   UNL A   1      31.790  23.406  26.630  1.00  0.00     0.329 C 
ATOM      5  O   UNL A   1      31.899  22.528  27.474  1.00  0.00    -0.250 OA
BRANCH   4   6
ATOM      6  C   UNL A   1      32.092  23.211  25.046  1.00  0.00     0.200 C 
ATOM      7  C   UNL A   1      34.307  22.438  25.679  1.00  0.00     0.163 C 
ATOM      8  C   UNL A   1      33.700  21.047  25.590  1.00  0.00     0.047 A 
ATOM      9  N   UNL A   1      33.572  23.161  24.658  1.00  0.00    -0.316 N 
ATOM     10  N   UNL A   1      34.341  19.855  25.728  1.00  0.00    -0.356 N 
ATOM     11  C   UNL A   1      32.446  20.766  25.025  1.00  0.00    -0.014 A 
ATOM     12  C   UNL A   1      33.826  19.012  24.764  1.00  0.00     0.046 A 
ATOM     13  H   UNL A   1      35.037  19.636  26.388  1.00  0.00     0.166 HD
ATOM     14  C   UNL A   1      32.566  19.499  24.420  1.00  0.00     0.003 A 
ATOM     15  C   UNL A   1      31.460  21.852  24.657  1.00  0.00     0.075 C 
ATOM     16  C   UNL A   1      34.430  17.959  24.082  1.00  0.00     0.026 A 
ATOM     17  C   UNL A   1      31.825  18.874  23.405  1.00  0.00     0.010 A 
ATOM     18  C   UNL A   1      33.737  17.446  22.981  1.00  0.00     0.002 A 
ATOM     19  C   UNL A   1      32.452  17.880  22.658  1.00  0.00     0.001 A 
BRANCH   7  20
ATOM     20  C   UNL A   1      35.793  22.733  25.709  1.00  0.00    -0.019 A 
ATOM     21  C   UNL A   1      38.524  23.314  26.270  1.00  0.00     0.037 A 
ATOM     22  C   UNL A   1      38.102  22.047  25.865  1.00  0.00     0.026 A 
ATOM     23  C   UNL A   1      37.572  24.335  26.191  1.00  0.00     0.026 A 
ATOM     24  C   UNL A   1      36.770  21.759  25.577  1.00  0.00     0.008 A 
ATOM     25  C   UNL A   1      36.227  24.056  25.910  1.00  0.00     0.008 A 
BRANCH  21  26
ATOM     26  N   UNL A   1      39.789  23.543  26.793  1.00  0.00    -0.372 N 
BRANCH  26  27
ATOM     27  C   UNL A   1      40.172  24.941  27.065  1.00  0.00     0.113 C 
ATOM     28  C   UNL A   1      39.868  25.371  28.493  1.00  0.00     0.027 C 
ENDBRANCH  26  27
BRANCH  26  29
ATOM     29  C   UNL A   1      40.557  22.488  27.469  1.00  0.00     0.113 C 
ATOM     30  C   UNL A   1      41.644  21.854  26.608  1.00  0.00     0.027 C 
ENDBRANCH  26  29
ENDBRANCH  21  26
ENDBRANCH   7  20
BRANCH   9  31
ATOM     31  C   UNL A   1      34.029  22.813  23.359  1.00  0.00     0.221 C 
ATOM     32  C   UNL A   1      33.372  23.359  22.137  1.00  0.00     0.114 C 
ATOM     33  O   UNL A   1      34.994  22.064  23.152  1.00  0.00    -0.275 OA
ENDBRANCH   9  31
ENDBRANCH   4   6
ENDBRANCH   3   4
ENDBRANCH   2   3
ENDBRANCH   1   2
BRANCH   1  34
ATOM     34  O   UNL A   1      32.140  27.148  26.738  1.00  0.00    -0.374 OA
BRANCH  34  35
ATOM     35  C   UNL A   1      31.906  28.221  27.644  1.00  0.00     0.202 C 
BRANCH  35  36
ATOM     36  C   UNL A   1      31.951  29.598  26.975  1.00  0.00     0.261 C 
BRANCH  36  37
ATOM     37  O   UNL A   1      33.292  29.995  26.625  1.00  0.00    -0.460 OA
BRANCH  37  38
ATOM     38  C   UNL A   1      33.736  31.088  27.280  1.00  0.00     0.338 C 
ATOM     39  O   UNL A   1      33.096  32.093  27.583  1.00  0.00    -0.246 OA
BRANCH  38  40
ATOM     40  C   UNL A   1      35.127  30.915  27.718  1.00  0.00     0.060 A 
ATOM     41  C   UNL A   1      35.533  29.628  28.081  1.00  0.00     0.016 A 
ATOM     42  C   UNL A   1      35.971  32.009  27.924  1.00  0.00     0.016 A 
ATOM     43  C   UNL A   1      36.768  29.435  28.701  1.00  0.00     0.010 A 
ATOM     44  C   UNL A   1      37.229  31.806  28.504  1.00  0.00     0.010 A 
ATOM     45  C   UNL A   1      37.613  30.527  28.947  1.00  0.00    -0.014 A 
BRANCH  45  46
ATOM     46  C   UNL A   1      38.801  30.364  29.830  1.00  0.00     0.031 A 
ATOM     47  C   UNL A   1      40.004  29.622  29.303  1.00  0.00     0.074 A 
ATOM     48  C   UNL A   1      38.836  30.896  31.066  1.00  0.00     0.049 A 
ATOM     49  N   UNL A   1      41.120  29.300  29.908  1.00  0.00    -0.248 NA
ATOM     50  C   UNL A   1      39.934  29.175  27.903  1.00  0.00     0.031 C 
ATOM     51  C   UNL A   1      37.763  31.672  31.682  1.00  0.00     0.029 A 
ATOM     52  N   UNL A   1      39.819  30.858  32.026  1.00  0.00    -0.354 N 
ATOM     53  C   UNL A   1      41.869  28.599  28.972  1.00  0.00     0.074 A 
ATOM     54  C   UNL A   1      41.069  28.507  27.771  1.00  0.00     0.031 C 
ATOM     55  C   UNL A   1      38.144  32.038  32.918  1.00  0.00     0.029 A 
ATOM     56  C   UNL A   1      39.467  31.482  33.198  1.00  0.00     0.049 A 
ATOM     57  H   UNL A   1      40.692  30.424  31.888  1.00  0.00     0.167 HD
ATOM     58  C   UNL A   1      43.118  28.087  29.095  1.00  0.00     0.037 A 
ATOM     59  C   UNL A   1      40.125  31.569  34.371  1.00  0.00     0.037 A 
ATOM     60  C   UNL A   1      43.922  28.194  30.282  1.00  0.00     0.049 A 
ATOM     61  C   UNL A   1      41.484  30.930  34.509  1.00  0.00     0.074 A 
ATOM     62  C   UNL A   1      45.206  27.726  30.501  1.00  0.00     0.029 A 
ATOM     63  N   UNL A   1      43.517  28.812  31.457  1.00  0.00    -0.354 N 
ATOM     64  N   UNL A   1      42.189  30.278  33.616  1.00  0.00    -0.248 NA
ATOM     65  C   UNL A   1      42.140  31.038  35.821  1.00  0.00     0.031 C 
ATOM     66  C   UNL A   1      45.555  28.005  31.824  1.00  0.00     0.029 A 
ATOM     67  C   UNL A   1      44.518  28.713  32.411  1.00  0.00     0.049 A 
ATOM     68  H   UNL A   1      42.649  29.256  31.593  1.00  0.00     0.167 HD
ATOM     69  C   UNL A   1      43.382  29.936  34.243  1.00  0.00     0.074 A 
ATOM     70  C   UNL A   1      43.309  30.457  35.591  1.00  0.00     0.031 C 
ATOM     71  C   UNL A   1      44.443  29.256  33.743  1.00  0.00     0.037 A 
BRANCH  58  72
ATOM     72  C   UNL A   1      43.682  27.335  27.923  1.00  0.00     0.064 A 
ATOM     73  C   UNL A   1      44.278  27.993  26.835  1.00  0.00     0.173 A 
ATOM     74  C   UNL A   1      43.655  25.932  27.903  1.00  0.00     0.173 A 
ATOM     75  F   UNL A   1      44.319  29.333  26.796  1.00  0.00    -0.203 F 
ATOM     76  C   UNL A   1      44.797  27.274  25.760  1.00  0.00     0.198 A 
ATOM     77  C   UNL A   1      44.206  25.217  26.845  1.00  0.00     0.198 A 
ATOM     78  F   UNL A   1      43.102  25.251  28.919  1.00  0.00    -0.203 F 
ATOM     79  F   UNL A   1      45.314  27.925  24.708  1.00  0.00    -0.200 F 
ATOM     80  C   UNL A   1      44.769  25.888  25.770  1.00  0.00     0.200 A 
ATOM     81  F   UNL A   1      44.192  23.877  26.863  1.00  0.00    -0.200 F 
ATOM     82  F   UNL A   1      45.277  25.198  24.739  1.00  0.00    -0.200 F 
ENDBRANCH  58  72
BRANCH  59  83
ATOM     83  C   UNL A   1      39.502  32.275  35.524  1.00  0.00     0.064 A 
ATOM     84  C   UNL A   1      39.744  33.636  35.759  1.00  0.00     0.173 A 
ATOM     85  C   UNL A   1      38.674  31.597  36.431  1.00  0.00     0.173 A 
ATOM     86  F   UNL A   1      40.553  34.324  34.939  1.00  0.00    -0.203 F 
ATOM     87  C   UNL A   1      39.200  34.285  36.865  1.00  0.00     0.198 A 
ATOM     88  C   UNL A   1      38.103  32.255  37.518  1.00  0.00     0.198 A 
ATOM     89  F   UNL A   1      38.415  30.293  36.259  1.00  0.00    -0.203 F 
ATOM     90  F   UNL A   1      39.493  35.573  37.096  1.00  0.00    -0.200 F 
ATOM     91  C   UNL A   1      38.374  33.596  37.740  1.00  0.00     0.200 A 
ATOM     92  F   UNL A   1      37.297  31.587  38.355  1.00  0.00    -0.200 F 
ATOM     93  F   UNL A   1      37.849  34.221  38.804  1.00  0.00    -0.200 F 
ENDBRANCH  59  83
BRANCH  71  94
ATOM     94  C   UNL A   1      45.647  29.088  34.629  1.00  0.00     0.064 A 
ATOM     95  C   UNL A   1      45.812  27.966  35.454  1.00  0.00     0.173 A 
ATOM     96  C   UNL A   1      46.678  30.041  34.603  1.00  0.00     0.173 A 
ATOM     97  F   UNL A   1      44.853  27.031  35.526  1.00  0.00    -0.203 F 
ATOM     98  C   UNL A   1      46.955  27.817  36.238  1.00  0.00     0.198 A 
ATOM     99  C   UNL A   1      47.832  29.871  35.362  1.00  0.00     0.198 A 
ATOM    100  F   UNL A   1      46.574  31.128  33.824  1.00  0.00    -0.203 F 
ATOM    101  F   UNL A   1      47.071  26.759  37.053  1.00  0.00    -0.200 F 
ATOM    102  C   UNL A   1      47.967  28.763  36.183  1.00  0.00     0.200 A 
ATOM    103  F   UNL A   1      48.817  30.778  35.293  1.00  0.00    -0.200 F 
ATOM    104  F   UNL A   1      49.071  28.610  36.927  1.00  0.00    -0.200 F 
ENDBRANCH  71  94
ENDBRANCH  45  46
ENDBRANCH  38  40
ENDBRANCH  37  38
ENDBRANCH  36  37
ENDBRANCH  35  36
ENDBRANCH  34  35
ENDBRANCH   1  34
TORSDOF 19
ENDMDL
MODEL 2
REMARK VINA RESULT:     -11.7      0.490      6.990
REMARK SMILES CCN(CC)c1ccc([C@@H]2c3[nH]c4ccccc4c3C[C@@H](C(=O)OCCOCCOC(=O)c3ccc(-c4c5nc(c(-c6c(F)c(F)c(F)c(F)c6F)c6ccc([nH]6)c(-c6c(F)c(F)c(F)c(F)c6F)c6nc(c(-c7c(F)c(F)c(F)c(F)c7F)c7ccc4[nH]7)C=C6)C=C5)cc3)N2C(C)=O)cc1
REMARK SMILES IDX 26 1 25 2 24 3 22 4 23 5 21 6 10 7 11 8 96 9 12 10 19 11
REMARK SMILES IDX 13 12 18 14 20 15 14 16 17 17 15 18 16 19 9 20 6 21 7 22
REMARK SMILES IDX 101 23 8 24 100 25 3 26 2 27 1 28 4 29 5 30 97 31 98 32
REMARK SMILES IDX 99 33 27 34 28 35 29 36 30 37 31 38 32 39 33 40 34 41 95 42
REMARK SMILES IDX 35 43 94 44 36 45 37 46 38 47 88 48 39 49 93 50 87 51 89 52
REMARK SMILES IDX 40 53 92 54 86 55 85 56 41 58 73 59 53 60 72 61 54 62 57 63
REMARK SMILES IDX 71 64 90 65 55 66 56 67 70 69 91 70 58 71 42 72 43 73 51 74
REMARK SMILES IDX 44 75 45 76 49 77 52 78 46 79 47 80 50 81 48 82 74 83 75 84
REMARK SMILES IDX 83 85 76 86 77 87 81 88 84 89 78 90 79 91 82 92 80 93 59 94
REMARK SMILES IDX 60 95 68 96 61 97 62 98 66 99 69 100 63 101 64 102 67 103
REMARK SMILES IDX 65 104
REMARK H PARENT 12 13 89 57 57 68
REMARK Flexibility Score: inf
ROOT
ATOM      1  C   UNL A   1      32.160  26.873  26.329  1.00  0.00     0.202 C 
ENDROOT
BRANCH   1   2
ATOM      2  C   UNL A   1      31.197  25.674  26.154  1.00  0.00     0.261 C 
BRANCH   2   3
ATOM      3  O   UNL A   1      31.453  24.584  27.083  1.00  0.00    -0.462 OA
BRANCH   3   4
ATOM      4  C   UNL A   1      32.040  23.375  26.791  1.00  0.00     0.329 C 
ATOM      5  O   UNL A   1      32.177  22.476  27.608  1.00  0.00    -0.250 OA
BRANCH   4   6
ATOM      6  C   UNL A   1      32.289  23.223  25.193  1.00  0.00     0.200 C 
ATOM      7  C   UNL A   1      34.494  22.356  25.733  1.00  0.00     0.163 C 
ATOM      8  C   UNL A   1      33.838  20.990  25.618  1.00  0.00     0.047 A 
ATOM      9  N   UNL A   1      33.754  23.136  24.758  1.00  0.00    -0.316 N 
ATOM     10  N   UNL A   1      34.441  19.773  25.699  1.00  0.00    -0.356 N 
ATOM     11  C   UNL A   1      32.558  20.769  25.084  1.00  0.00    -0.014 A 
ATOM     12  C   UNL A   1      33.869  18.980  24.725  1.00  0.00     0.046 A 
ATOM     13  H   UNL A   1      35.148  19.509  26.330  1.00  0.00     0.166 HD
ATOM     14  C   UNL A   1      32.617  19.519  24.435  1.00  0.00     0.003 A 
ATOM     15  C   UNL A   1      31.600  21.899  24.780  1.00  0.00     0.075 C 
ATOM     16  C   UNL A   1      34.416  17.930  23.992  1.00  0.00     0.026 A 
ATOM     17  C   UNL A   1      31.825  18.952  23.425  1.00  0.00     0.010 A 
ATOM     18  C   UNL A   1      33.674  17.476  22.897  1.00  0.00     0.002 A 
ATOM     19  C   UNL A   1      32.396  17.964  22.627  1.00  0.00     0.001 A 
BRANCH   7  20
ATOM     20  C   UNL A   1      35.989  22.600  25.727  1.00  0.00    -0.019 A 
ATOM     21  C   UNL A   1      38.754  23.067  26.222  1.00  0.00     0.037 A 
ATOM     22  C   UNL A   1      38.277  21.833  25.780  1.00  0.00     0.026 A 
ATOM     23  C   UNL A   1      37.836  24.121  26.215  1.00  0.00     0.026 A 
ATOM     24  C   UNL A   1      36.928  21.602  25.524  1.00  0.00     0.008 A 
ATOM     25  C   UNL A   1      36.474  23.900  25.967  1.00  0.00     0.008 A 
BRANCH  21  26
ATOM     26  N   UNL A   1      40.042  23.233  26.713  1.00  0.00    -0.372 N 
BRANCH  26  27
ATOM     27  C   UNL A   1      40.972  22.096  26.588  1.00  0.00     0.113 C 
ATOM     28  C   UNL A   1      42.198  22.421  25.747  1.00  0.00     0.027 C 
ENDBRANCH  26  27
BRANCH  26  29
ATOM     29  C   UNL A   1      40.627  24.562  26.936  1.00  0.00     0.113 C 
ATOM     30  C   UNL A   1      40.410  25.117  28.340  1.00  0.00     0.027 C 
ENDBRANCH  26  29
ENDBRANCH  21  26
ENDBRANCH   7  20
BRANCH   9  31
ATOM     31  C   UNL A   1      34.160  22.816  23.435  1.00  0.00     0.221 C 
ATOM     32  C   UNL A   1      33.196  22.860  22.300  1.00  0.00     0.114 C 
ATOM     33  O   UNL A   1      35.320  22.502  23.134  1.00  0.00    -0.275 OA
ENDBRANCH   9  31
ENDBRANCH   4   6
ENDBRANCH   3   4
ENDBRANCH   2   3
ENDBRANCH   1   2
BRANCH   1  34
ATOM     34  O   UNL A   1      31.495  28.102  26.642  1.00  0.00    -0.374 OA
BRANCH  34  35
ATOM     35  C   UNL A   1      31.775  29.170  25.741  1.00  0.00     0.202 C 
BRANCH  35  36
ATOM     36  C   UNL A   1      32.030  30.505  26.448  1.00  0.00     0.261 C 
BRANCH  36  37
ATOM     37  O   UNL A   1      33.047  30.403  27.465  1.00  0.00    -0.460 OA
BRANCH  37  38
ATOM     38  C   UNL A   1      33.763  31.532  27.648  1.00  0.00     0.338 C 
ATOM     39  O   UNL A   1      33.350  32.689  27.663  1.00  0.00    -0.246 OA
BRANCH  38  40
ATOM     40  C   UNL A   1      35.168  31.226  27.948  1.00  0.00     0.060 A 
ATOM     41  C   UNL A   1      35.491  29.897  28.236  1.00  0.00     0.016 A 
ATOM     42  C   UNL A   1      36.121  32.236  28.103  1.00  0.00     0.016 A 
ATOM     43  C   UNL A   1      36.756  29.579  28.732  1.00  0.00     0.010 A 
ATOM     44  C   UNL A   1      37.404  31.906  28.556  1.00  0.00     0.010 A 
ATOM     45  C   UNL A   1      37.713  30.585  28.926  1.00  0.00    -0.014 A 
BRANCH  45  46
ATOM     46  C   UNL A   1      38.958  30.290  29.689  1.00  0.00     0.031 A 
ATOM     47  C   UNL A   1      39.064  30.761  31.118  1.00  0.00     0.074 A 
ATOM     48  C   UNL A   1      39.964  29.583  29.144  1.00  0.00     0.049 A 
ATOM     49  N   UNL A   1      40.069  30.679  31.953  1.00  0.00    -0.248 NA
ATOM     50  C   UNL A   1      37.874  31.422  31.679  1.00  0.00     0.031 C 
ATOM     51  C   UNL A   1      39.974  29.032  27.792  1.00  0.00     0.029 A 
ATOM     52  N   UNL A   1      41.180  29.212  29.669  1.00  0.00    -0.354 N 
ATOM     53  C   UNL A   1      39.640  31.295  33.123  1.00  0.00     0.074 A 
ATOM     54  C   UNL A   1      38.300  31.779  32.880  1.00  0.00     0.031 C 
ATOM     55  C   UNL A   1      41.139  28.391  27.591  1.00  0.00     0.029 A 
ATOM     56  C   UNL A   1      41.975  28.528  28.782  1.00  0.00     0.049 A 
ATOM     57  H   UNL A   1      41.454  29.416  30.592  1.00  0.00     0.167 HD
ATOM     58  C   UNL A   1      40.298  31.434  34.299  1.00  0.00     0.037 A 
ATOM     59  C   UNL A   1      43.244  28.091  28.908  1.00  0.00     0.037 A 
ATOM     60  C   UNL A   1      41.624  30.935  34.548  1.00  0.00     0.049 A 
ATOM     61  C   UNL A   1      43.983  28.319  30.202  1.00  0.00     0.074 A 
ATOM     62  C   UNL A   1      42.370  31.009  35.712  1.00  0.00     0.029 A 
ATOM     63  N   UNL A   1      42.407  30.272  33.613  1.00  0.00    -0.354 N 
ATOM     64  N   UNL A   1      43.567  28.892  31.306  1.00  0.00    -0.248 NA
ATOM     65  C   UNL A   1      45.373  27.840  30.269  1.00  0.00     0.031 C 
ATOM     66  C   UNL A   1      43.625  30.446  35.464  1.00  0.00     0.029 A 
ATOM     67  C   UNL A   1      43.637  29.955  34.168  1.00  0.00     0.049 A 
ATOM     68  H   UNL A   1      42.129  30.057  32.694  1.00  0.00     0.167 HD
ATOM     69  C   UNL A   1      44.624  28.806  32.206  1.00  0.00     0.074 A 
ATOM     70  C   UNL A   1      45.699  28.121  31.522  1.00  0.00     0.031 C 
ATOM     71  C   UNL A   1      44.692  29.251  33.485  1.00  0.00     0.037 A 
BRANCH  58  72
ATOM     72  C   UNL A   1      39.604  32.182  35.402  1.00  0.00     0.064 A 
ATOM     73  C   UNL A   1      38.779  31.535  36.335  1.00  0.00     0.173 A 
ATOM     74  C   UNL A   1      39.796  33.565  35.547  1.00  0.00     0.173 A 
ATOM     75  F   UNL A   1      38.551  30.217  36.234  1.00  0.00    -0.203 F 
ATOM     76  C   UNL A   1      38.148  32.249  37.351  1.00  0.00     0.198 A 
ATOM     77  C   UNL A   1      39.192  34.269  36.584  1.00  0.00     0.198 A 
ATOM     78  F   UNL A   1      40.579  34.234  34.687  1.00  0.00    -0.203 F 
ATOM     79  F   UNL A   1      37.322  31.619  38.198  1.00  0.00    -0.200 F 
ATOM     80  C   UNL A   1      38.362  33.614  37.480  1.00  0.00     0.200 A 
ATOM     81  F   UNL A   1      39.413  35.585  36.717  1.00  0.00    -0.200 F 
ATOM     82  F   UNL A   1      37.761  34.297  38.464  1.00  0.00    -0.200 F 
ENDBRANCH  58  72
BRANCH  59  83
ATOM     83  C   UNL A   1      43.912  27.404  27.768  1.00  0.00     0.064 A 
ATOM     84  C   UNL A   1      44.024  26.006  27.727  1.00  0.00     0.173 A 
ATOM     85  C   UNL A   1      44.476  28.132  26.710  1.00  0.00     0.173 A 
ATOM     86  F   UNL A   1      43.527  25.265  28.728  1.00  0.00    -0.203 F 
ATOM     87  C   UNL A   1      44.690  25.367  26.684  1.00  0.00     0.198 A 
ATOM     88  C   UNL A   1      45.113  27.490  25.651  1.00  0.00     0.198 A 
ATOM     89  F   UNL A   1      44.405  29.471  26.703  1.00  0.00    -0.203 F 
ATOM     90  F   UNL A   1      44.831  24.034  26.698  1.00  0.00    -0.200 F 
ATOM     91  C   UNL A   1      45.229  26.108  25.643  1.00  0.00     0.200 A 
ATOM     92  F   UNL A   1      45.623  28.210  24.642  1.00  0.00    -0.200 F 
ATOM     93  F   UNL A   1      45.869  25.493  24.639  1.00  0.00    -0.200 F 
ENDBRANCH  59  83
BRANCH  71  94
ATOM     94  C   UNL A   1      45.945  28.957  34.262  1.00  0.00     0.064 A 
ATOM     95  C   UNL A   1      46.104  27.774  34.998  1.00  0.00     0.173 A 
ATOM     96  C   UNL A   1      47.026  29.852  34.218  1.00  0.00     0.173 A 
ATOM     97  F   UNL A   1      45.098  26.890  35.083  1.00  0.00    -0.203 F 
ATOM     98  C   UNL A   1      47.290  27.509  35.680  1.00  0.00     0.198 A 
ATOM     99  C   UNL A   1      48.222  29.568  34.872  1.00  0.00     0.198 A 
ATOM    100  F   UNL A   1      46.931  30.994  33.520  1.00  0.00    -0.203 F 
ATOM    101  F   UNL A   1      47.403  26.393  36.414  1.00  0.00    -0.200 F 
ATOM    102  C   UNL A   1      48.350  28.400  35.608  1.00  0.00     0.200 A 
ATOM    103  F   UNL A   1      49.251  30.422  34.785  1.00  0.00    -0.200 F 
ATOM    104  F   UNL A   1      49.495  28.136  36.253  1.00  0.00    -0.200 F 
ENDBRANCH  71  94
ENDBRANCH  45  46
ENDBRANCH  38  40
ENDBRANCH  37  38
ENDBRANCH  36  37
ENDBRANCH  35  36
ENDBRANCH  34  35
ENDBRANCH   1  34
TORSDOF 19
ENDMDL
MODEL 3
REMARK VINA RESULT:     -11.2      0.682      7.001
REMARK SMILES CCN(CC)c1ccc([C@@H]2c3[nH]c4ccccc4c3C[C@@H](C(=O)OCCOCCOC(=O)c3ccc(-c4c5nc(c(-c6c(F)c(F)c(F)c(F)c6F)c6ccc([nH]6)c(-c6c(F)c(F)c(F)c(F)c6F)c6nc(c(-c7c(F)c(F)c(F)c(F)c7F)c7ccc4[nH]7)C=C6)C=C5)cc3)N2C(C)=O)cc1
REMARK SMILES IDX 26 1 25 2 24 3 22 4 23 5 21 6 10 7 11 8 96 9 12 10 19 11
REMARK SMILES IDX 13 12 18 14 20 15 14 16 17 17 15 18 16 19 9 20 6 21 7 22
REMARK SMILES IDX 101 23 8 24 100 25 3 26 2 27 1 28 4 29 5 30 97 31 98 32
REMARK SMILES IDX 99 33 27 34 28 35 29 36 30 37 31 38 32 39 33 40 34 41 95 42
REMARK SMILES IDX 35 43 94 44 36 45 37 46 38 47 88 48 39 49 93 50 87 51 89 52
REMARK SMILES IDX 40 53 92 54 86 55 85 56 41 58 73 59 53 60 72 61 54 62 57 63
REMARK SMILES IDX 71 64 90 65 55 66 56 67 70 69 91 70 58 71 42 72 43 73 51 74
REMARK SMILES IDX 44 75 45 76 49 77 52 78 46 79 47 80 50 81 48 82 74 83 75 84
REMARK SMILES IDX 83 85 76 86 77 87 81 88 84 89 78 90 79 91 82 92 80 93 59 94
REMARK SMILES IDX 60 95 68 96 61 97 62 98 66 99 69 100 63 101 64 102 67 103
REMARK SMILES IDX 65 104
REMARK H PARENT 12 13 89 57 57 68
REMARK Flexibility Score: inf
ROOT
ATOM      1  C   UNL A   1      31.307  27.021  25.515  1.00  0.00     0.202 C 
ENDROOT
BRANCH   1   2
ATOM      2  C   UNL A   1      30.689  25.734  26.113  1.00  0.00     0.261 C 
BRANCH   2   3
ATOM      3  O   UNL A   1      31.641  24.929  26.864  1.00  0.00    -0.462 OA
BRANCH   3   4
ATOM      4  C   UNL A   1      31.997  23.625  26.609  1.00  0.00     0.329 C 
ATOM      5  O   UNL A   1      31.910  22.727  27.434  1.00  0.00    -0.250 OA
BRANCH   4   6
ATOM      6  C   UNL A   1      32.302  23.406  25.029  1.00  0.00     0.200 C 
ATOM      7  C   UNL A   1      34.472  22.532  25.684  1.00  0.00     0.163 C 
ATOM      8  C   UNL A   1      33.800  21.171  25.599  1.00  0.00     0.047 A 
ATOM      9  N   UNL A   1      33.780  23.282  24.653  1.00  0.00    -0.316 N 
ATOM     10  N   UNL A   1      34.382  19.950  25.749  1.00  0.00    -0.356 N 
ATOM     11  C   UNL A   1      32.538  20.946  25.027  1.00  0.00    -0.014 A 
ATOM     12  C   UNL A   1      33.835  19.127  24.787  1.00  0.00     0.046 A 
ATOM     13  H   UNL A   1      35.062  19.702  26.416  1.00  0.00     0.166 HD
ATOM     14  C   UNL A   1      32.602  19.670  24.430  1.00  0.00     0.003 A 
ATOM     15  C   UNL A   1      31.608  22.076  24.643  1.00  0.00     0.075 C 
ATOM     16  C   UNL A   1      34.392  18.041  24.117  1.00  0.00     0.026 A 
ATOM     17  C   UNL A   1      31.839  19.075  23.414  1.00  0.00     0.010 A 
ATOM     18  C   UNL A   1      33.684  17.554  23.014  1.00  0.00     0.002 A 
ATOM     19  C   UNL A   1      32.424  18.047  22.678  1.00  0.00     0.001 A 
BRANCH   7  20
ATOM     20  C   UNL A   1      35.970  22.755  25.724  1.00  0.00    -0.019 A 
ATOM     21  C   UNL A   1      38.725  23.182  26.304  1.00  0.00     0.037 A 
ATOM     22  C   UNL A   1      38.244  21.956  25.843  1.00  0.00     0.026 A 
ATOM     23  C   UNL A   1      37.822  24.249  26.274  1.00  0.00     0.026 A 
ATOM     24  C   UNL A   1      36.901  21.744  25.545  1.00  0.00     0.008 A 
ATOM     25  C   UNL A   1      36.466  24.047  25.984  1.00  0.00     0.008 A 
BRANCH  21  26
ATOM     26  N   UNL A   1      40.000  23.328  26.834  1.00  0.00    -0.372 N 
BRANCH  26  27
ATOM     27  C   UNL A   1      40.908  22.169  26.756  1.00  0.00     0.113 C 
ATOM     28  C   UNL A   1      42.332  22.503  27.179  1.00  0.00     0.027 C 
ENDBRANCH  26  27
BRANCH  26  29
ATOM     29  C   UNL A   1      40.606  24.648  27.055  1.00  0.00     0.113 C 
ATOM     30  C   UNL A   1      40.340  25.238  28.437  1.00  0.00     0.027 C 
ENDBRANCH  26  29
ENDBRANCH  21  26
ENDBRANCH   7  20
BRANCH   9  31
ATOM     31  C   UNL A   1      34.230  22.903  23.359  1.00  0.00     0.221 C 
ATOM     32  C   UNL A   1      33.459  23.268  22.137  1.00  0.00     0.114 C 
ATOM     33  O   UNL A   1      35.277  22.275  23.157  1.00  0.00    -0.275 OA
ENDBRANCH   9  31
ENDBRANCH   4   6
ENDBRANCH   3   4
ENDBRANCH   2   3
ENDBRANCH   1   2
BRANCH   1  34
ATOM     34  O   UNL A   1      32.719  26.929  25.293  1.00  0.00    -0.374 OA
BRANCH  34  35
ATOM     35  C   UNL A   1      33.508  27.719  26.178  1.00  0.00     0.202 C 
BRANCH  35  36
ATOM     36  C   UNL A   1      32.818  29.018  26.606  1.00  0.00     0.261 C 
BRANCH  36  37
ATOM     37  O   UNL A   1      33.606  30.186  26.298  1.00  0.00    -0.460 OA
BRANCH  37  38
ATOM     38  C   UNL A   1      33.940  30.929  27.374  1.00  0.00     0.338 C 
ATOM     39  O   UNL A   1      33.191  31.582  28.096  1.00  0.00    -0.246 OA
BRANCH  38  40
ATOM     40  C   UNL A   1      35.369  30.799  27.685  1.00  0.00     0.060 A 
ATOM     41  C   UNL A   1      35.898  29.508  27.763  1.00  0.00     0.016 A 
ATOM     42  C   UNL A   1      36.143  31.904  28.050  1.00  0.00     0.016 A 
ATOM     43  C   UNL A   1      37.187  29.310  28.258  1.00  0.00     0.010 A 
ATOM     44  C   UNL A   1      37.453  31.706  28.502  1.00  0.00     0.010 A 
ATOM     45  C   UNL A   1      37.965  30.405  28.662  1.00  0.00    -0.014 A 
BRANCH  45  46
ATOM     46  C   UNL A   1      39.225  30.182  29.423  1.00  0.00     0.031 A 
ATOM     47  C   UNL A   1      39.318  30.688  30.841  1.00  0.00     0.074 A 
ATOM     48  C   UNL A   1      40.259  29.508  28.887  1.00  0.00     0.049 A 
ATOM     49  N   UNL A   1      40.330  30.668  31.672  1.00  0.00    -0.248 NA
ATOM     50  C   UNL A   1      38.103  31.307  31.395  1.00  0.00     0.031 C 
ATOM     51  C   UNL A   1      40.287  28.929  27.546  1.00  0.00     0.029 A 
ATOM     52  N   UNL A   1      41.492  29.202  29.412  1.00  0.00    -0.354 N 
ATOM     53  C   UNL A   1      39.881  31.289  32.831  1.00  0.00     0.074 A 
ATOM     54  C   UNL A   1      38.519  31.708  32.586  1.00  0.00     0.031 C 
ATOM     55  C   UNL A   1      41.477  28.337  27.352  1.00  0.00     0.029 A 
ATOM     56  C   UNL A   1      42.313  28.536  28.535  1.00  0.00     0.049 A 
ATOM     57  H   UNL A   1      41.762  29.439  30.329  1.00  0.00     0.167 HD
ATOM     58  C   UNL A   1      40.538  31.482  34.000  1.00  0.00     0.037 A 
ATOM     59  C   UNL A   1      43.600  28.158  28.662  1.00  0.00     0.037 A 
ATOM     60  C   UNL A   1      41.886  31.048  34.251  1.00  0.00     0.049 A 
ATOM     61  C   UNL A   1      44.336  28.446  29.946  1.00  0.00     0.074 A 
ATOM     62  C   UNL A   1      42.634  31.179  35.408  1.00  0.00     0.029 A 
ATOM     63  N   UNL A   1      42.692  30.400  33.325  1.00  0.00    -0.354 N 
ATOM     64  N   UNL A   1      43.900  29.024  31.040  1.00  0.00    -0.248 NA
ATOM     65  C   UNL A   1      45.745  28.030  30.015  1.00  0.00     0.031 C 
ATOM     66  C   UNL A   1      43.911  30.667  35.164  1.00  0.00     0.029 A 
ATOM     67  C   UNL A   1      43.938  30.149  33.879  1.00  0.00     0.049 A 
ATOM     68  H   UNL A   1      42.419  30.154  32.412  1.00  0.00     0.167 HD
ATOM     69  C   UNL A   1      44.964  29.004  31.935  1.00  0.00     0.074 A 
ATOM     70  C   UNL A   1      46.065  28.352  31.260  1.00  0.00     0.031 C 
ATOM     71  C   UNL A   1      45.019  29.478  33.204  1.00  0.00     0.037 A 
BRANCH  58  72
ATOM     72  C   UNL A   1      39.817  32.222  35.091  1.00  0.00     0.064 A 
ATOM     73  C   UNL A   1      39.883  33.619  35.211  1.00  0.00     0.173 A 
ATOM     74  C   UNL A   1      39.020  31.524  36.011  1.00  0.00     0.173 A 
ATOM     75  F   UNL A   1      40.641  34.334  34.366  1.00  0.00    -0.203 F 
ATOM     76  C   UNL A   1      39.204  34.284  36.229  1.00  0.00     0.198 A 
ATOM     77  C   UNL A   1      38.314  32.194  37.005  1.00  0.00     0.198 A 
ATOM     78  F   UNL A   1      38.916  30.188  35.940  1.00  0.00    -0.203 F 
ATOM     79  F   UNL A   1      39.324  35.613  36.356  1.00  0.00    -0.200 F 
ATOM     80  C   UNL A   1      38.413  33.572  37.119  1.00  0.00     0.200 A 
ATOM     81  F   UNL A   1      37.538  31.507  37.855  1.00  0.00    -0.200 F 
ATOM     82  F   UNL A   1      37.753  34.215  38.093  1.00  0.00    -0.200 F 
ENDBRANCH  58  72
BRANCH  59  83
ATOM     83  C   UNL A   1      44.292  27.477  27.533  1.00  0.00     0.064 A 
ATOM     84  C   UNL A   1      44.346  26.078  27.451  1.00  0.00     0.173 A 
ATOM     85  C   UNL A   1      44.937  28.211  26.526  1.00  0.00     0.173 A 
ATOM     86  F   UNL A   1      43.771  25.330  28.404  1.00  0.00    -0.203 F 
ATOM     87  C   UNL A   1      45.034  25.442  26.421  1.00  0.00     0.198 A 
ATOM     88  C   UNL A   1      45.596  27.574  25.478  1.00  0.00     0.198 A 
ATOM     89  F   UNL A   1      44.923  29.552  26.559  1.00  0.00    -0.203 F 
ATOM     90  F   UNL A   1      45.116  24.104  26.398  1.00  0.00    -0.200 F 
ATOM     91  C   UNL A   1      45.652  26.189  25.431  1.00  0.00     0.200 A 
ATOM     92  F   UNL A   1      46.184  28.301  24.517  1.00  0.00    -0.200 F 
ATOM     93  F   UNL A   1      46.313  25.577  24.438  1.00  0.00    -0.200 F 
ENDBRANCH  59  83
BRANCH  71  94
ATOM     94  C   UNL A   1      46.288  29.256  33.980  1.00  0.00     0.064 A 
ATOM     95  C   UNL A   1      47.320  30.206  34.005  1.00  0.00     0.173 A 
ATOM     96  C   UNL A   1      46.444  28.097  34.757  1.00  0.00     0.173 A 
ATOM     97  F   UNL A   1      47.228  31.325  33.272  1.00  0.00    -0.203 F 
ATOM     98  C   UNL A   1      48.471  29.991  34.762  1.00  0.00     0.198 A 
ATOM     99  C   UNL A   1      47.580  27.903  35.538  1.00  0.00     0.198 A 
ATOM    100  F   UNL A   1      45.483  27.161  34.776  1.00  0.00    -0.203 F 
ATOM    101  F   UNL A   1      49.464  30.891  34.736  1.00  0.00    -0.200 F 
ATOM    102  C   UNL A   1      48.595  28.847  35.534  1.00  0.00     0.200 A 
ATOM    103  F   UNL A   1      47.689  26.804  36.298  1.00  0.00    -0.200 F 
ATOM    104  F   UNL A   1      49.697  28.650  36.272  1.00  0.00    -0.200 F 
ENDBRANCH  71  94
ENDBRANCH  45  46
ENDBRANCH  38  40
ENDBRANCH  37  38
ENDBRANCH  36  37
ENDBRANCH  35  36
ENDBRANCH  34  35
ENDBRANCH   1  34
TORSDOF 19
ENDMDL
