MODEL 1
REMARK VINA RESULT:     -11.9      0.000      0.000
REMARK SMILES CC(C)(CC(=O)Nc1cccc(C(=O)NC2CC2)c1)CC(=O)OCCOCCOC(=O)c1ccc(-c2c3nc(c(-c4c(F)c(F)c(F)c(F)c4F)c4ccc([nH]4)c(-c4c(F)c(F)c(F)c(F)c4F)c4nc(c(-c5c(F)c(F)c(F)c(F)c5F)c5ccc2[nH]5)C=C4)C=C3)cc1
REMARK SMILES IDX 24 1 23 2 21 3 22 4 20 5 2 6 1 7 3 8 4 9 5 10 6 11 7 12 8 14
REMARK SMILES IDX 9 15 19 16 10 17 12 18 11 19 13 20 14 21 15 22 16 24 17 25
REMARK SMILES IDX 18 26 25 27 26 28 27 29 28 30 29 31 30 32 31 33 32 34 33 35
REMARK SMILES IDX 94 36 34 37 93 38 35 39 36 40 37 41 87 42 38 43 92 44 86 45
REMARK SMILES IDX 88 46 39 47 91 48 85 49 84 50 40 52 72 53 52 54 71 55 53 56
REMARK SMILES IDX 56 57 70 58 89 59 54 60 55 61 69 63 90 64 57 65 41 66 42 67
REMARK SMILES IDX 50 68 43 69 44 70 48 71 51 72 45 73 46 74 49 75 47 76 73 77
REMARK SMILES IDX 74 78 82 79 75 80 76 81 80 82 83 83 77 84 78 85 81 86 79 87
REMARK SMILES IDX 58 88 59 89 67 90 60 91 61 92 65 93 68 94 62 95 63 96 66 97
REMARK SMILES IDX 64 98
REMARK H PARENT 7 13 15 23 88 51 56 62
REMARK Flexibility Score: inf
ROOT
ATOM      1  C   UNL A   1      32.717  27.773  24.402  1.00  0.00     0.261 C 
ENDROOT
BRANCH   1   2
ATOM      2  O   UNL A   1      32.772  27.217  23.070  1.00  0.00    -0.463 OA
BRANCH   2   3
ATOM      3  C   UNL A   1      33.278  25.973  22.930  1.00  0.00     0.306 C 
ATOM      4  O   UNL A   1      33.931  25.588  21.968  1.00  0.00    -0.252 OA
BRANCH   3   5
ATOM      5  C   UNL A   1      32.812  25.049  24.049  1.00  0.00     0.129 C 
BRANCH   5   6
ATOM      6  C   UNL A   1      31.558  24.147  23.894  1.00  0.00    -0.016 C 
ATOM      7  C   UNL A   1      31.895  22.936  23.081  1.00  0.00     0.012 C 
ATOM      8  C   UNL A   1      30.541  24.925  23.018  1.00  0.00     0.012 C 
BRANCH   6   9
ATOM      9  C   UNL A   1      30.862  23.679  25.185  1.00  0.00     0.107 C 
BRANCH   9  10
ATOM     10  C   UNL A   1      31.641  23.376  26.459  1.00  0.00     0.224 C 
ATOM     11  O   UNL A   1      31.344  24.043  27.466  1.00  0.00    -0.275 OA
ATOM     12  N   UNL A   1      32.514  22.366  26.709  1.00  0.00    -0.326 N 
ATOM     13  H   UNL A   1      32.810  22.419  27.647  1.00  0.00     0.169 HD
BRANCH  12  14
ATOM     14  C   UNL A   1      33.142  21.266  26.089  1.00  0.00     0.041 A 
ATOM     15  C   UNL A   1      34.527  21.375  25.923  1.00  0.00     0.026 A 
ATOM     16  C   UNL A   1      32.481  20.321  25.284  1.00  0.00     0.040 A 
ATOM     17  C   UNL A   1      35.232  20.491  25.103  1.00  0.00     0.003 A 
ATOM     18  C   UNL A   1      33.164  19.352  24.524  1.00  0.00     0.041 A 
ATOM     19  C   UNL A   1      34.558  19.466  24.442  1.00  0.00     0.014 A 
BRANCH  18  20
ATOM     20  C   UNL A   1      32.534  18.254  23.703  1.00  0.00     0.251 C 
ATOM     21  O   UNL A   1      32.225  18.495  22.533  1.00  0.00    -0.269 OA
ATOM     22  N   UNL A   1      32.306  16.967  24.152  1.00  0.00    -0.349 N 
ATOM     23  H   UNL A   1      31.815  16.389  23.525  1.00  0.00     0.164 HD
BRANCH  22  24
ATOM     24  C   UNL A   1      32.669  16.356  25.372  1.00  0.00     0.082 C 
ATOM     25  C   UNL A   1      32.743  14.851  25.439  1.00  0.00     0.027 C 
ATOM     26  C   UNL A   1      33.981  15.662  25.631  1.00  0.00     0.027 C 
ENDBRANCH  22  24
ENDBRANCH  18  20
ENDBRANCH  12  14
ENDBRANCH   9  10
ENDBRANCH   6   9
ENDBRANCH   5   6
ENDBRANCH   3   5
ENDBRANCH   2   3
ENDBRANCH   1   2
BRANCH   1  27
ATOM     27  C   UNL A   1      32.790  29.300  24.422  1.00  0.00     0.202 C 
BRANCH  27  28
ATOM     28  O   UNL A   1      32.533  29.868  25.707  1.00  0.00    -0.374 OA
BRANCH  28  29
ATOM     29  C   UNL A   1      31.432  30.775  25.758  1.00  0.00     0.202 C 
BRANCH  29  30
ATOM     30  C   UNL A   1      31.675  31.975  26.691  1.00  0.00     0.261 C 
BRANCH  30  31
ATOM     31  O   UNL A   1      32.814  31.725  27.544  1.00  0.00    -0.460 OA
BRANCH  31  32
ATOM     32  C   UNL A   1      33.652  32.765  27.752  1.00  0.00     0.338 C 
ATOM     33  O   UNL A   1      33.364  33.952  27.784  1.00  0.00    -0.246 OA
BRANCH  32  34
ATOM     34  C   UNL A   1      34.976  32.242  28.148  1.00  0.00     0.060 A 
ATOM     35  C   UNL A   1      35.081  30.867  28.366  1.00  0.00     0.016 A 
ATOM     36  C   UNL A   1      36.097  33.062  28.311  1.00  0.00     0.016 A 
ATOM     37  C   UNL A   1      36.286  30.318  28.805  1.00  0.00     0.010 A 
ATOM     38  C   UNL A   1      37.323  32.500  28.690  1.00  0.00     0.010 A 
ATOM     39  C   UNL A   1      37.411  31.132  29.006  1.00  0.00    -0.014 A 
BRANCH  39  40
ATOM     40  C   UNL A   1      38.593  30.578  29.726  1.00  0.00     0.031 A 
ATOM     41  C   UNL A   1      38.815  30.957  31.171  1.00  0.00     0.074 A 
ATOM     42  C   UNL A   1      39.416  29.683  29.146  1.00  0.00     0.049 A 
ATOM     43  N   UNL A   1      39.718  30.526  32.018  1.00  0.00    -0.248 NA
ATOM     44  C   UNL A   1      37.902  31.960  31.740  1.00  0.00     0.031 C 
ATOM     45  C   UNL A   1      39.327  29.228  27.760  1.00  0.00     0.029 A 
ATOM     46  N   UNL A   1      40.481  28.984  29.662  1.00  0.00    -0.354 N 
ATOM     47  C   UNL A   1      39.478  31.204  33.207  1.00  0.00     0.074 A 
ATOM     48  C   UNL A   1      38.393  32.125  32.957  1.00  0.00     0.031 C 
ATOM     49  C   UNL A   1      40.283  28.308  27.541  1.00  0.00     0.029 A 
ATOM     50  C   UNL A   1      41.069  28.127  28.762  1.00  0.00     0.049 A 
ATOM     51  H   UNL A   1      40.795  29.088  30.589  1.00  0.00     0.167 HD
ATOM     52  C   UNL A   1      40.077  31.055  34.412  1.00  0.00     0.037 A 
ATOM     53  C   UNL A   1      42.119  27.294  28.905  1.00  0.00     0.037 A 
ATOM     54  C   UNL A   1      41.149  30.133  34.678  1.00  0.00     0.049 A 
ATOM     55  C   UNL A   1      42.809  27.182  30.243  1.00  0.00     0.074 A 
ATOM     56  C   UNL A   1      41.798  29.889  35.875  1.00  0.00     0.029 A 
ATOM     57  N   UNL A   1      41.735  29.309  33.730  1.00  0.00    -0.354 N 
ATOM     58  N   UNL A   1      42.531  27.784  31.373  1.00  0.00    -0.248 NA
ATOM     59  C   UNL A   1      43.954  26.261  30.325  1.00  0.00     0.031 C 
ATOM     60  C   UNL A   1      42.819  28.964  35.638  1.00  0.00     0.029 A 
ATOM     61  C   UNL A   1      42.760  28.579  34.309  1.00  0.00     0.049 A 
ATOM     62  H   UNL A   1      41.463  29.251  32.785  1.00  0.00     0.167 HD
ATOM     63  C   UNL A   1      43.442  27.296  32.304  1.00  0.00     0.074 A 
ATOM     64  C   UNL A   1      44.271  26.335  31.611  1.00  0.00     0.031 C 
ATOM     65  C   UNL A   1      43.578  27.617  33.615  1.00  0.00     0.037 A 
BRANCH  52  66
ATOM     66  C   UNL A   1      39.588  31.919  35.540  1.00  0.00     0.064 A 
ATOM     67  C   UNL A   1      38.587  31.485  36.424  1.00  0.00     0.173 A 
ATOM     68  C   UNL A   1      40.147  33.188  35.757  1.00  0.00     0.173 A 
ATOM     69  F   UNL A   1      38.008  30.287  36.252  1.00  0.00    -0.203 F 
ATOM     70  C   UNL A   1      38.141  32.302  37.459  1.00  0.00     0.198 A 
ATOM     71  C   UNL A   1      39.724  33.987  36.816  1.00  0.00     0.198 A 
ATOM     72  F   UNL A   1      41.110  33.651  34.946  1.00  0.00    -0.203 F 
ATOM     73  F   UNL A   1      37.142  31.889  38.252  1.00  0.00    -0.200 F 
ATOM     74  C   UNL A   1      38.714  33.548  37.659  1.00  0.00     0.200 A 
ATOM     75  F   UNL A   1      40.291  35.185  37.017  1.00  0.00    -0.200 F 
ATOM     76  F   UNL A   1      38.289  34.330  38.660  1.00  0.00    -0.200 F 
ENDBRANCH  52  66
BRANCH  53  77
ATOM     77  C   UNL A   1      42.594  26.490  27.745  1.00  0.00     0.064 A 
ATOM     78  C   UNL A   1      43.580  26.976  26.873  1.00  0.00     0.173 A 
ATOM     79  C   UNL A   1      42.045  25.229  27.466  1.00  0.00     0.173 A 
ATOM     80  F   UNL A   1      44.115  28.187  27.077  1.00  0.00    -0.203 F 
ATOM     81  C   UNL A   1      43.981  26.241  25.758  1.00  0.00     0.198 A 
ATOM     82  C   UNL A   1      42.472  24.481  26.371  1.00  0.00     0.198 A 
ATOM     83  F   UNL A   1      41.095  24.719  28.264  1.00  0.00    -0.203 F 
ATOM     84  F   UNL A   1      44.884  26.754  24.910  1.00  0.00    -0.200 F 
ATOM     85  C   UNL A   1      43.432  24.992  25.511  1.00  0.00     0.200 A 
ATOM     86  F   UNL A   1      41.946  23.270  26.143  1.00  0.00    -0.200 F 
ATOM     87  F   UNL A   1      43.819  24.287  24.441  1.00  0.00    -0.200 F 
ENDBRANCH  53  77
BRANCH  65  88
ATOM     88  C   UNL A   1      44.635  26.898  34.405  1.00  0.00     0.064 A 
ATOM     89  C   UNL A   1      44.388  25.662  35.023  1.00  0.00     0.173 A 
ATOM     90  C   UNL A   1      45.931  27.430  34.504  1.00  0.00     0.173 A 
ATOM     91  F   UNL A   1      43.165  25.113  34.968  1.00  0.00    -0.203 F 
ATOM     92  C   UNL A   1      45.388  25.003  35.733  1.00  0.00     0.198 A 
ATOM     93  C   UNL A   1      46.938  26.750  35.185  1.00  0.00     0.198 A 
ATOM     94  F   UNL A   1      46.228  28.602  33.924  1.00  0.00    -0.203 F 
ATOM     95  F   UNL A   1      45.113  23.849  36.357  1.00  0.00    -0.200 F 
ATOM     96  C   UNL A   1      46.664  25.542  35.807  1.00  0.00     0.200 A 
ATOM     97  F   UNL A   1      48.175  27.264  35.237  1.00  0.00    -0.200 F 
ATOM     98  F   UNL A   1      47.627  24.900  36.481  1.00  0.00    -0.200 F 
ENDBRANCH  65  88
ENDBRANCH  39  40
ENDBRANCH  32  34
ENDBRANCH  31  32
ENDBRANCH  30  31
ENDBRANCH  29  30
ENDBRANCH  28  29
ENDBRANCH  27  28
ENDBRANCH   1  27
TORSDOF 20
ENDMDL
MODEL 2
REMARK VINA RESULT:     -11.8      4.201     10.221
REMARK SMILES CC(C)(CC(=O)Nc1cccc(C(=O)NC2CC2)c1)CC(=O)OCCOCCOC(=O)c1ccc(-c2c3nc(c(-c4c(F)c(F)c(F)c(F)c4F)c4ccc([nH]4)c(-c4c(F)c(F)c(F)c(F)c4F)c4nc(c(-c5c(F)c(F)c(F)c(F)c5F)c5ccc2[nH]5)C=C4)C=C3)cc1
REMARK SMILES IDX 24 1 23 2 21 3 22 4 20 5 2 6 1 7 3 8 4 9 5 10 6 11 7 12 8 14
REMARK SMILES IDX 9 15 19 16 10 17 12 18 11 19 13 20 14 21 15 22 16 24 17 25
REMARK SMILES IDX 18 26 25 27 26 28 27 29 28 30 29 31 30 32 31 33 32 34 33 35
REMARK SMILES IDX 94 36 34 37 93 38 35 39 36 40 37 41 87 42 38 43 92 44 86 45
REMARK SMILES IDX 88 46 39 47 91 48 85 49 84 50 40 52 72 53 52 54 71 55 53 56
REMARK SMILES IDX 56 57 70 58 89 59 54 60 55 61 69 63 90 64 57 65 41 66 42 67
REMARK SMILES IDX 50 68 43 69 44 70 48 71 51 72 45 73 46 74 49 75 47 76 73 77
REMARK SMILES IDX 74 78 82 79 75 80 76 81 80 82 83 83 77 84 78 85 81 86 79 87
REMARK SMILES IDX 58 88 59 89 67 90 60 91 61 92 65 93 68 94 62 95 63 96 66 97
REMARK SMILES IDX 64 98
REMARK H PARENT 7 13 15 23 88 51 56 62
REMARK Flexibility Score: inf
ROOT
ATOM      1  C   UNL A   1      34.325  22.805  26.664  1.00  0.00     0.261 C 
ENDROOT
BRANCH   1   2
ATOM      2  O   UNL A   1      33.079  23.131  27.316  1.00  0.00    -0.463 OA
BRANCH   2   3
ATOM      3  C   UNL A   1      32.051  23.532  26.539  1.00  0.00     0.306 C 
ATOM      4  O   UNL A   1      31.322  24.486  26.780  1.00  0.00    -0.252 OA
BRANCH   3   5
ATOM      5  C   UNL A   1      31.804  22.561  25.391  1.00  0.00     0.129 C 
BRANCH   5   6
ATOM      6  C   UNL A   1      32.009  22.979  23.909  1.00  0.00    -0.016 C 
ATOM      7  C   UNL A   1      30.752  23.586  23.370  1.00  0.00     0.012 C 
ATOM      8  C   UNL A   1      32.188  21.675  23.088  1.00  0.00     0.012 C 
BRANCH   6   9
ATOM      9  C   UNL A   1      33.175  23.936  23.602  1.00  0.00     0.107 C 
BRANCH   9  10
ATOM     10  C   UNL A   1      33.084  24.996  22.511  1.00  0.00     0.224 C 
ATOM     11  O   UNL A   1      33.374  24.635  21.357  1.00  0.00    -0.275 OA
ATOM     12  N   UNL A   1      32.574  26.253  22.580  1.00  0.00    -0.326 N 
ATOM     13  H   UNL A   1      32.618  26.669  21.688  1.00  0.00     0.169 HD
BRANCH  12  14
ATOM     14  C   UNL A   1      32.004  27.169  23.488  1.00  0.00     0.041 A 
ATOM     15  C   UNL A   1      31.450  28.321  22.919  1.00  0.00     0.026 A 
ATOM     16  C   UNL A   1      32.310  27.224  24.860  1.00  0.00     0.040 A 
ATOM     17  C   UNL A   1      31.090  29.418  23.705  1.00  0.00     0.003 A 
ATOM     18  C   UNL A   1      31.874  28.268  25.699  1.00  0.00     0.041 A 
ATOM     19  C   UNL A   1      31.266  29.373  25.087  1.00  0.00     0.014 A 
BRANCH  18  20
ATOM     20  C   UNL A   1      32.086  28.363  27.190  1.00  0.00     0.251 C 
ATOM     21  O   UNL A   1      31.249  27.852  27.939  1.00  0.00    -0.269 OA
ATOM     22  N   UNL A   1      33.180  28.952  27.793  1.00  0.00    -0.349 N 
ATOM     23  H   UNL A   1      33.135  29.005  28.775  1.00  0.00     0.164 HD
BRANCH  22  24
ATOM     24  C   UNL A   1      34.351  29.490  27.218  1.00  0.00     0.082 C 
ATOM     25  C   UNL A   1      34.926  30.763  27.790  1.00  0.00     0.027 C 
ATOM     26  C   UNL A   1      35.708  29.494  27.870  1.00  0.00     0.027 C 
ENDBRANCH  22  24
ENDBRANCH  18  20
ENDBRANCH  12  14
ENDBRANCH   9  10
ENDBRANCH   6   9
ENDBRANCH   5   6
ENDBRANCH   3   5
ENDBRANCH   2   3
ENDBRANCH   1   2
BRANCH   1  27
ATOM     27  C   UNL A   1      34.633  21.307  26.667  1.00  0.00     0.202 C 
BRANCH  27  28
ATOM     28  O   UNL A   1      34.929  20.782  25.372  1.00  0.00    -0.374 OA
BRANCH  28  29
ATOM     29  C   UNL A   1      36.094  21.324  24.750  1.00  0.00     0.202 C 
BRANCH  29  30
ATOM     30  C   UNL A   1      37.382  20.557  25.100  1.00  0.00     0.261 C 
BRANCH  30  31
ATOM     31  O   UNL A   1      38.507  21.463  25.157  1.00  0.00    -0.460 OA
BRANCH  31  32
ATOM     32  C   UNL A   1      39.469  21.174  26.062  1.00  0.00     0.338 C 
ATOM     33  O   UNL A   1      40.034  20.103  26.225  1.00  0.00    -0.246 OA
BRANCH  32  34
ATOM     34  C   UNL A   1      39.902  22.426  26.717  1.00  0.00     0.060 A 
ATOM     35  C   UNL A   1      39.345  23.618  26.248  1.00  0.00     0.016 A 
ATOM     36  C   UNL A   1      40.830  22.452  27.763  1.00  0.00     0.016 A 
ATOM     37  C   UNL A   1      39.759  24.839  26.779  1.00  0.00     0.010 A 
ATOM     38  C   UNL A   1      41.197  23.676  28.338  1.00  0.00     0.010 A 
ATOM     39  C   UNL A   1      40.716  24.885  27.805  1.00  0.00    -0.014 A 
BRANCH  39  40
ATOM     40  C   UNL A   1      41.338  26.192  28.165  1.00  0.00     0.031 A 
ATOM     41  C   UNL A   1      42.731  26.501  27.673  1.00  0.00     0.074 A 
ATOM     42  C   UNL A   1      40.655  27.134  28.843  1.00  0.00     0.049 A 
ATOM     43  N   UNL A   1      43.431  27.604  27.785  1.00  0.00    -0.248 NA
ATOM     44  C   UNL A   1      43.437  25.421  26.965  1.00  0.00     0.031 C 
ATOM     45  C   UNL A   1      39.306  26.977  29.383  1.00  0.00     0.029 A 
ATOM     46  N   UNL A   1      41.001  28.422  29.177  1.00  0.00    -0.354 N 
ATOM     47  C   UNL A   1      44.648  27.346  27.164  1.00  0.00     0.074 A 
ATOM     48  C   UNL A   1      44.621  25.965  26.740  1.00  0.00     0.031 C 
ATOM     49  C   UNL A   1      38.929  28.131  29.961  1.00  0.00     0.029 A 
ATOM     50  C   UNL A   1      40.019  29.102  29.857  1.00  0.00     0.049 A 
ATOM     51  H   UNL A   1      41.873  28.820  28.952  1.00  0.00     0.167 HD
ATOM     52  C   UNL A   1      45.683  28.187  26.933  1.00  0.00     0.037 A 
ATOM     53  C   UNL A   1      40.000  30.360  30.340  1.00  0.00     0.037 A 
ATOM     54  C   UNL A   1      45.717  29.566  27.337  1.00  0.00     0.049 A 
ATOM     55  C   UNL A   1      41.187  31.265  30.118  1.00  0.00     0.074 A 
ATOM     56  C   UNL A   1      46.710  30.504  27.119  1.00  0.00     0.029 A 
ATOM     57  N   UNL A   1      44.715  30.203  28.052  1.00  0.00    -0.354 N 
ATOM     58  N   UNL A   1      42.305  31.026  29.475  1.00  0.00    -0.248 NA
ATOM     59  C   UNL A   1      41.103  32.623  30.680  1.00  0.00     0.031 C 
ATOM     60  C   UNL A   1      46.338  31.692  27.756  1.00  0.00     0.029 A 
ATOM     61  C   UNL A   1      45.081  31.514  28.311  1.00  0.00     0.049 A 
ATOM     62  H   UNL A   1      43.868  29.787  28.334  1.00  0.00     0.167 HD
ATOM     63  C   UNL A   1      43.040  32.205  29.530  1.00  0.00     0.074 A 
ATOM     64  C   UNL A   1      42.235  33.165  30.253  1.00  0.00     0.031 C 
ATOM     65  C   UNL A   1      44.271  32.468  29.026  1.00  0.00     0.037 A 
BRANCH  52  66
ATOM     66  C   UNL A   1      46.878  27.630  26.208  1.00  0.00     0.064 A 
ATOM     67  C   UNL A   1      47.010  27.731  24.814  1.00  0.00     0.173 A 
ATOM     68  C   UNL A   1      47.916  27.012  26.921  1.00  0.00     0.173 A 
ATOM     69  F   UNL A   1      46.038  28.298  24.083  1.00  0.00    -0.203 F 
ATOM     70  C   UNL A   1      48.119  27.203  24.159  1.00  0.00     0.198 A 
ATOM     71  C   UNL A   1      49.041  26.519  26.266  1.00  0.00     0.198 A 
ATOM     72  F   UNL A   1      47.844  26.893  28.256  1.00  0.00    -0.203 F 
ATOM     73  F   UNL A   1      48.194  27.258  22.822  1.00  0.00    -0.200 F 
ATOM     74  C   UNL A   1      49.137  26.605  24.886  1.00  0.00     0.200 A 
ATOM     75  F   UNL A   1      50.032  25.956  26.972  1.00  0.00    -0.200 F 
ATOM     76  F   UNL A   1      50.208  26.105  24.254  1.00  0.00    -0.200 F 
ENDBRANCH  52  66
BRANCH  53  77
ATOM     77  C   UNL A   1      38.810  30.852  31.088  1.00  0.00     0.064 A 
ATOM     78  C   UNL A   1      37.766  31.527  30.438  1.00  0.00     0.173 A 
ATOM     79  C   UNL A   1      38.708  30.683  32.477  1.00  0.00     0.173 A 
ATOM     80  F   UNL A   1      37.828  31.742  29.116  1.00  0.00    -0.203 F 
ATOM     81  C   UNL A   1      36.680  32.033  31.151  1.00  0.00     0.198 A 
ATOM     82  C   UNL A   1      37.606  31.159  33.184  1.00  0.00     0.198 A 
ATOM     83  F   UNL A   1      39.680  30.049  33.149  1.00  0.00    -0.203 F 
ATOM     84  F   UNL A   1      35.725  32.724  30.513  1.00  0.00    -0.200 F 
ATOM     85  C   UNL A   1      36.597  31.843  32.522  1.00  0.00     0.200 A 
ATOM     86  F   UNL A   1      37.525  30.962  34.506  1.00  0.00    -0.200 F 
ATOM     87  F   UNL A   1      35.553  32.327  33.207  1.00  0.00    -0.200 F 
ENDBRANCH  53  77
BRANCH  65  88
ATOM     88  C   UNL A   1      44.817  33.858  29.199  1.00  0.00     0.064 A 
ATOM     89  C   UNL A   1      44.562  34.876  28.267  1.00  0.00     0.173 A 
ATOM     90  C   UNL A   1      45.565  34.189  30.341  1.00  0.00     0.173 A 
ATOM     91  F   UNL A   1      43.861  34.612  27.154  1.00  0.00    -0.203 F 
ATOM     92  C   UNL A   1      45.060  36.163  28.457  1.00  0.00     0.198 A 
ATOM     93  C   UNL A   1      46.030  35.486  30.544  1.00  0.00     0.198 A 
ATOM     94  F   UNL A   1      45.829  33.260  31.270  1.00  0.00    -0.203 F 
ATOM     95  F   UNL A   1      44.846  37.105  27.528  1.00  0.00    -0.200 F 
ATOM     96  C   UNL A   1      45.786  36.470  29.599  1.00  0.00     0.200 A 
ATOM     97  F   UNL A   1      46.714  35.784  31.658  1.00  0.00    -0.200 F 
ATOM     98  F   UNL A   1      46.254  37.711  29.784  1.00  0.00    -0.200 F 
ENDBRANCH  65  88
ENDBRANCH  39  40
ENDBRANCH  32  34
ENDBRANCH  31  32
ENDBRANCH  30  31
ENDBRANCH  29  30
ENDBRANCH  28  29
ENDBRANCH  27  28
ENDBRANCH   1  27
TORSDOF 20
ENDMDL
MODEL 3
REMARK VINA RESULT:     -11.5      4.829     10.402
REMARK SMILES CC(C)(CC(=O)Nc1cccc(C(=O)NC2CC2)c1)CC(=O)OCCOCCOC(=O)c1ccc(-c2c3nc(c(-c4c(F)c(F)c(F)c(F)c4F)c4ccc([nH]4)c(-c4c(F)c(F)c(F)c(F)c4F)c4nc(c(-c5c(F)c(F)c(F)c(F)c5F)c5ccc2[nH]5)C=C4)C=C3)cc1
REMARK SMILES IDX 24 1 23 2 21 3 22 4 20 5 2 6 1 7 3 8 4 9 5 10 6 11 7 12 8 14
REMARK SMILES IDX 9 15 19 16 10 17 12 18 11 19 13 20 14 21 15 22 16 24 17 25
REMARK SMILES IDX 18 26 25 27 26 28 27 29 28 30 29 31 30 32 31 33 32 34 33 35
REMARK SMILES IDX 94 36 34 37 93 38 35 39 36 40 37 41 87 42 38 43 92 44 86 45
REMARK SMILES IDX 88 46 39 47 91 48 85 49 84 50 40 52 72 53 52 54 71 55 53 56
REMARK SMILES IDX 56 57 70 58 89 59 54 60 55 61 69 63 90 64 57 65 41 66 42 67
REMARK SMILES IDX 50 68 43 69 44 70 48 71 51 72 45 73 46 74 49 75 47 76 73 77
REMARK SMILES IDX 74 78 82 79 75 80 76 81 80 82 83 83 77 84 78 85 81 86 79 87
REMARK SMILES IDX 58 88 59 89 67 90 60 91 61 92 65 93 68 94 62 95 63 96 66 97
REMARK SMILES IDX 64 98
REMARK H PARENT 7 13 15 23 88 51 56 62
REMARK Flexibility Score: inf
ROOT
ATOM      1  C   UNL A   1      37.334  23.254  25.414  1.00  0.00     0.261 C 
ENDROOT
BRANCH   1   2
ATOM      2  O   UNL A   1      36.061  23.606  25.999  1.00  0.00    -0.463 OA
BRANCH   2   3
ATOM      3  C   UNL A   1      35.153  22.621  26.165  1.00  0.00     0.306 C 
ATOM      4  O   UNL A   1      35.412  21.425  26.164  1.00  0.00    -0.252 OA
BRANCH   3   5
ATOM      5  C   UNL A   1      33.732  23.169  26.203  1.00  0.00     0.129 C 
BRANCH   5   6
ATOM      6  C   UNL A   1      32.850  23.241  24.926  1.00  0.00    -0.016 C 
ATOM      7  C   UNL A   1      32.968  21.966  24.150  1.00  0.00     0.012 C 
ATOM      8  C   UNL A   1      33.475  24.315  23.998  1.00  0.00     0.012 C 
BRANCH   6   9
ATOM      9  C   UNL A   1      31.353  23.546  25.120  1.00  0.00     0.107 C 
BRANCH   9  10
ATOM     10  C   UNL A   1      30.825  24.239  26.370  1.00  0.00     0.224 C 
ATOM     11  O   UNL A   1      30.358  23.505  27.259  1.00  0.00    -0.275 OA
ATOM     12  N   UNL A   1      30.933  25.543  26.736  1.00  0.00    -0.326 N 
ATOM     13  H   UNL A   1      30.528  25.663  27.626  1.00  0.00     0.169 HD
BRANCH  12  14
ATOM     14  C   UNL A   1      31.425  26.784  26.282  1.00  0.00     0.041 A 
ATOM     15  C   UNL A   1      31.580  27.770  27.263  1.00  0.00     0.026 A 
ATOM     16  C   UNL A   1      31.366  27.223  24.947  1.00  0.00     0.040 A 
ATOM     17  C   UNL A   1      31.805  29.104  26.921  1.00  0.00     0.003 A 
ATOM     18  C   UNL A   1      31.686  28.538  24.559  1.00  0.00     0.041 A 
ATOM     19  C   UNL A   1      31.896  29.475  25.580  1.00  0.00     0.014 A 
BRANCH  18  20
ATOM     20  C   UNL A   1      31.729  29.068  23.147  1.00  0.00     0.251 C 
ATOM     21  O   UNL A   1      32.760  28.909  22.488  1.00  0.00    -0.269 OA
ATOM     22  N   UNL A   1      30.676  29.693  22.509  1.00  0.00    -0.349 N 
ATOM     23  H   UNL A   1      30.884  30.053  21.617  1.00  0.00     0.164 HD
BRANCH  22  24
ATOM     24  C   UNL A   1      29.347  29.895  22.940  1.00  0.00     0.082 C 
ATOM     25  C   UNL A   1      28.232  29.811  21.927  1.00  0.00     0.027 C 
ATOM     26  C   UNL A   1      28.300  28.817  23.038  1.00  0.00     0.027 C 
ENDBRANCH  22  24
ENDBRANCH  18  20
ENDBRANCH  12  14
ENDBRANCH   9  10
ENDBRANCH   6   9
ENDBRANCH   5   6
ENDBRANCH   3   5
ENDBRANCH   2   3
ENDBRANCH   1   2
BRANCH   1  27
ATOM     27  C   UNL A   1      38.512  23.457  26.366  1.00  0.00     0.202 C 
BRANCH  27  28
ATOM     28  O   UNL A   1      39.374  22.321  26.459  1.00  0.00    -0.374 OA
BRANCH  28  29
ATOM     29  C   UNL A   1      39.031  21.230  25.605  1.00  0.00     0.202 C 
BRANCH  29  30
ATOM     30  C   UNL A   1      39.611  19.884  26.074  1.00  0.00     0.261 C 
BRANCH  30  31
ATOM     31  O   UNL A   1      40.759  19.524  25.273  1.00  0.00    -0.460 OA
BRANCH  31  32
ATOM     32  C   UNL A   1      41.909  19.282  25.940  1.00  0.00     0.338 C 
ATOM     33  O   UNL A   1      42.483  18.212  26.062  1.00  0.00    -0.246 OA
BRANCH  32  34
ATOM     34  C   UNL A   1      42.505  20.572  26.350  1.00  0.00     0.060 A 
ATOM     35  C   UNL A   1      42.462  20.892  27.709  1.00  0.00     0.016 A 
ATOM     36  C   UNL A   1      43.092  21.458  25.442  1.00  0.00     0.016 A 
ATOM     37  C   UNL A   1      42.949  22.121  28.153  1.00  0.00     0.010 A 
ATOM     38  C   UNL A   1      43.637  22.664  25.899  1.00  0.00     0.010 A 
ATOM     39  C   UNL A   1      43.509  23.037  27.249  1.00  0.00    -0.014 A 
BRANCH  39  40
ATOM     40  C   UNL A   1      43.770  24.436  27.695  1.00  0.00     0.031 A 
ATOM     41  C   UNL A   1      45.191  24.945  27.720  1.00  0.00     0.074 A 
ATOM     42  C   UNL A   1      42.763  25.280  27.991  1.00  0.00     0.049 A 
ATOM     43  N   UNL A   1      45.643  26.147  27.982  1.00  0.00    -0.248 NA
ATOM     44  C   UNL A   1      46.248  23.969  27.415  1.00  0.00     0.031 C 
ATOM     45  C   UNL A   1      41.344  24.929  28.015  1.00  0.00     0.029 A 
ATOM     46  N   UNL A   1      42.782  26.616  28.315  1.00  0.00    -0.354 N 
ATOM     47  C   UNL A   1      47.026  26.065  27.873  1.00  0.00     0.074 A 
ATOM     48  C   UNL A   1      47.347  24.685  27.591  1.00  0.00     0.031 C 
ATOM     49  C   UNL A   1      40.627  26.027  28.312  1.00  0.00     0.029 A 
ATOM     50  C   UNL A   1      41.536  27.153  28.527  1.00  0.00     0.049 A 
ATOM     51  H   UNL A   1      43.613  27.139  28.389  1.00  0.00     0.167 HD
ATOM     52  C   UNL A   1      47.950  27.051  27.962  1.00  0.00     0.037 A 
ATOM     53  C   UNL A   1      41.168  28.407  28.857  1.00  0.00     0.037 A 
ATOM     54  C   UNL A   1      47.644  28.430  28.229  1.00  0.00     0.049 A 
ATOM     55  C   UNL A   1      42.219  29.481  29.005  1.00  0.00     0.074 A 
ATOM     56  C   UNL A   1      48.510  29.506  28.306  1.00  0.00     0.029 A 
ATOM     57  N   UNL A   1      46.371  28.924  28.470  1.00  0.00    -0.354 N 
ATOM     58  N   UNL A   1      43.516  29.401  28.838  1.00  0.00    -0.248 NA
ATOM     59  C   UNL A   1      41.748  30.825  29.377  1.00  0.00     0.031 C 
ATOM     60  C   UNL A   1      47.770  30.639  28.657  1.00  0.00     0.029 A 
ATOM     61  C   UNL A   1      46.433  30.284  28.728  1.00  0.00     0.049 A 
ATOM     62  H   UNL A   1      45.545  28.388  28.459  1.00  0.00     0.167 HD
ATOM     63  C   UNL A   1      44.012  30.682  29.054  1.00  0.00     0.074 A 
ATOM     64  C   UNL A   1      42.873  31.526  29.346  1.00  0.00     0.031 C 
ATOM     65  C   UNL A   1      45.295  31.120  29.012  1.00  0.00     0.037 A 
BRANCH  52  66
ATOM     66  C   UNL A   1      49.391  26.667  27.775  1.00  0.00     0.064 A 
ATOM     67  C   UNL A   1      49.961  26.532  26.499  1.00  0.00     0.173 A 
ATOM     68  C   UNL A   1      50.220  26.459  28.887  1.00  0.00     0.173 A 
ATOM     69  F   UNL A   1      49.208  26.705  25.402  1.00  0.00    -0.203 F 
ATOM     70  C   UNL A   1      51.296  26.169  26.345  1.00  0.00     0.198 A 
ATOM     71  C   UNL A   1      51.565  26.132  28.729  1.00  0.00     0.198 A 
ATOM     72  F   UNL A   1      49.730  26.579  30.130  1.00  0.00    -0.203 F 
ATOM     73  F   UNL A   1      51.801  25.988  25.116  1.00  0.00    -0.200 F 
ATOM     74  C   UNL A   1      52.098  25.977  27.458  1.00  0.00     0.200 A 
ATOM     75  F   UNL A   1      52.343  25.962  29.807  1.00  0.00    -0.200 F 
ATOM     76  F   UNL A   1      53.385  25.635  27.308  1.00  0.00    -0.200 F 
ENDBRANCH  52  66
BRANCH  53  77
ATOM     77  C   UNL A   1      39.730  28.728  29.074  1.00  0.00     0.064 A 
ATOM     78  C   UNL A   1      38.927  29.222  28.034  1.00  0.00     0.173 A 
ATOM     79  C   UNL A   1      39.137  28.578  30.337  1.00  0.00     0.173 A 
ATOM     80  F   UNL A   1      39.452  29.412  26.816  1.00  0.00    -0.203 F 
ATOM     81  C   UNL A   1      37.595  29.572  28.256  1.00  0.00     0.198 A 
ATOM     82  C   UNL A   1      37.797  28.896  30.548  1.00  0.00     0.198 A 
ATOM     83  F   UNL A   1      39.860  28.116  31.366  1.00  0.00    -0.203 F 
ATOM     84  F   UNL A   1      36.868  30.094  27.259  1.00  0.00    -0.200 F 
ATOM     85  C   UNL A   1      37.030  29.403  29.510  1.00  0.00     0.200 A 
ATOM     86  F   UNL A   1      37.253  28.720  31.759  1.00  0.00    -0.200 F 
ATOM     87  F   UNL A   1      35.751  29.737  29.722  1.00  0.00    -0.200 F 
ENDBRANCH  53  77
BRANCH  65  88
ATOM     88  C   UNL A   1      45.544  32.583  29.250  1.00  0.00     0.064 A 
ATOM     89  C   UNL A   1      45.558  33.513  28.199  1.00  0.00     0.173 A 
ATOM     90  C   UNL A   1      45.720  33.070  30.555  1.00  0.00     0.173 A 
ATOM     91  F   UNL A   1      45.404  33.102  26.931  1.00  0.00    -0.203 F 
ATOM     92  C   UNL A   1      45.770  34.868  28.442  1.00  0.00     0.198 A 
ATOM     93  C   UNL A   1      45.896  34.430  30.798  1.00  0.00     0.198 A 
ATOM     94  F   UNL A   1      45.705  32.229  31.599  1.00  0.00    -0.203 F 
ATOM     95  F   UNL A   1      45.831  35.729  27.417  1.00  0.00    -0.200 F 
ATOM     96  C   UNL A   1      45.930  35.327  29.742  1.00  0.00     0.200 A 
ATOM     97  F   UNL A   1      46.031  34.873  32.056  1.00  0.00    -0.200 F 
ATOM     98  F   UNL A   1      46.122  36.632  29.974  1.00  0.00    -0.200 F 
ENDBRANCH  65  88
ENDBRANCH  39  40
ENDBRANCH  32  34
ENDBRANCH  31  32
ENDBRANCH  30  31
ENDBRANCH  29  30
ENDBRANCH  28  29
ENDBRANCH  27  28
ENDBRANCH   1  27
TORSDOF 20
ENDMDL
