MODEL 1
REMARK VINA RESULT:     -11.3      0.000      0.000
REMARK SMILES O=C(OCCOCCOC(=O)c1ccc2nc(Cl)sc2c1)c1ccc(-c2c3nc(c(-c4c(F)c(F)c(F)c(F)c4F)c4ccc([nH]4)c(-c4c(F)c(F)c(F)c(F)c4F)c4nc(c(-c5c(F)c(F)c(F)c(F)c5F)c5ccc2[nH]5)C=C4)C=C3)cc1
REMARK SMILES IDX 5 1 4 2 3 3 2 4 1 5 22 6 23 7 84 8 24 9 83 10 25 11 26 12
REMARK SMILES IDX 27 13 77 14 28 15 82 16 76 17 78 18 29 19 81 20 75 21 74 22
REMARK SMILES IDX 30 24 62 25 42 26 61 27 43 28 46 29 60 30 79 31 44 32 45 33
REMARK SMILES IDX 59 35 80 36 47 37 31 38 32 39 40 40 33 41 34 42 38 43 41 44
REMARK SMILES IDX 35 45 36 46 39 47 37 48 63 49 64 50 72 51 65 52 66 53 70 54
REMARK SMILES IDX 73 55 67 56 68 57 71 58 69 59 48 60 49 61 57 62 50 63 51 64
REMARK SMILES IDX 55 65 58 66 52 67 53 68 56 69 54 70 6 71 7 72 8 73 9 74
REMARK SMILES IDX 10 75 11 76 12 77 13 78 21 79 14 80 20 81 15 82 19 83 16 84
REMARK SMILES IDX 17 85 18 86
REMARK H PARENT 78 23 46 34
REMARK Flexibility Score: inf
ROOT
ATOM      1  C   UNL A   1      42.223  19.667  26.413  1.00  0.00     0.202 C 
ENDROOT
BRANCH   1   2
ATOM      2  C   UNL A   1      40.711  19.861  26.587  1.00  0.00     0.261 C 
BRANCH   2   3
ATOM      3  O   UNL A   1      40.414  21.032  27.370  1.00  0.00    -0.460 OA
BRANCH   3   4
ATOM      4  C   UNL A   1      39.664  22.061  26.891  1.00  0.00     0.338 C 
ATOM      5  O   UNL A   1      38.807  21.877  26.036  1.00  0.00    -0.246 OA
BRANCH   4   6
ATOM      6  C   UNL A   1      40.152  23.443  27.162  1.00  0.00     0.060 A 
ATOM      7  C   UNL A   1      39.200  24.460  27.336  1.00  0.00     0.016 A 
ATOM      8  C   UNL A   1      41.496  23.784  27.223  1.00  0.00     0.016 A 
ATOM      9  C   UNL A   1      39.602  25.795  27.494  1.00  0.00     0.010 A 
ATOM     10  C   UNL A   1      41.891  25.113  27.293  1.00  0.00     0.010 A 
ATOM     11  C   UNL A   1      40.961  26.141  27.442  1.00  0.00    -0.014 A 
BRANCH  11  12
ATOM     12  C   UNL A   1      41.423  27.526  27.710  1.00  0.00     0.031 A 
ATOM     13  C   UNL A   1      40.343  28.587  27.703  1.00  0.00     0.074 A 
ATOM     14  C   UNL A   1      42.478  27.760  28.516  1.00  0.00     0.049 A 
ATOM     15  N   UNL A   1      39.591  28.909  28.719  1.00  0.00    -0.248 NA
ATOM     16  C   UNL A   1      39.853  29.110  26.423  1.00  0.00     0.031 C 
ATOM     17  C   UNL A   1      42.621  27.197  29.860  1.00  0.00     0.029 A 
ATOM     18  N   UNL A   1      43.431  28.752  28.443  1.00  0.00    -0.354 N 
ATOM     19  C   UNL A   1      38.507  29.620  28.217  1.00  0.00     0.074 A 
ATOM     20  C   UNL A   1      38.715  29.715  26.789  1.00  0.00     0.031 C 
ATOM     21  C   UNL A   1      43.499  27.955  30.547  1.00  0.00     0.029 A 
ATOM     22  C   UNL A   1      44.037  28.996  29.670  1.00  0.00     0.049 A 
ATOM     23  H   UNL A   1      43.657  29.234  27.615  1.00  0.00     0.167 HD
ATOM     24  C   UNL A   1      37.476  30.087  28.973  1.00  0.00     0.037 A 
ATOM     25  C   UNL A   1      44.475  30.221  30.069  1.00  0.00     0.037 A 
ATOM     26  C   UNL A   1      37.576  29.880  30.382  1.00  0.00     0.049 A 
ATOM     27  C   UNL A   1      43.199  30.811  30.617  1.00  0.00     0.074 A 
ATOM     28  C   UNL A   1      37.090  29.001  31.325  1.00  0.00     0.029 A 
ATOM     29  N   UNL A   1      38.367  30.751  31.095  1.00  0.00    -0.354 N 
ATOM     30  N   UNL A   1      42.670  30.572  31.788  1.00  0.00    -0.248 NA
ATOM     31  C   UNL A   1      42.286  31.428  29.650  1.00  0.00     0.031 C 
ATOM     32  C   UNL A   1      37.983  29.110  32.439  1.00  0.00     0.029 A 
ATOM     33  C   UNL A   1      38.979  30.013  32.073  1.00  0.00     0.049 A 
ATOM     34  H   UNL A   1      38.473  31.716  30.933  1.00  0.00     0.167 HD
ATOM     35  C   UNL A   1      41.295  30.748  31.610  1.00  0.00     0.074 A 
ATOM     36  C   UNL A   1      41.133  31.336  30.297  1.00  0.00     0.031 C 
ATOM     37  C   UNL A   1      40.358  30.214  32.445  1.00  0.00     0.037 A 
BRANCH  24  38
ATOM     38  C   UNL A   1      36.385  30.947  28.467  1.00  0.00     0.064 A 
ATOM     39  C   UNL A   1      36.538  32.337  28.578  1.00  0.00     0.173 A 
ATOM     40  C   UNL A   1      35.134  30.448  28.089  1.00  0.00     0.173 A 
ATOM     41  F   UNL A   1      37.721  32.851  28.952  1.00  0.00    -0.203 F 
ATOM     42  C   UNL A   1      35.470  33.199  28.361  1.00  0.00     0.198 A 
ATOM     43  C   UNL A   1      34.066  31.317  27.860  1.00  0.00     0.198 A 
ATOM     44  F   UNL A   1      34.936  29.126  27.980  1.00  0.00    -0.203 F 
ATOM     45  F   UNL A   1      35.637  34.519  28.521  1.00  0.00    -0.200 F 
ATOM     46  C   UNL A   1      34.231  32.688  28.010  1.00  0.00     0.200 A 
ATOM     47  F   UNL A   1      32.864  30.827  27.523  1.00  0.00    -0.200 F 
ATOM     48  F   UNL A   1      33.194  33.518  27.830  1.00  0.00    -0.200 F 
ENDBRANCH  24  38
BRANCH  25  49
ATOM     49  C   UNL A   1      45.402  30.930  29.130  1.00  0.00     0.064 A 
ATOM     50  C   UNL A   1      46.763  31.031  29.496  1.00  0.00     0.173 A 
ATOM     51  C   UNL A   1      45.054  31.506  27.900  1.00  0.00     0.173 A 
ATOM     52  F   UNL A   1      47.168  30.610  30.705  1.00  0.00    -0.203 F 
ATOM     53  C   UNL A   1      47.728  31.548  28.631  1.00  0.00     0.198 A 
ATOM     54  C   UNL A   1      46.024  32.001  27.023  1.00  0.00     0.198 A 
ATOM     55  F   UNL A   1      43.777  31.590  27.509  1.00  0.00    -0.203 F 
ATOM     56  F   UNL A   1      49.014  31.580  29.007  1.00  0.00    -0.200 F 
ATOM     57  C   UNL A   1      47.361  32.003  27.380  1.00  0.00     0.200 A 
ATOM     58  F   UNL A   1      45.657  32.454  25.815  1.00  0.00    -0.200 F 
ATOM     59  F   UNL A   1      48.290  32.445  26.521  1.00  0.00    -0.200 F 
ENDBRANCH  25  49
BRANCH  37  60
ATOM     60  C   UNL A   1      40.888  29.566  33.672  1.00  0.00     0.064 A 
ATOM     61  C   UNL A   1      41.135  28.189  33.690  1.00  0.00     0.173 A 
ATOM     62  C   UNL A   1      41.189  30.312  34.822  1.00  0.00     0.173 A 
ATOM     63  F   UNL A   1      40.865  27.438  32.610  1.00  0.00    -0.203 F 
ATOM     64  C   UNL A   1      41.688  27.583  34.812  1.00  0.00     0.198 A 
ATOM     65  C   UNL A   1      41.768  29.707  35.931  1.00  0.00     0.198 A 
ATOM     66  F   UNL A   1      40.946  31.632  34.871  1.00  0.00    -0.203 F 
ATOM     67  F   UNL A   1      41.924  26.263  34.811  1.00  0.00    -0.200 F 
ATOM     68  C   UNL A   1      42.017  28.343  35.925  1.00  0.00     0.200 A 
ATOM     69  F   UNL A   1      42.100  30.446  37.000  1.00  0.00    -0.200 F 
ATOM     70  F   UNL A   1      42.587  27.763  36.991  1.00  0.00    -0.200 F 
ENDBRANCH  37  60
ENDBRANCH  11  12
ENDBRANCH   4   6
ENDBRANCH   3   4
ENDBRANCH   2   3
ENDBRANCH   1   2
BRANCH   1  71
ATOM     71  O   UNL A   1      42.618  19.232  25.112  1.00  0.00    -0.374 OA
BRANCH  71  72
ATOM     72  C   UNL A   1      43.977  18.790  25.012  1.00  0.00     0.202 C 
BRANCH  72  73
ATOM     73  C   UNL A   1      44.584  19.083  23.640  1.00  0.00     0.261 C 
BRANCH  73  74
ATOM     74  O   UNL A   1      44.870  20.484  23.505  1.00  0.00    -0.460 OA
BRANCH  74  75
ATOM     75  C   UNL A   1      45.761  20.980  24.395  1.00  0.00     0.338 C 
ATOM     76  O   UNL A   1      46.774  20.457  24.824  1.00  0.00    -0.246 OA
BRANCH  75  77
ATOM     77  C   UNL A   1      45.405  22.386  24.653  1.00  0.00     0.061 A 
ATOM     78  C   UNL A   1      44.117  22.853  24.396  1.00  0.00     0.018 A 
ATOM     79  C   UNL A   1      46.409  23.233  25.142  1.00  0.00     0.037 A 
ATOM     80  C   UNL A   1      43.806  24.197  24.628  1.00  0.00     0.031 A 
ATOM     81  C   UNL A   1      46.086  24.582  25.340  1.00  0.00     0.057 A 
ATOM     82  C   UNL A   1      44.801  25.081  25.099  1.00  0.00     0.083 A 
ATOM     83  S   UNL A   1      47.095  25.872  25.883  1.00  0.00    -0.102 S 
ATOM     84  N   UNL A   1      44.632  26.430  25.354  1.00  0.00    -0.225 NA
ATOM     85  C   UNL A   1      45.770  26.923  25.769  1.00  0.00     0.184 A 
ATOM     86  Cl  UNL A   1      45.953  28.575  26.195  1.00  0.00    -0.050 Cl
ENDBRANCH  75  77
ENDBRANCH  74  75
ENDBRANCH  73  74
ENDBRANCH  72  73
ENDBRANCH  71  72
ENDBRANCH   1  71
TORSDOF 14
ENDMDL
MODEL 2
REMARK VINA RESULT:     -10.6      3.881      5.826
REMARK SMILES O=C(OCCOCCOC(=O)c1ccc2nc(Cl)sc2c1)c1ccc(-c2c3nc(c(-c4c(F)c(F)c(F)c(F)c4F)c4ccc([nH]4)c(-c4c(F)c(F)c(F)c(F)c4F)c4nc(c(-c5c(F)c(F)c(F)c(F)c5F)c5ccc2[nH]5)C=C4)C=C3)cc1
REMARK SMILES IDX 5 1 4 2 3 3 2 4 1 5 22 6 23 7 84 8 24 9 83 10 25 11 26 12
REMARK SMILES IDX 27 13 77 14 28 15 82 16 76 17 78 18 29 19 81 20 75 21 74 22
REMARK SMILES IDX 30 24 62 25 42 26 61 27 43 28 46 29 60 30 79 31 44 32 45 33
REMARK SMILES IDX 59 35 80 36 47 37 31 38 32 39 40 40 33 41 34 42 38 43 41 44
REMARK SMILES IDX 35 45 36 46 39 47 37 48 63 49 64 50 72 51 65 52 66 53 70 54
REMARK SMILES IDX 73 55 67 56 68 57 71 58 69 59 48 60 49 61 57 62 50 63 51 64
REMARK SMILES IDX 55 65 58 66 52 67 53 68 56 69 54 70 6 71 7 72 8 73 9 74
REMARK SMILES IDX 10 75 11 76 12 77 13 78 21 79 14 80 20 81 15 82 19 83 16 84
REMARK SMILES IDX 17 85 18 86
REMARK H PARENT 78 23 46 34
REMARK Flexibility Score: inf
ROOT
ATOM      1  C   UNL A   1      36.780  20.943  25.251  1.00  0.00     0.202 C 
ENDROOT
BRANCH   1   2
ATOM      2  C   UNL A   1      37.595  22.166  25.692  1.00  0.00     0.261 C 
BRANCH   2   3
ATOM      3  O   UNL A   1      39.010  21.918  25.609  1.00  0.00    -0.460 OA
BRANCH   3   4
ATOM      4  C   UNL A   1      39.854  22.141  26.652  1.00  0.00     0.338 C 
ATOM      5  O   UNL A   1      40.040  21.290  27.512  1.00  0.00    -0.246 OA
BRANCH   4   6
ATOM      6  C   UNL A   1      40.257  23.552  26.912  1.00  0.00     0.060 A 
ATOM      7  C   UNL A   1      41.518  23.976  26.465  1.00  0.00     0.016 A 
ATOM      8  C   UNL A   1      39.464  24.462  27.598  1.00  0.00     0.016 A 
ATOM      9  C   UNL A   1      41.989  25.261  26.770  1.00  0.00     0.010 A 
ATOM     10  C   UNL A   1      39.963  25.702  27.972  1.00  0.00     0.010 A 
ATOM     11  C   UNL A   1      41.224  26.133  27.559  1.00  0.00    -0.014 A 
BRANCH  11  12
ATOM     12  C   UNL A   1      41.647  27.534  27.810  1.00  0.00     0.031 A 
ATOM     13  C   UNL A   1      40.539  28.563  27.789  1.00  0.00     0.074 A 
ATOM     14  C   UNL A   1      42.694  27.806  28.615  1.00  0.00     0.049 A 
ATOM     15  N   UNL A   1      39.776  28.878  28.799  1.00  0.00    -0.248 NA
ATOM     16  C   UNL A   1      40.036  29.058  26.502  1.00  0.00     0.031 C 
ATOM     17  C   UNL A   1      42.850  27.263  29.967  1.00  0.00     0.029 A 
ATOM     18  N   UNL A   1      43.619  28.823  28.532  1.00  0.00    -0.354 N 
ATOM     19  C   UNL A   1      38.673  29.552  28.287  1.00  0.00     0.074 A 
ATOM     20  C   UNL A   1      38.881  29.636  26.859  1.00  0.00     0.031 C 
ATOM     21  C   UNL A   1      43.705  28.054  30.646  1.00  0.00     0.029 A 
ATOM     22  C   UNL A   1      44.216  29.098  29.757  1.00  0.00     0.049 A 
ATOM     23  H   UNL A   1      43.834  29.301  27.699  1.00  0.00     0.167 HD
ATOM     24  C   UNL A   1      37.628  30.000  29.036  1.00  0.00     0.037 A 
ATOM     25  C   UNL A   1      44.619  30.340  30.142  1.00  0.00     0.037 A 
ATOM     26  C   UNL A   1      37.732  29.813  30.447  1.00  0.00     0.049 A 
ATOM     27  C   UNL A   1      43.326  30.901  30.680  1.00  0.00     0.074 A 
ATOM     28  C   UNL A   1      37.268  28.932  31.401  1.00  0.00     0.029 A 
ATOM     29  N   UNL A   1      38.497  30.713  31.151  1.00  0.00    -0.354 N 
ATOM     30  N   UNL A   1      42.802  30.662  31.853  1.00  0.00    -0.248 NA
ATOM     31  C   UNL A   1      42.398  31.481  29.705  1.00  0.00     0.031 C 
ATOM     32  C   UNL A   1      38.156  29.079  32.515  1.00  0.00     0.029 A 
ATOM     33  C   UNL A   1      39.126  30.005  32.139  1.00  0.00     0.049 A 
ATOM     34  H   UNL A   1      38.576  31.679  30.977  1.00  0.00     0.167 HD
ATOM     35  C   UNL A   1      41.422  30.798  31.671  1.00  0.00     0.074 A 
ATOM     36  C   UNL A   1      41.247  31.365  30.351  1.00  0.00     0.031 C 
ATOM     37  C   UNL A   1      40.499  30.248  32.511  1.00  0.00     0.037 A 
BRANCH  24  38
ATOM     38  C   UNL A   1      36.515  30.823  28.517  1.00  0.00     0.064 A 
ATOM     39  C   UNL A   1      36.624  32.217  28.622  1.00  0.00     0.173 A 
ATOM     40  C   UNL A   1      35.283  30.284  28.134  1.00  0.00     0.173 A 
ATOM     41  F   UNL A   1      37.789  32.770  29.000  1.00  0.00    -0.203 F 
ATOM     42  C   UNL A   1      35.533  33.045  28.391  1.00  0.00     0.198 A 
ATOM     43  C   UNL A   1      34.190  31.118  27.893  1.00  0.00     0.198 A 
ATOM     44  F   UNL A   1      35.125  28.956  28.032  1.00  0.00    -0.203 F 
ATOM     45  F   UNL A   1      35.658  34.371  28.545  1.00  0.00    -0.200 F 
ATOM     46  C   UNL A   1      34.312  32.495  28.036  1.00  0.00     0.200 A 
ATOM     47  F   UNL A   1      33.006  30.590  27.550  1.00  0.00    -0.200 F 
ATOM     48  F   UNL A   1      33.252  33.291  27.843  1.00  0.00    -0.200 F 
ENDBRANCH  24  38
BRANCH  25  49
ATOM     49  C   UNL A   1      45.528  31.063  29.196  1.00  0.00     0.064 A 
ATOM     50  C   UNL A   1      46.914  31.041  29.466  1.00  0.00     0.173 A 
ATOM     51  C   UNL A   1      45.139  31.763  28.045  1.00  0.00     0.173 A 
ATOM     52  F   UNL A   1      47.370  30.493  30.603  1.00  0.00    -0.203 F 
ATOM     53  C   UNL A   1      47.852  31.564  28.576  1.00  0.00     0.198 A 
ATOM     54  C   UNL A   1      46.079  32.266  27.141  1.00  0.00     0.198 A 
ATOM     55  F   UNL A   1      43.847  31.966  27.759  1.00  0.00    -0.203 F 
ATOM     56  F   UNL A   1      49.160  31.478  28.855  1.00  0.00    -0.200 F 
ATOM     57  C   UNL A   1      47.434  32.148  27.396  1.00  0.00     0.200 A 
ATOM     58  F   UNL A   1      45.664  32.844  26.004  1.00  0.00    -0.200 F 
ATOM     59  F   UNL A   1      48.331  32.598  26.508  1.00  0.00    -0.200 F 
ENDBRANCH  25  49
BRANCH  37  60
ATOM     60  C   UNL A   1      41.044  29.631  33.747  1.00  0.00     0.064 A 
ATOM     61  C   UNL A   1      41.352  28.266  33.774  1.00  0.00     0.173 A 
ATOM     62  C   UNL A   1      41.299  30.394  34.896  1.00  0.00     0.173 A 
ATOM     63  F   UNL A   1      41.128  27.499  32.695  1.00  0.00    -0.203 F 
ATOM     64  C   UNL A   1      41.919  27.690  34.905  1.00  0.00     0.198 A 
ATOM     65  C   UNL A   1      41.892  29.821  36.014  1.00  0.00     0.198 A 
ATOM     66  F   UNL A   1      40.997  31.702  34.936  1.00  0.00    -0.203 F 
ATOM     67  F   UNL A   1      42.215  26.383  34.912  1.00  0.00    -0.200 F 
ATOM     68  C   UNL A   1      42.202  28.469  36.018  1.00  0.00     0.200 A 
ATOM     69  F   UNL A   1      42.178  30.578  37.083  1.00  0.00    -0.200 F 
ATOM     70  F   UNL A   1      42.786  27.920  37.092  1.00  0.00    -0.200 F 
ENDBRANCH  37  60
ENDBRANCH  11  12
ENDBRANCH   4   6
ENDBRANCH   3   4
ENDBRANCH   2   3
ENDBRANCH   1   2
BRANCH   1  71
ATOM     71  O   UNL A   1      35.434  20.925  25.726  1.00  0.00    -0.374 OA
BRANCH  71  72
ATOM     72  C   UNL A   1      34.437  20.815  24.704  1.00  0.00     0.202 C 
BRANCH  72  73
ATOM     73  C   UNL A   1      33.511  22.031  24.662  1.00  0.00     0.261 C 
BRANCH  73  74
ATOM     74  O   UNL A   1      33.859  22.891  23.566  1.00  0.00    -0.460 OA
BRANCH  74  75
ATOM     75  C   UNL A   1      34.250  24.140  23.912  1.00  0.00     0.338 C 
ATOM     76  O   UNL A   1      35.289  24.488  24.443  1.00  0.00    -0.246 OA
BRANCH  75  77
ATOM     77  C   UNL A   1      33.261  25.087  23.369  1.00  0.00     0.061 A 
ATOM     78  C   UNL A   1      32.894  25.041  22.025  1.00  0.00     0.018 A 
ATOM     79  C   UNL A   1      32.724  26.041  24.244  1.00  0.00     0.037 A 
ATOM     80  C   UNL A   1      31.969  25.963  21.524  1.00  0.00     0.031 A 
ATOM     81  C   UNL A   1      31.821  26.975  23.718  1.00  0.00     0.057 A 
ATOM     82  C   UNL A   1      31.427  26.951  22.375  1.00  0.00     0.083 A 
ATOM     83  S   UNL A   1      31.028  28.285  24.512  1.00  0.00    -0.102 S 
ATOM     84  N   UNL A   1      30.519  27.928  22.007  1.00  0.00    -0.225 NA
ATOM     85  C   UNL A   1      30.251  28.665  23.054  1.00  0.00     0.184 A 
ATOM     86  Cl  UNL A   1      29.152  29.982  22.990  1.00  0.00    -0.050 Cl
ENDBRANCH  75  77
ENDBRANCH  74  75
ENDBRANCH  73  74
ENDBRANCH  72  73
ENDBRANCH  71  72
ENDBRANCH   1  71
TORSDOF 14
ENDMDL
MODEL 3
REMARK VINA RESULT:     -10.3      4.894      9.852
REMARK SMILES O=C(OCCOCCOC(=O)c1ccc2nc(Cl)sc2c1)c1ccc(-c2c3nc(c(-c4c(F)c(F)c(F)c(F)c4F)c4ccc([nH]4)c(-c4c(F)c(F)c(F)c(F)c4F)c4nc(c(-c5c(F)c(F)c(F)c(F)c5F)c5ccc2[nH]5)C=C4)C=C3)cc1
REMARK SMILES IDX 5 1 4 2 3 3 2 4 1 5 22 6 23 7 84 8 24 9 83 10 25 11 26 12
REMARK SMILES IDX 27 13 77 14 28 15 82 16 76 17 78 18 29 19 81 20 75 21 74 22
REMARK SMILES IDX 30 24 62 25 42 26 61 27 43 28 46 29 60 30 79 31 44 32 45 33
REMARK SMILES IDX 59 35 80 36 47 37 31 38 32 39 40 40 33 41 34 42 38 43 41 44
REMARK SMILES IDX 35 45 36 46 39 47 37 48 63 49 64 50 72 51 65 52 66 53 70 54
REMARK SMILES IDX 73 55 67 56 68 57 71 58 69 59 48 60 49 61 57 62 50 63 51 64
REMARK SMILES IDX 55 65 58 66 52 67 53 68 56 69 54 70 6 71 7 72 8 73 9 74
REMARK SMILES IDX 10 75 11 76 12 77 13 78 21 79 14 80 20 81 15 82 19 83 16 84
REMARK SMILES IDX 17 85 18 86
REMARK H PARENT 78 23 46 34
REMARK Flexibility Score: inf
ROOT
ATOM      1  C   UNL A   1      31.667  30.730  25.979  1.00  0.00     0.202 C 
ENDROOT
BRANCH   1   2
ATOM      2  C   UNL A   1      32.526  30.765  27.251  1.00  0.00     0.261 C 
BRANCH   2   3
ATOM      3  O   UNL A   1      33.922  30.934  26.942  1.00  0.00    -0.460 OA
BRANCH   3   4
ATOM      4  C   UNL A   1      34.752  31.696  27.703  1.00  0.00     0.338 C 
ATOM      5  O   UNL A   1      34.746  32.918  27.622  1.00  0.00    -0.246 OA
BRANCH   4   6
ATOM      6  C   UNL A   1      35.900  31.006  28.358  1.00  0.00     0.060 A 
ATOM      7  C   UNL A   1      35.927  30.948  29.760  1.00  0.00     0.016 A 
ATOM      8  C   UNL A   1      36.958  30.444  27.657  1.00  0.00     0.016 A 
ATOM      9  C   UNL A   1      37.031  30.400  30.431  1.00  0.00     0.010 A 
ATOM     10  C   UNL A   1      38.086  29.981  28.320  1.00  0.00     0.010 A 
ATOM     11  C   UNL A   1      38.143  29.937  29.712  1.00  0.00    -0.014 A 
BRANCH  11  12
ATOM     12  C   UNL A   1      39.279  29.258  30.386  1.00  0.00     0.031 A 
ATOM     13  C   UNL A   1      39.537  27.832  29.951  1.00  0.00     0.074 A 
ATOM     14  C   UNL A   1      40.357  29.956  30.798  1.00  0.00     0.049 A 
ATOM     15  N   UNL A   1      40.256  27.470  28.924  1.00  0.00    -0.248 NA
ATOM     16  C   UNL A   1      38.706  26.749  30.492  1.00  0.00     0.031 C 
ATOM     17  C   UNL A   1      41.104  30.884  29.947  1.00  0.00     0.029 A 
ATOM     18  N   UNL A   1      41.164  29.750  31.895  1.00  0.00    -0.354 N 
ATOM     19  C   UNL A   1      39.938  26.146  28.645  1.00  0.00     0.074 A 
ATOM     20  C   UNL A   1      38.971  25.746  29.643  1.00  0.00     0.031 C 
ATOM     21  C   UNL A   1      42.333  31.048  30.476  1.00  0.00     0.029 A 
ATOM     22  C   UNL A   1      42.426  30.310  31.736  1.00  0.00     0.049 A 
ATOM     23  H   UNL A   1      40.879  29.262  32.701  1.00  0.00     0.167 HD
ATOM     24  C   UNL A   1      40.454  25.432  27.608  1.00  0.00     0.037 A 
ATOM     25  C   UNL A   1      43.564  29.777  32.261  1.00  0.00     0.037 A 
ATOM     26  C   UNL A   1      41.440  26.090  26.812  1.00  0.00     0.049 A 
ATOM     27  C   UNL A   1      43.914  28.763  31.202  1.00  0.00     0.074 A 
ATOM     28  C   UNL A   1      41.506  26.759  25.609  1.00  0.00     0.029 A 
ATOM     29  N   UNL A   1      42.725  26.128  27.300  1.00  0.00    -0.354 N 
ATOM     30  N   UNL A   1      44.503  29.001  30.059  1.00  0.00    -0.248 NA
ATOM     31  C   UNL A   1      43.243  27.462  31.282  1.00  0.00     0.031 C 
ATOM     32  C   UNL A   1      42.695  27.552  25.682  1.00  0.00     0.029 A 
ATOM     33  C   UNL A   1      43.242  27.345  26.946  1.00  0.00     0.049 A 
ATOM     34  H   UNL A   1      43.183  25.418  27.805  1.00  0.00     0.167 HD
ATOM     35  C   UNL A   1      44.036  28.007  29.194  1.00  0.00     0.074 A 
ATOM     36  C   UNL A   1      43.320  27.060  30.021  1.00  0.00     0.031 C 
ATOM     37  C   UNL A   1      44.073  28.121  27.835  1.00  0.00     0.037 A 
BRANCH  24  38
ATOM     38  C   UNL A   1      40.215  23.992  27.378  1.00  0.00     0.064 A 
ATOM     39  C   UNL A   1      41.144  23.079  27.899  1.00  0.00     0.173 A 
ATOM     40  C   UNL A   1      39.242  23.512  26.495  1.00  0.00     0.173 A 
ATOM     41  F   UNL A   1      42.100  23.506  28.740  1.00  0.00    -0.203 F 
ATOM     42  C   UNL A   1      41.131  21.742  27.521  1.00  0.00     0.198 A 
ATOM     43  C   UNL A   1      39.224  22.166  26.125  1.00  0.00     0.198 A 
ATOM     44  F   UNL A   1      38.339  24.347  25.961  1.00  0.00    -0.203 F 
ATOM     45  F   UNL A   1      42.061  20.905  28.001  1.00  0.00    -0.200 F 
ATOM     46  C   UNL A   1      40.176  21.287  26.627  1.00  0.00     0.200 A 
ATOM     47  F   UNL A   1      38.303  21.721  25.258  1.00  0.00    -0.200 F 
ATOM     48  F   UNL A   1      40.182  20.004  26.240  1.00  0.00    -0.200 F 
ENDBRANCH  24  38
BRANCH  25  49
ATOM     49  C   UNL A   1      43.543  29.496  33.732  1.00  0.00     0.064 A 
ATOM     50  C   UNL A   1      44.498  30.149  34.543  1.00  0.00     0.173 A 
ATOM     51  C   UNL A   1      42.654  28.642  34.400  1.00  0.00     0.173 A 
ATOM     52  F   UNL A   1      45.461  30.896  33.981  1.00  0.00    -0.203 F 
ATOM     53  C   UNL A   1      44.474  30.060  35.935  1.00  0.00     0.198 A 
ATOM     54  C   UNL A   1      42.614  28.572  35.795  1.00  0.00     0.198 A 
ATOM     55  F   UNL A   1      41.794  27.868  33.724  1.00  0.00    -0.203 F 
ATOM     56  F   UNL A   1      45.373  30.736  36.664  1.00  0.00    -0.200 F 
ATOM     57  C   UNL A   1      43.509  29.296  36.562  1.00  0.00     0.200 A 
ATOM     58  F   UNL A   1      41.682  27.816  36.395  1.00  0.00    -0.200 F 
ATOM     59  F   UNL A   1      43.442  29.255  37.900  1.00  0.00    -0.200 F 
ENDBRANCH  25  49
BRANCH  37  60
ATOM     60  C   UNL A   1      44.805  29.302  27.310  1.00  0.00     0.064 A 
ATOM     61  C   UNL A   1      44.114  30.479  27.003  1.00  0.00     0.173 A 
ATOM     62  C   UNL A   1      46.199  29.286  27.146  1.00  0.00     0.173 A 
ATOM     63  F   UNL A   1      42.780  30.539  27.150  1.00  0.00    -0.203 F 
ATOM     64  C   UNL A   1      44.796  31.609  26.569  1.00  0.00     0.198 A 
ATOM     65  C   UNL A   1      46.880  30.426  26.739  1.00  0.00     0.198 A 
ATOM     66  F   UNL A   1      46.910  28.175  27.399  1.00  0.00    -0.203 F 
ATOM     67  F   UNL A   1      44.119  32.731  26.285  1.00  0.00    -0.200 F 
ATOM     68  C   UNL A   1      46.179  31.588  26.452  1.00  0.00     0.200 A 
ATOM     69  F   UNL A   1      48.218  30.408  26.641  1.00  0.00    -0.200 F 
ATOM     70  F   UNL A   1      46.838  32.691  26.072  1.00  0.00    -0.200 F 
ENDBRANCH  37  60
ENDBRANCH  11  12
ENDBRANCH   4   6
ENDBRANCH   3   4
ENDBRANCH   2   3
ENDBRANCH   1   2
BRANCH   1  71
ATOM     71  O   UNL A   1      31.510  29.432  25.407  1.00  0.00    -0.374 OA
BRANCH  71  72
ATOM     72  C   UNL A   1      30.705  29.390  24.223  1.00  0.00     0.202 C 
BRANCH  72  73
ATOM     73  C   UNL A   1      31.454  28.792  23.032  1.00  0.00     0.261 C 
BRANCH  73  74
ATOM     74  O   UNL A   1      32.872  28.928  23.210  1.00  0.00    -0.460 OA
BRANCH  74  75
ATOM     75  C   UNL A   1      33.627  28.019  22.549  1.00  0.00     0.338 C 
ATOM     76  O   UNL A   1      34.401  28.206  21.627  1.00  0.00    -0.246 OA
BRANCH  75  77
ATOM     77  C   UNL A   1      33.504  26.733  23.255  1.00  0.00     0.061 A 
ATOM     78  C   UNL A   1      33.666  26.660  24.638  1.00  0.00     0.018 A 
ATOM     79  C   UNL A   1      33.239  25.591  22.486  1.00  0.00     0.037 A 
ATOM     80  C   UNL A   1      33.565  25.424  25.286  1.00  0.00     0.031 A 
ATOM     81  C   UNL A   1      33.170  24.358  23.149  1.00  0.00     0.057 A 
ATOM     82  C   UNL A   1      33.322  24.253  24.537  1.00  0.00     0.083 A 
ATOM     83  S   UNL A   1      32.907  22.785  22.493  1.00  0.00    -0.102 S 
ATOM     84  N   UNL A   1      33.215  22.972  25.049  1.00  0.00    -0.225 NA
ATOM     85  C   UNL A   1      32.995  22.144  24.060  1.00  0.00     0.184 A 
ATOM     86  Cl  UNL A   1      32.797  20.457  24.304  1.00  0.00    -0.050 Cl
ENDBRANCH  75  77
ENDBRANCH  74  75
ENDBRANCH  73  74
ENDBRANCH  72  73
ENDBRANCH  71  72
ENDBRANCH   1  71
TORSDOF 14
ENDMDL
