MODEL 1
REMARK VINA RESULT:     -13.3      0.000      0.000
REMARK SMILES Cc1ccccc1[C@@H]1[NH2+][C@@H](C(=O)OCCOCCOC(=O)c2ccc(-c3c4nc(c(-c5c(F)c(F)c(F)c(F)c5F)c5ccc([nH]5)c(-c5c(F)c(F)c(F)c(F)c5F)c5nc(c(-c6c(F)c(F)c(F)c(F)c6F)c6ccc3[nH]6)C=C5)C=C4)cc2)CC2=c3ccccc3=N[C@H]21
REMARK SMILES IDX 17 1 16 2 15 3 14 4 13 5 11 6 12 7 10 8 8 9 9 10 94 11 86 14
REMARK SMILES IDX 93 15 85 16 87 17 92 18 88 19 91 20 89 21 90 22 7 23 1 24
REMARK SMILES IDX 2 25 3 26 4 27 6 28 5 29 18 30 19 31 20 32 21 33 22 34 23 35
REMARK SMILES IDX 84 36 24 37 83 38 25 39 26 40 27 41 77 42 28 43 82 44 76 45
REMARK SMILES IDX 78 46 29 47 81 48 75 49 74 50 30 52 62 53 42 54 61 55 43 56
REMARK SMILES IDX 46 57 60 58 79 59 44 60 45 61 59 63 80 64 47 65 31 66 32 67
REMARK SMILES IDX 40 68 33 69 34 70 38 71 41 72 35 73 36 74 39 75 37 76 63 77
REMARK SMILES IDX 64 78 72 79 65 80 66 81 70 82 73 83 67 84 68 85 71 86 69 87
REMARK SMILES IDX 48 88 49 89 57 90 50 91 51 92 55 93 58 94 52 95 53 96 56 97
REMARK SMILES IDX 54 98
REMARK H PARENT 9 12 9 13 78 51 46 62
REMARK Flexibility Score: inf
ROOT
ATOM      1  C   UNL A   1      33.397  35.208  28.512  1.00  0.00     0.202 C 
ENDROOT
BRANCH   1   2
ATOM      2  O   UNL A   1      32.646  34.014  28.342  1.00  0.00    -0.374 OA
BRANCH   2   3
ATOM      3  C   UNL A   1      33.372  32.936  27.782  1.00  0.00     0.202 C 
BRANCH   3   4
ATOM      4  C   UNL A   1      32.405  32.058  27.043  1.00  0.00     0.261 C 
BRANCH   4   5
ATOM      5  O   UNL A   1      32.566  30.623  27.239  1.00  0.00    -0.459 OA
BRANCH   5   6
ATOM      6  C   UNL A   1      33.255  29.688  26.547  1.00  0.00     0.365 C 
ATOM      7  O   UNL A   1      34.308  29.248  27.006  1.00  0.00    -0.245 OA
BRANCH   6   8
ATOM      8  C   UNL A   1      32.725  29.302  25.163  1.00  0.00     0.298 C 
ATOM      9  C   UNL A   1      30.961  27.785  24.174  1.00  0.00     0.243 C 
ATOM     10  N   UNL A   1      31.406  28.626  25.312  1.00  0.00    -0.326 N 
ATOM     11  C   UNL A   1      32.053  27.049  23.323  1.00  0.00     0.196 C 
ATOM     12  H   UNL A   1      31.454  28.030  26.138  1.00  0.00     0.347 HD
ATOM     13  H   UNL A   1      30.722  29.381  25.371  1.00  0.00     0.347 HD
ATOM     14  C   UNL A   1      33.340  27.149  24.067  1.00  0.00    -0.024 C 
ATOM     15  N   UNL A   1      31.792  25.580  23.245  1.00  0.00    -0.270 NA
ATOM     16  C   UNL A   1      33.801  28.506  24.398  1.00  0.00     0.111 C 
ATOM     17  C   UNL A   1      33.763  25.973  24.506  1.00  0.00     0.002 A 
ATOM     18  C   UNL A   1      32.760  25.063  23.939  1.00  0.00     0.066 A 
ATOM     19  C   UNL A   1      34.777  25.538  25.407  1.00  0.00     0.010 A 
ATOM     20  C   UNL A   1      32.944  23.631  24.246  1.00  0.00     0.028 A 
ATOM     21  C   UNL A   1      34.834  24.231  25.708  1.00  0.00     0.001 A 
ATOM     22  C   UNL A   1      33.924  23.274  25.096  1.00  0.00     0.002 A 
BRANCH   9  23
ATOM     23  C   UNL A   1      29.870  28.461  23.348  1.00  0.00     0.015 A 
ATOM     24  C   UNL A   1      27.931  26.832  23.875  1.00  0.00     0.045 C 
ATOM     25  C   UNL A   1      28.506  28.097  23.307  1.00  0.00    -0.042 A 
ATOM     26  C   UNL A   1      27.584  28.990  22.729  1.00  0.00     0.004 A 
ATOM     27  C   UNL A   1      27.999  30.166  22.109  1.00  0.00     0.000 A 
ATOM     28  C   UNL A   1      30.274  29.602  22.617  1.00  0.00     0.010 A 
ATOM     29  C   UNL A   1      29.352  30.450  22.012  1.00  0.00     0.001 A 
ENDBRANCH   9  23
ENDBRANCH   6   8
ENDBRANCH   5   6
ENDBRANCH   4   5
ENDBRANCH   3   4
ENDBRANCH   2   3
ENDBRANCH   1   2
BRANCH   1  30
ATOM     30  C   UNL A   1      33.073  35.933  29.826  1.00  0.00     0.261 C 
BRANCH  30  31
ATOM     31  O   UNL A   1      32.962  34.973  30.897  1.00  0.00    -0.460 OA
BRANCH  31  32
ATOM     32  C   UNL A   1      33.982  34.964  31.790  1.00  0.00     0.338 C 
ATOM     33  O   UNL A   1      34.342  35.933  32.465  1.00  0.00    -0.246 OA
BRANCH  32  34
ATOM     34  C   UNL A   1      34.795  33.732  31.627  1.00  0.00     0.060 A 
ATOM     35  C   UNL A   1      34.825  32.763  32.648  1.00  0.00     0.016 A 
ATOM     36  C   UNL A   1      35.765  33.716  30.625  1.00  0.00     0.016 A 
ATOM     37  C   UNL A   1      35.905  31.878  32.743  1.00  0.00     0.010 A 
ATOM     38  C   UNL A   1      36.888  32.943  30.804  1.00  0.00     0.010 A 
ATOM     39  C   UNL A   1      36.973  32.030  31.864  1.00  0.00    -0.014 A 
BRANCH  39  40
ATOM     40  C   UNL A   1      38.252  31.333  31.943  1.00  0.00     0.031 A 
ATOM     41  C   UNL A   1      38.437  30.113  31.136  1.00  0.00     0.074 A 
ATOM     42  C   UNL A   1      39.328  31.949  32.480  1.00  0.00     0.049 A 
ATOM     43  N   UNL A   1      39.483  29.370  31.220  1.00  0.00    -0.248 NA
ATOM     44  C   UNL A   1      37.442  29.573  30.209  1.00  0.00     0.031 C 
ATOM     45  C   UNL A   1      40.742  31.778  32.139  1.00  0.00     0.029 A 
ATOM     46  N   UNL A   1      39.364  32.949  33.460  1.00  0.00    -0.354 N 
ATOM     47  C   UNL A   1      39.482  28.546  30.126  1.00  0.00     0.074 A 
ATOM     48  C   UNL A   1      38.124  28.565  29.653  1.00  0.00     0.031 C 
ATOM     49  C   UNL A   1      41.505  32.399  33.056  1.00  0.00     0.029 A 
ATOM     50  C   UNL A   1      40.613  32.872  34.098  1.00  0.00     0.049 A 
ATOM     51  H   UNL A   1      38.644  33.588  33.664  1.00  0.00     0.167 HD
ATOM     52  C   UNL A   1      40.683  28.087  29.680  1.00  0.00     0.037 A 
ATOM     53  C   UNL A   1      40.685  32.612  35.431  1.00  0.00     0.037 A 
ATOM     54  C   UNL A   1      41.753  28.428  30.635  1.00  0.00     0.049 A 
ATOM     55  C   UNL A   1      41.364  31.289  35.637  1.00  0.00     0.074 A 
ATOM     56  C   UNL A   1      42.845  29.277  30.595  1.00  0.00     0.029 A 
ATOM     57  N   UNL A   1      41.598  28.064  31.976  1.00  0.00    -0.354 N 
ATOM     58  N   UNL A   1      41.449  30.395  34.688  1.00  0.00    -0.248 NA
ATOM     59  C   UNL A   1      42.077  30.892  36.841  1.00  0.00     0.031 C 
ATOM     60  C   UNL A   1      43.306  29.461  31.935  1.00  0.00     0.029 A 
ATOM     61  C   UNL A   1      42.526  28.690  32.785  1.00  0.00     0.049 A 
ATOM     62  H   UNL A   1      40.911  27.439  32.304  1.00  0.00     0.167 HD
ATOM     63  C   UNL A   1      42.274  29.387  35.072  1.00  0.00     0.074 A 
ATOM     64  C   UNL A   1      42.619  29.726  36.444  1.00  0.00     0.031 C 
ATOM     65  C   UNL A   1      42.603  28.377  34.214  1.00  0.00     0.037 A 
BRANCH  52  66
ATOM     66  C   UNL A   1      40.941  27.476  28.315  1.00  0.00     0.064 A 
ATOM     67  C   UNL A   1      40.566  26.139  28.060  1.00  0.00     0.173 A 
ATOM     68  C   UNL A   1      41.610  28.105  27.240  1.00  0.00     0.173 A 
ATOM     69  F   UNL A   1      39.946  25.403  28.995  1.00  0.00    -0.203 F 
ATOM     70  C   UNL A   1      40.820  25.501  26.839  1.00  0.00     0.198 A 
ATOM     71  C   UNL A   1      41.812  27.486  26.002  1.00  0.00     0.198 A 
ATOM     72  F   UNL A   1      42.155  29.320  27.345  1.00  0.00    -0.203 F 
ATOM     73  F   UNL A   1      40.476  24.216  26.675  1.00  0.00    -0.200 F 
ATOM     74  C   UNL A   1      41.424  26.182  25.802  1.00  0.00     0.200 A 
ATOM     75  F   UNL A   1      42.408  28.167  25.011  1.00  0.00    -0.200 F 
ATOM     76  F   UNL A   1      41.648  25.581  24.627  1.00  0.00    -0.200 F 
ENDBRANCH  52  66
BRANCH  53  77
ATOM     77  C   UNL A   1      39.537  33.225  36.163  1.00  0.00     0.064 A 
ATOM     78  C   UNL A   1      38.569  32.325  36.668  1.00  0.00     0.173 A 
ATOM     79  C   UNL A   1      39.654  34.463  36.810  1.00  0.00     0.173 A 
ATOM     80  F   UNL A   1      38.433  31.108  36.113  1.00  0.00    -0.203 F 
ATOM     81  C   UNL A   1      37.877  32.584  37.851  1.00  0.00     0.198 A 
ATOM     82  C   UNL A   1      38.950  34.720  37.995  1.00  0.00     0.198 A 
ATOM     83  F   UNL A   1      40.560  35.359  36.395  1.00  0.00    -0.203 F 
ATOM     84  F   UNL A   1      37.106  31.632  38.397  1.00  0.00    -0.200 F 
ATOM     85  C   UNL A   1      38.101  33.764  38.536  1.00  0.00     0.200 A 
ATOM     86  F   UNL A   1      39.183  35.849  38.680  1.00  0.00    -0.200 F 
ATOM     87  F   UNL A   1      37.556  33.947  39.748  1.00  0.00    -0.200 F 
ENDBRANCH  53  77
BRANCH  65  88
ATOM     88  C   UNL A   1      43.075  27.000  34.627  1.00  0.00     0.064 A 
ATOM     89  C   UNL A   1      42.219  25.948  34.986  1.00  0.00     0.173 A 
ATOM     90  C   UNL A   1      44.439  26.640  34.476  1.00  0.00     0.173 A 
ATOM     91  F   UNL A   1      40.892  26.101  35.051  1.00  0.00    -0.203 F 
ATOM     92  C   UNL A   1      42.691  24.656  35.227  1.00  0.00     0.198 A 
ATOM     93  C   UNL A   1      44.891  25.334  34.632  1.00  0.00     0.198 A 
ATOM     94  F   UNL A   1      45.379  27.532  34.131  1.00  0.00    -0.203 F 
ATOM     95  F   UNL A   1      41.834  23.704  35.616  1.00  0.00    -0.200 F 
ATOM     96  C   UNL A   1      44.021  24.344  35.026  1.00  0.00     0.200 A 
ATOM     97  F   UNL A   1      46.172  25.039  34.367  1.00  0.00    -0.200 F 
ATOM     98  F   UNL A   1      44.454  23.088  35.189  1.00  0.00    -0.200 F 
ENDBRANCH  65  88
ENDBRANCH  39  40
ENDBRANCH  32  34
ENDBRANCH  31  32
ENDBRANCH  30  31
ENDBRANCH   1  30
TORSDOF 15
ENDMDL
MODEL 2
REMARK VINA RESULT:     -13.0      1.031      3.104
REMARK SMILES Cc1ccccc1[C@@H]1[NH2+][C@@H](C(=O)OCCOCCOC(=O)c2ccc(-c3c4nc(c(-c5c(F)c(F)c(F)c(F)c5F)c5ccc([nH]5)c(-c5c(F)c(F)c(F)c(F)c5F)c5nc(c(-c6c(F)c(F)c(F)c(F)c6F)c6ccc3[nH]6)C=C5)C=C4)cc2)CC2=c3ccccc3=N[C@H]21
REMARK SMILES IDX 17 1 16 2 15 3 14 4 13 5 11 6 12 7 10 8 8 9 9 10 94 11 86 14
REMARK SMILES IDX 93 15 85 16 87 17 92 18 88 19 91 20 89 21 90 22 7 23 1 24
REMARK SMILES IDX 2 25 3 26 4 27 6 28 5 29 18 30 19 31 20 32 21 33 22 34 23 35
REMARK SMILES IDX 84 36 24 37 83 38 25 39 26 40 27 41 77 42 28 43 82 44 76 45
REMARK SMILES IDX 78 46 29 47 81 48 75 49 74 50 30 52 62 53 42 54 61 55 43 56
REMARK SMILES IDX 46 57 60 58 79 59 44 60 45 61 59 63 80 64 47 65 31 66 32 67
REMARK SMILES IDX 40 68 33 69 34 70 38 71 41 72 35 73 36 74 39 75 37 76 63 77
REMARK SMILES IDX 64 78 72 79 65 80 66 81 70 82 73 83 67 84 68 85 71 86 69 87
REMARK SMILES IDX 48 88 49 89 57 90 50 91 51 92 55 93 58 94 52 95 53 96 56 97
REMARK SMILES IDX 54 98
REMARK H PARENT 9 12 9 13 78 51 46 62
REMARK Flexibility Score: inf
ROOT
ATOM      1  C   UNL A   1      33.053  35.551  29.145  1.00  0.00     0.202 C 
ENDROOT
BRANCH   1   2
ATOM      2  O   UNL A   1      32.749  34.267  28.618  1.00  0.00    -0.374 OA
BRANCH   2   3
ATOM      3  C   UNL A   1      33.768  33.704  27.813  1.00  0.00     0.202 C 
BRANCH   3   4
ATOM      4  C   UNL A   1      34.062  32.326  28.331  1.00  0.00     0.261 C 
BRANCH   4   5
ATOM      5  O   UNL A   1      33.869  31.234  27.385  1.00  0.00    -0.459 OA
BRANCH   5   6
ATOM      6  C   UNL A   1      34.591  30.120  27.132  1.00  0.00     0.365 C 
ATOM      7  O   UNL A   1      35.820  30.172  27.170  1.00  0.00    -0.245 OA
BRANCH   6   8
ATOM      8  C   UNL A   1      33.825  28.863  26.709  1.00  0.00     0.298 C 
ATOM      9  C   UNL A   1      33.222  27.652  24.574  1.00  0.00     0.243 C 
ATOM     10  N   UNL A   1      34.175  28.525  25.301  1.00  0.00    -0.326 N 
ATOM     11  C   UNL A   1      31.698  27.757  24.929  1.00  0.00     0.196 C 
ATOM     12  H   UNL A   1      34.253  29.399  24.782  1.00  0.00     0.347 HD
ATOM     13  H   UNL A   1      35.039  27.987  25.360  1.00  0.00     0.347 HD
ATOM     14  C   UNL A   1      31.519  28.976  25.766  1.00  0.00    -0.024 C 
ATOM     15  N   UNL A   1      30.868  28.024  23.716  1.00  0.00    -0.270 NA
ATOM     16  C   UNL A   1      32.322  29.049  26.997  1.00  0.00     0.111 C 
ATOM     17  C   UNL A   1      30.815  29.913  25.152  1.00  0.00     0.002 A 
ATOM     18  C   UNL A   1      30.438  29.236  23.904  1.00  0.00     0.066 A 
ATOM     19  C   UNL A   1      30.532  31.288  25.397  1.00  0.00     0.010 A 
ATOM     20  C   UNL A   1      29.622  30.027  22.963  1.00  0.00     0.028 A 
ATOM     21  C   UNL A   1      29.856  31.970  24.459  1.00  0.00     0.001 A 
ATOM     22  C   UNL A   1      29.377  31.318  23.249  1.00  0.00     0.002 A 
BRANCH   9  23
ATOM     23  C   UNL A   1      33.738  26.222  24.435  1.00  0.00     0.015 A 
ATOM     24  C   UNL A   1      33.242  25.881  21.919  1.00  0.00     0.045 C 
ATOM     25  C   UNL A   1      33.844  25.484  23.236  1.00  0.00    -0.042 A 
ATOM     26  C   UNL A   1      34.603  24.298  23.235  1.00  0.00     0.004 A 
ATOM     27  C   UNL A   1      35.159  23.788  24.406  1.00  0.00     0.000 A 
ATOM     28  C   UNL A   1      34.216  25.626  25.625  1.00  0.00     0.010 A 
ATOM     29  C   UNL A   1      34.924  24.429  25.613  1.00  0.00     0.001 A 
ENDBRANCH   9  23
ENDBRANCH   6   8
ENDBRANCH   5   6
ENDBRANCH   4   5
ENDBRANCH   3   4
ENDBRANCH   2   3
ENDBRANCH   1   2
BRANCH   1  30
ATOM     30  C   UNL A   1      32.714  35.678  30.636  1.00  0.00     0.261 C 
BRANCH  30  31
ATOM     31  O   UNL A   1      33.875  36.131  31.363  1.00  0.00    -0.460 OA
BRANCH  31  32
ATOM     32  C   UNL A   1      34.129  35.489  32.529  1.00  0.00     0.338 C 
ATOM     33  O   UNL A   1      33.980  35.975  33.654  1.00  0.00    -0.246 OA
BRANCH  32  34
ATOM     34  C   UNL A   1      34.891  34.241  32.271  1.00  0.00     0.060 A 
ATOM     35  C   UNL A   1      34.900  33.206  33.226  1.00  0.00     0.016 A 
ATOM     36  C   UNL A   1      35.842  34.254  31.251  1.00  0.00     0.016 A 
ATOM     37  C   UNL A   1      35.946  32.277  33.242  1.00  0.00     0.010 A 
ATOM     38  C   UNL A   1      36.938  33.429  31.358  1.00  0.00     0.010 A 
ATOM     39  C   UNL A   1      37.005  32.445  32.355  1.00  0.00    -0.014 A 
BRANCH  39  40
ATOM     40  C   UNL A   1      38.257  31.697  32.363  1.00  0.00     0.031 A 
ATOM     41  C   UNL A   1      38.344  30.466  31.556  1.00  0.00     0.074 A 
ATOM     42  C   UNL A   1      39.387  32.271  32.832  1.00  0.00     0.049 A 
ATOM     43  N   UNL A   1      39.361  29.682  31.584  1.00  0.00    -0.248 NA
ATOM     44  C   UNL A   1      37.274  29.963  30.692  1.00  0.00     0.031 C 
ATOM     45  C   UNL A   1      40.769  32.040  32.410  1.00  0.00     0.029 A 
ATOM     46  N   UNL A   1      39.521  33.273  33.800  1.00  0.00    -0.354 N 
ATOM     47  C   UNL A   1      39.263  28.853  30.497  1.00  0.00     0.074 A 
ATOM     48  C   UNL A   1      37.881  28.925  30.105  1.00  0.00     0.031 C 
ATOM     49  C   UNL A   1      41.610  32.634  33.276  1.00  0.00     0.029 A 
ATOM     50  C   UNL A   1      40.802  33.149  34.365  1.00  0.00     0.049 A 
ATOM     51  H   UNL A   1      38.841  33.943  34.042  1.00  0.00     0.167 HD
ATOM     52  C   UNL A   1      40.416  28.343  29.985  1.00  0.00     0.037 A 
ATOM     53  C   UNL A   1      40.941  32.892  35.693  1.00  0.00     0.037 A 
ATOM     54  C   UNL A   1      41.553  28.644  30.873  1.00  0.00     0.049 A 
ATOM     55  C   UNL A   1      41.577  31.543  35.868  1.00  0.00     0.074 A 
ATOM     56  C   UNL A   1      42.674  29.448  30.763  1.00  0.00     0.029 A 
ATOM     57  N   UNL A   1      41.463  28.294  32.224  1.00  0.00    -0.354 N 
ATOM     58  N   UNL A   1      41.569  30.642  34.923  1.00  0.00    -0.248 NA
ATOM     59  C   UNL A   1      42.343  31.124  37.031  1.00  0.00     0.031 C 
ATOM     60  C   UNL A   1      43.221  29.619  32.072  1.00  0.00     0.029 A 
ATOM     61  C   UNL A   1      42.461  28.885  32.972  1.00  0.00     0.049 A 
ATOM     62  H   UNL A   1      40.772  27.699  32.595  1.00  0.00     0.167 HD
ATOM     63  C   UNL A   1      42.374  29.603  35.265  1.00  0.00     0.074 A 
ATOM     64  C   UNL A   1      42.813  29.934  36.612  1.00  0.00     0.031 C 
ATOM     65  C   UNL A   1      42.610  28.576  34.397  1.00  0.00     0.037 A 
BRANCH  52  66
ATOM     66  C   UNL A   1      40.568  27.715  28.612  1.00  0.00     0.064 A 
ATOM     67  C   UNL A   1      40.053  26.423  28.368  1.00  0.00     0.173 A 
ATOM     68  C   UNL A   1      41.260  28.280  27.517  1.00  0.00     0.173 A 
ATOM     69  F   UNL A   1      39.394  25.748  29.322  1.00  0.00    -0.203 F 
ATOM     70  C   UNL A   1      40.203  25.769  27.139  1.00  0.00     0.198 A 
ATOM     71  C   UNL A   1      41.360  27.649  26.271  1.00  0.00     0.198 A 
ATOM     72  F   UNL A   1      41.927  29.434  27.605  1.00  0.00    -0.203 F 
ATOM     73  F   UNL A   1      39.728  24.524  26.984  1.00  0.00    -0.200 F 
ATOM     74  C   UNL A   1      40.838  26.390  26.083  1.00  0.00     0.200 A 
ATOM     75  F   UNL A   1      41.989  28.271  25.263  1.00  0.00    -0.200 F 
ATOM     76  F   UNL A   1      40.964  25.775  24.900  1.00  0.00    -0.200 F 
ENDBRANCH  52  66
BRANCH  53  77
ATOM     77  C   UNL A   1      39.864  33.555  36.487  1.00  0.00     0.064 A 
ATOM     78  C   UNL A   1      38.894  32.697  37.057  1.00  0.00     0.173 A 
ATOM     79  C   UNL A   1      40.069  34.792  37.114  1.00  0.00     0.173 A 
ATOM     80  F   UNL A   1      38.677  31.483  36.523  1.00  0.00    -0.203 F 
ATOM     81  C   UNL A   1      38.285  32.992  38.277  1.00  0.00     0.198 A 
ATOM     82  C   UNL A   1      39.448  35.085  38.336  1.00  0.00     0.198 A 
ATOM     83  F   UNL A   1      40.982  35.649  36.637  1.00  0.00    -0.203 F 
ATOM     84  F   UNL A   1      37.511  32.075  38.877  1.00  0.00    -0.200 F 
ATOM     85  C   UNL A   1      38.596  34.167  38.937  1.00  0.00     0.200 A 
ATOM     86  F   UNL A   1      39.765  36.209  38.996  1.00  0.00    -0.200 F 
ATOM     87  F   UNL A   1      38.133  34.380  40.178  1.00  0.00    -0.200 F 
ENDBRANCH  53  77
BRANCH  65  88
ATOM     88  C   UNL A   1      43.049  27.183  34.790  1.00  0.00     0.064 A 
ATOM     89  C   UNL A   1      44.360  26.844  35.159  1.00  0.00     0.173 A 
ATOM     90  C   UNL A   1      42.084  26.164  35.000  1.00  0.00     0.173 A 
ATOM     91  F   UNL A   1      45.359  27.735  35.133  1.00  0.00    -0.203 F 
ATOM     92  C   UNL A   1      44.691  25.579  35.647  1.00  0.00     0.198 A 
ATOM     93  C   UNL A   1      42.403  24.935  35.568  1.00  0.00     0.198 A 
ATOM     94  F   UNL A   1      40.788  26.335  34.702  1.00  0.00    -0.203 F 
ATOM     95  F   UNL A   1      45.968  25.297  35.935  1.00  0.00    -0.200 F 
ATOM     96  C   UNL A   1      43.711  24.634  35.874  1.00  0.00     0.200 A 
ATOM     97  F   UNL A   1      41.428  24.057  35.842  1.00  0.00    -0.200 F 
ATOM     98  F   UNL A   1      44.024  23.447  36.409  1.00  0.00    -0.200 F 
ENDBRANCH  65  88
ENDBRANCH  39  40
ENDBRANCH  32  34
ENDBRANCH  31  32
ENDBRANCH  30  31
ENDBRANCH   1  30
TORSDOF 15
ENDMDL
MODEL 3
REMARK VINA RESULT:     -13.0      3.974      9.715
REMARK SMILES Cc1ccccc1[C@@H]1[NH2+][C@@H](C(=O)OCCOCCOC(=O)c2ccc(-c3c4nc(c(-c5c(F)c(F)c(F)c(F)c5F)c5ccc([nH]5)c(-c5c(F)c(F)c(F)c(F)c5F)c5nc(c(-c6c(F)c(F)c(F)c(F)c6F)c6ccc3[nH]6)C=C5)C=C4)cc2)CC2=c3ccccc3=N[C@H]21
REMARK SMILES IDX 17 1 16 2 15 3 14 4 13 5 11 6 12 7 10 8 8 9 9 10 94 11 86 14
REMARK SMILES IDX 93 15 85 16 87 17 92 18 88 19 91 20 89 21 90 22 7 23 1 24
REMARK SMILES IDX 2 25 3 26 4 27 6 28 5 29 18 30 19 31 20 32 21 33 22 34 23 35
REMARK SMILES IDX 84 36 24 37 83 38 25 39 26 40 27 41 77 42 28 43 82 44 76 45
REMARK SMILES IDX 78 46 29 47 81 48 75 49 74 50 30 52 62 53 42 54 61 55 43 56
REMARK SMILES IDX 46 57 60 58 79 59 44 60 45 61 59 63 80 64 47 65 31 66 32 67
REMARK SMILES IDX 40 68 33 69 34 70 38 71 41 72 35 73 36 74 39 75 37 76 63 77
REMARK SMILES IDX 64 78 72 79 65 80 66 81 70 82 73 83 67 84 68 85 71 86 69 87
REMARK SMILES IDX 48 88 49 89 57 90 50 91 51 92 55 93 58 94 52 95 53 96 56 97
REMARK SMILES IDX 54 98
REMARK H PARENT 9 12 9 13 78 51 46 62
REMARK Flexibility Score: inf
ROOT
ATOM      1  C   UNL A   1      36.979  21.854  24.561  1.00  0.00     0.202 C 
ENDROOT
BRANCH   1   2
ATOM      2  O   UNL A   1      36.537  22.984  23.820  1.00  0.00    -0.374 OA
BRANCH   2   3
ATOM      3  C   UNL A   1      35.142  23.028  23.589  1.00  0.00     0.202 C 
BRANCH   3   4
ATOM      4  C   UNL A   1      34.539  23.988  24.572  1.00  0.00     0.261 C 
BRANCH   4   5
ATOM      5  O   UNL A   1      34.402  25.366  24.118  1.00  0.00    -0.459 OA
BRANCH   5   6
ATOM      6  C   UNL A   1      33.616  25.933  23.176  1.00  0.00     0.365 C 
ATOM      7  O   UNL A   1      33.980  25.929  22.000  1.00  0.00    -0.245 OA
BRANCH   6   8
ATOM      8  C   UNL A   1      32.348  26.647  23.651  1.00  0.00     0.298 C 
ATOM      9  C   UNL A   1      31.381  28.982  23.641  1.00  0.00     0.243 C 
ATOM     10  N   UNL A   1      32.253  27.977  22.987  1.00  0.00    -0.326 N 
ATOM     11  C   UNL A   1      31.251  28.949  25.203  1.00  0.00     0.196 C 
ATOM     12  H   UNL A   1      33.193  28.367  22.938  1.00  0.00     0.347 HD
ATOM     13  H   UNL A   1      31.820  27.795  22.081  1.00  0.00     0.347 HD
ATOM     14  C   UNL A   1      32.310  28.039  25.719  1.00  0.00    -0.024 C 
ATOM     15  N   UNL A   1      31.582  30.273  25.811  1.00  0.00    -0.270 NA
ATOM     16  C   UNL A   1      32.308  26.665  25.192  1.00  0.00     0.111 C 
ATOM     17  C   UNL A   1      33.232  28.681  26.420  1.00  0.00     0.002 A 
ATOM     18  C   UNL A   1      32.694  30.047  26.442  1.00  0.00     0.066 A 
ATOM     19  C   UNL A   1      34.515  28.349  26.944  1.00  0.00     0.010 A 
ATOM     20  C   UNL A   1      33.504  31.046  27.166  1.00  0.00     0.028 A 
ATOM     21  C   UNL A   1      35.234  29.328  27.516  1.00  0.00     0.001 A 
ATOM     22  C   UNL A   1      34.704  30.677  27.649  1.00  0.00     0.002 A 
BRANCH   9  23
ATOM     23  C   UNL A   1      30.057  29.167  22.903  1.00  0.00     0.015 A 
ATOM     24  C   UNL A   1      28.794  27.129  23.875  1.00  0.00     0.045 C 
ATOM     25  C   UNL A   1      28.882  28.408  23.093  1.00  0.00    -0.042 A 
ATOM     26  C   UNL A   1      27.673  28.884  22.552  1.00  0.00     0.004 A 
ATOM     27  C   UNL A   1      27.632  30.024  21.753  1.00  0.00     0.000 A 
ATOM     28  C   UNL A   1      30.007  30.253  22.000  1.00  0.00     0.010 A 
ATOM     29  C   UNL A   1      28.809  30.684  21.437  1.00  0.00     0.001 A 
ENDBRANCH   9  23
ENDBRANCH   6   8
ENDBRANCH   5   6
ENDBRANCH   4   5
ENDBRANCH   3   4
ENDBRANCH   2   3
ENDBRANCH   1   2
BRANCH   1  30
ATOM     30  C   UNL A   1      37.630  22.236  25.898  1.00  0.00     0.261 C 
BRANCH  30  31
ATOM     31  O   UNL A   1      39.040  22.471  25.702  1.00  0.00    -0.460 OA
BRANCH  31  32
ATOM     32  C   UNL A   1      39.740  22.816  26.811  1.00  0.00     0.338 C 
ATOM     33  O   UNL A   1      40.184  22.022  27.645  1.00  0.00    -0.246 OA
BRANCH  32  34
ATOM     34  C   UNL A   1      39.642  24.279  27.044  1.00  0.00     0.060 A 
ATOM     35  C   UNL A   1      40.201  25.183  26.120  1.00  0.00     0.016 A 
ATOM     36  C   UNL A   1      39.299  24.716  28.323  1.00  0.00     0.016 A 
ATOM     37  C   UNL A   1      40.549  26.476  26.528  1.00  0.00     0.010 A 
ATOM     38  C   UNL A   1      39.771  25.934  28.755  1.00  0.00     0.010 A 
ATOM     39  C   UNL A   1      40.406  26.816  27.869  1.00  0.00    -0.014 A 
BRANCH  39  40
ATOM     40  C   UNL A   1      40.895  28.037  28.500  1.00  0.00     0.031 A 
ATOM     41  C   UNL A   1      39.917  29.077  28.867  1.00  0.00     0.074 A 
ATOM     42  C   UNL A   1      42.143  28.080  29.015  1.00  0.00     0.049 A 
ATOM     43  N   UNL A   1      40.259  30.228  29.325  1.00  0.00    -0.248 NA
ATOM     44  C   UNL A   1      38.469  28.952  28.695  1.00  0.00     0.031 C 
ATOM     45  C   UNL A   1      42.630  28.849  30.162  1.00  0.00     0.029 A 
ATOM     46  N   UNL A   1      43.277  27.359  28.621  1.00  0.00    -0.354 N 
ATOM     47  C   UNL A   1      39.137  30.797  29.867  1.00  0.00     0.074 A 
ATOM     48  C   UNL A   1      38.039  30.076  29.280  1.00  0.00     0.031 C 
ATOM     49  C   UNL A   1      43.973  28.793  30.206  1.00  0.00     0.029 A 
ATOM     50  C   UNL A   1      44.407  28.102  29.006  1.00  0.00     0.049 A 
ATOM     51  H   UNL A   1      43.282  26.491  28.158  1.00  0.00     0.167 HD
ATOM     52  C   UNL A   1      39.309  31.702  30.869  1.00  0.00     0.037 A 
ATOM     53  C   UNL A   1      45.285  28.544  28.067  1.00  0.00     0.037 A 
ATOM     54  C   UNL A   1      40.735  32.040  31.021  1.00  0.00     0.049 A 
ATOM     55  C   UNL A   1      45.264  30.045  28.043  1.00  0.00     0.074 A 
ATOM     56  C   UNL A   1      41.680  31.809  32.006  1.00  0.00     0.029 A 
ATOM     57  N   UNL A   1      41.449  32.467  29.896  1.00  0.00    -0.354 N 
ATOM     58  N   UNL A   1      44.265  30.734  28.525  1.00  0.00    -0.248 NA
ATOM     59  C   UNL A   1      46.358  30.891  27.592  1.00  0.00     0.031 C 
ATOM     60  C   UNL A   1      42.970  32.049  31.440  1.00  0.00     0.029 A 
ATOM     61  C   UNL A   1      42.810  32.468  30.127  1.00  0.00     0.049 A 
ATOM     62  H   UNL A   1      41.032  32.732  29.045  1.00  0.00     0.167 HD
ATOM     63  C   UNL A   1      44.584  32.055  28.558  1.00  0.00     0.074 A 
ATOM     64  C   UNL A   1      45.896  32.108  27.932  1.00  0.00     0.031 C 
ATOM     65  C   UNL A   1      43.739  32.973  29.112  1.00  0.00     0.037 A 
BRANCH  52  66
ATOM     66  C   UNL A   1      38.230  32.170  31.828  1.00  0.00     0.064 A 
ATOM     67  C   UNL A   1      37.202  33.024  31.369  1.00  0.00     0.173 A 
ATOM     68  C   UNL A   1      38.174  31.889  33.211  1.00  0.00     0.173 A 
ATOM     69  F   UNL A   1      37.139  33.403  30.084  1.00  0.00    -0.203 F 
ATOM     70  C   UNL A   1      36.206  33.530  32.213  1.00  0.00     0.198 A 
ATOM     71  C   UNL A   1      37.146  32.349  34.042  1.00  0.00     0.198 A 
ATOM     72  F   UNL A   1      39.134  31.211  33.846  1.00  0.00    -0.203 F 
ATOM     73  F   UNL A   1      35.283  34.371  31.724  1.00  0.00    -0.200 F 
ATOM     74  C   UNL A   1      36.165  33.175  33.546  1.00  0.00     0.200 A 
ATOM     75  F   UNL A   1      37.133  31.995  35.336  1.00  0.00    -0.200 F 
ATOM     76  F   UNL A   1      35.201  33.641  34.350  1.00  0.00    -0.200 F 
ENDBRANCH  52  66
BRANCH  53  77
ATOM     77  C   UNL A   1      45.411  27.568  26.943  1.00  0.00     0.064 A 
ATOM     78  C   UNL A   1      46.257  26.459  27.175  1.00  0.00     0.173 A 
ATOM     79  C   UNL A   1      44.393  27.407  25.993  1.00  0.00     0.173 A 
ATOM     80  F   UNL A   1      47.229  26.539  28.100  1.00  0.00    -0.203 F 
ATOM     81  C   UNL A   1      45.996  25.211  26.610  1.00  0.00     0.198 A 
ATOM     82  C   UNL A   1      44.141  26.151  25.423  1.00  0.00     0.198 A 
ATOM     83  F   UNL A   1      43.546  28.411  25.732  1.00  0.00    -0.203 F 
ATOM     84  F   UNL A   1      46.708  24.140  26.995  1.00  0.00    -0.200 F 
ATOM     85  C   UNL A   1      44.911  25.048  25.767  1.00  0.00     0.200 A 
ATOM     86  F   UNL A   1      43.076  25.979  24.627  1.00  0.00    -0.200 F 
ATOM     87  F   UNL A   1      44.568  23.821  25.348  1.00  0.00    -0.200 F 
ENDBRANCH  53  77
BRANCH  65  88
ATOM     88  C   UNL A   1      43.725  34.450  28.792  1.00  0.00     0.064 A 
ATOM     89  C   UNL A   1      43.342  34.986  27.552  1.00  0.00     0.173 A 
ATOM     90  C   UNL A   1      43.917  35.405  29.824  1.00  0.00     0.173 A 
ATOM     91  F   UNL A   1      43.009  34.209  26.515  1.00  0.00    -0.203 F 
ATOM     92  C   UNL A   1      43.213  36.360  27.344  1.00  0.00     0.198 A 
ATOM     93  C   UNL A   1      43.702  36.766  29.635  1.00  0.00     0.198 A 
ATOM     94  F   UNL A   1      44.280  35.051  31.065  1.00  0.00    -0.203 F 
ATOM     95  F   UNL A   1      42.893  36.815  26.125  1.00  0.00    -0.200 F 
ATOM     96  C   UNL A   1      43.369  37.247  28.390  1.00  0.00     0.200 A 
ATOM     97  F   UNL A   1      43.793  37.603  30.679  1.00  0.00    -0.200 F 
ATOM     98  F   UNL A   1      43.173  38.558  28.201  1.00  0.00    -0.200 F 
ENDBRANCH  65  88
ENDBRANCH  39  40
ENDBRANCH  32  34
ENDBRANCH  31  32
ENDBRANCH  30  31
ENDBRANCH   1  30
TORSDOF 15
ENDMDL
