MODEL 1
REMARK VINA RESULT:     -11.7      0.000      0.000
REMARK SMILES Cc1ccc(-c2c[nH]c(=O)cc2C(=O)OCCOCCOC(=O)c2ccc(-c3c4nc(c(-c5c(F)c(F)c(F)c(F)c5F)c5ccc([nH]5)c(-c5c(F)c(F)c(F)c(F)c5F)c5nc(c(-c6c(F)c(F)c(F)c(F)c6F)c6ccc3[nH]6)C=C5)C=C4)cc2)cc1Cl
REMARK SMILES IDX 19 1 18 2 17 3 16 4 15 5 13 6 14 7 12 8 6 9 7 10 8 11 11 12
REMARK SMILES IDX 9 13 10 15 5 16 1 17 2 18 3 19 88 20 4 21 87 22 89 23 20 24
REMARK SMILES IDX 21 25 22 26 23 27 24 28 25 29 86 30 26 31 85 32 27 33 28 34
REMARK SMILES IDX 29 35 79 36 30 37 84 38 78 39 80 40 31 41 83 42 77 43 76 44
REMARK SMILES IDX 32 46 64 47 44 48 63 49 45 50 48 51 62 52 81 53 46 54 47 55
REMARK SMILES IDX 61 57 82 58 49 59 33 60 34 61 42 62 35 63 36 64 40 65 43 66
REMARK SMILES IDX 37 67 38 68 41 69 39 70 65 71 66 72 74 73 67 74 68 75 72 76
REMARK SMILES IDX 75 77 69 78 70 79 73 80 71 81 50 82 51 83 59 84 52 85 53 86
REMARK SMILES IDX 57 87 60 88 54 89 55 90 58 91 56 92
REMARK H PARENT 8 14 80 45 48 56
REMARK Flexibility Score: inf
ROOT
ATOM      1  C   UNL A   1      31.409  29.110  25.165  1.00  0.00     0.202 C 
ENDROOT
BRANCH   1   2
ATOM      2  O   UNL A   1      31.773  28.890  23.807  1.00  0.00    -0.374 OA
BRANCH   2   3
ATOM      3  C   UNL A   1      33.157  28.969  23.469  1.00  0.00     0.202 C 
BRANCH   3   4
ATOM      4  C   UNL A   1      33.804  27.716  22.875  1.00  0.00     0.261 C 
BRANCH   4   5
ATOM      5  O   UNL A   1      33.973  26.710  23.891  1.00  0.00    -0.460 OA
BRANCH   5   6
ATOM      6  C   UNL A   1      33.401  25.506  23.627  1.00  0.00     0.339 C 
ATOM      7  O   UNL A   1      33.510  24.873  22.590  1.00  0.00    -0.246 OA
BRANCH   6   8
ATOM      8  C   UNL A   1      32.678  25.005  24.827  1.00  0.00     0.074 A 
ATOM      9  C   UNL A   1      33.207  23.889  25.618  1.00  0.00     0.013 A 
ATOM     10  C   UNL A   1      32.436  23.385  26.599  1.00  0.00     0.095 A 
ATOM     11  N   UNL A   1      31.214  23.939  26.886  1.00  0.00    -0.328 N 
ATOM     12  C   UNL A   1      31.506  25.586  25.138  1.00  0.00     0.087 A 
ATOM     13  C   UNL A   1      30.700  25.043  26.255  1.00  0.00     0.248 A 
ATOM     14  H   UNL A   1      30.671  23.517  27.590  1.00  0.00     0.169 HD
ATOM     15  O   UNL A   1      29.635  25.556  26.572  1.00  0.00    -0.270 OA
BRANCH   9  16
ATOM     16  C   UNL A   1      34.572  23.344  25.480  1.00  0.00    -0.015 A 
ATOM     17  C   UNL A   1      38.468  21.469  25.413  1.00  0.00     0.046 C 
ATOM     18  C   UNL A   1      37.131  22.154  25.411  1.00  0.00    -0.032 A 
ATOM     19  C   UNL A   1      36.019  21.488  24.878  1.00  0.00     0.005 A 
ATOM     20  C   UNL A   1      36.954  23.453  25.917  1.00  0.00     0.044 A 
ATOM     21  C   UNL A   1      34.757  22.083  24.900  1.00  0.00     0.009 A 
ATOM     22  C   UNL A   1      35.684  24.039  25.962  1.00  0.00     0.029 A 
ATOM     23  Cl  UNL A   1      38.289  24.376  26.511  1.00  0.00    -0.084 Cl
ENDBRANCH   9  16
ENDBRANCH   6   8
ENDBRANCH   5   6
ENDBRANCH   4   5
ENDBRANCH   3   4
ENDBRANCH   2   3
ENDBRANCH   1   2
BRANCH   1  24
ATOM     24  C   UNL A   1      31.794  30.448  25.810  1.00  0.00     0.261 C 
BRANCH  24  25
ATOM     25  O   UNL A   1      32.657  30.307  26.941  1.00  0.00    -0.460 OA
BRANCH  25  26
ATOM     26  C   UNL A   1      33.290  31.451  27.291  1.00  0.00     0.338 C 
ATOM     27  O   UNL A   1      32.829  32.584  27.323  1.00  0.00    -0.246 OA
BRANCH  26  28
ATOM     28  C   UNL A   1      34.625  31.121  27.810  1.00  0.00     0.060 A 
ATOM     29  C   UNL A   1      34.887  29.783  28.131  1.00  0.00     0.016 A 
ATOM     30  C   UNL A   1      35.586  32.112  28.014  1.00  0.00     0.016 A 
ATOM     31  C   UNL A   1      36.109  29.434  28.697  1.00  0.00     0.010 A 
ATOM     32  C   UNL A   1      36.806  31.761  28.592  1.00  0.00     0.010 A 
ATOM     33  C   UNL A   1      37.057  30.429  28.966  1.00  0.00    -0.014 A 
BRANCH  33  34
ATOM     34  C   UNL A   1      38.244  30.110  29.788  1.00  0.00     0.031 A 
ATOM     35  C   UNL A   1      39.255  29.143  29.242  1.00  0.00     0.074 A 
ATOM     36  C   UNL A   1      38.418  30.677  30.993  1.00  0.00     0.049 A 
ATOM     37  N   UNL A   1      40.323  28.645  29.809  1.00  0.00    -0.248 NA
ATOM     38  C   UNL A   1      39.023  28.667  27.868  1.00  0.00     0.031 C 
ATOM     39  C   UNL A   1      37.528  31.666  31.597  1.00  0.00     0.029 A 
ATOM     40  N   UNL A   1      39.403  30.490  31.929  1.00  0.00    -0.354 N 
ATOM     41  C   UNL A   1      40.883  27.792  28.868  1.00  0.00     0.074 A 
ATOM     42  C   UNL A   1      40.021  27.811  27.706  1.00  0.00     0.031 C 
ATOM     43  C   UNL A   1      38.002  31.991  32.811  1.00  0.00     0.029 A 
ATOM     44  C   UNL A   1      39.202  31.203  33.084  1.00  0.00     0.049 A 
ATOM     45  H   UNL A   1      40.178  29.900  31.787  1.00  0.00     0.167 HD
ATOM     46  C   UNL A   1      42.022  27.066  28.964  1.00  0.00     0.037 A 
ATOM     47  C   UNL A   1      39.897  31.193  34.237  1.00  0.00     0.037 A 
ATOM     48  C   UNL A   1      42.867  27.051  30.128  1.00  0.00     0.049 A 
ATOM     49  C   UNL A   1      41.109  30.304  34.354  1.00  0.00     0.074 A 
ATOM     50  C   UNL A   1      44.046  26.355  30.331  1.00  0.00     0.029 A 
ATOM     51  N   UNL A   1      42.615  27.760  31.294  1.00  0.00    -0.354 N 
ATOM     52  N   UNL A   1      41.646  29.512  33.458  1.00  0.00    -0.248 NA
ATOM     53  C   UNL A   1      41.812  30.309  35.645  1.00  0.00     0.031 C 
ATOM     54  C   UNL A   1      44.476  26.599  31.638  1.00  0.00     0.029 A 
ATOM     55  C   UNL A   1      43.602  27.498  32.230  1.00  0.00     0.049 A 
ATOM     56  H   UNL A   1      41.847  28.361  31.434  1.00  0.00     0.167 HD
ATOM     57  C   UNL A   1      42.768  28.955  34.060  1.00  0.00     0.074 A 
ATOM     58  C   UNL A   1      42.837  29.506  35.398  1.00  0.00     0.031 C 
ATOM     59  C   UNL A   1      43.663  28.073  33.551  1.00  0.00     0.037 A 
BRANCH  46  60
ATOM     60  C   UNL A   1      42.396  26.206  27.791  1.00  0.00     0.064 A 
ATOM     61  C   UNL A   1      43.335  26.624  26.836  1.00  0.00     0.173 A 
ATOM     62  C   UNL A   1      41.818  24.937  27.628  1.00  0.00     0.173 A 
ATOM     63  F   UNL A   1      43.906  27.834  26.935  1.00  0.00    -0.203 F 
ATOM     64  C   UNL A   1      43.657  25.819  25.747  1.00  0.00     0.198 A 
ATOM     65  C   UNL A   1      42.168  24.121  26.556  1.00  0.00     0.198 A 
ATOM     66  F   UNL A   1      40.916  24.486  28.513  1.00  0.00    -0.203 F 
ATOM     67  F   UNL A   1      44.514  26.265  24.817  1.00  0.00    -0.200 F 
ATOM     68  C   UNL A   1      43.079  24.567  25.611  1.00  0.00     0.200 A 
ATOM     69  F   UNL A   1      41.618  22.905  26.435  1.00  0.00    -0.200 F 
ATOM     70  F   UNL A   1      43.394  23.790  24.564  1.00  0.00    -0.200 F 
ENDBRANCH  46  60
BRANCH  47  71
ATOM     71  C   UNL A   1      39.463  32.044  35.376  1.00  0.00     0.064 A 
ATOM     72  C   UNL A   1      38.573  31.556  36.343  1.00  0.00     0.173 A 
ATOM     73  C   UNL A   1      39.916  33.365  35.515  1.00  0.00     0.173 A 
ATOM     74  F   UNL A   1      38.094  30.308  36.240  1.00  0.00    -0.203 F 
ATOM     75  C   UNL A   1      38.138  32.361  37.393  1.00  0.00     0.198 A 
ATOM     76  C   UNL A   1      39.503  34.159  36.584  1.00  0.00     0.198 A 
ATOM     77  F   UNL A   1      40.769  33.882  34.619  1.00  0.00    -0.203 F 
ATOM     78  F   UNL A   1      37.248  31.884  38.275  1.00  0.00    -0.200 F 
ATOM     79  C   UNL A   1      38.608  33.659  37.517  1.00  0.00     0.200 A 
ATOM     80  F   UNL A   1      39.971  35.408  36.707  1.00  0.00    -0.200 F 
ATOM     81  F   UNL A   1      38.191  34.432  38.529  1.00  0.00    -0.200 F 
ENDBRANCH  47  71
BRANCH  59  82
ATOM     82  C   UNL A   1      44.828  27.688  34.417  1.00  0.00     0.064 A 
ATOM     83  C   UNL A   1      45.991  28.468  34.485  1.00  0.00     0.173 A 
ATOM     84  C   UNL A   1      44.751  26.550  35.237  1.00  0.00     0.173 A 
ATOM     85  F   UNL A   1      46.121  29.556  33.713  1.00  0.00    -0.203 F 
ATOM     86  C   UNL A   1      47.043  28.111  35.326  1.00  0.00     0.198 A 
ATOM     87  C   UNL A   1      45.789  26.216  36.101  1.00  0.00     0.198 A 
ATOM     88  F   UNL A   1      43.656  25.774  35.216  1.00  0.00    -0.203 F 
ATOM     89  F   UNL A   1      48.164  28.845  35.343  1.00  0.00    -0.200 F 
ATOM     90  C   UNL A   1      46.937  26.992  36.140  1.00  0.00     0.200 A 
ATOM     91  F   UNL A   1      45.676  25.145  36.899  1.00  0.00    -0.200 F 
ATOM     92  F   UNL A   1      47.944  26.660  36.959  1.00  0.00    -0.200 F 
ENDBRANCH  59  82
ENDBRANCH  33  34
ENDBRANCH  26  28
ENDBRANCH  25  26
ENDBRANCH  24  25
ENDBRANCH   1  24
TORSDOF 15
ENDMDL
MODEL 2
REMARK VINA RESULT:     -11.7      4.549      7.343
REMARK SMILES Cc1ccc(-c2c[nH]c(=O)cc2C(=O)OCCOCCOC(=O)c2ccc(-c3c4nc(c(-c5c(F)c(F)c(F)c(F)c5F)c5ccc([nH]5)c(-c5c(F)c(F)c(F)c(F)c5F)c5nc(c(-c6c(F)c(F)c(F)c(F)c6F)c6ccc3[nH]6)C=C5)C=C4)cc2)cc1Cl
REMARK SMILES IDX 19 1 18 2 17 3 16 4 15 5 13 6 14 7 12 8 6 9 7 10 8 11 11 12
REMARK SMILES IDX 9 13 10 15 5 16 1 17 2 18 3 19 88 20 4 21 87 22 89 23 20 24
REMARK SMILES IDX 21 25 22 26 23 27 24 28 25 29 86 30 26 31 85 32 27 33 28 34
REMARK SMILES IDX 29 35 79 36 30 37 84 38 78 39 80 40 31 41 83 42 77 43 76 44
REMARK SMILES IDX 32 46 64 47 44 48 63 49 45 50 48 51 62 52 81 53 46 54 47 55
REMARK SMILES IDX 61 57 82 58 49 59 33 60 34 61 42 62 35 63 36 64 40 65 43 66
REMARK SMILES IDX 37 67 38 68 41 69 39 70 65 71 66 72 74 73 67 74 68 75 72 76
REMARK SMILES IDX 75 77 69 78 70 79 73 80 71 81 50 82 51 83 59 84 52 85 53 86
REMARK SMILES IDX 57 87 60 88 54 89 55 90 58 91 56 92
REMARK H PARENT 8 14 80 45 48 56
REMARK Flexibility Score: inf
ROOT
ATOM      1  C   UNL A   1      37.850  19.852  25.002  1.00  0.00     0.202 C 
ENDROOT
BRANCH   1   2
ATOM      2  O   UNL A   1      37.773  21.221  24.622  1.00  0.00    -0.374 OA
BRANCH   2   3
ATOM      3  C   UNL A   1      36.480  21.822  24.561  1.00  0.00     0.202 C 
BRANCH   3   4
ATOM      4  C   UNL A   1      36.420  23.325  24.285  1.00  0.00     0.261 C 
BRANCH   4   5
ATOM      5  O   UNL A   1      35.311  23.919  24.984  1.00  0.00    -0.460 OA
BRANCH   5   6
ATOM      6  C   UNL A   1      34.269  24.314  24.206  1.00  0.00     0.339 C 
ATOM      7  O   UNL A   1      34.301  24.483  22.998  1.00  0.00    -0.246 OA
BRANCH   6   8
ATOM      8  C   UNL A   1      33.032  24.431  25.023  1.00  0.00     0.074 A 
ATOM      9  C   UNL A   1      32.016  23.373  25.015  1.00  0.00     0.013 A 
ATOM     10  C   UNL A   1      30.854  23.603  25.654  1.00  0.00     0.095 A 
ATOM     11  N   UNL A   1      30.652  24.774  26.342  1.00  0.00    -0.328 N 
ATOM     12  C   UNL A   1      32.860  25.556  25.740  1.00  0.00     0.087 A 
ATOM     13  C   UNL A   1      31.593  25.763  26.475  1.00  0.00     0.248 A 
ATOM     14  H   UNL A   1      29.775  24.912  26.767  1.00  0.00     0.169 HD
ATOM     15  O   UNL A   1      31.409  26.769  27.147  1.00  0.00    -0.270 OA
BRANCH   9  16
ATOM     16  C   UNL A   1      32.219  22.030  24.438  1.00  0.00    -0.015 A 
ATOM     17  C   UNL A   1      32.365  18.076  22.691  1.00  0.00     0.046 C 
ATOM     18  C   UNL A   1      32.356  19.444  23.313  1.00  0.00    -0.032 A 
ATOM     19  C   UNL A   1      32.153  20.567  22.500  1.00  0.00     0.005 A 
ATOM     20  C   UNL A   1      32.558  19.642  24.689  1.00  0.00     0.044 A 
ATOM     21  C   UNL A   1      32.099  21.846  23.056  1.00  0.00     0.009 A 
ATOM     22  C   UNL A   1      32.478  20.923  25.250  1.00  0.00     0.029 A 
ATOM     23  Cl  UNL A   1      32.903  18.320  25.747  1.00  0.00    -0.084 Cl
ENDBRANCH   9  16
ENDBRANCH   6   8
ENDBRANCH   5   6
ENDBRANCH   4   5
ENDBRANCH   3   4
ENDBRANCH   2   3
ENDBRANCH   1   2
BRANCH   1  24
ATOM     24  C   UNL A   1      39.105  19.377  25.747  1.00  0.00     0.261 C 
BRANCH  24  25
ATOM     25  O   UNL A   1      40.143  20.358  25.798  1.00  0.00    -0.460 OA
BRANCH  25  26
ATOM     26  C   UNL A   1      40.770  20.428  26.995  1.00  0.00     0.338 C 
ATOM     27  O   UNL A   1      41.235  19.508  27.653  1.00  0.00    -0.246 OA
BRANCH  26  28
ATOM     28  C   UNL A   1      40.976  21.840  27.346  1.00  0.00     0.060 A 
ATOM     29  C   UNL A   1      40.310  22.807  26.582  1.00  0.00     0.016 A 
ATOM     30  C   UNL A   1      41.837  22.209  28.381  1.00  0.00     0.016 A 
ATOM     31  C   UNL A   1      40.534  24.157  26.826  1.00  0.00     0.010 A 
ATOM     32  C   UNL A   1      42.068  23.564  28.617  1.00  0.00     0.010 A 
ATOM     33  C   UNL A   1      41.444  24.540  27.819  1.00  0.00    -0.014 A 
BRANCH  33  34
ATOM     34  C   UNL A   1      41.875  25.951  27.918  1.00  0.00     0.031 A 
ATOM     35  C   UNL A   1      43.201  26.338  27.330  1.00  0.00     0.074 A 
ATOM     36  C   UNL A   1      41.094  26.867  28.514  1.00  0.00     0.049 A 
ATOM     37  N   UNL A   1      43.827  27.485  27.370  1.00  0.00    -0.248 NA
ATOM     38  C   UNL A   1      43.924  25.281  26.604  1.00  0.00     0.031 C 
ATOM     39  C   UNL A   1      39.768  26.613  29.071  1.00  0.00     0.029 A 
ATOM     40  N   UNL A   1      41.315  28.199  28.758  1.00  0.00    -0.354 N 
ATOM     41  C   UNL A   1      45.019  27.286  26.686  1.00  0.00     0.074 A 
ATOM     42  C   UNL A   1      45.046  25.901  26.270  1.00  0.00     0.031 C 
ATOM     43  C   UNL A   1      39.296  27.752  29.605  1.00  0.00     0.029 A 
ATOM     44  C   UNL A   1      40.303  28.801  29.463  1.00  0.00     0.049 A 
ATOM     45  H   UNL A   1      42.122  28.677  28.457  1.00  0.00     0.167 HD
ATOM     46  C   UNL A   1      45.995  28.184  26.420  1.00  0.00     0.037 A 
ATOM     47  C   UNL A   1      40.220  30.050  29.958  1.00  0.00     0.037 A 
ATOM     48  C   UNL A   1      45.959  29.558  26.845  1.00  0.00     0.049 A 
ATOM     49  C   UNL A   1      41.364  31.006  29.731  1.00  0.00     0.074 A 
ATOM     50  C   UNL A   1      46.893  30.555  26.627  1.00  0.00     0.029 A 
ATOM     51  N   UNL A   1      44.933  30.126  27.588  1.00  0.00    -0.354 N 
ATOM     52  N   UNL A   1      42.481  30.820  29.070  1.00  0.00    -0.248 NA
ATOM     53  C   UNL A   1      41.235  32.346  30.320  1.00  0.00     0.031 C 
ATOM     54  C   UNL A   1      46.459  31.710  27.285  1.00  0.00     0.029 A 
ATOM     55  C   UNL A   1      45.223  31.453  27.858  1.00  0.00     0.049 A 
ATOM     56  H   UNL A   1      44.118  29.654  27.878  1.00  0.00     0.167 HD
ATOM     57  C   UNL A   1      43.168  32.026  29.129  1.00  0.00     0.074 A 
ATOM     58  C   UNL A   1      42.338  32.939  29.887  1.00  0.00     0.031 C 
ATOM     59  C   UNL A   1      44.374  32.351  28.600  1.00  0.00     0.037 A 
BRANCH  46  60
ATOM     60  C   UNL A   1      47.198  27.696  25.664  1.00  0.00     0.064 A 
ATOM     61  C   UNL A   1      47.264  27.751  24.263  1.00  0.00     0.173 A 
ATOM     62  C   UNL A   1      48.308  27.181  26.351  1.00  0.00     0.173 A 
ATOM     63  F   UNL A   1      46.225  28.219  23.556  1.00  0.00    -0.203 F 
ATOM     64  C   UNL A   1      48.381  27.279  23.579  1.00  0.00     0.198 A 
ATOM     65  C   UNL A   1      49.437  26.741  25.666  1.00  0.00     0.198 A 
ATOM     66  F   UNL A   1      48.300  27.107  27.691  1.00  0.00    -0.203 F 
ATOM     67  F   UNL A   1      48.397  27.288  22.239  1.00  0.00    -0.200 F 
ATOM     68  C   UNL A   1      49.469  26.780  24.280  1.00  0.00     0.200 A 
ATOM     69  F   UNL A   1      50.491  26.273  26.347  1.00  0.00    -0.200 F 
ATOM     70  F   UNL A   1      50.546  26.331  23.621  1.00  0.00    -0.200 F 
ENDBRANCH  46  60
BRANCH  47  71
ATOM     71  C   UNL A   1      39.018  30.470  30.724  1.00  0.00     0.064 A 
ATOM     72  C   UNL A   1      38.961  30.320  32.117  1.00  0.00     0.173 A 
ATOM     73  C   UNL A   1      37.896  31.015  30.082  1.00  0.00     0.173 A 
ATOM     74  F   UNL A   1      40.000  29.783  32.774  1.00  0.00    -0.203 F 
ATOM     75  C   UNL A   1      37.824  30.681  32.835  1.00  0.00     0.198 A 
ATOM     76  C   UNL A   1      36.769  31.403  30.805  1.00  0.00     0.198 A 
ATOM     77  F   UNL A   1      37.896  31.180  28.751  1.00  0.00    -0.203 F 
ATOM     78  F   UNL A   1      37.779  30.481  34.160  1.00  0.00    -0.200 F 
ATOM     79  C   UNL A   1      36.731  31.228  32.180  1.00  0.00     0.200 A 
ATOM     80  F   UNL A   1      35.722  31.944  30.170  1.00  0.00    -0.200 F 
ATOM     81  F   UNL A   1      35.638  31.577  32.872  1.00  0.00    -0.200 F 
ENDBRANCH  47  71
BRANCH  59  82
ATOM     82  C   UNL A   1      44.847  33.767  28.769  1.00  0.00     0.064 A 
ATOM     83  C   UNL A   1      45.674  34.149  29.835  1.00  0.00     0.173 A 
ATOM     84  C   UNL A   1      44.515  34.740  27.813  1.00  0.00     0.173 A 
ATOM     85  F   UNL A   1      46.010  33.261  30.782  1.00  0.00    -0.203 F 
ATOM     86  C   UNL A   1      46.133  35.460  29.948  1.00  0.00     0.198 A 
ATOM     87  C   UNL A   1      45.003  36.039  27.911  1.00  0.00     0.198 A 
ATOM     88  F   UNL A   1      43.733  34.424  26.769  1.00  0.00    -0.203 F 
ATOM     89  F   UNL A   1      46.886  35.815  30.999  1.00  0.00    -0.200 F 
ATOM     90  C   UNL A   1      45.806  36.400  28.982  1.00  0.00     0.200 A 
ATOM     91  F   UNL A   1      44.700  36.940  26.967  1.00  0.00    -0.200 F 
ATOM     92  F   UNL A   1      46.261  37.656  29.086  1.00  0.00    -0.200 F 
ENDBRANCH  59  82
ENDBRANCH  33  34
ENDBRANCH  26  28
ENDBRANCH  25  26
ENDBRANCH  24  25
ENDBRANCH   1  24
TORSDOF 15
ENDMDL
MODEL 3
REMARK VINA RESULT:     -11.7      4.565      7.388
REMARK SMILES Cc1ccc(-c2c[nH]c(=O)cc2C(=O)OCCOCCOC(=O)c2ccc(-c3c4nc(c(-c5c(F)c(F)c(F)c(F)c5F)c5ccc([nH]5)c(-c5c(F)c(F)c(F)c(F)c5F)c5nc(c(-c6c(F)c(F)c(F)c(F)c6F)c6ccc3[nH]6)C=C5)C=C4)cc2)cc1Cl
REMARK SMILES IDX 19 1 18 2 17 3 16 4 15 5 13 6 14 7 12 8 6 9 7 10 8 11 11 12
REMARK SMILES IDX 9 13 10 15 5 16 1 17 2 18 3 19 88 20 4 21 87 22 89 23 20 24
REMARK SMILES IDX 21 25 22 26 23 27 24 28 25 29 86 30 26 31 85 32 27 33 28 34
REMARK SMILES IDX 29 35 79 36 30 37 84 38 78 39 80 40 31 41 83 42 77 43 76 44
REMARK SMILES IDX 32 46 64 47 44 48 63 49 45 50 48 51 62 52 81 53 46 54 47 55
REMARK SMILES IDX 61 57 82 58 49 59 33 60 34 61 42 62 35 63 36 64 40 65 43 66
REMARK SMILES IDX 37 67 38 68 41 69 39 70 65 71 66 72 74 73 67 74 68 75 72 76
REMARK SMILES IDX 75 77 69 78 70 79 73 80 71 81 50 82 51 83 59 84 52 85 53 86
REMARK SMILES IDX 57 87 60 88 54 89 55 90 58 91 56 92
REMARK H PARENT 8 14 80 45 48 56
REMARK Flexibility Score: inf
ROOT
ATOM      1  C   UNL A   1      37.982  19.729  25.007  1.00  0.00     0.202 C 
ENDROOT
BRANCH   1   2
ATOM      2  O   UNL A   1      37.707  21.107  24.781  1.00  0.00    -0.374 OA
BRANCH   2   3
ATOM      3  C   UNL A   1      36.818  21.764  25.683  1.00  0.00     0.202 C 
BRANCH   3   4
ATOM      4  C   UNL A   1      36.487  23.230  25.394  1.00  0.00     0.261 C 
BRANCH   4   5
ATOM      5  O   UNL A   1      35.112  23.506  25.715  1.00  0.00    -0.460 OA
BRANCH   5   6
ATOM      6  C   UNL A   1      34.383  24.088  24.727  1.00  0.00     0.339 C 
ATOM      7  O   UNL A   1      34.775  24.337  23.599  1.00  0.00    -0.246 OA
BRANCH   6   8
ATOM      8  C   UNL A   1      32.983  24.306  25.181  1.00  0.00     0.074 A 
ATOM      9  C   UNL A   1      31.922  23.348  24.852  1.00  0.00     0.013 A 
ATOM     10  C   UNL A   1      30.654  23.676  25.159  1.00  0.00     0.095 A 
ATOM     11  N   UNL A   1      30.370  24.848  25.814  1.00  0.00    -0.328 N 
ATOM     12  C   UNL A   1      32.718  25.430  25.870  1.00  0.00     0.087 A 
ATOM     13  C   UNL A   1      31.320  25.742  26.240  1.00  0.00     0.248 A 
ATOM     14  H   UNL A   1      29.426  25.060  25.990  1.00  0.00     0.169 HD
ATOM     15  O   UNL A   1      31.045  26.750  26.878  1.00  0.00    -0.270 OA
BRANCH   9  16
ATOM     16  C   UNL A   1      32.160  22.002  24.296  1.00  0.00    -0.015 A 
ATOM     17  C   UNL A   1      32.411  18.029  22.604  1.00  0.00     0.046 C 
ATOM     18  C   UNL A   1      32.366  19.404  23.209  1.00  0.00    -0.032 A 
ATOM     19  C   UNL A   1      32.153  20.513  22.377  1.00  0.00     0.005 A 
ATOM     20  C   UNL A   1      32.542  19.625  24.585  1.00  0.00     0.044 A 
ATOM     21  C   UNL A   1      32.065  21.798  22.915  1.00  0.00     0.009 A 
ATOM     22  C   UNL A   1      32.429  20.911  25.126  1.00  0.00     0.029 A 
ATOM     23  Cl  UNL A   1      32.897  18.324  25.665  1.00  0.00    -0.084 Cl
ENDBRANCH   9  16
ENDBRANCH   6   8
ENDBRANCH   5   6
ENDBRANCH   4   5
ENDBRANCH   3   4
ENDBRANCH   2   3
ENDBRANCH   1   2
BRANCH   1  24
ATOM     24  C   UNL A   1      39.278  19.360  25.740  1.00  0.00     0.261 C 
BRANCH  24  25
ATOM     25  O   UNL A   1      40.179  20.460  25.893  1.00  0.00    -0.460 OA
BRANCH  25  26
ATOM     26  C   UNL A   1      40.761  20.524  27.114  1.00  0.00     0.338 C 
ATOM     27  O   UNL A   1      41.187  19.598  27.790  1.00  0.00    -0.246 OA
BRANCH  26  28
ATOM     28  C   UNL A   1      40.972  21.933  27.471  1.00  0.00     0.060 A 
ATOM     29  C   UNL A   1      40.207  22.898  26.802  1.00  0.00     0.016 A 
ATOM     30  C   UNL A   1      41.930  22.302  28.416  1.00  0.00     0.016 A 
ATOM     31  C   UNL A   1      40.426  24.248  27.050  1.00  0.00     0.010 A 
ATOM     32  C   UNL A   1      42.156  23.658  28.654  1.00  0.00     0.010 A 
ATOM     33  C   UNL A   1      41.429  24.634  27.948  1.00  0.00    -0.014 A 
BRANCH  33  34
ATOM     34  C   UNL A   1      41.836  26.053  28.031  1.00  0.00     0.031 A 
ATOM     35  C   UNL A   1      43.159  26.453  27.443  1.00  0.00     0.074 A 
ATOM     36  C   UNL A   1      41.039  26.964  28.613  1.00  0.00     0.049 A 
ATOM     37  N   UNL A   1      43.766  27.611  27.470  1.00  0.00    -0.248 NA
ATOM     38  C   UNL A   1      43.901  25.399  26.732  1.00  0.00     0.031 C 
ATOM     39  C   UNL A   1      39.716  26.695  29.169  1.00  0.00     0.029 A 
ATOM     40  N   UNL A   1      41.238  28.302  28.841  1.00  0.00    -0.354 N 
ATOM     41  C   UNL A   1      44.963  27.422  26.792  1.00  0.00     0.074 A 
ATOM     42  C   UNL A   1      45.013  26.032  26.393  1.00  0.00     0.031 C 
ATOM     43  C   UNL A   1      39.224  27.833  29.687  1.00  0.00     0.029 A 
ATOM     44  C   UNL A   1      40.215  28.897  29.535  1.00  0.00     0.049 A 
ATOM     45  H   UNL A   1      42.038  28.789  28.536  1.00  0.00     0.167 HD
ATOM     46  C   UNL A   1      45.926  28.333  26.518  1.00  0.00     0.037 A 
ATOM     47  C   UNL A   1      40.110  30.150  30.014  1.00  0.00     0.037 A 
ATOM     48  C   UNL A   1      45.867  29.711  26.925  1.00  0.00     0.049 A 
ATOM     49  C   UNL A   1      41.240  31.121  29.778  1.00  0.00     0.074 A 
ATOM     50  C   UNL A   1      46.785  30.720  26.697  1.00  0.00     0.029 A 
ATOM     51  N   UNL A   1      44.829  30.272  27.658  1.00  0.00    -0.354 N 
ATOM     52  N   UNL A   1      42.362  30.945  29.123  1.00  0.00    -0.248 NA
ATOM     53  C   UNL A   1      41.087  32.466  30.351  1.00  0.00     0.031 C 
ATOM     54  C   UNL A   1      46.331  31.876  27.340  1.00  0.00     0.029 A 
ATOM     55  C   UNL A   1      45.097  31.607  27.912  1.00  0.00     0.049 A 
ATOM     56  H   UNL A   1      44.021  29.791  27.951  1.00  0.00     0.167 HD
ATOM     57  C   UNL A   1      43.029  32.162  29.169  1.00  0.00     0.074 A 
ATOM     58  C   UNL A   1      42.182  33.072  29.914  1.00  0.00     0.031 C 
ATOM     59  C   UNL A   1      44.231  32.500  28.640  1.00  0.00     0.037 A 
BRANCH  46  60
ATOM     60  C   UNL A   1      47.139  27.854  25.772  1.00  0.00     0.064 A 
ATOM     61  C   UNL A   1      47.182  27.825  24.369  1.00  0.00     0.173 A 
ATOM     62  C   UNL A   1      48.281  27.434  26.470  1.00  0.00     0.173 A 
ATOM     63  F   UNL A   1      46.111  28.202  23.654  1.00  0.00    -0.203 F 
ATOM     64  C   UNL A   1      48.309  27.364  23.696  1.00  0.00     0.198 A 
ATOM     65  C   UNL A   1      49.420  27.004  25.793  1.00  0.00     0.198 A 
ATOM     66  F   UNL A   1      48.297  27.443  27.811  1.00  0.00    -0.203 F 
ATOM     67  F   UNL A   1      48.305  27.291  22.357  1.00  0.00    -0.200 F 
ATOM     68  C   UNL A   1      49.429  26.960  24.407  1.00  0.00     0.200 A 
ATOM     69  F   UNL A   1      50.505  26.628  26.481  1.00  0.00    -0.200 F 
ATOM     70  F   UNL A   1      50.516  26.520  23.757  1.00  0.00    -0.200 F 
ENDBRANCH  46  60
BRANCH  47  71
ATOM     71  C   UNL A   1      38.899  30.560  30.771  1.00  0.00     0.064 A 
ATOM     72  C   UNL A   1      37.763  31.044  30.108  1.00  0.00     0.173 A 
ATOM     73  C   UNL A   1      38.854  30.490  32.172  1.00  0.00     0.173 A 
ATOM     74  F   UNL A   1      37.765  31.151  28.771  1.00  0.00    -0.203 F 
ATOM     75  C   UNL A   1      36.638  31.461  30.815  1.00  0.00     0.198 A 
ATOM     76  C   UNL A   1      37.716  30.879  32.877  1.00  0.00     0.198 A 
ATOM     77  F   UNL A   1      39.913  30.034  32.857  1.00  0.00    -0.203 F 
ATOM     78  F   UNL A   1      35.584  31.966  30.157  1.00  0.00    -0.200 F 
ATOM     79  C   UNL A   1      36.612  31.372  32.198  1.00  0.00     0.200 A 
ATOM     80  F   UNL A   1      37.691  30.778  34.212  1.00  0.00    -0.200 F 
ATOM     81  F   UNL A   1      35.529  31.770  32.878  1.00  0.00    -0.200 F 
ENDBRANCH  47  71
BRANCH  59  82
ATOM     82  C   UNL A   1      44.682  33.925  28.793  1.00  0.00     0.064 A 
ATOM     83  C   UNL A   1      45.488  34.337  29.864  1.00  0.00     0.173 A 
ATOM     84  C   UNL A   1      44.349  34.878  27.817  1.00  0.00     0.173 A 
ATOM     85  F   UNL A   1      45.823  33.469  30.830  1.00  0.00    -0.203 F 
ATOM     86  C   UNL A   1      45.926  35.655  29.963  1.00  0.00     0.198 A 
ATOM     87  C   UNL A   1      44.816  36.185  27.901  1.00  0.00     0.198 A 
ATOM     88  F   UNL A   1      43.587  34.533  26.767  1.00  0.00    -0.203 F 
ATOM     89  F   UNL A   1      46.658  36.039  31.017  1.00  0.00    -0.200 F 
ATOM     90  C   UNL A   1      45.599  36.576  28.977  1.00  0.00     0.200 A 
ATOM     91  F   UNL A   1      44.514  37.067  26.938  1.00  0.00    -0.200 F 
ATOM     92  F   UNL A   1      46.034  37.839  29.067  1.00  0.00    -0.200 F 
ENDBRANCH  59  82
ENDBRANCH  33  34
ENDBRANCH  26  28
ENDBRANCH  25  26
ENDBRANCH  24  25
ENDBRANCH   1  24
TORSDOF 15
ENDMDL
