MODEL 1
REMARK VINA RESULT:     -17.0      0.000      0.000
REMARK SMILES CCc1cccc(C)c1Nc1ccccc1CC(=O)OCCOCCOC(=O)c1ccc(-c2c3nc(c(-c4c(F)c(F)c(F)c(F)c4F)c4ccc([nH]4)c(-c4c(F)c(F)c(F)c(F)c4F)c4nc(c(-c5c(F)c(F)c(F)c(F)c5F)c5ccc2[nH]5)C=C4)C=C3)cc1
REMARK SMILES IDX 22 1 21 2 20 3 18 4 19 5 17 6 16 7 11 8 12 9 13 10 15 11
REMARK SMILES IDX 14 12 10 13 9 15 3 16 4 17 5 18 7 19 6 20 8 21 2 22 1 23
REMARK SMILES IDX 23 24 24 25 25 26 26 27 27 28 28 29 29 30 30 31 91 32 31 33
REMARK SMILES IDX 90 34 32 35 33 36 34 37 84 38 35 39 89 40 83 41 85 42 36 43
REMARK SMILES IDX 88 44 82 45 81 46 37 48 69 49 49 50 68 51 50 52 53 53 67 54
REMARK SMILES IDX 86 55 51 56 52 57 66 59 87 60 54 61 38 62 39 63 47 64 40 65
REMARK SMILES IDX 41 66 45 67 48 68 42 69 43 70 46 71 44 72 70 73 71 74 79 75
REMARK SMILES IDX 72 76 73 77 77 78 80 79 74 80 75 81 78 82 76 83 55 84 56 85
REMARK SMILES IDX 64 86 57 87 58 88 62 89 65 90 59 91 60 92 63 93 61 94
REMARK H PARENT 10 14 85 47 53 58
REMARK Flexibility Score: inf
ROOT
ATOM      1  C   UNL A   1      31.549  31.910  26.533  1.00  0.00     0.202 C 
ENDROOT
BRANCH   1   2
ATOM      2  C   UNL A   1      32.006  30.091  25.947  1.00  0.00     0.261 C 
BRANCH   2   3
ATOM      3  O   UNL A   1      31.534  29.453  24.280  1.00  0.00    -0.463 OA
BRANCH   3   4
ATOM      4  C   UNL A   1      30.561  28.684  23.560  1.00  0.00     0.310 C 
ATOM      5  O   UNL A   1      29.935  29.318  22.691  1.00  0.00    -0.252 OA
BRANCH   4   6
ATOM      6  C   UNL A   1      30.055  27.061  23.713  1.00  0.00     0.160 C 
BRANCH   6   7
ATOM      7  C   UNL A   1      30.532  25.604  24.610  1.00  0.00    -0.013 A 
ATOM      8  C   UNL A   1      30.654  23.927  24.376  1.00  0.00     0.042 A 
ATOM      9  C   UNL A   1      30.996  23.160  25.495  1.00  0.00     0.026 A 
ATOM     10  C   UNL A   1      31.260  23.836  26.715  1.00  0.00     0.002 A 
ATOM     11  C   UNL A   1      30.791  26.102  25.902  1.00  0.00     0.006 A 
ATOM     12  C   UNL A   1      31.180  25.238  26.909  1.00  0.00     0.000 A 
BRANCH   8  13
ATOM     13  N   UNL A   1      31.191  23.065  22.865  1.00  0.00    -0.355 N 
ATOM     14  H   UNL A   1      30.507  22.949  22.166  1.00  0.00     0.167 HD
BRANCH  13  15
ATOM     15  C   UNL A   1      32.900  22.365  22.479  1.00  0.00     0.045 A 
ATOM     16  C   UNL A   1      34.082  23.690  22.732  1.00  0.00    -0.024 A 
ATOM     17  C   UNL A   1      35.377  23.494  23.901  1.00  0.00     0.006 A 
ATOM     18  C   UNL A   1      35.436  22.279  25.095  1.00  0.00     0.001 A 
ATOM     19  C   UNL A   1      33.132  20.733  23.509  1.00  0.00    -0.027 A 
ATOM     20  C   UNL A   1      34.292  20.968  25.061  1.00  0.00     0.005 A 
ATOM     21  C   UNL A   1      32.162  19.178  23.239  1.00  0.00     0.046 C 
BRANCH  16  22
ATOM     22  C   UNL A   1      33.687  25.171  22.991  1.00  0.00     0.034 C 
ATOM     23  C   UNL A   1      33.222  25.960  21.762  1.00  0.00     0.009 C 
ENDBRANCH  16  22
ENDBRANCH  13  15
ENDBRANCH   8  13
ENDBRANCH   6   7
ENDBRANCH   4   6
ENDBRANCH   3   4
ENDBRANCH   2   3
ENDBRANCH   1   2
BRANCH   1  24
ATOM     24  O   UNL A   1      33.074  32.633  27.605  1.00  0.00    -0.374 OA
BRANCH  24  25
ATOM     25  C   UNL A   1      32.926  34.260  28.268  1.00  0.00     0.202 C 
BRANCH  25  26
ATOM     26  C   UNL A   1      34.184  34.494  29.944  1.00  0.00     0.261 C 
BRANCH  26  27
ATOM     27  O   UNL A   1      35.600  33.346  30.326  1.00  0.00    -0.460 OA
BRANCH  27  28
ATOM     28  C   UNL A   1      36.778  32.536  30.360  1.00  0.00     0.338 C 
ATOM     29  O   UNL A   1      37.824  33.084  30.725  1.00  0.00    -0.246 OA
BRANCH  28  30
ATOM     30  C   UNL A   1      37.051  31.006  29.912  1.00  0.00     0.060 A 
ATOM     31  C   UNL A   1      36.981  29.924  30.796  1.00  0.00     0.016 A 
ATOM     32  C   UNL A   1      37.323  30.521  28.622  1.00  0.00     0.016 A 
ATOM     33  C   UNL A   1      37.796  28.747  30.622  1.00  0.00     0.010 A 
ATOM     34  C   UNL A   1      38.126  29.333  28.431  1.00  0.00     0.010 A 
ATOM     35  C   UNL A   1      38.649  28.633  29.530  1.00  0.00    -0.014 A 
BRANCH  35  36
ATOM     36  C   UNL A   1      40.185  28.323  29.686  1.00  0.00     0.031 A 
ATOM     37  C   UNL A   1      40.876  27.258  28.868  1.00  0.00     0.074 A 
ATOM     38  C   UNL A   1      41.051  29.296  30.150  1.00  0.00     0.049 A 
ATOM     39  N   UNL A   1      41.767  26.430  29.310  1.00  0.00    -0.248 NA
ATOM     40  C   UNL A   1      40.629  27.054  27.435  1.00  0.00     0.031 C 
ATOM     41  C   UNL A   1      42.518  29.508  29.987  1.00  0.00     0.029 A 
ATOM     42  N   UNL A   1      40.684  30.530  30.714  1.00  0.00    -0.354 N 
ATOM     43  C   UNL A   1      42.354  25.821  28.199  1.00  0.00     0.074 A 
ATOM     44  C   UNL A   1      41.426  26.028  27.128  1.00  0.00     0.031 C 
ATOM     45  C   UNL A   1      42.924  30.593  30.698  1.00  0.00     0.029 A 
ATOM     46  C   UNL A   1      41.763  31.140  31.383  1.00  0.00     0.049 A 
ATOM     47  H   UNL A   1      39.783  30.920  30.650  1.00  0.00     0.167 HD
ATOM     48  C   UNL A   1      43.689  25.503  28.171  1.00  0.00     0.037 A 
ATOM     49  C   UNL A   1      41.595  31.354  32.715  1.00  0.00     0.037 A 
ATOM     50  C   UNL A   1      44.364  26.209  29.279  1.00  0.00     0.049 A 
ATOM     51  C   UNL A   1      42.178  30.113  33.360  1.00  0.00     0.074 A 
ATOM     52  C   UNL A   1      45.258  27.267  29.328  1.00  0.00     0.029 A 
ATOM     53  N   UNL A   1      43.869  26.077  30.572  1.00  0.00    -0.354 N 
ATOM     54  N   UNL A   1      42.508  29.060  32.657  1.00  0.00    -0.248 NA
ATOM     55  C   UNL A   1      42.617  29.991  34.741  1.00  0.00     0.031 C 
ATOM     56  C   UNL A   1      45.204  27.821  30.652  1.00  0.00     0.029 A 
ATOM     57  C   UNL A   1      44.289  27.097  31.411  1.00  0.00     0.049 A 
ATOM     58  H   UNL A   1      43.284  25.340  30.861  1.00  0.00     0.167 HD
ATOM     59  C   UNL A   1      43.298  28.229  33.360  1.00  0.00     0.074 A 
ATOM     60  C   UNL A   1      43.288  28.822  34.691  1.00  0.00     0.031 C 
ATOM     61  C   UNL A   1      43.855  27.107  32.816  1.00  0.00     0.037 A 
BRANCH  48  62
ATOM     62  C   UNL A   1      44.466  24.783  27.046  1.00  0.00     0.064 A 
ATOM     63  C   UNL A   1      45.267  25.530  26.145  1.00  0.00     0.173 A 
ATOM     64  C   UNL A   1      44.572  23.384  26.849  1.00  0.00     0.173 A 
ATOM     65  F   UNL A   1      45.353  26.864  26.240  1.00  0.00    -0.203 F 
ATOM     66  C   UNL A   1      46.055  24.942  25.139  1.00  0.00     0.198 A 
ATOM     67  C   UNL A   1      45.342  22.797  25.829  1.00  0.00     0.198 A 
ATOM     68  F   UNL A   1      43.994  22.500  27.663  1.00  0.00    -0.203 F 
ATOM     69  F   UNL A   1      46.804  25.715  24.340  1.00  0.00    -0.200 F 
ATOM     70  C   UNL A   1      46.088  23.574  24.977  1.00  0.00     0.200 A 
ATOM     71  F   UNL A   1      45.372  21.460  25.708  1.00  0.00    -0.200 F 
ATOM     72  F   UNL A   1      46.855  23.009  24.033  1.00  0.00    -0.200 F 
ENDBRANCH  48  62
BRANCH  49  73
ATOM     73  C   UNL A   1      40.299  32.107  32.899  1.00  0.00     0.064 A 
ATOM     74  C   UNL A   1      39.231  31.374  33.491  1.00  0.00     0.173 A 
ATOM     75  C   UNL A   1      40.222  33.500  33.020  1.00  0.00     0.173 A 
ATOM     76  F   UNL A   1      39.213  30.034  33.396  1.00  0.00    -0.203 F 
ATOM     77  C   UNL A   1      38.277  31.973  34.320  1.00  0.00     0.198 A 
ATOM     78  C   UNL A   1      39.216  34.104  33.797  1.00  0.00     0.198 A 
ATOM     79  F   UNL A   1      41.208  34.274  32.549  1.00  0.00    -0.203 F 
ATOM     80  F   UNL A   1      37.415  31.215  35.014  1.00  0.00    -0.200 F 
ATOM     81  C   UNL A   1      38.298  33.338  34.507  1.00  0.00     0.200 A 
ATOM     82  F   UNL A   1      39.234  35.433  33.986  1.00  0.00    -0.200 F 
ATOM     83  F   UNL A   1      37.503  33.905  35.428  1.00  0.00    -0.200 F 
ENDBRANCH  49  73
BRANCH  61  84
ATOM     84  C   UNL A   1      44.033  25.884  33.659  1.00  0.00     0.064 A 
ATOM     85  C   UNL A   1      42.991  25.364  34.445  1.00  0.00     0.173 A 
ATOM     86  C   UNL A   1      45.201  25.097  33.586  1.00  0.00     0.173 A 
ATOM     87  F   UNL A   1      41.754  25.882  34.418  1.00  0.00    -0.203 F 
ATOM     88  C   UNL A   1      43.172  24.253  35.254  1.00  0.00     0.198 A 
ATOM     89  C   UNL A   1      45.332  23.916  34.304  1.00  0.00     0.198 A 
ATOM     90  F   UNL A   1      46.235  25.424  32.798  1.00  0.00    -0.203 F 
ATOM     91  F   UNL A   1      42.194  23.883  36.091  1.00  0.00    -0.200 F 
ATOM     92  C   UNL A   1      44.343  23.526  35.182  1.00  0.00     0.200 A 
ATOM     93  F   UNL A   1      46.424  23.157  34.135  1.00  0.00    -0.200 F 
ATOM     94  F   UNL A   1      44.508  22.440  35.943  1.00  0.00    -0.200 F 
ENDBRANCH  61  84
ENDBRANCH  35  36
ENDBRANCH  28  30
ENDBRANCH  27  28
ENDBRANCH  26  27
ENDBRANCH  25  26
ENDBRANCH  24  25
ENDBRANCH   1  24
TORSDOF 18
ENDMDL
MODEL 2
REMARK VINA RESULT:     -16.7      1.315      2.462
REMARK SMILES CCc1cccc(C)c1Nc1ccccc1CC(=O)OCCOCCOC(=O)c1ccc(-c2c3nc(c(-c4c(F)c(F)c(F)c(F)c4F)c4ccc([nH]4)c(-c4c(F)c(F)c(F)c(F)c4F)c4nc(c(-c5c(F)c(F)c(F)c(F)c5F)c5ccc2[nH]5)C=C4)C=C3)cc1
REMARK SMILES IDX 22 1 21 2 20 3 18 4 19 5 17 6 16 7 11 8 12 9 13 10 15 11
REMARK SMILES IDX 14 12 10 13 9 15 3 16 4 17 5 18 7 19 6 20 8 21 2 22 1 23
REMARK SMILES IDX 23 24 24 25 25 26 26 27 27 28 28 29 29 30 30 31 91 32 31 33
REMARK SMILES IDX 90 34 32 35 33 36 34 37 84 38 35 39 89 40 83 41 85 42 36 43
REMARK SMILES IDX 88 44 82 45 81 46 37 48 69 49 49 50 68 51 50 52 53 53 67 54
REMARK SMILES IDX 86 55 51 56 52 57 66 59 87 60 54 61 38 62 39 63 47 64 40 65
REMARK SMILES IDX 41 66 45 67 48 68 42 69 43 70 46 71 44 72 70 73 71 74 79 75
REMARK SMILES IDX 72 76 73 77 77 78 80 79 74 80 75 81 78 82 76 83 55 84 56 85
REMARK SMILES IDX 64 86 57 87 58 88 62 89 65 90 59 91 60 92 63 93 61 94
REMARK H PARENT 10 14 85 47 53 58
REMARK Flexibility Score: inf
ROOT
ATOM      1  C   UNL A   1      31.763  33.381  26.868  1.00  0.00     0.202 C 
ENDROOT
BRANCH   1   2
ATOM      2  C   UNL A   1      31.679  31.423  26.715  1.00  0.00     0.261 C 
BRANCH   2   3
ATOM      3  O   UNL A   1      33.193  30.369  26.799  1.00  0.00    -0.463 OA
BRANCH   3   4
ATOM      4  C   UNL A   1      33.956  29.372  26.108  1.00  0.00     0.310 C 
ATOM      5  O   UNL A   1      35.006  29.028  26.683  1.00  0.00    -0.252 OA
BRANCH   4   6
ATOM      6  C   UNL A   1      33.723  28.600  24.604  1.00  0.00     0.160 C 
BRANCH   6   7
ATOM      7  C   UNL A   1      33.643  26.945  23.962  1.00  0.00    -0.013 A 
ATOM      8  C   UNL A   1      33.933  25.351  24.467  1.00  0.00     0.042 A 
ATOM      9  C   UNL A   1      33.819  24.353  23.493  1.00  0.00     0.026 A 
ATOM     10  C   UNL A   1      33.426  24.737  22.184  1.00  0.00     0.002 A 
ATOM     11  C   UNL A   1      33.301  27.148  22.611  1.00  0.00     0.006 A 
ATOM     12  C   UNL A   1      33.162  26.064  21.764  1.00  0.00     0.000 A 
BRANCH   8  13
ATOM     13  N   UNL A   1      33.589  24.638  26.107  1.00  0.00    -0.355 N 
ATOM     14  H   UNL A   1      33.011  25.172  26.700  1.00  0.00     0.167 HD
BRANCH  13  15
ATOM     15  C   UNL A   1      34.207  22.999  26.807  1.00  0.00     0.045 A 
ATOM     16  C   UNL A   1      32.922  21.782  26.518  1.00  0.00    -0.024 A 
ATOM     17  C   UNL A   1      33.273  20.350  25.566  1.00  0.00     0.006 A 
ATOM     18  C   UNL A   1      34.648  20.148  24.579  1.00  0.00     0.001 A 
ATOM     19  C   UNL A   1      35.969  22.651  26.064  1.00  0.00    -0.027 A 
ATOM     20  C   UNL A   1      35.951  21.299  24.656  1.00  0.00     0.005 A 
ATOM     21  C   UNL A   1      37.479  23.660  26.430  1.00  0.00     0.046 C 
BRANCH  16  22
ATOM     22  C   UNL A   1      31.498  22.128  25.997  1.00  0.00     0.034 C 
ATOM     23  C   UNL A   1      30.613  22.926  26.961  1.00  0.00     0.009 C 
ENDBRANCH  16  22
ENDBRANCH  13  15
ENDBRANCH   8  13
ENDBRANCH   6   7
ENDBRANCH   4   6
ENDBRANCH   3   4
ENDBRANCH   2   3
ENDBRANCH   1   2
BRANCH   1  24
ATOM     24  O   UNL A   1      33.374  33.864  27.949  1.00  0.00    -0.374 OA
BRANCH  24  25
ATOM     25  C   UNL A   1      33.153  34.925  29.340  1.00  0.00     0.202 C 
BRANCH  25  26
ATOM     26  C   UNL A   1      34.305  34.253  30.974  1.00  0.00     0.261 C 
BRANCH  26  27
ATOM     27  O   UNL A   1      35.824  33.191  30.785  1.00  0.00    -0.460 OA
BRANCH  27  28
ATOM     28  C   UNL A   1      37.024  32.518  30.396  1.00  0.00     0.338 C 
ATOM     29  O   UNL A   1      38.064  33.187  30.388  1.00  0.00    -0.246 OA
BRANCH  28  30
ATOM     30  C   UNL A   1      37.297  31.018  29.855  1.00  0.00     0.060 A 
ATOM     31  C   UNL A   1      37.174  29.879  30.657  1.00  0.00     0.016 A 
ATOM     32  C   UNL A   1      37.617  30.619  28.547  1.00  0.00     0.016 A 
ATOM     33  C   UNL A   1      37.981  28.704  30.437  1.00  0.00     0.010 A 
ATOM     34  C   UNL A   1      38.413  29.434  28.307  1.00  0.00     0.010 A 
ATOM     35  C   UNL A   1      38.878  28.653  29.376  1.00  0.00    -0.014 A 
BRANCH  35  36
ATOM     36  C   UNL A   1      40.402  28.308  29.575  1.00  0.00     0.031 A 
ATOM     37  C   UNL A   1      41.087  27.216  28.788  1.00  0.00     0.074 A 
ATOM     38  C   UNL A   1      41.280  29.266  30.048  1.00  0.00     0.049 A 
ATOM     39  N   UNL A   1      41.947  26.373  29.262  1.00  0.00    -0.248 NA
ATOM     40  C   UNL A   1      40.871  26.999  27.352  1.00  0.00     0.031 C 
ATOM     41  C   UNL A   1      42.755  29.441  29.918  1.00  0.00     0.029 A 
ATOM     42  N   UNL A   1      40.929  30.515  30.587  1.00  0.00    -0.354 N 
ATOM     43  C   UNL A   1      42.546  25.736  28.174  1.00  0.00     0.074 A 
ATOM     44  C   UNL A   1      41.650  25.951  27.077  1.00  0.00     0.031 C 
ATOM     45  C   UNL A   1      43.170  30.525  30.626  1.00  0.00     0.029 A 
ATOM     46  C   UNL A   1      42.006  31.109  31.275  1.00  0.00     0.049 A 
ATOM     47  H   UNL A   1      40.039  30.926  30.495  1.00  0.00     0.167 HD
ATOM     48  C   UNL A   1      43.873  25.385  28.183  1.00  0.00     0.037 A 
ATOM     49  C   UNL A   1      41.809  31.344  32.599  1.00  0.00     0.037 A 
ATOM     50  C   UNL A   1      44.538  26.090  29.298  1.00  0.00     0.049 A 
ATOM     51  C   UNL A   1      42.346  30.099  33.275  1.00  0.00     0.074 A 
ATOM     52  C   UNL A   1      45.455  27.127  29.357  1.00  0.00     0.029 A 
ATOM     53  N   UNL A   1      44.008  25.987  30.581  1.00  0.00    -0.354 N 
ATOM     54  N   UNL A   1      42.669  29.029  32.593  1.00  0.00    -0.248 NA
ATOM     55  C   UNL A   1      42.748  29.984  34.667  1.00  0.00     0.031 C 
ATOM     56  C   UNL A   1      45.383  27.700  30.672  1.00  0.00     0.029 A 
ATOM     57  C   UNL A   1      44.432  27.007  31.416  1.00  0.00     0.049 A 
ATOM     58  H   UNL A   1      43.398  25.268  30.864  1.00  0.00     0.167 HD
ATOM     59  C   UNL A   1      43.421  28.189  33.326  1.00  0.00     0.074 A 
ATOM     60  C   UNL A   1      43.392  28.799  34.648  1.00  0.00     0.031 C 
ATOM     61  C   UNL A   1      43.964  27.047  32.810  1.00  0.00     0.037 A 
BRANCH  48  62
ATOM     62  C   UNL A   1      44.661  24.632  27.088  1.00  0.00     0.064 A 
ATOM     63  C   UNL A   1      44.354  23.279  26.795  1.00  0.00     0.173 A 
ATOM     64  C   UNL A   1      45.635  25.178  26.216  1.00  0.00     0.173 A 
ATOM     65  F   UNL A   1      43.395  22.627  27.466  1.00  0.00    -0.203 F 
ATOM     66  C   UNL A   1      44.979  22.548  25.768  1.00  0.00     0.198 A 
ATOM     67  C   UNL A   1      46.277  24.441  25.204  1.00  0.00     0.198 A 
ATOM     68  F   UNL A   1      45.979  26.466  26.244  1.00  0.00    -0.203 F 
ATOM     69  F   UNL A   1      44.618  21.278  25.537  1.00  0.00    -0.200 F 
ATOM     70  C   UNL A   1      45.946  23.128  24.976  1.00  0.00     0.200 A 
ATOM     71  F   UNL A   1      47.200  25.038  24.434  1.00  0.00    -0.200 F 
ATOM     72  F   UNL A   1      46.528  22.441  23.983  1.00  0.00    -0.200 F 
ENDBRANCH  48  62
BRANCH  49  73
ATOM     73  C   UNL A   1      40.528  32.131  32.741  1.00  0.00     0.064 A 
ATOM     74  C   UNL A   1      39.411  31.413  33.258  1.00  0.00     0.173 A 
ATOM     75  C   UNL A   1      40.485  33.521  32.898  1.00  0.00     0.173 A 
ATOM     76  F   UNL A   1      39.360  30.078  33.124  1.00  0.00    -0.203 F 
ATOM     77  C   UNL A   1      38.435  32.018  34.057  1.00  0.00     0.198 A 
ATOM     78  C   UNL A   1      39.459  34.133  33.642  1.00  0.00     0.198 A 
ATOM     79  F   UNL A   1      41.514  34.278  32.499  1.00  0.00    -0.203 F 
ATOM     80  F   UNL A   1      37.518  31.267  34.686  1.00  0.00    -0.200 F 
ATOM     81  C   UNL A   1      38.485  33.376  34.284  1.00  0.00     0.200 A 
ATOM     82  F   UNL A   1      39.506  35.456  33.870  1.00  0.00    -0.200 F 
ATOM     83  F   UNL A   1      37.662  33.941  35.180  1.00  0.00    -0.200 F 
ENDBRANCH  49  73
BRANCH  61  84
ATOM     84  C   UNL A   1      44.091  25.831  33.673  1.00  0.00     0.064 A 
ATOM     85  C   UNL A   1      43.036  25.380  34.484  1.00  0.00     0.173 A 
ATOM     86  C   UNL A   1      45.215  24.983  33.597  1.00  0.00     0.173 A 
ATOM     87  F   UNL A   1      41.827  25.961  34.466  1.00  0.00    -0.203 F 
ATOM     88  C   UNL A   1      43.172  24.275  35.311  1.00  0.00     0.198 A 
ATOM     89  C   UNL A   1      45.296  23.810  34.334  1.00  0.00     0.198 A 
ATOM     90  F   UNL A   1      46.252  25.242  32.788  1.00  0.00    -0.203 F 
ATOM     91  F   UNL A   1      42.189  23.972  36.169  1.00  0.00    -0.200 F 
ATOM     92  C   UNL A   1      44.302  23.487  35.234  1.00  0.00     0.200 A 
ATOM     93  F   UNL A   1      46.344  22.992  34.163  1.00  0.00    -0.200 F 
ATOM     94  F   UNL A   1      44.422  22.408  36.013  1.00  0.00    -0.200 F 
ENDBRANCH  61  84
ENDBRANCH  35  36
ENDBRANCH  28  30
ENDBRANCH  27  28
ENDBRANCH  26  27
ENDBRANCH  25  26
ENDBRANCH  24  25
ENDBRANCH   1  24
TORSDOF 18
ENDMDL
MODEL 3
REMARK VINA RESULT:     -15.7      2.257      3.758
REMARK SMILES CCc1cccc(C)c1Nc1ccccc1CC(=O)OCCOCCOC(=O)c1ccc(-c2c3nc(c(-c4c(F)c(F)c(F)c(F)c4F)c4ccc([nH]4)c(-c4c(F)c(F)c(F)c(F)c4F)c4nc(c(-c5c(F)c(F)c(F)c(F)c5F)c5ccc2[nH]5)C=C4)C=C3)cc1
REMARK SMILES IDX 22 1 21 2 20 3 18 4 19 5 17 6 16 7 11 8 12 9 13 10 15 11
REMARK SMILES IDX 14 12 10 13 9 15 3 16 4 17 5 18 7 19 6 20 8 21 2 22 1 23
REMARK SMILES IDX 23 24 24 25 25 26 26 27 27 28 28 29 29 30 30 31 91 32 31 33
REMARK SMILES IDX 90 34 32 35 33 36 34 37 84 38 35 39 89 40 83 41 85 42 36 43
REMARK SMILES IDX 88 44 82 45 81 46 37 48 69 49 49 50 68 51 50 52 53 53 67 54
REMARK SMILES IDX 86 55 51 56 52 57 66 59 87 60 54 61 38 62 39 63 47 64 40 65
REMARK SMILES IDX 41 66 45 67 48 68 42 69 43 70 46 71 44 72 70 73 71 74 79 75
REMARK SMILES IDX 72 76 73 77 77 78 80 79 74 80 75 81 78 82 76 83 55 84 56 85
REMARK SMILES IDX 64 86 57 87 58 88 62 89 65 90 59 91 60 92 63 93 61 94
REMARK H PARENT 10 14 85 47 53 58
REMARK Flexibility Score: inf
ROOT
ATOM      1  C   UNL A   1      30.786  26.289  24.297  1.00  0.00     0.202 C 
ENDROOT
BRANCH   1   2
ATOM      2  C   UNL A   1      31.432  25.132  25.748  1.00  0.00     0.261 C 
BRANCH   2   3
ATOM      3  O   UNL A   1      32.142  23.459  25.423  1.00  0.00    -0.463 OA
BRANCH   3   4
ATOM      4  C   UNL A   1      32.263  22.126  25.937  1.00  0.00     0.310 C 
ATOM      5  O   UNL A   1      32.536  22.057  27.150  1.00  0.00    -0.252 OA
BRANCH   4   6
ATOM      6  C   UNL A   1      32.160  20.601  25.178  1.00  0.00     0.160 C 
BRANCH   6   7
ATOM      7  C   UNL A   1      33.213  19.203  24.865  1.00  0.00    -0.013 A 
ATOM      8  C   UNL A   1      34.849  18.861  24.574  1.00  0.00     0.042 A 
ATOM      9  C   UNL A   1      35.168  17.535  24.261  1.00  0.00     0.026 A 
ATOM     10  C   UNL A   1      34.119  16.577  24.259  1.00  0.00     0.002 A 
ATOM     11  C   UNL A   1      32.299  18.135  24.782  1.00  0.00     0.006 A 
ATOM     12  C   UNL A   1      32.755  16.855  24.523  1.00  0.00     0.000 A 
BRANCH   8  13
ATOM     13  N   UNL A   1      36.293  19.665  25.338  1.00  0.00    -0.355 N 
ATOM     14  H   UNL A   1      36.446  19.467  26.291  1.00  0.00     0.167 HD
BRANCH  13  15
ATOM     15  C   UNL A   1      37.531  20.833  24.524  1.00  0.00     0.045 A 
ATOM     16  C   UNL A   1      36.641  22.329  24.095  1.00  0.00    -0.024 A 
ATOM     17  C   UNL A   1      37.155  23.871  24.756  1.00  0.00     0.006 A 
ATOM     18  C   UNL A   1      38.233  24.061  26.063  1.00  0.00     0.001 A 
ATOM     19  C   UNL A   1      39.070  20.998  25.699  1.00  0.00    -0.027 A 
ATOM     20  C   UNL A   1      39.105  22.686  26.677  1.00  0.00     0.005 A 
ATOM     21  C   UNL A   1      40.247  19.620  26.082  1.00  0.00     0.046 C 
BRANCH  16  22
ATOM     22  C   UNL A   1      35.096  22.481  24.188  1.00  0.00     0.034 C 
ATOM     23  C   UNL A   1      34.401  23.004  22.926  1.00  0.00     0.009 C 
ENDBRANCH  16  22
ENDBRANCH  13  15
ENDBRANCH   8  13
ENDBRANCH   6   7
ENDBRANCH   4   6
ENDBRANCH   3   4
ENDBRANCH   2   3
ENDBRANCH   1   2
BRANCH   1  24
ATOM     24  O   UNL A   1      31.892  27.955  24.276  1.00  0.00    -0.374 OA
BRANCH  24  25
ATOM     25  C   UNL A   1      31.398  29.293  25.314  1.00  0.00     0.202 C 
BRANCH  25  26
ATOM     26  C   UNL A   1      32.271  29.108  27.225  1.00  0.00     0.261 C 
BRANCH  26  27
ATOM     27  O   UNL A   1      33.989  29.707  27.625  1.00  0.00    -0.460 OA
BRANCH  27  28
ATOM     28  C   UNL A   1      35.387  29.907  27.850  1.00  0.00     0.338 C 
ATOM     29  O   UNL A   1      36.149  29.628  26.918  1.00  0.00    -0.246 OA
BRANCH  28  30
ATOM     30  C   UNL A   1      36.218  30.358  29.163  1.00  0.00     0.060 A 
ATOM     31  C   UNL A   1      36.964  31.539  29.230  1.00  0.00     0.016 A 
ATOM     32  C   UNL A   1      36.274  29.714  30.410  1.00  0.00     0.016 A 
ATOM     33  C   UNL A   1      38.150  31.643  30.045  1.00  0.00     0.010 A 
ATOM     34  C   UNL A   1      37.449  29.820  31.247  1.00  0.00     0.010 A 
ATOM     35  C   UNL A   1      38.559  30.574  30.835  1.00  0.00    -0.014 A 
BRANCH  35  36
ATOM     36  C   UNL A   1      40.012  29.971  30.751  1.00  0.00     0.031 A 
ATOM     37  C   UNL A   1      40.358  28.839  29.813  1.00  0.00     0.074 A 
ATOM     38  C   UNL A   1      41.108  30.736  31.103  1.00  0.00     0.049 A 
ATOM     39  N   UNL A   1      41.124  27.835  30.095  1.00  0.00    -0.248 NA
ATOM     40  C   UNL A   1      39.875  28.761  28.428  1.00  0.00     0.031 C 
ATOM     41  C   UNL A   1      42.550  30.675  30.727  1.00  0.00     0.029 A 
ATOM     42  N   UNL A   1      41.073  31.985  31.746  1.00  0.00    -0.354 N 
ATOM     43  C   UNL A   1      41.416  27.186  28.895  1.00  0.00     0.074 A 
ATOM     44  C   UNL A   1      40.404  27.621  27.980  1.00  0.00     0.031 C 
ATOM     45  C   UNL A   1      43.257  31.624  31.396  1.00  0.00     0.029 A 
ATOM     46  C   UNL A   1      42.335  32.344  32.260  1.00  0.00     0.049 A 
ATOM     47  H   UNL A   1      40.266  32.542  31.828  1.00  0.00     0.167 HD
ATOM     48  C   UNL A   1      42.645  26.622  28.659  1.00  0.00     0.037 A 
ATOM     49  C   UNL A   1      42.402  32.514  33.607  1.00  0.00     0.037 A 
ATOM     50  C   UNL A   1      43.596  27.128  29.670  1.00  0.00     0.049 A 
ATOM     51  C   UNL A   1      42.818  31.153  34.127  1.00  0.00     0.074 A 
ATOM     52  C   UNL A   1      44.677  27.993  29.610  1.00  0.00     0.029 A 
ATOM     53  N   UNL A   1      43.274  27.024  31.019  1.00  0.00    -0.354 N 
ATOM     54  N   UNL A   1      42.833  30.095  33.357  1.00  0.00    -0.248 NA
ATOM     55  C   UNL A   1      43.417  30.877  35.423  1.00  0.00     0.031 C 
ATOM     56  C   UNL A   1      44.922  28.477  30.941  1.00  0.00     0.029 A 
ATOM     57  C   UNL A   1      44.000  27.899  31.810  1.00  0.00     0.049 A 
ATOM     58  H   UNL A   1      42.603  26.397  31.374  1.00  0.00     0.167 HD
ATOM     59  C   UNL A   1      43.538  29.094  33.913  1.00  0.00     0.074 A 
ATOM     60  C   UNL A   1      43.833  29.606  35.244  1.00  0.00     0.031 C 
ATOM     61  C   UNL A   1      43.781  27.917  33.264  1.00  0.00     0.037 A 
BRANCH  48  62
ATOM     62  C   UNL A   1      43.099  25.829  27.413  1.00  0.00     0.064 A 
ATOM     63  C   UNL A   1      44.052  26.386  26.524  1.00  0.00     0.173 A 
ATOM     64  C   UNL A   1      42.744  24.499  27.079  1.00  0.00     0.173 A 
ATOM     65  F   UNL A   1      44.564  27.607  26.735  1.00  0.00    -0.203 F 
ATOM     66  C   UNL A   1      44.564  25.700  25.406  1.00  0.00     0.198 A 
ATOM     67  C   UNL A   1      43.238  23.820  25.949  1.00  0.00     0.198 A 
ATOM     68  F   UNL A   1      41.954  23.752  27.851  1.00  0.00    -0.203 F 
ATOM     69  F   UNL A   1      45.482  26.287  24.625  1.00  0.00    -0.200 F 
ATOM     70  C   UNL A   1      44.152  24.418  25.115  1.00  0.00     0.200 A 
ATOM     71  F   UNL A   1      42.835  22.564  25.702  1.00  0.00    -0.200 F 
ATOM     72  F   UNL A   1      44.653  23.754  24.065  1.00  0.00    -0.200 F 
ENDBRANCH  48  62
BRANCH  49  73
ATOM     73  C   UNL A   1      41.319  33.489  34.002  1.00  0.00     0.064 A 
ATOM     74  C   UNL A   1      40.270  32.961  34.809  1.00  0.00     0.173 A 
ATOM     75  C   UNL A   1      41.512  34.873  34.085  1.00  0.00     0.173 A 
ATOM     76  F   UNL A   1      39.999  31.646  34.767  1.00  0.00    -0.203 F 
ATOM     77  C   UNL A   1      39.612  33.724  35.779  1.00  0.00     0.198 A 
ATOM     78  C   UNL A   1      40.794  35.650  35.013  1.00  0.00     0.198 A 
ATOM     79  F   UNL A   1      42.512  35.456  33.411  1.00  0.00    -0.203 F 
ATOM     80  F   UNL A   1      38.777  33.134  36.649  1.00  0.00    -0.200 F 
ATOM     81  C   UNL A   1      39.908  35.063  35.909  1.00  0.00     0.200 A 
ATOM     82  F   UNL A   1      41.082  36.954  35.146  1.00  0.00    -0.200 F 
ATOM     83  F   UNL A   1      39.414  35.766  36.940  1.00  0.00    -0.200 F 
ENDBRANCH  49  73
BRANCH  61  84
ATOM     84  C   UNL A   1      43.835  26.640  34.041  1.00  0.00     0.064 A 
ATOM     85  C   UNL A   1      42.695  26.090  34.650  1.00  0.00     0.173 A 
ATOM     86  C   UNL A   1      44.994  25.837  34.067  1.00  0.00     0.173 A 
ATOM     87  F   UNL A   1      41.477  26.632  34.498  1.00  0.00    -0.203 F 
ATOM     88  C   UNL A   1      42.757  24.926  35.401  1.00  0.00     0.198 A 
ATOM     89  C   UNL A   1      45.019  24.610  34.717  1.00  0.00     0.198 A 
ATOM     90  F   UNL A   1      46.125  26.194  33.443  1.00  0.00    -0.203 F 
ATOM     91  F   UNL A   1      41.675  24.523  36.079  1.00  0.00    -0.200 F 
ATOM     92  C   UNL A   1      43.920  24.184  35.433  1.00  0.00     0.200 A 
ATOM     93  F   UNL A   1      46.115  23.843  34.640  1.00  0.00    -0.200 F 
ATOM     94  F   UNL A   1      43.973  23.048  36.136  1.00  0.00    -0.200 F 
ENDBRANCH  61  84
ENDBRANCH  35  36
ENDBRANCH  28  30
ENDBRANCH  27  28
ENDBRANCH  26  27
ENDBRANCH  25  26
ENDBRANCH  24  25
ENDBRANCH   1  24
TORSDOF 18
ENDMDL
