MODEL 1
REMARK VINA RESULT:     -13.2      0.000      0.000
REMARK SMILES Cc1cc(C(=O)OCCOCCOC(=O)c2ccc(-c3c4nc(c(-c5c(F)c(F)c(F)c(F)c5F)c5ccc([nH]5)c(-c5c(F)c(F)c(F)c(F)c5F)c5nc(c(-c6c(F)c(F)c(F)c(F)c6F)c6ccc3[nH]6)C=C5)C=C4)cc2)ccc1NS(=O)(=O)c1ccc2c(c1)CCC2
REMARK SMILES IDX 9 1 8 2 7 3 5 4 6 5 4 6 1 7 2 8 3 9 81 10 80 11 79 12 82 13
REMARK SMILES IDX 83 15 84 16 85 17 86 18 87 19 91 20 88 21 90 22 89 23 92 24
REMARK SMILES IDX 94 25 93 26 10 27 11 28 12 29 13 30 14 31 15 32 16 33 17 34
REMARK SMILES IDX 78 35 18 36 77 37 19 38 20 39 21 40 71 41 22 42 76 43 70 44
REMARK SMILES IDX 72 45 23 46 75 47 69 48 68 49 24 51 56 52 36 53 55 54 37 55
REMARK SMILES IDX 40 56 54 57 73 58 38 59 39 60 53 62 74 63 41 64 25 65 26 66
REMARK SMILES IDX 34 67 27 68 28 69 32 70 35 71 29 72 30 73 33 74 31 75 57 76
REMARK SMILES IDX 58 77 66 78 59 79 60 80 64 81 67 82 61 83 62 84 65 85 63 86
REMARK SMILES IDX 42 87 43 88 51 89 44 90 45 91 49 92 52 93 46 94 47 95 50 96
REMARK SMILES IDX 48 97
REMARK H PARENT 82 14 72 50 40 61
REMARK Flexibility Score: inf
ROOT
ATOM      1  C   UNL A   1      33.136  34.049  27.990  1.00  0.00     0.202 C 
ENDROOT
BRANCH   1   2
ATOM      2  C   UNL A   1      34.026  32.874  28.296  1.00  0.00     0.261 C 
BRANCH   2   3
ATOM      3  O   UNL A   1      33.441  31.600  27.947  1.00  0.00    -0.460 OA
BRANCH   3   4
ATOM      4  C   UNL A   1      34.222  30.596  27.425  1.00  0.00     0.338 C 
ATOM      5  O   UNL A   1      35.387  30.392  27.568  1.00  0.00    -0.246 OA
BRANCH   4   6
ATOM      6  C   UNL A   1      33.279  29.659  26.770  1.00  0.00     0.060 A 
ATOM      7  C   UNL A   1      33.866  26.626  24.624  1.00  0.00     0.046 C 
ATOM      8  C   UNL A   1      33.226  27.556  25.613  1.00  0.00    -0.026 A 
ATOM      9  C   UNL A   1      33.817  28.806  25.812  1.00  0.00     0.021 A 
ATOM     10  C   UNL A   1      32.128  27.200  26.419  1.00  0.00     0.052 A 
ATOM     11  C   UNL A   1      31.395  28.205  27.052  1.00  0.00     0.028 A 
ATOM     12  C   UNL A   1      32.000  29.438  27.275  1.00  0.00     0.018 A 
BRANCH  10  13
ATOM     13  N   UNL A   1      32.114  25.864  26.924  1.00  0.00    -0.279 N 
ATOM     14  H   UNL A   1      32.544  25.728  27.799  1.00  0.00     0.180 HD
BRANCH  13  15
ATOM     15  S   UNL A   1      31.459  24.506  26.212  1.00  0.00     0.261 S 
ATOM     16  O   UNL A   1      30.803  23.738  27.249  1.00  0.00    -0.201 OA
ATOM     17  O   UNL A   1      30.723  24.999  25.066  1.00  0.00    -0.201 OA
BRANCH  15  18
ATOM     18  C   UNL A   1      32.764  23.469  25.552  1.00  0.00     0.088 A 
ATOM     19  C   UNL A   1      32.642  22.736  24.359  1.00  0.00     0.022 A 
ATOM     20  C   UNL A   1      34.013  23.608  26.174  1.00  0.00     0.026 A 
ATOM     21  C   UNL A   1      33.792  22.344  23.657  1.00  0.00     0.005 A 
ATOM     22  C   UNL A   1      35.134  23.167  25.495  1.00  0.00    -0.043 A 
ATOM     23  C   UNL A   1      35.030  22.626  24.211  1.00  0.00    -0.045 A 
ATOM     24  C   UNL A   1      36.564  23.229  25.927  1.00  0.00     0.036 C 
ATOM     25  C   UNL A   1      36.391  22.462  23.601  1.00  0.00     0.036 C 
ATOM     26  C   UNL A   1      37.253  23.304  24.562  1.00  0.00     0.010 C 
ENDBRANCH  15  18
ENDBRANCH  13  15
ENDBRANCH  10  13
ENDBRANCH   4   6
ENDBRANCH   3   4
ENDBRANCH   2   3
ENDBRANCH   1   2
BRANCH   1  27
ATOM     27  O   UNL A   1      32.779  34.609  29.242  1.00  0.00    -0.374 OA
BRANCH  27  28
ATOM     28  C   UNL A   1      33.024  35.995  29.384  1.00  0.00     0.202 C 
BRANCH  28  29
ATOM     29  C   UNL A   1      32.876  36.495  30.828  1.00  0.00     0.261 C 
BRANCH  29  30
ATOM     30  O   UNL A   1      32.981  35.383  31.739  1.00  0.00    -0.460 OA
BRANCH  30  31
ATOM     31  C   UNL A   1      34.108  35.353  32.503  1.00  0.00     0.338 C 
ATOM     32  O   UNL A   1      34.570  36.298  33.120  1.00  0.00    -0.246 OA
BRANCH  31  33
ATOM     33  C   UNL A   1      34.849  34.086  32.246  1.00  0.00     0.060 A 
ATOM     34  C   UNL A   1      34.910  33.093  33.243  1.00  0.00     0.016 A 
ATOM     35  C   UNL A   1      35.723  34.034  31.164  1.00  0.00     0.016 A 
ATOM     36  C   UNL A   1      35.952  32.152  33.238  1.00  0.00     0.010 A 
ATOM     37  C   UNL A   1      36.797  33.174  31.221  1.00  0.00     0.010 A 
ATOM     38  C   UNL A   1      36.950  32.255  32.272  1.00  0.00    -0.014 A 
BRANCH  38  39
ATOM     39  C   UNL A   1      38.242  31.558  32.280  1.00  0.00     0.031 A 
ATOM     40  C   UNL A   1      38.383  30.326  31.462  1.00  0.00     0.074 A 
ATOM     41  C   UNL A   1      39.362  32.171  32.748  1.00  0.00     0.049 A 
ATOM     42  N   UNL A   1      39.458  29.619  31.426  1.00  0.00    -0.248 NA
ATOM     43  C   UNL A   1      37.320  29.746  30.642  1.00  0.00     0.031 C 
ATOM     44  C   UNL A   1      40.751  31.933  32.340  1.00  0.00     0.029 A 
ATOM     45  N   UNL A   1      39.501  33.185  33.711  1.00  0.00    -0.354 N 
ATOM     46  C   UNL A   1      39.366  28.751  30.367  1.00  0.00     0.074 A 
ATOM     47  C   UNL A   1      37.974  28.772  30.000  1.00  0.00     0.031 C 
ATOM     48  C   UNL A   1      41.587  32.511  33.218  1.00  0.00     0.029 A 
ATOM     49  C   UNL A   1      40.770  33.038  34.295  1.00  0.00     0.049 A 
ATOM     50  H   UNL A   1      38.832  33.871  33.935  1.00  0.00     0.167 HD
ATOM     51  C   UNL A   1      40.522  28.223  29.879  1.00  0.00     0.037 A 
ATOM     52  C   UNL A   1      40.907  32.798  35.625  1.00  0.00     0.037 A 
ATOM     53  C   UNL A   1      41.638  28.512  30.793  1.00  0.00     0.049 A 
ATOM     54  C   UNL A   1      41.551  31.460  35.800  1.00  0.00     0.074 A 
ATOM     55  C   UNL A   1      42.748  29.333  30.728  1.00  0.00     0.029 A 
ATOM     56  N   UNL A   1      41.527  28.111  32.128  1.00  0.00    -0.354 N 
ATOM     57  N   UNL A   1      41.478  30.535  34.881  1.00  0.00    -0.248 NA
ATOM     58  C   UNL A   1      42.412  31.087  36.914  1.00  0.00     0.031 C 
ATOM     59  C   UNL A   1      43.240  29.501  32.059  1.00  0.00     0.029 A 
ATOM     60  C   UNL A   1      42.460  28.745  32.924  1.00  0.00     0.049 A 
ATOM     61  H   UNL A   1      40.868  27.457  32.458  1.00  0.00     0.167 HD
ATOM     62  C   UNL A   1      42.325  29.523  35.197  1.00  0.00     0.074 A 
ATOM     63  C   UNL A   1      42.851  29.883  36.504  1.00  0.00     0.031 C 
ATOM     64  C   UNL A   1      42.539  28.473  34.358  1.00  0.00     0.037 A 
BRANCH  51  65
ATOM     65  C   UNL A   1      40.703  27.562  28.525  1.00  0.00     0.064 A 
ATOM     66  C   UNL A   1      40.094  26.314  28.260  1.00  0.00     0.173 A 
ATOM     67  C   UNL A   1      41.523  28.040  27.480  1.00  0.00     0.173 A 
ATOM     68  F   UNL A   1      39.309  25.718  29.169  1.00  0.00    -0.203 F 
ATOM     69  C   UNL A   1      40.279  25.620  27.058  1.00  0.00     0.198 A 
ATOM     70  C   UNL A   1      41.667  27.370  26.257  1.00  0.00     0.198 A 
ATOM     71  F   UNL A   1      42.270  29.140  27.603  1.00  0.00    -0.203 F 
ATOM     72  F   UNL A   1      39.710  24.419  26.886  1.00  0.00    -0.200 F 
ATOM     73  C   UNL A   1      41.053  26.157  26.049  1.00  0.00     0.200 A 
ATOM     74  F   UNL A   1      42.430  27.908  25.294  1.00  0.00    -0.200 F 
ATOM     75  F   UNL A   1      41.221  25.501  24.892  1.00  0.00    -0.200 F 
ENDBRANCH  51  65
BRANCH  52  76
ATOM     76  C   UNL A   1      39.839  33.466  36.421  1.00  0.00     0.064 A 
ATOM     77  C   UNL A   1      38.781  32.636  36.854  1.00  0.00     0.173 A 
ATOM     78  C   UNL A   1      40.086  34.626  37.169  1.00  0.00     0.173 A 
ATOM     79  F   UNL A   1      38.514  31.497  36.193  1.00  0.00    -0.203 F 
ATOM     80  C   UNL A   1      38.111  32.870  38.054  1.00  0.00     0.198 A 
ATOM     81  C   UNL A   1      39.405  34.858  38.373  1.00  0.00     0.198 A 
ATOM     82  F   UNL A   1      41.088  35.448  36.831  1.00  0.00    -0.203 F 
ATOM     83  F   UNL A   1      37.228  31.968  38.512  1.00  0.00    -0.200 F 
ATOM     84  C   UNL A   1      38.454  33.960  38.833  1.00  0.00     0.200 A 
ATOM     85  F   UNL A   1      39.751  35.898  39.146  1.00  0.00    -0.200 F 
ATOM     86  F   UNL A   1      37.917  34.106  40.054  1.00  0.00    -0.200 F 
ENDBRANCH  52  76
BRANCH  64  87
ATOM     87  C   UNL A   1      42.910  27.108  34.859  1.00  0.00     0.064 A 
ATOM     88  C   UNL A   1      41.964  26.079  35.028  1.00  0.00     0.173 A 
ATOM     89  C   UNL A   1      44.262  26.728  34.994  1.00  0.00     0.173 A 
ATOM     90  F   UNL A   1      40.660  26.274  34.790  1.00  0.00    -0.203 F 
ATOM     91  C   UNL A   1      42.337  24.787  35.390  1.00  0.00     0.198 A 
ATOM     92  C   UNL A   1      44.634  25.419  35.286  1.00  0.00     0.198 A 
ATOM     93  F   UNL A   1      45.260  27.602  34.805  1.00  0.00    -0.203 F 
ATOM     94  F   UNL A   1      41.392  23.859  35.589  1.00  0.00    -0.200 F 
ATOM     95  C   UNL A   1      43.671  24.455  35.507  1.00  0.00     0.200 A 
ATOM     96  F   UNL A   1      45.933  25.093  35.326  1.00  0.00    -0.200 F 
ATOM     97  F   UNL A   1      44.029  23.199  35.806  1.00  0.00    -0.200 F 
ENDBRANCH  64  87
ENDBRANCH  38  39
ENDBRANCH  31  33
ENDBRANCH  30  31
ENDBRANCH  29  30
ENDBRANCH  28  29
ENDBRANCH  27  28
ENDBRANCH   1  27
TORSDOF 17
ENDMDL
MODEL 2
REMARK VINA RESULT:     -12.8      2.181      3.489
REMARK SMILES Cc1cc(C(=O)OCCOCCOC(=O)c2ccc(-c3c4nc(c(-c5c(F)c(F)c(F)c(F)c5F)c5ccc([nH]5)c(-c5c(F)c(F)c(F)c(F)c5F)c5nc(c(-c6c(F)c(F)c(F)c(F)c6F)c6ccc3[nH]6)C=C5)C=C4)cc2)ccc1NS(=O)(=O)c1ccc2c(c1)CCC2
REMARK SMILES IDX 9 1 8 2 7 3 5 4 6 5 4 6 1 7 2 8 3 9 81 10 80 11 79 12 82 13
REMARK SMILES IDX 83 15 84 16 85 17 86 18 87 19 91 20 88 21 90 22 89 23 92 24
REMARK SMILES IDX 94 25 93 26 10 27 11 28 12 29 13 30 14 31 15 32 16 33 17 34
REMARK SMILES IDX 78 35 18 36 77 37 19 38 20 39 21 40 71 41 22 42 76 43 70 44
REMARK SMILES IDX 72 45 23 46 75 47 69 48 68 49 24 51 56 52 36 53 55 54 37 55
REMARK SMILES IDX 40 56 54 57 73 58 38 59 39 60 53 62 74 63 41 64 25 65 26 66
REMARK SMILES IDX 34 67 27 68 28 69 32 70 35 71 29 72 30 73 33 74 31 75 57 76
REMARK SMILES IDX 58 77 66 78 59 79 60 80 64 81 67 82 61 83 62 84 65 85 63 86
REMARK SMILES IDX 42 87 43 88 51 89 44 90 45 91 49 92 52 93 46 94 47 95 50 96
REMARK SMILES IDX 48 97
REMARK H PARENT 82 14 72 50 40 61
REMARK Flexibility Score: inf
ROOT
ATOM      1  C   UNL A   1      33.161  34.906  28.844  1.00  0.00     0.202 C 
ENDROOT
BRANCH   1   2
ATOM      2  C   UNL A   1      34.295  33.933  29.028  1.00  0.00     0.261 C 
BRANCH   2   3
ATOM      3  O   UNL A   1      34.318  32.879  28.040  1.00  0.00    -0.460 OA
BRANCH   3   4
ATOM      4  C   UNL A   1      35.168  31.809  28.186  1.00  0.00     0.338 C 
ATOM      5  O   UNL A   1      36.218  31.746  28.745  1.00  0.00    -0.246 OA
BRANCH   4   6
ATOM      6  C   UNL A   1      34.427  30.639  27.658  1.00  0.00     0.060 A 
ATOM      7  C   UNL A   1      31.346  30.401  25.511  1.00  0.00     0.046 C 
ATOM      8  C   UNL A   1      32.682  30.067  26.110  1.00  0.00    -0.026 A 
ATOM      9  C   UNL A   1      33.163  30.891  27.132  1.00  0.00     0.021 A 
ATOM     10  C   UNL A   1      33.513  29.037  25.634  1.00  0.00     0.052 A 
ATOM     11  C   UNL A   1      34.559  28.580  26.438  1.00  0.00     0.028 A 
ATOM     12  C   UNL A   1      35.056  29.416  27.433  1.00  0.00     0.018 A 
BRANCH  10  13
ATOM     13  N   UNL A   1      33.554  28.852  24.218  1.00  0.00    -0.279 N 
ATOM     14  H   UNL A   1      33.950  29.587  23.697  1.00  0.00     0.180 HD
BRANCH  13  15
ATOM     15  S   UNL A   1      33.010  27.543  23.340  1.00  0.00     0.261 S 
ATOM     16  O   UNL A   1      33.718  27.536  22.076  1.00  0.00    -0.201 OA
ATOM     17  O   UNL A   1      33.091  26.419  24.249  1.00  0.00    -0.201 OA
BRANCH  15  18
ATOM     18  C   UNL A   1      31.271  27.742  22.954  1.00  0.00     0.088 A 
ATOM     19  C   UNL A   1      30.269  26.876  23.425  1.00  0.00     0.022 A 
ATOM     20  C   UNL A   1      30.928  28.955  22.339  1.00  0.00     0.026 A 
ATOM     21  C   UNL A   1      28.940  27.319  23.501  1.00  0.00     0.005 A 
ATOM     22  C   UNL A   1      29.604  29.354  22.373  1.00  0.00    -0.043 A 
ATOM     23  C   UNL A   1      28.639  28.586  23.029  1.00  0.00    -0.045 A 
ATOM     24  C   UNL A   1      28.998  30.604  21.822  1.00  0.00     0.036 C 
ATOM     25  C   UNL A   1      27.351  29.349  23.141  1.00  0.00     0.036 C 
ATOM     26  C   UNL A   1      27.815  30.773  22.779  1.00  0.00     0.010 C 
ENDBRANCH  15  18
ENDBRANCH  13  15
ENDBRANCH  10  13
ENDBRANCH   4   6
ENDBRANCH   3   4
ENDBRANCH   2   3
ENDBRANCH   1   2
BRANCH   1  27
ATOM     27  O   UNL A   1      32.561  35.056  30.119  1.00  0.00    -0.374 OA
BRANCH  27  28
ATOM     28  C   UNL A   1      33.082  36.099  30.921  1.00  0.00     0.202 C 
BRANCH  28  29
ATOM     29  C   UNL A   1      32.740  35.950  32.411  1.00  0.00     0.261 C 
BRANCH  29  30
ATOM     30  O   UNL A   1      33.918  35.552  33.141  1.00  0.00    -0.460 OA
BRANCH  30  31
ATOM     31  C   UNL A   1      34.217  34.225  33.095  1.00  0.00     0.338 C 
ATOM     32  O   UNL A   1      33.409  33.314  33.153  1.00  0.00    -0.246 OA
BRANCH  31  33
ATOM     33  C   UNL A   1      35.688  34.042  33.254  1.00  0.00     0.060 A 
ATOM     34  C   UNL A   1      36.562  34.444  32.226  1.00  0.00     0.016 A 
ATOM     35  C   UNL A   1      36.148  33.198  34.262  1.00  0.00     0.016 A 
ATOM     36  C   UNL A   1      37.838  33.870  32.121  1.00  0.00     0.010 A 
ATOM     37  C   UNL A   1      37.360  32.566  34.095  1.00  0.00     0.010 A 
ATOM     38  C   UNL A   1      38.200  32.858  33.007  1.00  0.00    -0.014 A 
BRANCH  38  39
ATOM     39  C   UNL A   1      39.352  31.958  32.877  1.00  0.00     0.031 A 
ATOM     40  C   UNL A   1      39.223  30.772  31.992  1.00  0.00     0.074 A 
ATOM     41  C   UNL A   1      40.590  32.348  33.282  1.00  0.00     0.049 A 
ATOM     42  N   UNL A   1      40.156  29.901  31.834  1.00  0.00    -0.248 NA
ATOM     43  C   UNL A   1      38.020  30.428  31.232  1.00  0.00     0.031 C 
ATOM     44  C   UNL A   1      41.886  31.908  32.752  1.00  0.00     0.029 A 
ATOM     45  N   UNL A   1      40.967  33.263  34.278  1.00  0.00    -0.354 N 
ATOM     46  C   UNL A   1      39.843  29.127  30.745  1.00  0.00     0.074 A 
ATOM     47  C   UNL A   1      38.452  29.400  30.493  1.00  0.00     0.031 C 
ATOM     48  C   UNL A   1      42.869  32.285  33.587  1.00  0.00     0.029 A 
ATOM     49  C   UNL A   1      42.232  32.873  34.750  1.00  0.00     0.049 A 
ATOM     50  H   UNL A   1      40.442  34.035  34.589  1.00  0.00     0.167 HD
ATOM     51  C   UNL A   1      40.855  28.446  30.140  1.00  0.00     0.037 A 
ATOM     52  C   UNL A   1      42.421  32.532  36.052  1.00  0.00     0.037 A 
ATOM     53  C   UNL A   1      42.066  28.489  30.974  1.00  0.00     0.049 A 
ATOM     54  C   UNL A   1      42.840  31.098  36.109  1.00  0.00     0.074 A 
ATOM     55  C   UNL A   1      43.292  29.119  30.859  1.00  0.00     0.029 A 
ATOM     56  N   UNL A   1      41.985  28.031  32.292  1.00  0.00    -0.354 N 
ATOM     57  N   UNL A   1      42.545  30.256  35.155  1.00  0.00    -0.248 NA
ATOM     58  C   UNL A   1      43.702  30.519  37.130  1.00  0.00     0.031 C 
ATOM     59  C   UNL A   1      43.899  29.120  32.152  1.00  0.00     0.029 A 
ATOM     60  C   UNL A   1      43.066  28.452  33.040  1.00  0.00     0.049 A 
ATOM     61  H   UNL A   1      41.250  27.476  32.642  1.00  0.00     0.167 HD
ATOM     62  C   UNL A   1      43.228  29.100  35.352  1.00  0.00     0.074 A 
ATOM     63  C   UNL A   1      43.900  29.287  36.627  1.00  0.00     0.031 C 
ATOM     64  C   UNL A   1      43.201  28.083  34.448  1.00  0.00     0.037 A 
BRANCH  51  65
ATOM     65  C   UNL A   1      40.824  27.849  28.745  1.00  0.00     0.064 A 
ATOM     66  C   UNL A   1      40.135  26.637  28.510  1.00  0.00     0.173 A 
ATOM     67  C   UNL A   1      41.513  28.351  27.620  1.00  0.00     0.173 A 
ATOM     68  F   UNL A   1      39.457  26.023  29.490  1.00  0.00    -0.203 F 
ATOM     69  C   UNL A   1      40.127  25.999  27.263  1.00  0.00     0.198 A 
ATOM     70  C   UNL A   1      41.463  27.740  26.360  1.00  0.00     0.198 A 
ATOM     71  F   UNL A   1      42.314  29.418  27.689  1.00  0.00    -0.203 F 
ATOM     72  F   UNL A   1      39.492  24.828  27.117  1.00  0.00    -0.200 F 
ATOM     73  C   UNL A   1      40.778  26.560  26.183  1.00  0.00     0.200 A 
ATOM     74  F   UNL A   1      42.109  28.300  25.327  1.00  0.00    -0.200 F 
ATOM     75  F   UNL A   1      40.761  25.958  24.986  1.00  0.00    -0.200 F 
ENDBRANCH  51  65
BRANCH  52  76
ATOM     76  C   UNL A   1      41.541  33.317  36.963  1.00  0.00     0.064 A 
ATOM     77  C   UNL A   1      42.009  34.602  37.318  1.00  0.00     0.173 A 
ATOM     78  C   UNL A   1      40.156  33.105  37.022  1.00  0.00     0.173 A 
ATOM     79  F   UNL A   1      43.323  34.872  37.255  1.00  0.00    -0.203 F 
ATOM     80  C   UNL A   1      41.133  35.657  37.568  1.00  0.00     0.198 A 
ATOM     81  C   UNL A   1      39.280  34.169  37.278  1.00  0.00     0.198 A 
ATOM     82  F   UNL A   1      39.638  31.919  36.676  1.00  0.00    -0.203 F 
ATOM     83  F   UNL A   1      41.615  36.898  37.738  1.00  0.00    -0.200 F 
ATOM     84  C   UNL A   1      39.768  35.448  37.506  1.00  0.00     0.200 A 
ATOM     85  F   UNL A   1      37.955  33.980  37.194  1.00  0.00    -0.200 F 
ATOM     86  F   UNL A   1      38.926  36.489  37.599  1.00  0.00    -0.200 F 
ENDBRANCH  52  76
BRANCH  64  87
ATOM     87  C   UNL A   1      43.369  26.648  34.850  1.00  0.00     0.064 A 
ATOM     88  C   UNL A   1      42.277  25.805  35.134  1.00  0.00     0.173 A 
ATOM     89  C   UNL A   1      44.627  26.015  34.769  1.00  0.00     0.173 A 
ATOM     90  F   UNL A   1      41.015  26.253  35.101  1.00  0.00    -0.203 F 
ATOM     91  C   UNL A   1      42.442  24.449  35.400  1.00  0.00     0.198 A 
ATOM     92  C   UNL A   1      44.778  24.645  34.966  1.00  0.00     0.198 A 
ATOM     93  F   UNL A   1      45.738  26.696  34.453  1.00  0.00    -0.203 F 
ATOM     94  F   UNL A   1      41.374  23.703  35.716  1.00  0.00    -0.200 F 
ATOM     95  C   UNL A   1      43.690  23.867  35.304  1.00  0.00     0.200 A 
ATOM     96  F   UNL A   1      45.982  24.080  34.799  1.00  0.00    -0.200 F 
ATOM     97  F   UNL A   1      43.838  22.552  35.512  1.00  0.00    -0.200 F 
ENDBRANCH  64  87
ENDBRANCH  38  39
ENDBRANCH  31  33
ENDBRANCH  30  31
ENDBRANCH  29  30
ENDBRANCH  28  29
ENDBRANCH  27  28
ENDBRANCH   1  27
TORSDOF 17
ENDMDL
MODEL 3
REMARK VINA RESULT:     -12.6      3.232      5.382
REMARK SMILES Cc1cc(C(=O)OCCOCCOC(=O)c2ccc(-c3c4nc(c(-c5c(F)c(F)c(F)c(F)c5F)c5ccc([nH]5)c(-c5c(F)c(F)c(F)c(F)c5F)c5nc(c(-c6c(F)c(F)c(F)c(F)c6F)c6ccc3[nH]6)C=C5)C=C4)cc2)ccc1NS(=O)(=O)c1ccc2c(c1)CCC2
REMARK SMILES IDX 9 1 8 2 7 3 5 4 6 5 4 6 1 7 2 8 3 9 81 10 80 11 79 12 82 13
REMARK SMILES IDX 83 15 84 16 85 17 86 18 87 19 91 20 88 21 90 22 89 23 92 24
REMARK SMILES IDX 94 25 93 26 10 27 11 28 12 29 13 30 14 31 15 32 16 33 17 34
REMARK SMILES IDX 78 35 18 36 77 37 19 38 20 39 21 40 71 41 22 42 76 43 70 44
REMARK SMILES IDX 72 45 23 46 75 47 69 48 68 49 24 51 56 52 36 53 55 54 37 55
REMARK SMILES IDX 40 56 54 57 73 58 38 59 39 60 53 62 74 63 41 64 25 65 26 66
REMARK SMILES IDX 34 67 27 68 28 69 32 70 35 71 29 72 30 73 33 74 31 75 57 76
REMARK SMILES IDX 58 77 66 78 59 79 60 80 64 81 67 82 61 83 62 84 65 85 63 86
REMARK SMILES IDX 42 87 43 88 51 89 44 90 45 91 49 92 52 93 46 94 47 95 50 96
REMARK SMILES IDX 48 97
REMARK H PARENT 82 14 72 50 40 61
REMARK Flexibility Score: inf
ROOT
ATOM      1  C   UNL A   1      31.087  27.264  27.155  1.00  0.00     0.202 C 
ENDROOT
BRANCH   1   2
ATOM      2  C   UNL A   1      31.335  26.099  26.235  1.00  0.00     0.261 C 
BRANCH   2   3
ATOM      3  O   UNL A   1      31.430  24.831  26.920  1.00  0.00    -0.460 OA
BRANCH   3   4
ATOM      4  C   UNL A   1      31.116  23.663  26.268  1.00  0.00     0.338 C 
ATOM      5  O   UNL A   1      30.306  23.465  25.418  1.00  0.00    -0.246 OA
BRANCH   4   6
ATOM      6  C   UNL A   1      32.139  22.680  26.699  1.00  0.00     0.060 A 
ATOM      7  C   UNL A   1      33.964  19.989  24.806  1.00  0.00     0.046 C 
ATOM      8  C   UNL A   1      33.682  21.068  25.811  1.00  0.00    -0.026 A 
ATOM      9  C   UNL A   1      32.404  21.635  25.820  1.00  0.00     0.021 A 
ATOM     10  C   UNL A   1      34.657  21.605  26.671  1.00  0.00     0.052 A 
ATOM     11  C   UNL A   1      34.250  22.346  27.783  1.00  0.00     0.028 A 
ATOM     12  C   UNL A   1      32.990  22.934  27.772  1.00  0.00     0.018 A 
BRANCH  10  13
ATOM     13  N   UNL A   1      35.965  21.777  26.124  1.00  0.00    -0.279 N 
ATOM     14  H   UNL A   1      36.642  21.120  26.404  1.00  0.00     0.180 HD
BRANCH  13  15
ATOM     15  S   UNL A   1      36.487  22.959  25.068  1.00  0.00     0.261 S 
ATOM     16  O   UNL A   1      37.435  23.794  25.776  1.00  0.00    -0.201 OA
ATOM     17  O   UNL A   1      36.868  22.248  23.866  1.00  0.00    -0.201 OA
BRANCH  15  18
ATOM     18  C   UNL A   1      35.116  24.016  24.605  1.00  0.00     0.088 A 
ATOM     19  C   UNL A   1      34.860  25.261  25.206  1.00  0.00     0.022 A 
ATOM     20  C   UNL A   1      34.435  23.639  23.438  1.00  0.00     0.026 A 
ATOM     21  C   UNL A   1      34.109  26.228  24.520  1.00  0.00     0.005 A 
ATOM     22  C   UNL A   1      33.654  24.586  22.802  1.00  0.00    -0.043 A 
ATOM     23  C   UNL A   1      33.567  25.893  23.290  1.00  0.00    -0.045 A 
ATOM     24  C   UNL A   1      32.862  24.440  21.542  1.00  0.00     0.036 C 
ATOM     25  C   UNL A   1      32.874  26.777  22.297  1.00  0.00     0.036 C 
ATOM     26  C   UNL A   1      32.891  25.886  21.039  1.00  0.00     0.010 C 
ENDBRANCH  15  18
ENDBRANCH  13  15
ENDBRANCH  10  13
ENDBRANCH   4   6
ENDBRANCH   3   4
ENDBRANCH   2   3
ENDBRANCH   1   2
BRANCH   1  27
ATOM     27  O   UNL A   1      32.324  27.944  27.271  1.00  0.00    -0.374 OA
BRANCH  27  28
ATOM     28  C   UNL A   1      32.273  29.345  27.077  1.00  0.00     0.202 C 
BRANCH  28  29
ATOM     29  C   UNL A   1      33.651  29.978  26.836  1.00  0.00     0.261 C 
BRANCH  29  30
ATOM     30  O   UNL A   1      33.952  30.905  27.897  1.00  0.00    -0.460 OA
BRANCH  30  31
ATOM     31  C   UNL A   1      35.234  31.360  27.935  1.00  0.00     0.338 C 
ATOM     32  O   UNL A   1      35.602  32.471  27.594  1.00  0.00    -0.246 OA
BRANCH  31  33
ATOM     33  C   UNL A   1      36.160  30.217  28.179  1.00  0.00     0.060 A 
ATOM     34  C   UNL A   1      36.282  29.675  29.472  1.00  0.00     0.016 A 
ATOM     35  C   UNL A   1      37.111  29.914  27.209  1.00  0.00     0.016 A 
ATOM     36  C   UNL A   1      37.441  28.970  29.835  1.00  0.00     0.010 A 
ATOM     37  C   UNL A   1      38.286  29.310  27.599  1.00  0.00     0.010 A 
ATOM     38  C   UNL A   1      38.485  28.870  28.918  1.00  0.00    -0.014 A 
BRANCH  38  39
ATOM     39  C   UNL A   1      39.856  28.433  29.207  1.00  0.00     0.031 A 
ATOM     40  C   UNL A   1      40.250  27.050  28.831  1.00  0.00     0.074 A 
ATOM     41  C   UNL A   1      40.826  29.336  29.509  1.00  0.00     0.049 A 
ATOM     42  N   UNL A   1      41.412  26.555  29.071  1.00  0.00    -0.248 NA
ATOM     43  C   UNL A   1      39.363  26.080  28.188  1.00  0.00     0.031 C 
ATOM     44  C   UNL A   1      42.269  29.217  29.263  1.00  0.00     0.029 A 
ATOM     45  N   UNL A   1      40.727  30.604  30.105  1.00  0.00    -0.354 N 
ATOM     46  C   UNL A   1      41.547  25.402  28.339  1.00  0.00     0.074 A 
ATOM     47  C   UNL A   1      40.208  25.078  27.920  1.00  0.00     0.031 C 
ATOM     48  C   UNL A   1      42.925  30.167  29.950  1.00  0.00     0.029 A 
ATOM     49  C   UNL A   1      41.941  30.855  30.764  1.00  0.00     0.049 A 
ATOM     50  H   UNL A   1      39.948  31.205  30.068  1.00  0.00     0.167 HD
ATOM     51  C   UNL A   1      42.808  24.948  28.098  1.00  0.00     0.037 A 
ATOM     52  C   UNL A   1      41.982  31.060  32.107  1.00  0.00     0.037 A 
ATOM     53  C   UNL A   1      43.779  25.683  28.925  1.00  0.00     0.049 A 
ATOM     54  C   UNL A   1      42.791  29.966  32.727  1.00  0.00     0.074 A 
ATOM     55  C   UNL A   1      44.761  26.618  28.654  1.00  0.00     0.029 A 
ATOM     56  N   UNL A   1      43.598  25.698  30.311  1.00  0.00    -0.354 N 
ATOM     57  N   UNL A   1      42.939  28.805  32.147  1.00  0.00    -0.248 NA
ATOM     58  C   UNL A   1      43.585  30.099  33.941  1.00  0.00     0.031 C 
ATOM     59  C   UNL A   1      45.093  27.263  29.884  1.00  0.00     0.029 A 
ATOM     60  C   UNL A   1      44.349  26.691  30.907  1.00  0.00     0.049 A 
ATOM     61  H   UNL A   1      43.010  25.077  30.801  1.00  0.00     0.167 HD
ATOM     62  C   UNL A   1      43.887  28.093  32.807  1.00  0.00     0.074 A 
ATOM     63  C   UNL A   1      44.228  28.917  33.955  1.00  0.00     0.031 C 
ATOM     64  C   UNL A   1      44.328  26.888  32.356  1.00  0.00     0.037 A 
BRANCH  51  65
ATOM     65  C   UNL A   1      43.211  23.944  27.034  1.00  0.00     0.064 A 
ATOM     66  C   UNL A   1      42.872  22.580  27.184  1.00  0.00     0.173 A 
ATOM     67  C   UNL A   1      44.000  24.223  25.897  1.00  0.00     0.173 A 
ATOM     68  F   UNL A   1      42.150  22.156  28.232  1.00  0.00    -0.203 F 
ATOM     69  C   UNL A   1      43.274  21.594  26.274  1.00  0.00     0.198 A 
ATOM     70  C   UNL A   1      44.359  23.245  24.960  1.00  0.00     0.198 A 
ATOM     71  F   UNL A   1      44.513  25.434  25.662  1.00  0.00    -0.203 F 
ATOM     72  F   UNL A   1      42.958  20.311  26.498  1.00  0.00    -0.200 F 
ATOM     73  C   UNL A   1      44.004  21.930  25.152  1.00  0.00     0.200 A 
ATOM     74  F   UNL A   1      45.074  23.594  23.880  1.00  0.00    -0.200 F 
ATOM     75  F   UNL A   1      44.378  20.991  24.273  1.00  0.00    -0.200 F 
ENDBRANCH  51  65
BRANCH  52  76
ATOM     76  C   UNL A   1      40.758  31.753  32.598  1.00  0.00     0.064 A 
ATOM     77  C   UNL A   1      40.613  33.103  32.208  1.00  0.00     0.173 A 
ATOM     78  C   UNL A   1      39.585  31.052  32.915  1.00  0.00     0.173 A 
ATOM     79  F   UNL A   1      41.698  33.816  31.866  1.00  0.00    -0.203 F 
ATOM     80  C   UNL A   1      39.359  33.673  31.996  1.00  0.00     0.198 A 
ATOM     81  C   UNL A   1      38.327  31.632  32.705  1.00  0.00     0.198 A 
ATOM     82  F   UNL A   1      39.644  29.761  33.271  1.00  0.00    -0.203 F 
ATOM     83  F   UNL A   1      39.265  34.903  31.467  1.00  0.00    -0.200 F 
ATOM     84  C   UNL A   1      38.216  32.922  32.206  1.00  0.00     0.200 A 
ATOM     85  F   UNL A   1      37.215  30.901  32.881  1.00  0.00    -0.200 F 
ATOM     86  F   UNL A   1      37.017  33.417  31.863  1.00  0.00    -0.200 F 
ENDBRANCH  52  76
BRANCH  64  87
ATOM     87  C   UNL A   1      44.839  25.822  33.280  1.00  0.00     0.064 A 
ATOM     88  C   UNL A   1      46.195  25.444  33.328  1.00  0.00     0.173 A 
ATOM     89  C   UNL A   1      44.016  25.286  34.293  1.00  0.00     0.173 A 
ATOM     90  F   UNL A   1      47.108  25.989  32.513  1.00  0.00    -0.203 F 
ATOM     91  C   UNL A   1      46.673  24.531  34.264  1.00  0.00     0.198 A 
ATOM     92  C   UNL A   1      44.514  24.429  35.271  1.00  0.00     0.198 A 
ATOM     93  F   UNL A   1      42.719  25.611  34.390  1.00  0.00    -0.203 F 
ATOM     94  F   UNL A   1      47.962  24.166  34.232  1.00  0.00    -0.200 F 
ATOM     95  C   UNL A   1      45.835  24.034  35.242  1.00  0.00     0.200 A 
ATOM     96  F   UNL A   1      43.708  24.011  36.257  1.00  0.00    -0.200 F 
ATOM     97  F   UNL A   1      46.310  23.196  36.173  1.00  0.00    -0.200 F 
ENDBRANCH  64  87
ENDBRANCH  38  39
ENDBRANCH  31  33
ENDBRANCH  30  31
ENDBRANCH  29  30
ENDBRANCH  28  29
ENDBRANCH  27  28
ENDBRANCH   1  27
TORSDOF 17
ENDMDL
