MODEL 1
REMARK VINA RESULT:     -11.2      0.000      0.000
REMARK SMILES O=C(OCCOCCOC(=O)[C@@]1([NH2+]C2CC2)CCC[C@@H](n2cncn2)C1)c1ccc(-c2c3nc(c(-c4c(F)c(F)c(F)c(F)c4F)c4ccc([nH]4)c(-c4c(F)c(F)c(F)c(F)c4F)c4nc(c(-c5c(F)c(F)c(F)c(F)c5F)c5ccc2[nH]5)C=C4)C=C3)cc1
REMARK SMILES IDX 6 1 5 2 4 3 3 4 2 5 1 6 27 7 28 8 89 9 29 10 88 11 30 12
REMARK SMILES IDX 31 13 32 14 82 15 33 16 87 17 81 18 83 19 34 20 86 21 80 22
REMARK SMILES IDX 79 23 35 25 67 26 47 27 66 28 48 29 51 30 65 31 84 32 49 33
REMARK SMILES IDX 50 34 64 36 85 37 52 38 36 39 37 40 45 41 38 42 39 43 43 44
REMARK SMILES IDX 46 45 40 46 41 47 44 48 42 49 68 50 69 51 77 52 70 53 71 54
REMARK SMILES IDX 75 55 78 56 72 57 73 58 76 59 74 60 53 61 54 62 62 63 55 64
REMARK SMILES IDX 56 65 60 66 63 67 57 68 58 69 61 70 59 71 7 72 8 73 9 74
REMARK SMILES IDX 10 75 11 76 12 77 17 78 26 79 18 80 20 81 19 82 13 83 14 86
REMARK SMILES IDX 15 87 16 88 21 89 22 90 25 91 23 92 24 93
REMARK H PARENT 83 24 51 35 13 84 13 85
REMARK Flexibility Score: inf
ROOT
ATOM      1  O   UNL A   1      40.185  20.289  26.481  1.00  0.00    -0.374 OA
ENDROOT
BRANCH   1   2
ATOM      2  C   UNL A   1      41.496  20.546  26.972  1.00  0.00     0.202 C 
BRANCH   2   3
ATOM      3  C   UNL A   1      42.700  19.714  26.509  1.00  0.00     0.261 C 
BRANCH   3   4
ATOM      4  O   UNL A   1      42.904  19.775  25.083  1.00  0.00    -0.460 OA
BRANCH   4   5
ATOM      5  C   UNL A   1      44.063  20.186  24.525  1.00  0.00     0.338 C 
ATOM      6  O   UNL A   1      44.604  19.536  23.632  1.00  0.00    -0.246 OA
BRANCH   5   7
ATOM      7  C   UNL A   1      44.525  21.562  24.837  1.00  0.00     0.060 A 
ATOM      8  C   UNL A   1      45.597  21.847  25.684  1.00  0.00     0.016 A 
ATOM      9  C   UNL A   1      43.747  22.611  24.339  1.00  0.00     0.016 A 
ATOM     10  C   UNL A   1      45.646  23.038  26.343  1.00  0.00     0.010 A 
ATOM     11  C   UNL A   1      43.863  23.859  24.911  1.00  0.00     0.010 A 
ATOM     12  C   UNL A   1      44.703  23.992  26.014  1.00  0.00    -0.014 A 
BRANCH  12  13
ATOM     13  C   UNL A   1      44.624  25.116  26.913  1.00  0.00     0.031 A 
ATOM     14  C   UNL A   1      45.786  26.037  26.832  1.00  0.00     0.074 A 
ATOM     15  C   UNL A   1      43.553  25.214  27.719  1.00  0.00     0.049 A 
ATOM     16  N   UNL A   1      46.574  26.431  27.779  1.00  0.00    -0.248 NA
ATOM     17  C   UNL A   1      46.228  26.428  25.480  1.00  0.00     0.031 C 
ATOM     18  C   UNL A   1      42.334  24.395  27.718  1.00  0.00     0.029 A 
ATOM     19  N   UNL A   1      43.276  26.173  28.634  1.00  0.00    -0.354 N 
ATOM     20  C   UNL A   1      47.491  27.281  27.167  1.00  0.00     0.074 A 
ATOM     21  C   UNL A   1      47.338  27.112  25.746  1.00  0.00     0.031 C 
ATOM     22  C   UNL A   1      41.358  25.051  28.378  1.00  0.00     0.029 A 
ATOM     23  C   UNL A   1      41.927  26.251  28.952  1.00  0.00     0.049 A 
ATOM     24  H   UNL A   1      43.961  26.754  29.034  1.00  0.00     0.167 HD
ATOM     25  C   UNL A   1      48.120  28.263  27.864  1.00  0.00     0.037 A 
ATOM     26  C   UNL A   1      41.341  27.346  29.492  1.00  0.00     0.037 A 
ATOM     27  C   UNL A   1      48.205  27.955  29.264  1.00  0.00     0.049 A 
ATOM     28  C   UNL A   1      42.427  28.145  30.127  1.00  0.00     0.074 A 
ATOM     29  C   UNL A   1      48.829  26.960  29.993  1.00  0.00     0.029 A 
ATOM     30  N   UNL A   1      47.290  28.520  30.117  1.00  0.00    -0.354 N 
ATOM     31  N   UNL A   1      43.113  27.729  31.160  1.00  0.00    -0.248 NA
ATOM     32  C   UNL A   1      43.085  29.161  29.313  1.00  0.00     0.031 C 
ATOM     33  C   UNL A   1      47.928  26.659  31.056  1.00  0.00     0.029 A 
ATOM     34  C   UNL A   1      46.836  27.520  30.942  1.00  0.00     0.049 A 
ATOM     35  H   UNL A   1      47.012  29.464  30.135  1.00  0.00     0.167 HD
ATOM     36  C   UNL A   1      44.421  28.125  30.908  1.00  0.00     0.074 A 
ATOM     37  C   UNL A   1      44.330  29.052  29.783  1.00  0.00     0.031 C 
ATOM     38  C   UNL A   1      45.483  27.449  31.438  1.00  0.00     0.037 A 
BRANCH  25  39
ATOM     39  C   UNL A   1      48.288  29.652  27.309  1.00  0.00     0.064 A 
ATOM     40  C   UNL A   1      49.556  30.257  27.327  1.00  0.00     0.173 A 
ATOM     41  C   UNL A   1      47.201  30.517  27.042  1.00  0.00     0.173 A 
ATOM     42  F   UNL A   1      50.654  29.534  27.597  1.00  0.00    -0.203 F 
ATOM     43  C   UNL A   1      49.713  31.635  27.156  1.00  0.00     0.198 A 
ATOM     44  C   UNL A   1      47.367  31.879  26.818  1.00  0.00     0.198 A 
ATOM     45  F   UNL A   1      45.928  30.106  27.100  1.00  0.00    -0.203 F 
ATOM     46  F   UNL A   1      50.925  32.189  27.300  1.00  0.00    -0.200 F 
ATOM     47  C   UNL A   1      48.619  32.445  26.908  1.00  0.00     0.200 A 
ATOM     48  F   UNL A   1      46.290  32.646  26.599  1.00  0.00    -0.200 F 
ATOM     49  F   UNL A   1      48.760  33.772  26.806  1.00  0.00    -0.200 F 
ENDBRANCH  25  39
BRANCH  26  50
ATOM     50  C   UNL A   1      40.034  27.903  29.074  1.00  0.00     0.064 A 
ATOM     51  C   UNL A   1      38.978  28.030  29.986  1.00  0.00     0.173 A 
ATOM     52  C   UNL A   1      39.862  28.534  27.822  1.00  0.00     0.173 A 
ATOM     53  F   UNL A   1      39.089  27.508  31.216  1.00  0.00    -0.203 F 
ATOM     54  C   UNL A   1      37.817  28.741  29.664  1.00  0.00     0.198 A 
ATOM     55  C   UNL A   1      38.699  29.231  27.498  1.00  0.00     0.198 A 
ATOM     56  F   UNL A   1      40.850  28.563  26.917  1.00  0.00    -0.203 F 
ATOM     57  F   UNL A   1      36.846  28.882  30.577  1.00  0.00    -0.200 F 
ATOM     58  C   UNL A   1      37.680  29.342  28.422  1.00  0.00     0.200 A 
ATOM     59  F   UNL A   1      38.598  29.838  26.306  1.00  0.00    -0.200 F 
ATOM     60  F   UNL A   1      36.587  30.060  28.132  1.00  0.00    -0.200 F 
ENDBRANCH  26  50
BRANCH  38  61
ATOM     61  C   UNL A   1      45.187  26.366  32.438  1.00  0.00     0.064 A 
ATOM     62  C   UNL A   1      45.033  26.612  33.815  1.00  0.00     0.173 A 
ATOM     63  C   UNL A   1      44.891  25.078  31.980  1.00  0.00     0.173 A 
ATOM     64  F   UNL A   1      45.184  27.847  34.310  1.00  0.00    -0.203 F 
ATOM     65  C   UNL A   1      44.650  25.603  34.697  1.00  0.00     0.198 A 
ATOM     66  C   UNL A   1      44.473  24.079  32.857  1.00  0.00     0.198 A 
ATOM     67  F   UNL A   1      44.952  24.803  30.668  1.00  0.00    -0.203 F 
ATOM     68  F   UNL A   1      44.517  25.866  36.005  1.00  0.00    -0.200 F 
ATOM     69  C   UNL A   1      44.364  24.338  34.214  1.00  0.00     0.200 A 
ATOM     70  F   UNL A   1      44.144  22.871  32.380  1.00  0.00    -0.200 F 
ATOM     71  F   UNL A   1      43.952  23.376  35.053  1.00  0.00    -0.200 F 
ENDBRANCH  38  61
ENDBRANCH  12  13
ENDBRANCH   5   7
ENDBRANCH   4   5
ENDBRANCH   3   4
ENDBRANCH   2   3
ENDBRANCH   1   2
BRANCH   1  72
ATOM     72  C   UNL A   1      39.363  21.407  26.097  1.00  0.00     0.202 C 
BRANCH  72  73
ATOM     73  C   UNL A   1      38.081  21.225  25.265  1.00  0.00     0.261 C 
BRANCH  73  74
ATOM     74  O   UNL A   1      37.025  22.152  25.574  1.00  0.00    -0.459 OA
BRANCH  74  75
ATOM     75  C   UNL A   1      36.242  22.492  24.506  1.00  0.00     0.368 C 
ATOM     76  O   UNL A   1      36.693  22.996  23.480  1.00  0.00    -0.245 OA
BRANCH  75  77
ATOM     77  C   UNL A   1      34.751  22.090  24.669  1.00  0.00     0.196 C 
ATOM     78  C   UNL A   1      34.050  22.448  23.342  1.00  0.00     0.081 C 
ATOM     79  C   UNL A   1      34.617  20.540  24.824  1.00  0.00     0.108 C 
ATOM     80  C   UNL A   1      32.591  22.029  23.307  1.00  0.00     0.009 C 
ATOM     81  C   UNL A   1      33.179  19.982  24.739  1.00  0.00     0.116 C 
ATOM     82  C   UNL A   1      32.457  20.524  23.488  1.00  0.00     0.028 C 
BRANCH  77  83
ATOM     83  N   UNL A   1      34.139  22.704  25.865  1.00  0.00    -0.330 N 
ATOM     84  H   UNL A   1      34.601  22.271  26.665  1.00  0.00     0.347 HD
ATOM     85  H   UNL A   1      33.149  22.540  25.681  1.00  0.00     0.347 HD
BRANCH  83  86
ATOM     86  C   UNL A   1      34.140  24.141  26.136  1.00  0.00     0.183 C 
ATOM     87  C   UNL A   1      33.997  25.269  25.159  1.00  0.00     0.071 C 
ATOM     88  C   UNL A   1      32.872  24.944  26.096  1.00  0.00     0.071 C 
ENDBRANCH  83  86
ENDBRANCH  77  83
BRANCH  81  89
ATOM     89  N   UNL A   1      33.163  18.512  24.773  1.00  0.00    -0.250 N 
ATOM     90  C   UNL A   1      32.628  17.697  25.725  1.00  0.00     0.220 A 
ATOM     91  N   UNL A   1      33.653  17.777  23.752  1.00  0.00    -0.160 NA
ATOM     92  N   UNL A   1      32.742  16.441  25.351  1.00  0.00    -0.224 NA
ATOM     93  C   UNL A   1      33.360  16.536  24.140  1.00  0.00     0.246 A 
ENDBRANCH  81  89
ENDBRANCH  75  77
ENDBRANCH  74  75
ENDBRANCH  73  74
ENDBRANCH  72  73
ENDBRANCH   1  72
TORSDOF 17
ENDMDL
MODEL 2
REMARK VINA RESULT:     -11.1      3.409      5.628
REMARK SMILES O=C(OCCOCCOC(=O)[C@@]1([NH2+]C2CC2)CCC[C@@H](n2cncn2)C1)c1ccc(-c2c3nc(c(-c4c(F)c(F)c(F)c(F)c4F)c4ccc([nH]4)c(-c4c(F)c(F)c(F)c(F)c4F)c4nc(c(-c5c(F)c(F)c(F)c(F)c5F)c5ccc2[nH]5)C=C4)C=C3)cc1
REMARK SMILES IDX 6 1 5 2 4 3 3 4 2 5 1 6 27 7 28 8 89 9 29 10 88 11 30 12
REMARK SMILES IDX 31 13 32 14 82 15 33 16 87 17 81 18 83 19 34 20 86 21 80 22
REMARK SMILES IDX 79 23 35 25 67 26 47 27 66 28 48 29 51 30 65 31 84 32 49 33
REMARK SMILES IDX 50 34 64 36 85 37 52 38 36 39 37 40 45 41 38 42 39 43 43 44
REMARK SMILES IDX 46 45 40 46 41 47 44 48 42 49 68 50 69 51 77 52 70 53 71 54
REMARK SMILES IDX 75 55 78 56 72 57 73 58 76 59 74 60 53 61 54 62 62 63 55 64
REMARK SMILES IDX 56 65 60 66 63 67 57 68 58 69 61 70 59 71 7 72 8 73 9 74
REMARK SMILES IDX 10 75 11 76 12 77 17 78 26 79 18 80 20 81 19 82 13 83 14 86
REMARK SMILES IDX 15 87 16 88 21 89 22 90 25 91 23 92 24 93
REMARK H PARENT 83 24 51 35 13 84 13 85
REMARK Flexibility Score: inf
ROOT
ATOM      1  O   UNL A   1      36.045  21.237  24.874  1.00  0.00    -0.374 OA
ENDROOT
BRANCH   1   2
ATOM      2  C   UNL A   1      37.352  21.772  24.708  1.00  0.00     0.202 C 
BRANCH   2   3
ATOM      3  C   UNL A   1      38.480  21.450  25.699  1.00  0.00     0.261 C 
BRANCH   3   4
ATOM      4  O   UNL A   1      38.925  22.610  26.431  1.00  0.00    -0.460 OA
BRANCH   4   5
ATOM      5  C   UNL A   1      40.143  22.690  27.009  1.00  0.00     0.338 C 
ATOM      6  O   UNL A   1      40.799  21.678  27.250  1.00  0.00    -0.246 OA
BRANCH   5   7
ATOM      7  C   UNL A   1      40.769  24.031  27.109  1.00  0.00     0.060 A 
ATOM      8  C   UNL A   1      41.890  24.309  27.893  1.00  0.00     0.016 A 
ATOM      9  C   UNL A   1      40.103  25.082  26.469  1.00  0.00     0.016 A 
ATOM     10  C   UNL A   1      42.094  25.569  28.368  1.00  0.00     0.010 A 
ATOM     11  C   UNL A   1      40.378  26.377  26.848  1.00  0.00     0.010 A 
ATOM     12  C   UNL A   1      41.258  26.570  27.910  1.00  0.00    -0.014 A 
BRANCH  12  13
ATOM     13  C   UNL A   1      41.334  27.814  28.633  1.00  0.00     0.031 A 
ATOM     14  C   UNL A   1      42.548  28.615  28.332  1.00  0.00     0.074 A 
ATOM     15  C   UNL A   1      40.343  28.116  29.489  1.00  0.00     0.049 A 
ATOM     16  N   UNL A   1      43.437  29.075  29.152  1.00  0.00    -0.248 NA
ATOM     17  C   UNL A   1      42.904  28.768  26.909  1.00  0.00     0.031 C 
ATOM     18  C   UNL A   1      39.072  27.409  29.698  1.00  0.00     0.029 A 
ATOM     19  N   UNL A   1      40.212  29.216  30.268  1.00  0.00    -0.354 N 
ATOM     20  C   UNL A   1      44.359  29.748  28.354  1.00  0.00     0.074 A 
ATOM     21  C   UNL A   1      44.078  29.390  26.990  1.00  0.00     0.031 C 
ATOM     22  C   UNL A   1      38.203  28.232  30.320  1.00  0.00     0.029 A 
ATOM     23  C   UNL A   1      38.902  29.452  30.665  1.00  0.00     0.049 A 
ATOM     24  H   UNL A   1      40.967  29.791  30.526  1.00  0.00     0.167 HD
ATOM     25  C   UNL A   1      45.113  30.765  28.850  1.00  0.00     0.037 A 
ATOM     26  C   UNL A   1      38.443  30.657  31.075  1.00  0.00     0.037 A 
ATOM     27  C   UNL A   1      45.290  30.657  30.270  1.00  0.00     0.049 A 
ATOM     28  C   UNL A   1      39.632  31.448  31.503  1.00  0.00     0.074 A 
ATOM     29  C   UNL A   1      45.899  29.729  31.094  1.00  0.00     0.029 A 
ATOM     30  N   UNL A   1      44.491  31.412  31.092  1.00  0.00    -0.354 N 
ATOM     31  N   UNL A   1      40.369  31.129  32.535  1.00  0.00    -0.248 NA
ATOM     32  C   UNL A   1      40.291  32.277  30.501  1.00  0.00     0.031 C 
ATOM     33  C   UNL A   1      45.070  29.660  32.252  1.00  0.00     0.029 A 
ATOM     34  C   UNL A   1      44.037  30.584  32.087  1.00  0.00     0.049 A 
ATOM     35  H   UNL A   1      44.284  32.369  30.987  1.00  0.00     0.167 HD
ATOM     36  C   UNL A   1      41.676  31.375  32.135  1.00  0.00     0.074 A 
ATOM     37  C   UNL A   1      41.560  32.134  30.892  1.00  0.00     0.031 C 
ATOM     38  C   UNL A   1      42.728  30.697  32.684  1.00  0.00     0.037 A 
BRANCH  25  39
ATOM     39  C   UNL A   1      45.333  32.041  28.082  1.00  0.00     0.064 A 
ATOM     40  C   UNL A   1      44.231  32.843  27.740  1.00  0.00     0.173 A 
ATOM     41  C   UNL A   1      46.542  32.345  27.413  1.00  0.00     0.173 A 
ATOM     42  F   UNL A   1      43.029  32.623  28.294  1.00  0.00    -0.203 F 
ATOM     43  C   UNL A   1      44.320  33.830  26.755  1.00  0.00     0.198 A 
ATOM     44  C   UNL A   1      46.641  33.364  26.474  1.00  0.00     0.198 A 
ATOM     45  F   UNL A   1      47.645  31.599  27.555  1.00  0.00    -0.203 F 
ATOM     46  F   UNL A   1      43.218  34.490  26.373  1.00  0.00    -0.200 F 
ATOM     47  C   UNL A   1      45.522  34.086  26.119  1.00  0.00     0.200 A 
ATOM     48  F   UNL A   1      47.811  33.580  25.857  1.00  0.00    -0.200 F 
ATOM     49  F   UNL A   1      45.595  34.987  25.132  1.00  0.00    -0.200 F 
ENDBRANCH  25  39
BRANCH  26  50
ATOM     50  C   UNL A   1      37.149  31.255  30.672  1.00  0.00     0.064 A 
ATOM     51  C   UNL A   1      36.187  31.605  31.627  1.00  0.00     0.173 A 
ATOM     52  C   UNL A   1      36.917  31.704  29.352  1.00  0.00     0.173 A 
ATOM     53  F   UNL A   1      36.363  31.266  32.912  1.00  0.00    -0.203 F 
ATOM     54  C   UNL A   1      35.057  32.356  31.284  1.00  0.00     0.198 A 
ATOM     55  C   UNL A   1      35.785  32.441  29.010  1.00  0.00     0.198 A 
ATOM     56  F   UNL A   1      37.824  31.514  28.384  1.00  0.00    -0.203 F 
ATOM     57  F   UNL A   1      34.180  32.714  32.232  1.00  0.00    -0.200 F 
ATOM     58  C   UNL A   1      34.859  32.774  29.977  1.00  0.00     0.200 A 
ATOM     59  F   UNL A   1      35.627  32.869  27.748  1.00  0.00    -0.200 F 
ATOM     60  F   UNL A   1      33.800  33.532  29.659  1.00  0.00    -0.200 F 
ENDBRANCH  26  50
BRANCH  38  61
ATOM     61  C   UNL A   1      42.439  29.798  33.854  1.00  0.00     0.064 A 
ATOM     62  C   UNL A   1      42.001  28.468  33.713  1.00  0.00     0.173 A 
ATOM     63  C   UNL A   1      42.769  30.231  35.143  1.00  0.00     0.173 A 
ATOM     64  F   UNL A   1      41.780  27.947  32.501  1.00  0.00    -0.203 F 
ATOM     65  C   UNL A   1      41.851  27.631  34.816  1.00  0.00     0.198 A 
ATOM     66  C   UNL A   1      42.653  29.381  36.241  1.00  0.00     0.198 A 
ATOM     67  F   UNL A   1      43.260  31.466  35.329  1.00  0.00    -0.203 F 
ATOM     68  F   UNL A   1      41.425  26.370  34.652  1.00  0.00    -0.200 F 
ATOM     69  C   UNL A   1      42.183  28.088  36.080  1.00  0.00     0.200 A 
ATOM     70  F   UNL A   1      43.028  29.809  37.454  1.00  0.00    -0.200 F 
ATOM     71  F   UNL A   1      42.083  27.271  37.138  1.00  0.00    -0.200 F 
ENDBRANCH  38  61
ENDBRANCH  12  13
ENDBRANCH   5   7
ENDBRANCH   4   5
ENDBRANCH   3   4
ENDBRANCH   2   3
ENDBRANCH   1   2
BRANCH   1  72
ATOM     72  C   UNL A   1      34.930  21.962  24.321  1.00  0.00     0.202 C 
BRANCH  72  73
ATOM     73  C   UNL A   1      35.127  23.205  23.434  1.00  0.00     0.261 C 
BRANCH  73  74
ATOM     74  O   UNL A   1      34.566  24.419  23.966  1.00  0.00    -0.459 OA
BRANCH  74  75
ATOM     75  C   UNL A   1      33.381  24.790  23.393  1.00  0.00     0.368 C 
ATOM     76  O   UNL A   1      33.045  24.439  22.264  1.00  0.00    -0.245 OA
BRANCH  75  77
ATOM     77  C   UNL A   1      32.460  25.610  24.335  1.00  0.00     0.196 C 
ATOM     78  C   UNL A   1      33.387  26.411  25.273  1.00  0.00     0.081 C 
ATOM     79  C   UNL A   1      31.650  26.670  23.520  1.00  0.00     0.108 C 
ATOM     80  C   UNL A   1      32.633  27.343  26.205  1.00  0.00     0.009 C 
ATOM     81  C   UNL A   1      30.889  27.720  24.359  1.00  0.00     0.116 C 
ATOM     82  C   UNL A   1      31.820  28.356  25.412  1.00  0.00     0.028 C 
BRANCH  77  83
ATOM     83  N   UNL A   1      31.480  24.754  25.035  1.00  0.00    -0.330 N 
ATOM     84  H   UNL A   1      30.773  24.517  24.338  1.00  0.00     0.347 HD
ATOM     85  H   UNL A   1      31.247  25.342  25.836  1.00  0.00     0.347 HD
BRANCH  83  86
ATOM     86  C   UNL A   1      31.821  23.497  25.700  1.00  0.00     0.183 C 
ATOM     87  C   UNL A   1      32.416  23.301  27.061  1.00  0.00     0.071 C 
ATOM     88  C   UNL A   1      30.978  22.951  26.816  1.00  0.00     0.071 C 
ENDBRANCH  83  86
ENDBRANCH  77  83
BRANCH  81  89
ATOM     89  N   UNL A   1      30.259  28.743  23.512  1.00  0.00    -0.250 N 
ATOM     90  C   UNL A   1      29.717  28.592  22.270  1.00  0.00     0.220 A 
ATOM     91  N   UNL A   1      30.085  30.009  23.946  1.00  0.00    -0.160 NA
ATOM     92  N   UNL A   1      29.178  29.726  21.879  1.00  0.00    -0.224 NA
ATOM     93  C   UNL A   1      29.413  30.558  22.933  1.00  0.00     0.246 A 
ENDBRANCH  81  89
ENDBRANCH  75  77
ENDBRANCH  74  75
ENDBRANCH  73  74
ENDBRANCH  72  73
ENDBRANCH   1  72
TORSDOF 17
ENDMDL
MODEL 3
REMARK VINA RESULT:     -11.0      4.695      9.199
REMARK SMILES O=C(OCCOCCOC(=O)[C@@]1([NH2+]C2CC2)CCC[C@@H](n2cncn2)C1)c1ccc(-c2c3nc(c(-c4c(F)c(F)c(F)c(F)c4F)c4ccc([nH]4)c(-c4c(F)c(F)c(F)c(F)c4F)c4nc(c(-c5c(F)c(F)c(F)c(F)c5F)c5ccc2[nH]5)C=C4)C=C3)cc1
REMARK SMILES IDX 6 1 5 2 4 3 3 4 2 5 1 6 27 7 28 8 89 9 29 10 88 11 30 12
REMARK SMILES IDX 31 13 32 14 82 15 33 16 87 17 81 18 83 19 34 20 86 21 80 22
REMARK SMILES IDX 79 23 35 25 67 26 47 27 66 28 48 29 51 30 65 31 84 32 49 33
REMARK SMILES IDX 50 34 64 36 85 37 52 38 36 39 37 40 45 41 38 42 39 43 43 44
REMARK SMILES IDX 46 45 40 46 41 47 44 48 42 49 68 50 69 51 77 52 70 53 71 54
REMARK SMILES IDX 75 55 78 56 72 57 73 58 76 59 74 60 53 61 54 62 62 63 55 64
REMARK SMILES IDX 56 65 60 66 63 67 57 68 58 69 61 70 59 71 7 72 8 73 9 74
REMARK SMILES IDX 10 75 11 76 12 77 17 78 26 79 18 80 20 81 19 82 13 83 14 86
REMARK SMILES IDX 15 87 16 88 21 89 22 90 25 91 23 92 24 93
REMARK H PARENT 83 24 51 35 13 84 13 85
REMARK Flexibility Score: inf
ROOT
ATOM      1  O   UNL A   1      33.929  30.594  27.975  1.00  0.00    -0.374 OA
ENDROOT
BRANCH   1   2
ATOM      2  C   UNL A   1      34.582  31.847  27.806  1.00  0.00     0.202 C 
BRANCH   2   3
ATOM      3  C   UNL A   1      35.976  32.108  28.393  1.00  0.00     0.261 C 
BRANCH   3   4
ATOM      4  O   UNL A   1      36.959  31.157  27.936  1.00  0.00    -0.460 OA
BRANCH   4   5
ATOM      5  C   UNL A   1      37.619  30.326  28.771  1.00  0.00     0.338 C 
ATOM      6  O   UNL A   1      37.221  30.130  29.918  1.00  0.00    -0.246 OA
BRANCH   5   7
ATOM      7  C   UNL A   1      38.680  29.468  28.188  1.00  0.00     0.060 A 
ATOM      8  C   UNL A   1      38.573  28.082  28.055  1.00  0.00     0.016 A 
ATOM      9  C   UNL A   1      39.892  30.094  27.879  1.00  0.00     0.016 A 
ATOM     10  C   UNL A   1      39.696  27.311  28.033  1.00  0.00     0.010 A 
ATOM     11  C   UNL A   1      41.024  29.324  27.732  1.00  0.00     0.010 A 
ATOM     12  C   UNL A   1      40.916  27.957  27.977  1.00  0.00    -0.014 A 
BRANCH  12  13
ATOM     13  C   UNL A   1      42.066  27.124  28.226  1.00  0.00     0.031 A 
ATOM     14  C   UNL A   1      42.711  27.363  29.542  1.00  0.00     0.074 A 
ATOM     15  C   UNL A   1      42.439  26.252  27.274  1.00  0.00     0.049 A 
ATOM     16  N   UNL A   1      43.944  27.661  29.796  1.00  0.00    -0.248 NA
ATOM     17  C   UNL A   1      41.816  27.452  30.711  1.00  0.00     0.031 C 
ATOM     18  C   UNL A   1      41.739  25.904  26.031  1.00  0.00     0.029 A 
ATOM     19  N   UNL A   1      43.479  25.384  27.292  1.00  0.00    -0.354 N 
ATOM     20  C   UNL A   1      44.016  27.778  31.182  1.00  0.00     0.074 A 
ATOM     21  C   UNL A   1      42.665  27.805  31.673  1.00  0.00     0.031 C 
ATOM     22  C   UNL A   1      42.212  24.728  25.569  1.00  0.00     0.029 A 
ATOM     23  C   UNL A   1      43.325  24.328  26.403  1.00  0.00     0.049 A 
ATOM     24  H   UNL A   1      44.263  25.490  27.876  1.00  0.00     0.167 HD
ATOM     25  C   UNL A   1      45.181  27.567  31.849  1.00  0.00     0.037 A 
ATOM     26  C   UNL A   1      43.979  23.148  26.512  1.00  0.00     0.037 A 
ATOM     27  C   UNL A   1      46.326  27.810  31.017  1.00  0.00     0.049 A 
ATOM     28  C   UNL A   1      45.181  23.399  27.357  1.00  0.00     0.074 A 
ATOM     29  C   UNL A   1      46.828  28.927  30.377  1.00  0.00     0.029 A 
ATOM     30  N   UNL A   1      46.956  26.738  30.437  1.00  0.00    -0.354 N 
ATOM     31  N   UNL A   1      46.171  24.166  26.983  1.00  0.00    -0.248 NA
ATOM     32  C   UNL A   1      45.046  23.216  28.798  1.00  0.00     0.031 C 
ATOM     33  C   UNL A   1      47.346  28.445  29.139  1.00  0.00     0.029 A 
ATOM     34  C   UNL A   1      47.175  27.061  29.121  1.00  0.00     0.049 A 
ATOM     35  H   UNL A   1      47.206  25.896  30.882  1.00  0.00     0.167 HD
ATOM     36  C   UNL A   1      46.534  24.870  28.125  1.00  0.00     0.074 A 
ATOM     37  C   UNL A   1      45.843  24.200  29.223  1.00  0.00     0.031 C 
ATOM     38  C   UNL A   1      47.123  26.100  28.045  1.00  0.00     0.037 A 
BRANCH  25  39
ATOM     39  C   UNL A   1      45.237  26.765  33.121  1.00  0.00     0.064 A 
ATOM     40  C   UNL A   1      45.887  27.297  34.248  1.00  0.00     0.173 A 
ATOM     41  C   UNL A   1      44.944  25.382  33.180  1.00  0.00     0.173 A 
ATOM     42  F   UNL A   1      46.236  28.592  34.286  1.00  0.00    -0.203 F 
ATOM     43  C   UNL A   1      46.271  26.489  35.322  1.00  0.00     0.198 A 
ATOM     44  C   UNL A   1      45.279  24.593  34.274  1.00  0.00     0.198 A 
ATOM     45  F   UNL A   1      44.426  24.715  32.141  1.00  0.00    -0.203 F 
ATOM     46  F   UNL A   1      46.995  27.012  36.321  1.00  0.00    -0.200 F 
ATOM     47  C   UNL A   1      45.973  25.138  35.332  1.00  0.00     0.200 A 
ATOM     48  F   UNL A   1      44.996  23.283  34.252  1.00  0.00    -0.200 F 
ATOM     49  F   UNL A   1      46.395  24.352  36.329  1.00  0.00    -0.200 F 
ENDBRANCH  25  39
BRANCH  26  50
ATOM     50  C   UNL A   1      43.363  21.816  26.318  1.00  0.00     0.064 A 
ATOM     51  C   UNL A   1      43.883  20.908  25.386  1.00  0.00     0.173 A 
ATOM     52  C   UNL A   1      42.383  21.313  27.203  1.00  0.00     0.173 A 
ATOM     53  F   UNL A   1      44.857  21.293  24.549  1.00  0.00    -0.203 F 
ATOM     54  C   UNL A   1      43.448  19.580  25.338  1.00  0.00     0.198 A 
ATOM     55  C   UNL A   1      41.941  19.993  27.146  1.00  0.00     0.198 A 
ATOM     56  F   UNL A   1      41.895  22.066  28.199  1.00  0.00    -0.203 F 
ATOM     57  F   UNL A   1      44.001  18.727  24.465  1.00  0.00    -0.200 F 
ATOM     58  C   UNL A   1      42.479  19.123  26.219  1.00  0.00     0.200 A 
ATOM     59  F   UNL A   1      41.030  19.558  28.030  1.00  0.00    -0.200 F 
ATOM     60  F   UNL A   1      42.096  17.839  26.202  1.00  0.00    -0.200 F 
ENDBRANCH  26  50
BRANCH  38  61
ATOM     61  C   UNL A   1      47.520  26.593  26.681  1.00  0.00     0.064 A 
ATOM     62  C   UNL A   1      48.747  26.271  26.073  1.00  0.00     0.173 A 
ATOM     63  C   UNL A   1      46.576  27.269  25.900  1.00  0.00     0.173 A 
ATOM     64  F   UNL A   1      49.653  25.524  26.717  1.00  0.00    -0.203 F 
ATOM     65  C   UNL A   1      49.034  26.652  24.764  1.00  0.00     0.198 A 
ATOM     66  C   UNL A   1      46.850  27.618  24.579  1.00  0.00     0.198 A 
ATOM     67  F   UNL A   1      45.361  27.540  26.402  1.00  0.00    -0.203 F 
ATOM     68  F   UNL A   1      50.216  26.337  24.214  1.00  0.00    -0.200 F 
ATOM     69  C   UNL A   1      48.081  27.322  24.016  1.00  0.00     0.200 A 
ATOM     70  F   UNL A   1      45.906  28.217  23.840  1.00  0.00    -0.200 F 
ATOM     71  F   UNL A   1      48.337  27.652  22.742  1.00  0.00    -0.200 F 
ENDBRANCH  38  61
ENDBRANCH  12  13
ENDBRANCH   5   7
ENDBRANCH   4   5
ENDBRANCH   3   4
ENDBRANCH   2   3
ENDBRANCH   1   2
BRANCH   1  72
ATOM     72  C   UNL A   1      33.782  29.734  26.830  1.00  0.00     0.202 C 
BRANCH  72  73
ATOM     73  C   UNL A   1      32.414  29.494  26.164  1.00  0.00     0.261 C 
BRANCH  73  74
ATOM     74  O   UNL A   1      32.297  28.242  25.464  1.00  0.00    -0.459 OA
BRANCH  74  75
ATOM     75  C   UNL A   1      32.593  28.312  24.131  1.00  0.00     0.368 C 
ATOM     76  O   UNL A   1      33.744  28.349  23.702  1.00  0.00    -0.245 OA
BRANCH  75  77
ATOM     77  C   UNL A   1      31.346  28.242  23.208  1.00  0.00     0.196 C 
ATOM     78  C   UNL A   1      30.241  27.525  24.013  1.00  0.00     0.081 C 
ATOM     79  C   UNL A   1      30.802  29.679  22.914  1.00  0.00     0.108 C 
ATOM     80  C   UNL A   1      28.915  27.457  23.276  1.00  0.00     0.009 C 
ATOM     81  C   UNL A   1      29.423  29.743  22.223  1.00  0.00     0.116 C 
ATOM     82  C   UNL A   1      28.401  28.855  22.963  1.00  0.00     0.028 C 
BRANCH  77  83
ATOM     83  N   UNL A   1      31.654  27.616  21.906  1.00  0.00    -0.330 N 
ATOM     84  H   UNL A   1      32.532  28.035  21.599  1.00  0.00     0.347 HD
ATOM     85  H   UNL A   1      30.786  27.790  21.398  1.00  0.00     0.347 HD
BRANCH  83  86
ATOM     86  C   UNL A   1      31.810  26.175  21.709  1.00  0.00     0.183 C 
ATOM     87  C   UNL A   1      32.481  25.463  20.574  1.00  0.00     0.071 C 
ATOM     88  C   UNL A   1      33.131  25.496  21.925  1.00  0.00     0.071 C 
ENDBRANCH  83  86
ENDBRANCH  77  83
BRANCH  81  89
ATOM     89  N   UNL A   1      28.940  31.126  22.098  1.00  0.00    -0.250 N 
ATOM     90  C   UNL A   1      28.257  31.690  21.062  1.00  0.00     0.220 A 
ATOM     91  N   UNL A   1      29.079  32.015  23.104  1.00  0.00    -0.160 NA
ATOM     92  N   UNL A   1      27.931  32.927  21.365  1.00  0.00    -0.224 NA
ATOM     93  C   UNL A   1      28.439  33.081  22.621  1.00  0.00     0.246 A 
ENDBRANCH  81  89
ENDBRANCH  75  77
ENDBRANCH  74  75
ENDBRANCH  73  74
ENDBRANCH  72  73
ENDBRANCH   1  72
TORSDOF 17
ENDMDL
