MODEL 1
REMARK VINA RESULT:     -10.5      0.000      0.000
REMARK SMILES C[C@H](Sc1ccnc(C(=O)OCCOCCOC(=O)c2ccc(-c3c4nc(c(-c5c(F)c(F)c(F)c(F)c5F)c5ccc([nH]5)c(-c5c(F)c(F)c(F)c(F)c5F)c5nc(c(-c6c(F)c(F)c(F)c(F)c6F)c6ccc3[nH]6)C=C5)C=C4)cc2)c1)[C@@H](C)O
REMARK SMILES IDX 13 1 12 2 11 3 9 4 10 5 8 6 4 7 5 8 83 9 6 10 7 11 3 12 2 13
REMARK SMILES IDX 1 14 84 15 85 16 86 17 14 19 15 20 16 21 17 22 18 23 19 24
REMARK SMILES IDX 20 25 21 26 82 27 22 28 81 29 23 30 24 31 25 32 75 33 26 34
REMARK SMILES IDX 80 35 74 36 76 37 27 38 79 39 73 40 72 41 28 43 60 44 40 45
REMARK SMILES IDX 59 46 41 47 44 48 58 49 77 50 42 51 43 52 57 54 78 55 45 56
REMARK SMILES IDX 29 57 30 58 38 59 31 60 32 61 36 62 39 63 33 64 34 65 37 66
REMARK SMILES IDX 35 67 61 68 62 69 70 70 63 71 64 72 68 73 71 74 65 75 66 76
REMARK SMILES IDX 69 77 67 78 46 79 47 80 55 81 48 82 49 83 53 84 56 85 50 86
REMARK SMILES IDX 51 87 54 88 52 89
REMARK H PARENT 86 18 76 42 44 53
REMARK Flexibility Score: inf
ROOT
ATOM      1  C   UNL A   1      42.955  19.501  25.686  1.00  0.00     0.202 C 
ENDROOT
BRANCH   1   2
ATOM      2  C   UNL A   1      42.273  19.238  27.032  1.00  0.00     0.261 C 
BRANCH   2   3
ATOM      3  O   UNL A   1      41.150  20.121  27.209  1.00  0.00    -0.459 OA
BRANCH   3   4
ATOM      4  C   UNL A   1      40.208  20.057  26.230  1.00  0.00     0.357 C 
ATOM      5  O   UNL A   1      39.937  19.081  25.549  1.00  0.00    -0.244 OA
BRANCH   4   6
ATOM      6  C   UNL A   1      39.442  21.336  26.209  1.00  0.00     0.149 A 
ATOM      7  C   UNL A   1      37.487  22.639  25.721  1.00  0.00     0.012 A 
ATOM      8  C   UNL A   1      38.169  23.747  26.219  1.00  0.00     0.035 A 
ATOM      9  C   UNL A   1      38.152  21.406  25.698  1.00  0.00     0.051 A 
ATOM     10  C   UNL A   1      39.461  23.586  26.693  1.00  0.00     0.113 A 
ATOM     11  N   UNL A   1      40.108  22.410  26.703  1.00  0.00    -0.249 NA
BRANCH   7  12
ATOM     12  S   UNL A   1      35.806  22.645  25.104  1.00  0.00    -0.120 SA
BRANCH  12  13
ATOM     13  C   UNL A   1      34.773  21.723  26.335  1.00  0.00     0.077 C 
ATOM     14  C   UNL A   1      34.159  22.631  27.411  1.00  0.00     0.022 C 
BRANCH  13  15
ATOM     15  C   UNL A   1      33.784  20.711  25.700  1.00  0.00     0.124 C 
ATOM     16  C   UNL A   1      34.445  19.728  24.737  1.00  0.00     0.039 C 
BRANCH  15  17
ATOM     17  O   UNL A   1      33.133  19.949  26.723  1.00  0.00    -0.392 OA
ATOM     18  H   UNL A   1      33.789  19.657  27.375  1.00  0.00     0.210 HD
ENDBRANCH  15  17
ENDBRANCH  13  15
ENDBRANCH  12  13
ENDBRANCH   7  12
ENDBRANCH   4   6
ENDBRANCH   3   4
ENDBRANCH   2   3
ENDBRANCH   1   2
BRANCH   1  19
ATOM     19  O   UNL A   1      43.918  20.555  25.683  1.00  0.00    -0.374 OA
BRANCH  19  20
ATOM     20  C   UNL A   1      43.425  21.879  25.460  1.00  0.00     0.202 C 
BRANCH  20  21
ATOM     21  C   UNL A   1      44.306  22.764  24.571  1.00  0.00     0.261 C 
BRANCH  21  22
ATOM     22  O   UNL A   1      43.787  24.105  24.481  1.00  0.00    -0.460 OA
BRANCH  22  23
ATOM     23  C   UNL A   1      44.549  25.054  25.073  1.00  0.00     0.338 C 
ATOM     24  O   UNL A   1      45.699  25.363  24.799  1.00  0.00    -0.246 OA
BRANCH  23  25
ATOM     25  C   UNL A   1      43.735  25.823  26.033  1.00  0.00     0.060 A 
ATOM     26  C   UNL A   1      44.028  27.184  26.183  1.00  0.00     0.016 A 
ATOM     27  C   UNL A   1      42.752  25.218  26.820  1.00  0.00     0.016 A 
ATOM     28  C   UNL A   1      43.373  27.937  27.153  1.00  0.00     0.010 A 
ATOM     29  C   UNL A   1      42.100  25.975  27.801  1.00  0.00     0.010 A 
ATOM     30  C   UNL A   1      42.433  27.328  27.995  1.00  0.00    -0.014 A 
BRANCH  30  31
ATOM     31  C   UNL A   1      41.905  28.072  29.164  1.00  0.00     0.031 A 
ATOM     32  C   UNL A   1      42.634  27.983  30.475  1.00  0.00     0.074 A 
ATOM     33  C   UNL A   1      40.805  28.836  29.054  1.00  0.00     0.049 A 
ATOM     34  N   UNL A   1      42.339  28.524  31.630  1.00  0.00    -0.248 NA
ATOM     35  C   UNL A   1      43.862  27.172  30.486  1.00  0.00     0.031 C 
ATOM     36  C   UNL A   1      40.032  29.030  27.830  1.00  0.00     0.029 A 
ATOM     37  N   UNL A   1      40.145  29.587  29.994  1.00  0.00    -0.354 N 
ATOM     38  C   UNL A   1      43.338  28.116  32.504  1.00  0.00     0.074 A 
ATOM     39  C   UNL A   1      44.231  27.259  31.755  1.00  0.00     0.031 C 
ATOM     40  C   UNL A   1      38.993  29.840  28.096  1.00  0.00     0.029 A 
ATOM     41  C   UNL A   1      39.013  30.196  29.514  1.00  0.00     0.049 A 
ATOM     42  H   UNL A   1      40.453  29.679  30.925  1.00  0.00     0.167 HD
ATOM     43  C   UNL A   1      43.501  28.437  33.810  1.00  0.00     0.037 A 
ATOM     44  C   UNL A   1      38.089  30.940  30.153  1.00  0.00     0.037 A 
ATOM     45  C   UNL A   1      42.614  29.292  34.553  1.00  0.00     0.049 A 
ATOM     46  C   UNL A   1      38.258  31.231  31.621  1.00  0.00     0.074 A 
ATOM     47  C   UNL A   1      42.706  29.696  35.873  1.00  0.00     0.029 A 
ATOM     48  N   UNL A   1      41.460  29.868  34.039  1.00  0.00    -0.354 N 
ATOM     49  N   UNL A   1      39.219  30.867  32.433  1.00  0.00    -0.248 NA
ATOM     50  C   UNL A   1      37.210  32.040  32.261  1.00  0.00     0.031 C 
ATOM     51  C   UNL A   1      41.584  30.476  36.172  1.00  0.00     0.029 A 
ATOM     52  C   UNL A   1      40.819  30.602  35.024  1.00  0.00     0.049 A 
ATOM     53  H   UNL A   1      41.145  29.770  33.112  1.00  0.00     0.167 HD
ATOM     54  C   UNL A   1      38.911  31.422  33.667  1.00  0.00     0.074 A 
ATOM     55  C   UNL A   1      37.675  32.158  33.497  1.00  0.00     0.031 C 
ATOM     56  C   UNL A   1      39.591  31.333  34.837  1.00  0.00     0.037 A 
BRANCH  43  57
ATOM     57  C   UNL A   1      44.675  27.835  34.527  1.00  0.00     0.064 A 
ATOM     58  C   UNL A   1      44.585  26.594  35.174  1.00  0.00     0.173 A 
ATOM     59  C   UNL A   1      45.910  28.500  34.547  1.00  0.00     0.173 A 
ATOM     60  F   UNL A   1      43.423  25.925  35.195  1.00  0.00    -0.203 F 
ATOM     61  C   UNL A   1      45.683  26.053  35.840  1.00  0.00     0.198 A 
ATOM     62  C   UNL A   1      47.012  27.943  35.190  1.00  0.00     0.198 A 
ATOM     63  F   UNL A   1      46.049  29.688  33.941  1.00  0.00    -0.203 F 
ATOM     64  F   UNL A   1      45.562  24.890  36.493  1.00  0.00    -0.200 F 
ATOM     65  C   UNL A   1      46.896  26.726  35.843  1.00  0.00     0.200 A 
ATOM     66  F   UNL A   1      48.186  28.589  35.183  1.00  0.00    -0.200 F 
ATOM     67  F   UNL A   1      47.951  26.203  36.481  1.00  0.00    -0.200 F 
ENDBRANCH  43  57
BRANCH  44  68
ATOM     68  C   UNL A   1      36.916  31.460  29.404  1.00  0.00     0.064 A 
ATOM     69  C   UNL A   1      36.817  32.815  29.063  1.00  0.00     0.173 A 
ATOM     70  C   UNL A   1      35.866  30.611  29.022  1.00  0.00     0.173 A 
ATOM     71  F   UNL A   1      37.783  33.670  29.431  1.00  0.00    -0.203 F 
ATOM     72  C   UNL A   1      35.708  33.304  28.375  1.00  0.00     0.198 A 
ATOM     73  C   UNL A   1      34.771  31.096  28.312  1.00  0.00     0.198 A 
ATOM     74  F   UNL A   1      35.912  29.307  29.328  1.00  0.00    -0.203 F 
ATOM     75  F   UNL A   1      35.620  34.611  28.095  1.00  0.00    -0.200 F 
ATOM     76  C   UNL A   1      34.689  32.444  27.995  1.00  0.00     0.200 A 
ATOM     77  F   UNL A   1      33.794  30.259  27.937  1.00  0.00    -0.200 F 
ATOM     78  F   UNL A   1      33.626  32.914  27.329  1.00  0.00    -0.200 F 
ENDBRANCH  44  68
BRANCH  56  79
ATOM     79  C   UNL A   1      39.035  32.075  36.019  1.00  0.00     0.064 A 
ATOM     80  C   UNL A   1      38.179  31.456  36.941  1.00  0.00     0.173 A 
ATOM     81  C   UNL A   1      39.400  33.410  36.255  1.00  0.00     0.173 A 
ATOM     82  F   UNL A   1      37.788  30.187  36.752  1.00  0.00    -0.203 F 
ATOM     83  C   UNL A   1      37.691  32.153  38.044  1.00  0.00     0.198 A 
ATOM     84  C   UNL A   1      38.934  34.094  37.373  1.00  0.00     0.198 A 
ATOM     85  F   UNL A   1      40.223  34.045  35.407  1.00  0.00    -0.203 F 
ATOM     86  F   UNL A   1      36.839  31.555  38.888  1.00  0.00    -0.200 F 
ATOM     87  C   UNL A   1      38.074  33.468  38.263  1.00  0.00     0.200 A 
ATOM     88  F   UNL A   1      39.317  35.359  37.590  1.00  0.00    -0.200 F 
ATOM     89  F   UNL A   1      37.611  34.134  39.329  1.00  0.00    -0.200 F 
ENDBRANCH  56  79
ENDBRANCH  30  31
ENDBRANCH  23  25
ENDBRANCH  22  23
ENDBRANCH  21  22
ENDBRANCH  20  21
ENDBRANCH  19  20
ENDBRANCH   1  19
TORSDOF 18
ENDMDL
MODEL 2
REMARK VINA RESULT:     -10.3      3.716      8.928
REMARK SMILES C[C@H](Sc1ccnc(C(=O)OCCOCCOC(=O)c2ccc(-c3c4nc(c(-c5c(F)c(F)c(F)c(F)c5F)c5ccc([nH]5)c(-c5c(F)c(F)c(F)c(F)c5F)c5nc(c(-c6c(F)c(F)c(F)c(F)c6F)c6ccc3[nH]6)C=C5)C=C4)cc2)c1)[C@@H](C)O
REMARK SMILES IDX 13 1 12 2 11 3 9 4 10 5 8 6 4 7 5 8 83 9 6 10 7 11 3 12 2 13
REMARK SMILES IDX 1 14 84 15 85 16 86 17 14 19 15 20 16 21 17 22 18 23 19 24
REMARK SMILES IDX 20 25 21 26 82 27 22 28 81 29 23 30 24 31 25 32 75 33 26 34
REMARK SMILES IDX 80 35 74 36 76 37 27 38 79 39 73 40 72 41 28 43 60 44 40 45
REMARK SMILES IDX 59 46 41 47 44 48 58 49 77 50 42 51 43 52 57 54 78 55 45 56
REMARK SMILES IDX 29 57 30 58 38 59 31 60 32 61 36 62 39 63 33 64 34 65 37 66
REMARK SMILES IDX 35 67 61 68 62 69 70 70 63 71 64 72 68 73 71 74 65 75 66 76
REMARK SMILES IDX 69 77 67 78 46 79 47 80 55 81 48 82 49 83 53 84 56 85 50 86
REMARK SMILES IDX 51 87 54 88 52 89
REMARK H PARENT 86 18 76 42 44 53
REMARK Flexibility Score: inf
ROOT
ATOM      1  C   UNL A   1      31.290  28.115  24.664  1.00  0.00     0.202 C 
ENDROOT
BRANCH   1   2
ATOM      2  C   UNL A   1      32.568  27.798  23.880  1.00  0.00     0.261 C 
BRANCH   2   3
ATOM      3  O   UNL A   1      32.841  26.385  23.912  1.00  0.00    -0.459 OA
BRANCH   3   4
ATOM      4  C   UNL A   1      33.268  25.909  25.112  1.00  0.00     0.357 C 
ATOM      5  O   UNL A   1      33.970  26.499  25.917  1.00  0.00    -0.244 OA
BRANCH   4   6
ATOM      6  C   UNL A   1      32.622  24.590  25.369  1.00  0.00     0.149 A 
ATOM      7  C   UNL A   1      32.118  22.317  24.790  1.00  0.00     0.012 A 
ATOM      8  C   UNL A   1      31.370  22.241  25.964  1.00  0.00     0.035 A 
ATOM      9  C   UNL A   1      32.742  23.531  24.478  1.00  0.00     0.051 A 
ATOM     10  C   UNL A   1      31.293  23.355  26.784  1.00  0.00     0.113 A 
ATOM     11  N   UNL A   1      31.902  24.520  26.517  1.00  0.00    -0.249 NA
BRANCH   7  12
ATOM     12  S   UNL A   1      32.365  20.976  23.629  1.00  0.00    -0.120 SA
BRANCH  12  13
ATOM     13  C   UNL A   1      33.460  19.734  24.460  1.00  0.00     0.077 C 
ATOM     14  C   UNL A   1      34.669  20.366  25.164  1.00  0.00     0.022 C 
BRANCH  13  15
ATOM     15  C   UNL A   1      32.695  18.682  25.305  1.00  0.00     0.124 C 
ATOM     16  C   UNL A   1      33.055  17.239  24.961  1.00  0.00     0.039 C 
BRANCH  15  17
ATOM     17  O   UNL A   1      32.964  18.879  26.699  1.00  0.00    -0.392 OA
ATOM     18  H   UNL A   1      33.448  19.711  26.820  1.00  0.00     0.210 HD
ENDBRANCH  15  17
ENDBRANCH  13  15
ENDBRANCH  12  13
ENDBRANCH   7  12
ENDBRANCH   4   6
ENDBRANCH   3   4
ENDBRANCH   2   3
ENDBRANCH   1   2
BRANCH   1  19
ATOM     19  O   UNL A   1      31.440  29.057  25.725  1.00  0.00    -0.374 OA
BRANCH  19  20
ATOM     20  C   UNL A   1      31.353  30.441  25.376  1.00  0.00     0.202 C 
BRANCH  20  21
ATOM     21  C   UNL A   1      31.604  31.424  26.526  1.00  0.00     0.261 C 
BRANCH  21  22
ATOM     22  O   UNL A   1      32.781  31.069  27.276  1.00  0.00    -0.460 OA
BRANCH  22  23
ATOM     23  C   UNL A   1      33.594  32.106  27.587  1.00  0.00     0.338 C 
ATOM     24  O   UNL A   1      33.298  33.290  27.653  1.00  0.00    -0.246 OA
BRANCH  23  25
ATOM     25  C   UNL A   1      34.910  31.599  28.019  1.00  0.00     0.060 A 
ATOM     26  C   UNL A   1      35.011  30.234  28.315  1.00  0.00     0.016 A 
ATOM     27  C   UNL A   1      36.006  32.446  28.196  1.00  0.00     0.016 A 
ATOM     28  C   UNL A   1      36.194  29.717  28.835  1.00  0.00     0.010 A 
ATOM     29  C   UNL A   1      37.193  31.927  28.727  1.00  0.00     0.010 A 
ATOM     30  C   UNL A   1      37.280  30.568  29.081  1.00  0.00    -0.014 A 
BRANCH  30  31
ATOM     31  C   UNL A   1      38.451  30.062  29.837  1.00  0.00     0.031 A 
ATOM     32  C   UNL A   1      38.674  30.539  31.244  1.00  0.00     0.074 A 
ATOM     33  C   UNL A   1      39.293  29.170  29.286  1.00  0.00     0.049 A 
ATOM     34  N   UNL A   1      39.642  30.252  32.078  1.00  0.00    -0.248 NA
ATOM     35  C   UNL A   1      37.668  31.467  31.785  1.00  0.00     0.031 C 
ATOM     36  C   UNL A   1      39.164  28.607  27.944  1.00  0.00     0.029 A 
ATOM     37  N   UNL A   1      40.428  28.589  29.791  1.00  0.00    -0.354 N 
ATOM     38  C   UNL A   1      39.365  30.967  33.237  1.00  0.00     0.074 A 
ATOM     39  C   UNL A   1      38.157  31.723  32.990  1.00  0.00     0.031 C 
ATOM     40  C   UNL A   1      40.190  27.767  27.726  1.00  0.00     0.029 A 
ATOM     41  C   UNL A   1      41.061  27.757  28.901  1.00  0.00     0.049 A 
ATOM     42  H   UNL A   1      40.759  28.753  30.703  1.00  0.00     0.167 HD
ATOM     43  C   UNL A   1      40.052  30.981  34.404  1.00  0.00     0.037 A 
ATOM     44  C   UNL A   1      42.220  27.080  29.017  1.00  0.00     0.037 A 
ATOM     45  C   UNL A   1      41.253  30.226  34.649  1.00  0.00     0.049 A 
ATOM     46  C   UNL A   1      43.000  27.162  30.303  1.00  0.00     0.074 A 
ATOM     47  C   UNL A   1      42.009  30.155  35.806  1.00  0.00     0.029 A 
ATOM     48  N   UNL A   1      41.879  29.416  33.713  1.00  0.00    -0.354 N 
ATOM     49  N   UNL A   1      42.719  27.816  31.403  1.00  0.00    -0.248 NA
ATOM     50  C   UNL A   1      44.262  26.408  30.362  1.00  0.00     0.031 C 
ATOM     51  C   UNL A   1      43.119  29.342  35.555  1.00  0.00     0.029 A 
ATOM     52  C   UNL A   1      43.027  28.863  34.258  1.00  0.00     0.049 A 
ATOM     53  H   UNL A   1      41.555  29.257  32.797  1.00  0.00     0.167 HD
ATOM     54  C   UNL A   1      43.747  27.532  32.292  1.00  0.00     0.074 A 
ATOM     55  C   UNL A   1      44.657  26.638  31.606  1.00  0.00     0.031 C 
ATOM     56  C   UNL A   1      43.920  27.971  33.564  1.00  0.00     0.037 A 
BRANCH  43  57
ATOM     57  C   UNL A   1      39.533  31.866  35.499  1.00  0.00     0.064 A 
ATOM     58  C   UNL A   1      38.604  31.403  36.443  1.00  0.00     0.173 A 
ATOM     59  C   UNL A   1      39.988  33.188  35.618  1.00  0.00     0.173 A 
ATOM     60  F   UNL A   1      38.128  30.151  36.364  1.00  0.00    -0.203 F 
ATOM     61  C   UNL A   1      38.128  32.241  37.449  1.00  0.00     0.198 A 
ATOM     62  C   UNL A   1      39.530  34.013  36.642  1.00  0.00     0.198 A 
ATOM     63  F   UNL A   1      40.878  33.679  34.743  1.00  0.00    -0.203 F 
ATOM     64  F   UNL A   1      37.204  31.793  38.310  1.00  0.00    -0.200 F 
ATOM     65  C   UNL A   1      38.596  33.543  37.550  1.00  0.00     0.200 A 
ATOM     66  F   UNL A   1      39.991  35.268  36.744  1.00  0.00    -0.200 F 
ATOM     67  F   UNL A   1      38.138  34.346  38.520  1.00  0.00    -0.200 F 
ENDBRANCH  43  57
BRANCH  44  68
ATOM     68  C   UNL A   1      42.716  26.266  27.877  1.00  0.00     0.064 A 
ATOM     69  C   UNL A   1      43.529  26.829  26.886  1.00  0.00     0.173 A 
ATOM     70  C   UNL A   1      42.380  24.909  27.756  1.00  0.00     0.173 A 
ATOM     71  F   UNL A   1      43.854  28.129  26.944  1.00  0.00    -0.203 F 
ATOM     72  C   UNL A   1      43.979  26.068  25.808  1.00  0.00     0.198 A 
ATOM     73  C   UNL A   1      42.852  24.144  26.693  1.00  0.00     0.198 A 
ATOM     74  F   UNL A   1      41.602  24.325  28.678  1.00  0.00    -0.203 F 
ATOM     75  F   UNL A   1      44.723  26.640  24.852  1.00  0.00    -0.200 F 
ATOM     76  C   UNL A   1      43.647  24.725  25.716  1.00  0.00     0.200 A 
ATOM     77  F   UNL A   1      42.537  22.844  26.615  1.00  0.00    -0.200 F 
ATOM     78  F   UNL A   1      44.085  23.993  24.683  1.00  0.00    -0.200 F 
ENDBRANCH  44  68
BRANCH  56  79
ATOM     79  C   UNL A   1      45.122  27.465  34.311  1.00  0.00     0.064 A 
ATOM     80  C   UNL A   1      46.333  28.171  34.321  1.00  0.00     0.173 A 
ATOM     81  C   UNL A   1      45.044  26.283  35.064  1.00  0.00     0.173 A 
ATOM     82  F   UNL A   1      46.464  29.299  33.605  1.00  0.00    -0.203 F 
ATOM     83  C   UNL A   1      47.430  27.700  35.039  1.00  0.00     0.198 A 
ATOM     84  C   UNL A   1      46.132  25.831  35.803  1.00  0.00     0.198 A 
ATOM     85  F   UNL A   1      43.905  25.575  35.094  1.00  0.00    -0.203 F 
ATOM     86  F   UNL A   1      48.591  28.367  34.998  1.00  0.00    -0.200 F 
ATOM     87  C   UNL A   1      47.326  26.535  35.784  1.00  0.00     0.200 A 
ATOM     88  F   UNL A   1      46.026  24.713  36.533  1.00  0.00    -0.200 F 
ATOM     89  F   UNL A   1      48.380  26.088  36.481  1.00  0.00    -0.200 F 
ENDBRANCH  56  79
ENDBRANCH  30  31
ENDBRANCH  23  25
ENDBRANCH  22  23
ENDBRANCH  21  22
ENDBRANCH  20  21
ENDBRANCH  19  20
ENDBRANCH   1  19
TORSDOF 18
ENDMDL
MODEL 3
REMARK VINA RESULT:     -10.1      4.515      9.670
REMARK SMILES C[C@H](Sc1ccnc(C(=O)OCCOCCOC(=O)c2ccc(-c3c4nc(c(-c5c(F)c(F)c(F)c(F)c5F)c5ccc([nH]5)c(-c5c(F)c(F)c(F)c(F)c5F)c5nc(c(-c6c(F)c(F)c(F)c(F)c6F)c6ccc3[nH]6)C=C5)C=C4)cc2)c1)[C@@H](C)O
REMARK SMILES IDX 13 1 12 2 11 3 9 4 10 5 8 6 4 7 5 8 83 9 6 10 7 11 3 12 2 13
REMARK SMILES IDX 1 14 84 15 85 16 86 17 14 19 15 20 16 21 17 22 18 23 19 24
REMARK SMILES IDX 20 25 21 26 82 27 22 28 81 29 23 30 24 31 25 32 75 33 26 34
REMARK SMILES IDX 80 35 74 36 76 37 27 38 79 39 73 40 72 41 28 43 60 44 40 45
REMARK SMILES IDX 59 46 41 47 44 48 58 49 77 50 42 51 43 52 57 54 78 55 45 56
REMARK SMILES IDX 29 57 30 58 38 59 31 60 32 61 36 62 39 63 33 64 34 65 37 66
REMARK SMILES IDX 35 67 61 68 62 69 70 70 63 71 64 72 68 73 71 74 65 75 66 76
REMARK SMILES IDX 69 77 67 78 46 79 47 80 55 81 48 82 49 83 53 84 56 85 50 86
REMARK SMILES IDX 51 87 54 88 52 89
REMARK H PARENT 86 18 76 42 44 53
REMARK Flexibility Score: inf
ROOT
ATOM      1  C   UNL A   1      35.623  33.671  28.750  1.00  0.00     0.202 C 
ENDROOT
BRANCH   1   2
ATOM      2  C   UNL A   1      36.058  32.288  28.254  1.00  0.00     0.261 C 
BRANCH   2   3
ATOM      3  O   UNL A   1      35.044  31.308  28.540  1.00  0.00    -0.459 OA
BRANCH   3   4
ATOM      4  C   UNL A   1      35.085  30.194  27.762  1.00  0.00     0.357 C 
ATOM      5  O   UNL A   1      35.952  29.334  27.774  1.00  0.00    -0.244 OA
BRANCH   4   6
ATOM      6  C   UNL A   1      33.821  30.101  26.978  1.00  0.00     0.149 A 
ATOM      7  C   UNL A   1      32.373  29.032  25.391  1.00  0.00     0.012 A 
ATOM      8  C   UNL A   1      31.468  30.070  25.600  1.00  0.00     0.035 A 
ATOM      9  C   UNL A   1      33.589  29.062  26.085  1.00  0.00     0.051 A 
ATOM     10  C   UNL A   1      31.792  31.074  26.498  1.00  0.00     0.113 A 
ATOM     11  N   UNL A   1      32.940  31.110  27.191  1.00  0.00    -0.249 NA
BRANCH   7  12
ATOM     12  S   UNL A   1      32.115  27.633  24.303  1.00  0.00    -0.120 SA
BRANCH  12  13
ATOM     13  C   UNL A   1      31.032  26.434  25.210  1.00  0.00     0.077 C 
ATOM     14  C   UNL A   1      29.694  26.171  24.502  1.00  0.00     0.022 C 
BRANCH  13  15
ATOM     15  C   UNL A   1      31.769  25.158  25.697  1.00  0.00     0.124 C 
ATOM     16  C   UNL A   1      33.251  25.377  25.983  1.00  0.00     0.039 C 
BRANCH  15  17
ATOM     17  O   UNL A   1      31.160  24.665  26.896  1.00  0.00    -0.392 OA
ATOM     18  H   UNL A   1      31.741  24.005  27.306  1.00  0.00     0.210 HD
ENDBRANCH  15  17
ENDBRANCH  13  15
ENDBRANCH  12  13
ENDBRANCH   7  12
ENDBRANCH   4   6
ENDBRANCH   3   4
ENDBRANCH   2   3
ENDBRANCH   1   2
BRANCH   1  19
ATOM     19  O   UNL A   1      34.228  33.814  29.019  1.00  0.00    -0.374 OA
BRANCH  19  20
ATOM     20  C   UNL A   1      33.596  35.002  28.534  1.00  0.00     0.202 C 
BRANCH  20  21
ATOM     21  C   UNL A   1      32.920  35.867  29.603  1.00  0.00     0.261 C 
BRANCH  21  22
ATOM     22  O   UNL A   1      32.517  35.082  30.742  1.00  0.00    -0.460 OA
BRANCH  22  23
ATOM     23  C   UNL A   1      32.788  35.638  31.945  1.00  0.00     0.338 C 
ATOM     24  O   UNL A   1      32.125  36.471  32.545  1.00  0.00    -0.246 OA
BRANCH  23  25
ATOM     25  C   UNL A   1      33.952  34.970  32.556  1.00  0.00     0.060 A 
ATOM     26  C   UNL A   1      35.198  35.596  32.423  1.00  0.00     0.016 A 
ATOM     27  C   UNL A   1      33.845  33.729  33.186  1.00  0.00     0.016 A 
ATOM     28  C   UNL A   1      36.351  34.960  32.878  1.00  0.00     0.010 A 
ATOM     29  C   UNL A   1      35.006  33.087  33.636  1.00  0.00     0.010 A 
ATOM     30  C   UNL A   1      36.266  33.684  33.452  1.00  0.00    -0.014 A 
BRANCH  30  31
ATOM     31  C   UNL A   1      37.508  32.922  33.729  1.00  0.00     0.031 A 
ATOM     32  C   UNL A   1      38.260  33.191  35.002  1.00  0.00     0.074 A 
ATOM     33  C   UNL A   1      37.947  31.986  32.871  1.00  0.00     0.049 A 
ATOM     34  N   UNL A   1      39.379  32.665  35.435  1.00  0.00    -0.248 NA
ATOM     35  C   UNL A   1      37.672  34.188  35.910  1.00  0.00     0.031 C 
ATOM     36  C   UNL A   1      37.287  31.612  31.622  1.00  0.00     0.029 A 
ATOM     37  N   UNL A   1      39.060  31.186  32.919  1.00  0.00    -0.354 N 
ATOM     38  C   UNL A   1      39.631  33.271  36.659  1.00  0.00     0.074 A 
ATOM     39  C   UNL A   1      38.566  34.224  36.887  1.00  0.00     0.031 C 
ATOM     40  C   UNL A   1      38.015  30.659  31.015  1.00  0.00     0.029 A 
ATOM     41  C   UNL A   1      39.205  30.380  31.818  1.00  0.00     0.049 A 
ATOM     42  H   UNL A   1      39.695  31.189  33.672  1.00  0.00     0.167 HD
ATOM     43  C   UNL A   1      40.652  33.043  37.519  1.00  0.00     0.037 A 
ATOM     44  C   UNL A   1      40.195  29.528  31.489  1.00  0.00     0.037 A 
ATOM     45  C   UNL A   1      41.709  32.093  37.292  1.00  0.00     0.049 A 
ATOM     46  C   UNL A   1      41.355  29.338  32.432  1.00  0.00     0.074 A 
ATOM     47  C   UNL A   1      42.775  31.774  38.114  1.00  0.00     0.029 A 
ATOM     48  N   UNL A   1      41.837  31.315  36.150  1.00  0.00    -0.354 N 
ATOM     49  N   UNL A   1      41.571  29.892  33.600  1.00  0.00    -0.248 NA
ATOM     50  C   UNL A   1      42.407  28.403  32.010  1.00  0.00     0.031 C 
ATOM     51  C   UNL A   1      43.575  30.838  37.449  1.00  0.00     0.029 A 
ATOM     52  C   UNL A   1      42.980  30.536  36.235  1.00  0.00     0.049 A 
ATOM     53  H   UNL A   1      41.209  31.316  35.393  1.00  0.00     0.167 HD
ATOM     54  C   UNL A   1      42.764  29.354  34.065  1.00  0.00     0.074 A 
ATOM     55  C   UNL A   1      43.222  28.422  33.055  1.00  0.00     0.031 C 
ATOM     56  C   UNL A   1      43.420  29.608  35.224  1.00  0.00     0.037 A 
BRANCH  43  57
ATOM     57  C   UNL A   1      40.688  33.860  38.778  1.00  0.00     0.064 A 
ATOM     58  C   UNL A   1      39.981  33.476  39.927  1.00  0.00     0.173 A 
ATOM     59  C   UNL A   1      41.458  35.031  38.841  1.00  0.00     0.173 A 
ATOM     60  F   UNL A   1      39.219  32.372  39.913  1.00  0.00    -0.203 F 
ATOM     61  C   UNL A   1      40.021  34.250  41.085  1.00  0.00     0.198 A 
ATOM     62  C   UNL A   1      41.518  35.786  40.009  1.00  0.00     0.198 A 
ATOM     63  F   UNL A   1      42.156  35.441  37.771  1.00  0.00    -0.203 F 
ATOM     64  F   UNL A   1      39.299  33.890  42.154  1.00  0.00    -0.200 F 
ATOM     65  C   UNL A   1      40.794  35.401  41.126  1.00  0.00     0.200 A 
ATOM     66  F   UNL A   1      42.274  36.893  40.050  1.00  0.00    -0.200 F 
ATOM     67  F   UNL A   1      40.833  36.142  42.241  1.00  0.00    -0.200 F 
ENDBRANCH  43  57
BRANCH  44  68
ATOM     68  C   UNL A   1      40.135  28.790  30.201  1.00  0.00     0.064 A 
ATOM     69  C   UNL A   1      39.515  27.537  30.112  1.00  0.00     0.173 A 
ATOM     70  C   UNL A   1      40.703  29.323  29.034  1.00  0.00     0.173 A 
ATOM     71  F   UNL A   1      38.982  26.975  31.207  1.00  0.00    -0.203 F 
ATOM     72  C   UNL A   1      39.475  26.839  28.906  1.00  0.00     0.198 A 
ATOM     73  C   UNL A   1      40.640  28.636  27.824  1.00  0.00     0.198 A 
ATOM     74  F   UNL A   1      41.311  30.517  29.068  1.00  0.00    -0.203 F 
ATOM     75  F   UNL A   1      38.910  25.625  28.858  1.00  0.00    -0.200 F 
ATOM     76  C   UNL A   1      40.030  27.391  27.763  1.00  0.00     0.200 A 
ATOM     77  F   UNL A   1      41.168  29.179  26.719  1.00  0.00    -0.200 F 
ATOM     78  F   UNL A   1      39.986  26.722  26.603  1.00  0.00    -0.200 F 
ENDBRANCH  44  68
BRANCH  56  79
ATOM     79  C   UNL A   1      44.687  28.844  35.483  1.00  0.00     0.064 A 
ATOM     80  C   UNL A   1      44.676  27.594  36.120  1.00  0.00     0.173 A 
ATOM     81  C   UNL A   1      45.922  29.348  35.046  1.00  0.00     0.173 A 
ATOM     82  F   UNL A   1      43.523  27.076  36.570  1.00  0.00    -0.203 F 
ATOM     83  C   UNL A   1      45.858  26.889  36.331  1.00  0.00     0.198 A 
ATOM     84  C   UNL A   1      47.097  28.627  35.233  1.00  0.00     0.198 A 
ATOM     85  F   UNL A   1      45.986  30.534  34.424  1.00  0.00    -0.203 F 
ATOM     86  F   UNL A   1      45.829  25.717  36.981  1.00  0.00    -0.200 F 
ATOM     87  C   UNL A   1      47.065  27.401  35.881  1.00  0.00     0.200 A 
ATOM     88  F   UNL A   1      48.261  29.117  34.785  1.00  0.00    -0.200 F 
ATOM     89  F   UNL A   1      48.200  26.717  36.077  1.00  0.00    -0.200 F 
ENDBRANCH  56  79
ENDBRANCH  30  31
ENDBRANCH  23  25
ENDBRANCH  22  23
ENDBRANCH  21  22
ENDBRANCH  20  21
ENDBRANCH  19  20
ENDBRANCH   1  19
TORSDOF 18
ENDMDL
