MODEL 1
REMARK VINA RESULT:     -11.3      0.000      0.000
REMARK SMILES C[C@@](NC(=O)CCOC1CC[NH2+]CC1)(C(=O)OCCOCCOC(=O)c1ccc(-c2c3nc(c(-c4c(F)c(F)c(F)c(F)c4F)c4ccc([nH]4)c(-c4c(F)c(F)c(F)c(F)c4F)c4nc(c(-c5c(F)c(F)c(F)c(F)c5F)c5ccc2[nH]5)C=C4)C=C3)cc1)C(F)(F)F
REMARK SMILES IDX 18 1 17 2 15 3 16 4 2 5 1 6 3 7 4 8 5 10 6 11 7 12 8 13 9 14
REMARK SMILES IDX 10 15 14 16 11 17 13 18 12 19 89 22 90 23 91 24 92 25 19 26
REMARK SMILES IDX 20 27 21 28 22 29 23 30 24 31 25 32 26 33 27 34 88 35 28 36
REMARK SMILES IDX 87 37 29 38 30 39 31 40 81 41 32 42 86 43 80 44 82 45 33 46
REMARK SMILES IDX 85 47 79 48 78 49 34 51 66 52 46 53 65 54 47 55 50 56 64 57
REMARK SMILES IDX 83 58 48 59 49 60 63 62 84 63 51 64 35 65 36 66 44 67 37 68
REMARK SMILES IDX 38 69 42 70 45 71 39 72 40 73 43 74 41 75 67 76 68 77 76 78
REMARK SMILES IDX 69 79 70 80 74 81 77 82 71 83 72 84 75 85 73 86 52 87 53 88
REMARK SMILES IDX 61 89 54 90 55 91 59 92 62 93 56 94 57 95 60 96 58 97
REMARK H PARENT 3 9 12 20 12 21 82 50 50 61
REMARK Flexibility Score: inf
ROOT
ATOM      1  C   UNL A   1      34.866  20.651  24.645  1.00  0.00     0.261 C 
ENDROOT
BRANCH   1   2
ATOM      2  O   UNL A   1      33.899  20.904  25.687  1.00  0.00    -0.461 OA
BRANCH   2   3
ATOM      3  C   UNL A   1      33.652  22.029  26.401  1.00  0.00     0.341 C 
ATOM      4  O   UNL A   1      34.010  22.144  27.564  1.00  0.00    -0.249 OA
BRANCH   3   5
ATOM      5  C   UNL A   1      32.903  23.198  25.485  1.00  0.00     0.231 C 
ATOM      6  C   UNL A   1      33.378  24.581  26.028  1.00  0.00     0.058 C 
BRANCH   5   7
ATOM      7  N   UNL A   1      32.880  23.339  23.661  1.00  0.00    -0.333 N 
ATOM      8  C   UNL A   1      33.035  24.481  22.184  1.00  0.00     0.223 C 
ATOM      9  H   UNL A   1      32.717  22.435  23.306  1.00  0.00     0.164 HD
ATOM     10  O   UNL A   1      33.367  24.151  21.006  1.00  0.00    -0.275 OA
BRANCH   8  11
ATOM     11  C   UNL A   1      32.874  26.179  22.118  1.00  0.00     0.128 C 
BRANCH  11  12
ATOM     12  C   UNL A   1      31.485  26.673  22.305  1.00  0.00     0.170 C 
BRANCH  12  13
ATOM     13  O   UNL A   1      31.679  27.860  23.022  1.00  0.00    -0.377 OA
BRANCH  13  14
ATOM     14  C   UNL A   1      32.250  27.491  24.278  1.00  0.00     0.129 C 
ATOM     15  C   UNL A   1      30.962  27.202  25.832  1.00  0.00     0.093 C 
ATOM     16  C   UNL A   1      33.843  28.545  24.625  1.00  0.00     0.093 C 
ATOM     17  C   UNL A   1      31.502  27.950  27.567  1.00  0.00     0.263 C 
ATOM     18  C   UNL A   1      34.165  29.215  26.353  1.00  0.00     0.263 C 
ATOM     19  N   UNL A   1      33.162  28.735  27.813  1.00  0.00    -0.346 N 
ATOM     20  H   UNL A   1      33.722  28.077  28.354  1.00  0.00     0.346 HD
ATOM     21  H   UNL A   1      32.940  29.627  28.253  1.00  0.00     0.346 HD
ENDBRANCH  13  14
ENDBRANCH  12  13
ENDBRANCH  11  12
ENDBRANCH   8  11
ENDBRANCH   5   7
BRANCH   5  22
ATOM     22  C   UNL A   1      31.443  23.078  26.046  1.00  0.00     0.422 C 
ATOM     23  F   UNL A   1      31.385  23.306  27.381  1.00  0.00    -0.168 F 
ATOM     24  F   UNL A   1      30.635  24.006  25.479  1.00  0.00    -0.168 F 
ATOM     25  F   UNL A   1      30.893  21.867  25.818  1.00  0.00    -0.168 F 
ENDBRANCH   5  22
ENDBRANCH   3   5
ENDBRANCH   2   3
ENDBRANCH   1   2
BRANCH   1  26
ATOM     26  C   UNL A   1      36.272  20.512  25.239  1.00  0.00     0.202 C 
BRANCH  26  27
ATOM     27  O   UNL A   1      37.100  21.667  25.121  1.00  0.00    -0.374 OA
BRANCH  27  28
ATOM     28  C   UNL A   1      38.408  21.582  25.671  1.00  0.00     0.202 C 
BRANCH  28  29
ATOM     29  C   UNL A   1      39.146  20.252  25.526  1.00  0.00     0.261 C 
BRANCH  29  30
ATOM     30  O   UNL A   1      40.003  19.934  26.635  1.00  0.00    -0.460 OA
BRANCH  30  31
ATOM     31  C   UNL A   1      41.268  19.625  26.261  1.00  0.00     0.338 C 
ATOM     32  O   UNL A   1      41.654  18.583  25.757  1.00  0.00    -0.246 OA
BRANCH  31  33
ATOM     33  C   UNL A   1      42.195  20.741  26.503  1.00  0.00     0.060 A 
ATOM     34  C   UNL A   1      42.443  21.101  27.831  1.00  0.00     0.016 A 
ATOM     35  C   UNL A   1      42.612  21.562  25.452  1.00  0.00     0.016 A 
ATOM     36  C   UNL A   1      43.034  22.330  28.118  1.00  0.00     0.010 A 
ATOM     37  C   UNL A   1      43.217  22.788  25.744  1.00  0.00     0.010 A 
ATOM     38  C   UNL A   1      43.383  23.203  27.078  1.00  0.00    -0.014 A 
BRANCH  38  39
ATOM     39  C   UNL A   1      43.819  24.590  27.382  1.00  0.00     0.031 A 
ATOM     40  C   UNL A   1      42.823  25.593  27.902  1.00  0.00     0.074 A 
ATOM     41  C   UNL A   1      45.102  24.951  27.202  1.00  0.00     0.049 A 
ATOM     42  N   UNL A   1      42.981  26.869  28.155  1.00  0.00    -0.248 NA
ATOM     43  C   UNL A   1      41.464  25.094  28.162  1.00  0.00     0.031 C 
ATOM     44  C   UNL A   1      46.167  24.064  26.738  1.00  0.00     0.029 A 
ATOM     45  N   UNL A   1      45.721  26.164  27.372  1.00  0.00    -0.354 N 
ATOM     46  C   UNL A   1      41.742  27.327  28.589  1.00  0.00     0.074 A 
ATOM     47  C   UNL A   1      40.834  26.201  28.531  1.00  0.00     0.031 C 
ATOM     48  C   UNL A   1      47.309  24.766  26.651  1.00  0.00     0.029 A 
ATOM     49  C   UNL A   1      47.044  26.159  27.005  1.00  0.00     0.049 A 
ATOM     50  H   UNL A   1      45.261  26.961  27.723  1.00  0.00     0.167 HD
ATOM     51  C   UNL A   1      41.398  28.571  29.003  1.00  0.00     0.037 A 
ATOM     52  C   UNL A   1      47.932  27.169  26.930  1.00  0.00     0.037 A 
ATOM     53  C   UNL A   1      42.308  29.687  29.058  1.00  0.00     0.049 A 
ATOM     54  C   UNL A   1      47.503  28.560  27.321  1.00  0.00     0.074 A 
ATOM     55  C   UNL A   1      42.064  30.980  29.492  1.00  0.00     0.029 A 
ATOM     56  N   UNL A   1      43.634  29.649  28.653  1.00  0.00    -0.354 N 
ATOM     57  N   UNL A   1      46.341  28.977  27.760  1.00  0.00    -0.248 NA
ATOM     58  C   UNL A   1      48.515  29.620  27.209  1.00  0.00     0.031 C 
ATOM     59  C   UNL A   1      43.216  31.741  29.275  1.00  0.00     0.029 A 
ATOM     60  C   UNL A   1      44.208  30.905  28.788  1.00  0.00     0.049 A 
ATOM     61  H   UNL A   1      44.099  28.849  28.318  1.00  0.00     0.167 HD
ATOM     62  C   UNL A   1      46.492  30.336  28.011  1.00  0.00     0.074 A 
ATOM     63  C   UNL A   1      47.862  30.669  27.688  1.00  0.00     0.031 C 
ATOM     64  C   UNL A   1      45.577  31.227  28.469  1.00  0.00     0.037 A 
BRANCH  51  65
ATOM     65  C   UNL A   1      39.964  28.809  29.398  1.00  0.00     0.064 A 
ATOM     66  C   UNL A   1      39.004  29.262  28.480  1.00  0.00     0.173 A 
ATOM     67  C   UNL A   1      39.536  28.535  30.707  1.00  0.00     0.173 A 
ATOM     68  F   UNL A   1      39.357  29.543  27.217  1.00  0.00    -0.203 F 
ATOM     69  C   UNL A   1      37.681  29.464  28.867  1.00  0.00     0.198 A 
ATOM     70  C   UNL A   1      38.205  28.702  31.080  1.00  0.00     0.198 A 
ATOM     71  F   UNL A   1      40.407  28.089  31.625  1.00  0.00    -0.203 F 
ATOM     72  F   UNL A   1      36.795  29.951  27.986  1.00  0.00    -0.200 F 
ATOM     73  C   UNL A   1      37.281  29.177  30.163  1.00  0.00     0.200 A 
ATOM     74  F   UNL A   1      37.818  28.403  32.328  1.00  0.00    -0.200 F 
ATOM     75  F   UNL A   1      36.005  29.364  30.530  1.00  0.00    -0.200 F 
ENDBRANCH  51  65
BRANCH  52  76
ATOM     76  C   UNL A   1      49.313  26.906  26.444  1.00  0.00     0.064 A 
ATOM     77  C   UNL A   1      50.344  26.581  27.335  1.00  0.00     0.173 A 
ATOM     78  C   UNL A   1      49.632  26.990  25.080  1.00  0.00     0.173 A 
ATOM     79  F   UNL A   1      50.094  26.509  28.651  1.00  0.00    -0.203 F 
ATOM     80  C   UNL A   1      51.647  26.377  26.886  1.00  0.00     0.198 A 
ATOM     81  C   UNL A   1      50.927  26.749  24.627  1.00  0.00     0.198 A 
ATOM     82  F   UNL A   1      48.683  27.293  24.183  1.00  0.00    -0.203 F 
ATOM     83  F   UNL A   1      52.625  26.125  27.766  1.00  0.00    -0.200 F 
ATOM     84  C   UNL A   1      51.937  26.454  25.532  1.00  0.00     0.200 A 
ATOM     85  F   UNL A   1      51.197  26.804  23.316  1.00  0.00    -0.200 F 
ATOM     86  F   UNL A   1      53.187  26.252  25.099  1.00  0.00    -0.200 F 
ENDBRANCH  52  76
BRANCH  64  87
ATOM     87  C   UNL A   1      46.037  32.641  28.701  1.00  0.00     0.064 A 
ATOM     88  C   UNL A   1      46.566  33.060  29.932  1.00  0.00     0.173 A 
ATOM     89  C   UNL A   1      45.984  33.581  27.659  1.00  0.00     0.173 A 
ATOM     90  F   UNL A   1      46.629  32.207  30.966  1.00  0.00    -0.203 F 
ATOM     91  C   UNL A   1      46.991  34.373  30.119  1.00  0.00     0.198 A 
ATOM     92  C   UNL A   1      46.447  34.882  27.839  1.00  0.00     0.198 A 
ATOM     93  F   UNL A   1      45.495  33.235  26.459  1.00  0.00    -0.203 F 
ATOM     94  F   UNL A   1      47.436  34.765  31.322  1.00  0.00    -0.200 F 
ATOM     95  C   UNL A   1      46.941  35.280  29.071  1.00  0.00     0.200 A 
ATOM     96  F   UNL A   1      46.416  35.750  26.818  1.00  0.00    -0.200 F 
ATOM     97  F   UNL A   1      47.360  36.539  29.252  1.00  0.00    -0.200 F 
ENDBRANCH  64  87
ENDBRANCH  38  39
ENDBRANCH  31  33
ENDBRANCH  30  31
ENDBRANCH  29  30
ENDBRANCH  28  29
ENDBRANCH  27  28
ENDBRANCH  26  27
ENDBRANCH   1  26
TORSDOF 20
ENDMDL
MODEL 2
REMARK VINA RESULT:     -11.2      2.151      4.327
REMARK SMILES C[C@@](NC(=O)CCOC1CC[NH2+]CC1)(C(=O)OCCOCCOC(=O)c1ccc(-c2c3nc(c(-c4c(F)c(F)c(F)c(F)c4F)c4ccc([nH]4)c(-c4c(F)c(F)c(F)c(F)c4F)c4nc(c(-c5c(F)c(F)c(F)c(F)c5F)c5ccc2[nH]5)C=C4)C=C3)cc1)C(F)(F)F
REMARK SMILES IDX 18 1 17 2 15 3 16 4 2 5 1 6 3 7 4 8 5 10 6 11 7 12 8 13 9 14
REMARK SMILES IDX 10 15 14 16 11 17 13 18 12 19 89 22 90 23 91 24 92 25 19 26
REMARK SMILES IDX 20 27 21 28 22 29 23 30 24 31 25 32 26 33 27 34 88 35 28 36
REMARK SMILES IDX 87 37 29 38 30 39 31 40 81 41 32 42 86 43 80 44 82 45 33 46
REMARK SMILES IDX 85 47 79 48 78 49 34 51 66 52 46 53 65 54 47 55 50 56 64 57
REMARK SMILES IDX 83 58 48 59 49 60 63 62 84 63 51 64 35 65 36 66 44 67 37 68
REMARK SMILES IDX 38 69 42 70 45 71 39 72 40 73 43 74 41 75 67 76 68 77 76 78
REMARK SMILES IDX 69 79 70 80 74 81 77 82 71 83 72 84 75 85 73 86 52 87 53 88
REMARK SMILES IDX 61 89 54 90 55 91 59 92 62 93 56 94 57 95 60 96 58 97
REMARK H PARENT 3 9 12 20 12 21 82 50 50 61
REMARK Flexibility Score: inf
ROOT
ATOM      1  C   UNL A   1      33.589  24.538  22.076  1.00  0.00     0.261 C 
ENDROOT
BRANCH   1   2
ATOM      2  O   UNL A   1      32.195  24.677  22.429  1.00  0.00    -0.461 OA
BRANCH   2   3
ATOM      3  C   UNL A   1      31.429  25.787  22.556  1.00  0.00     0.341 C 
ATOM      4  O   UNL A   1      31.219  26.535  21.612  1.00  0.00    -0.249 OA
BRANCH   3   5
ATOM      5  C   UNL A   1      30.784  25.930  24.083  1.00  0.00     0.231 C 
ATOM      6  C   UNL A   1      29.392  26.619  23.931  1.00  0.00     0.058 C 
BRANCH   5   7
ATOM      7  N   UNL A   1      30.573  24.609  25.331  1.00  0.00    -0.333 N 
ATOM      8  C   UNL A   1      31.416  23.498  26.581  1.00  0.00     0.223 C 
ATOM      9  H   UNL A   1      29.613  24.391  25.358  1.00  0.00     0.164 HD
ATOM     10  O   UNL A   1      30.877  22.952  27.591  1.00  0.00    -0.275 OA
BRANCH   8  11
ATOM     11  C   UNL A   1      33.065  23.069  26.697  1.00  0.00     0.128 C 
BRANCH  11  12
ATOM     12  C   UNL A   1      33.307  21.634  26.995  1.00  0.00     0.170 C 
BRANCH  12  13
ATOM     13  O   UNL A   1      33.915  21.179  25.819  1.00  0.00    -0.377 OA
BRANCH  13  14
ATOM     14  C   UNL A   1      32.956  20.353  25.156  1.00  0.00     0.129 C 
ATOM     15  C   UNL A   1      33.401  18.371  24.984  1.00  0.00     0.093 C 
ATOM     16  C   UNL A   1      32.275  21.253  23.576  1.00  0.00     0.093 C 
ATOM     17  C   UNL A   1      33.015  17.534  23.249  1.00  0.00     0.263 C 
ATOM     18  C   UNL A   1      32.011  20.283  21.986  1.00  0.00     0.263 C 
ATOM     19  N   UNL A   1      32.148  18.455  21.897  1.00  0.00    -0.346 N 
ATOM     20  H   UNL A   1      31.196  18.089  21.853  1.00  0.00     0.346 HD
ATOM     21  H   UNL A   1      32.742  18.299  21.084  1.00  0.00     0.346 HD
ENDBRANCH  13  14
ENDBRANCH  12  13
ENDBRANCH  11  12
ENDBRANCH   8  11
ENDBRANCH   5   7
BRANCH   5  22
ATOM     22  C   UNL A   1      31.690  27.079  24.646  1.00  0.00     0.422 C 
ATOM     23  F   UNL A   1      31.432  27.345  25.951  1.00  0.00    -0.168 F 
ATOM     24  F   UNL A   1      32.998  26.727  24.595  1.00  0.00    -0.168 F 
ATOM     25  F   UNL A   1      31.554  28.235  23.964  1.00  0.00    -0.168 F 
ENDBRANCH   5  22
ENDBRANCH   3   5
ENDBRANCH   2   3
ENDBRANCH   1   2
BRANCH   1  26
ATOM     26  C   UNL A   1      34.372  23.891  23.225  1.00  0.00     0.202 C 
BRANCH  26  27
ATOM     27  O   UNL A   1      35.488  23.096  22.830  1.00  0.00    -0.374 OA
BRANCH  27  28
ATOM     28  C   UNL A   1      36.620  23.102  23.688  1.00  0.00     0.202 C 
BRANCH  28  29
ATOM     29  C   UNL A   1      37.020  21.775  24.331  1.00  0.00     0.261 C 
BRANCH  29  30
ATOM     30  O   UNL A   1      37.336  21.874  25.730  1.00  0.00    -0.460 OA
BRANCH  30  31
ATOM     31  C   UNL A   1      38.658  21.730  25.990  1.00  0.00     0.338 C 
ATOM     32  O   UNL A   1      39.383  20.815  25.637  1.00  0.00    -0.246 OA
BRANCH  31  33
ATOM     33  C   UNL A   1      39.187  22.864  26.763  1.00  0.00     0.060 A 
ATOM     34  C   UNL A   1      38.604  24.117  26.554  1.00  0.00     0.016 A 
ATOM     35  C   UNL A   1      40.378  22.742  27.482  1.00  0.00     0.016 A 
ATOM     36  C   UNL A   1      39.258  25.268  26.992  1.00  0.00     0.010 A 
ATOM     37  C   UNL A   1      41.024  23.897  27.932  1.00  0.00     0.010 A 
ATOM     38  C   UNL A   1      40.496  25.169  27.643  1.00  0.00    -0.014 A 
BRANCH  38  39
ATOM     39  C   UNL A   1      41.290  26.393  27.925  1.00  0.00     0.031 A 
ATOM     40  C   UNL A   1      40.659  27.542  28.667  1.00  0.00     0.074 A 
ATOM     41  C   UNL A   1      42.572  26.474  27.526  1.00  0.00     0.049 A 
ATOM     42  N   UNL A   1      41.153  28.723  28.946  1.00  0.00    -0.248 NA
ATOM     43  C   UNL A   1      39.286  27.337  29.152  1.00  0.00     0.031 C 
ATOM     44  C   UNL A   1      43.304  25.418  26.833  1.00  0.00     0.029 A 
ATOM     45  N   UNL A   1      43.477  27.500  27.635  1.00  0.00    -0.354 N 
ATOM     46  C   UNL A   1      40.148  29.405  29.623  1.00  0.00     0.074 A 
ATOM     47  C   UNL A   1      39.006  28.518  29.683  1.00  0.00     0.031 C 
ATOM     48  C   UNL A   1      44.547  25.853  26.568  1.00  0.00     0.029 A 
ATOM     49  C   UNL A   1      44.680  27.233  27.029  1.00  0.00     0.049 A 
ATOM     50  H   UNL A   1      43.284  28.345  28.102  1.00  0.00     0.167 HD
ATOM     51  C   UNL A   1      40.180  30.654  30.151  1.00  0.00     0.037 A 
ATOM     52  C   UNL A   1      45.754  28.023  26.837  1.00  0.00     0.037 A 
ATOM     53  C   UNL A   1      41.322  31.531  30.087  1.00  0.00     0.049 A 
ATOM     54  C   UNL A   1      45.735  29.435  27.365  1.00  0.00     0.074 A 
ATOM     55  C   UNL A   1      41.465  32.801  30.619  1.00  0.00     0.029 A 
ATOM     56  N   UNL A   1      42.514  31.234  29.442  1.00  0.00    -0.354 N 
ATOM     57  N   UNL A   1      44.796  30.060  28.032  1.00  0.00    -0.248 NA
ATOM     58  C   UNL A   1      46.934  30.249  27.116  1.00  0.00     0.031 C 
ATOM     59  C   UNL A   1      42.709  33.304  30.227  1.00  0.00     0.029 A 
ATOM     60  C   UNL A   1      43.380  32.315  29.526  1.00  0.00     0.049 A 
ATOM     61  H   UNL A   1      42.715  30.384  28.990  1.00  0.00     0.167 HD
ATOM     62  C   UNL A   1      45.301  31.324  28.313  1.00  0.00     0.074 A 
ATOM     63  C   UNL A   1      46.636  31.371  27.756  1.00  0.00     0.031 C 
ATOM     64  C   UNL A   1      44.712  32.351  28.974  1.00  0.00     0.037 A 
BRANCH  51  65
ATOM     65  C   UNL A   1      38.931  31.167  30.816  1.00  0.00     0.064 A 
ATOM     66  C   UNL A   1      37.904  31.792  30.091  1.00  0.00     0.173 A 
ATOM     67  C   UNL A   1      38.740  30.992  32.196  1.00  0.00     0.173 A 
ATOM     68  F   UNL A   1      38.033  31.990  28.770  1.00  0.00    -0.203 F 
ATOM     69  C   UNL A   1      36.752  32.250  30.727  1.00  0.00     0.198 A 
ATOM     70  C   UNL A   1      37.572  31.417  32.822  1.00  0.00     0.198 A 
ATOM     71  F   UNL A   1      39.683  30.392  32.939  1.00  0.00    -0.203 F 
ATOM     72  F   UNL A   1      35.811  32.893  30.022  1.00  0.00    -0.200 F 
ATOM     73  C   UNL A   1      36.584  32.055  32.090  1.00  0.00     0.200 A 
ATOM     74  F   UNL A   1      37.402  31.208  34.135  1.00  0.00    -0.200 F 
ATOM     75  F   UNL A   1      35.470  32.489  32.698  1.00  0.00    -0.200 F 
ENDBRANCH  51  65
BRANCH  52  76
ATOM     76  C   UNL A   1      46.931  27.504  26.091  1.00  0.00     0.064 A 
ATOM     77  C   UNL A   1      47.997  26.887  26.760  1.00  0.00     0.173 A 
ATOM     78  C   UNL A   1      47.022  27.629  24.696  1.00  0.00     0.173 A 
ATOM     79  F   UNL A   1      47.967  26.763  28.095  1.00  0.00    -0.203 F 
ATOM     80  C   UNL A   1      49.120  26.439  26.067  1.00  0.00     0.198 A 
ATOM     81  C   UNL A   1      48.127  27.147  24.000  1.00  0.00     0.198 A 
ATOM     82  F   UNL A   1      46.028  28.208  24.006  1.00  0.00    -0.203 F 
ATOM     83  F   UNL A   1      50.149  25.906  26.738  1.00  0.00    -0.200 F 
ATOM     84  C   UNL A   1      49.181  26.563  24.687  1.00  0.00     0.200 A 
ATOM     85  F   UNL A   1      48.173  27.251  22.665  1.00  0.00    -0.200 F 
ATOM     86  F   UNL A   1      50.257  26.127  24.020  1.00  0.00    -0.200 F 
ENDBRANCH  52  76
BRANCH  64  87
ATOM     87  C   UNL A   1      45.523  33.602  29.182  1.00  0.00     0.064 A 
ATOM     88  C   UNL A   1      45.492  34.669  28.272  1.00  0.00     0.173 A 
ATOM     89  C   UNL A   1      46.314  33.748  30.333  1.00  0.00     0.173 A 
ATOM     90  F   UNL A   1      44.764  34.579  27.148  1.00  0.00    -0.203 F 
ATOM     91  C   UNL A   1      46.248  35.819  28.490  1.00  0.00     0.198 A 
ATOM     92  C   UNL A   1      47.036  34.915  30.568  1.00  0.00     0.198 A 
ATOM     93  F   UNL A   1      46.376  32.763  31.242  1.00  0.00    -0.203 F 
ATOM     94  F   UNL A   1      46.249  36.801  27.576  1.00  0.00    -0.200 F 
ATOM     95  C   UNL A   1      47.011  35.946  29.641  1.00  0.00     0.200 A 
ATOM     96  F   UNL A   1      47.755  35.043  31.691  1.00  0.00    -0.200 F 
ATOM     97  F   UNL A   1      47.727  37.057  29.853  1.00  0.00    -0.200 F 
ENDBRANCH  64  87
ENDBRANCH  38  39
ENDBRANCH  31  33
ENDBRANCH  30  31
ENDBRANCH  29  30
ENDBRANCH  28  29
ENDBRANCH  27  28
ENDBRANCH  26  27
ENDBRANCH   1  26
TORSDOF 20
ENDMDL
MODEL 3
REMARK VINA RESULT:     -11.2      3.557      7.966
REMARK SMILES C[C@@](NC(=O)CCOC1CC[NH2+]CC1)(C(=O)OCCOCCOC(=O)c1ccc(-c2c3nc(c(-c4c(F)c(F)c(F)c(F)c4F)c4ccc([nH]4)c(-c4c(F)c(F)c(F)c(F)c4F)c4nc(c(-c5c(F)c(F)c(F)c(F)c5F)c5ccc2[nH]5)C=C4)C=C3)cc1)C(F)(F)F
REMARK SMILES IDX 18 1 17 2 15 3 16 4 2 5 1 6 3 7 4 8 5 10 6 11 7 12 8 13 9 14
REMARK SMILES IDX 10 15 14 16 11 17 13 18 12 19 89 22 90 23 91 24 92 25 19 26
REMARK SMILES IDX 20 27 21 28 22 29 23 30 24 31 25 32 26 33 27 34 88 35 28 36
REMARK SMILES IDX 87 37 29 38 30 39 31 40 81 41 32 42 86 43 80 44 82 45 33 46
REMARK SMILES IDX 85 47 79 48 78 49 34 51 66 52 46 53 65 54 47 55 50 56 64 57
REMARK SMILES IDX 83 58 48 59 49 60 63 62 84 63 51 64 35 65 36 66 44 67 37 68
REMARK SMILES IDX 38 69 42 70 45 71 39 72 40 73 43 74 41 75 67 76 68 77 76 78
REMARK SMILES IDX 69 79 70 80 74 81 77 82 71 83 72 84 75 85 73 86 52 87 53 88
REMARK SMILES IDX 61 89 54 90 55 91 59 92 62 93 56 94 57 95 60 96 58 97
REMARK H PARENT 3 9 12 20 12 21 82 50 50 61
REMARK Flexibility Score: inf
ROOT
ATOM      1  C   UNL A   1      30.817  28.042  23.638  1.00  0.00     0.261 C 
ENDROOT
BRANCH   1   2
ATOM      2  O   UNL A   1      30.482  27.051  24.635  1.00  0.00    -0.461 OA
BRANCH   2   3
ATOM      3  C   UNL A   1      31.138  26.685  25.763  1.00  0.00     0.341 C 
ATOM      4  O   UNL A   1      30.779  27.066  26.867  1.00  0.00    -0.249 OA
BRANCH   3   5
ATOM      5  C   UNL A   1      32.386  25.632  25.446  1.00  0.00     0.231 C 
ATOM      6  C   UNL A   1      32.524  24.697  26.688  1.00  0.00     0.058 C 
BRANCH   5   7
ATOM      7  N   UNL A   1      32.599  24.568  23.972  1.00  0.00    -0.333 N 
ATOM      8  C   UNL A   1      32.816  22.823  23.329  1.00  0.00     0.223 C 
ATOM      9  H   UNL A   1      32.601  25.163  23.188  1.00  0.00     0.164 HD
ATOM     10  O   UNL A   1      32.528  22.405  22.167  1.00  0.00    -0.275 OA
BRANCH   8  11
ATOM     11  C   UNL A   1      33.332  21.426  24.165  1.00  0.00     0.128 C 
BRANCH  11  12
ATOM     12  C   UNL A   1      32.766  21.283  25.531  1.00  0.00     0.170 C 
BRANCH  12  13
ATOM     13  O   UNL A   1      33.915  21.172  26.325  1.00  0.00    -0.377 OA
BRANCH  13  14
ATOM     14  C   UNL A   1      35.026  21.482  25.482  1.00  0.00     0.129 C 
ATOM     15  C   UNL A   1      36.280  19.949  25.000  1.00  0.00     0.093 C 
ATOM     16  C   UNL A   1      35.838  23.157  26.035  1.00  0.00     0.093 C 
ATOM     17  C   UNL A   1      38.204  20.340  25.058  1.00  0.00     0.263 C 
ATOM     18  C   UNL A   1      37.711  23.324  26.066  1.00  0.00     0.263 C 
ATOM     19  N   UNL A   1      38.839  22.050  25.377  1.00  0.00    -0.346 N 
ATOM     20  H   UNL A   1      39.182  22.409  24.486  1.00  0.00     0.346 HD
ATOM     21  H   UNL A   1      39.526  21.914  26.118  1.00  0.00     0.346 HD
ENDBRANCH  13  14
ENDBRANCH  12  13
ENDBRANCH  11  12
ENDBRANCH   8  11
ENDBRANCH   5   7
BRANCH   5  22
ATOM     22  C   UNL A   1      33.602  26.610  25.599  1.00  0.00     0.422 C 
ATOM     23  F   UNL A   1      34.777  25.949  25.752  1.00  0.00    -0.168 F 
ATOM     24  F   UNL A   1      33.750  27.368  24.486  1.00  0.00    -0.168 F 
ATOM     25  F   UNL A   1      33.471  27.448  26.648  1.00  0.00    -0.168 F 
ENDBRANCH   5  22
ENDBRANCH   3   5
ENDBRANCH   2   3
ENDBRANCH   1   2
BRANCH   1  26
ATOM     26  C   UNL A   1      30.746  29.451  24.237  1.00  0.00     0.202 C 
BRANCH  26  27
ATOM     27  O   UNL A   1      31.904  29.865  24.958  1.00  0.00    -0.374 OA
BRANCH  27  28
ATOM     28  C   UNL A   1      31.700  30.744  26.056  1.00  0.00     0.202 C 
BRANCH  28  29
ATOM     29  C   UNL A   1      32.601  30.563  27.278  1.00  0.00     0.261 C 
BRANCH  29  30
ATOM     30  O   UNL A   1      34.005  30.676  26.991  1.00  0.00    -0.460 OA
BRANCH  30  31
ATOM     31  C   UNL A   1      34.740  31.049  28.067  1.00  0.00     0.338 C 
ATOM     32  O   UNL A   1      34.500  31.957  28.846  1.00  0.00    -0.246 OA
BRANCH  31  33
ATOM     33  C   UNL A   1      35.920  30.189  28.244  1.00  0.00     0.060 A 
ATOM     34  C   UNL A   1      36.150  29.660  29.518  1.00  0.00     0.016 A 
ATOM     35  C   UNL A   1      36.900  30.109  27.251  1.00  0.00     0.016 A 
ATOM     36  C   UNL A   1      37.397  29.123  29.831  1.00  0.00     0.010 A 
ATOM     37  C   UNL A   1      38.145  29.557  27.565  1.00  0.00     0.010 A 
ATOM     38  C   UNL A   1      38.419  29.110  28.871  1.00  0.00    -0.014 A 
BRANCH  38  39
ATOM     39  C   UNL A   1      39.803  28.732  29.259  1.00  0.00     0.031 A 
ATOM     40  C   UNL A   1      40.634  29.676  30.088  1.00  0.00     0.074 A 
ATOM     41  C   UNL A   1      40.312  27.548  28.877  1.00  0.00     0.049 A 
ATOM     42  N   UNL A   1      41.884  29.571  30.467  1.00  0.00    -0.248 NA
ATOM     43  C   UNL A   1      39.971  30.907  30.545  1.00  0.00     0.031 C 
ATOM     44  C   UNL A   1      39.598  26.535  28.104  1.00  0.00     0.029 A 
ATOM     45  N   UNL A   1      41.558  27.006  29.076  1.00  0.00    -0.354 N 
ATOM     46  C   UNL A   1      42.160  30.726  31.190  1.00  0.00     0.074 A 
ATOM     47  C   UNL A   1      40.959  31.532  31.169  1.00  0.00     0.031 C 
ATOM     48  C   UNL A   1      40.419  25.496  27.885  1.00  0.00     0.029 A 
ATOM     49  C   UNL A   1      41.730  25.792  28.459  1.00  0.00     0.049 A 
ATOM     50  H   UNL A   1      42.259  27.445  29.610  1.00  0.00     0.167 HD
ATOM     51  C   UNL A   1      43.309  31.074  31.820  1.00  0.00     0.037 A 
ATOM     52  C   UNL A   1      42.830  25.023  28.340  1.00  0.00     0.037 A 
ATOM     53  C   UNL A   1      44.502  30.265  31.837  1.00  0.00     0.049 A 
ATOM     54  C   UNL A   1      44.117  25.471  28.983  1.00  0.00     0.074 A 
ATOM     55  C   UNL A   1      45.706  30.516  32.472  1.00  0.00     0.029 A 
ATOM     56  N   UNL A   1      44.646  29.052  31.177  1.00  0.00    -0.354 N 
ATOM     57  N   UNL A   1      44.361  26.546  29.692  1.00  0.00    -0.248 NA
ATOM     58  C   UNL A   1      45.283  24.591  28.810  1.00  0.00     0.031 C 
ATOM     59  C   UNL A   1      46.602  29.498  32.132  1.00  0.00     0.029 A 
ATOM     60  C   UNL A   1      45.932  28.566  31.357  1.00  0.00     0.049 A 
ATOM     61  H   UNL A   1      43.940  28.605  30.658  1.00  0.00     0.167 HD
ATOM     62  C   UNL A   1      45.693  26.455  30.080  1.00  0.00     0.074 A 
ATOM     63  C   UNL A   1      46.199  25.213  29.538  1.00  0.00     0.031 C 
ATOM     64  C   UNL A   1      46.428  27.322  30.819  1.00  0.00     0.037 A 
BRANCH  51  65
ATOM     65  C   UNL A   1      43.352  32.408  32.516  1.00  0.00     0.064 A 
ATOM     66  C   UNL A   1      43.714  33.587  31.846  1.00  0.00     0.173 A 
ATOM     67  C   UNL A   1      42.980  32.515  33.866  1.00  0.00     0.173 A 
ATOM     68  F   UNL A   1      44.082  33.546  30.556  1.00  0.00    -0.203 F 
ATOM     69  C   UNL A   1      43.735  34.813  32.509  1.00  0.00     0.198 A 
ATOM     70  C   UNL A   1      42.967  33.746  34.515  1.00  0.00     0.198 A 
ATOM     71  F   UNL A   1      42.614  31.424  34.555  1.00  0.00    -0.203 F 
ATOM     72  F   UNL A   1      44.139  35.915  31.862  1.00  0.00    -0.200 F 
ATOM     73  C   UNL A   1      43.355  34.892  33.840  1.00  0.00     0.200 A 
ATOM     74  F   UNL A   1      42.577  33.823  35.795  1.00  0.00    -0.200 F 
ATOM     75  F   UNL A   1      43.367  36.074  34.473  1.00  0.00    -0.200 F 
ENDBRANCH  51  65
BRANCH  52  76
ATOM     76  C   UNL A   1      42.766  23.756  27.563  1.00  0.00     0.064 A 
ATOM     77  C   UNL A   1      43.163  23.711  26.220  1.00  0.00     0.173 A 
ATOM     78  C   UNL A   1      42.293  22.570  28.143  1.00  0.00     0.173 A 
ATOM     79  F   UNL A   1      43.603  24.823  25.613  1.00  0.00    -0.203 F 
ATOM     80  C   UNL A   1      43.063  22.535  25.478  1.00  0.00     0.198 A 
ATOM     81  C   UNL A   1      42.229  21.386  27.412  1.00  0.00     0.198 A 
ATOM     82  F   UNL A   1      41.904  22.556  29.426  1.00  0.00    -0.203 F 
ATOM     83  F   UNL A   1      43.395  22.535  24.180  1.00  0.00    -0.200 F 
ATOM     84  C   UNL A   1      42.603  21.372  26.077  1.00  0.00     0.200 A 
ATOM     85  F   UNL A   1      41.803  20.260  28.000  1.00  0.00    -0.200 F 
ATOM     86  F   UNL A   1      42.513  20.240  25.366  1.00  0.00    -0.200 F 
ENDBRANCH  52  76
BRANCH  64  87
ATOM     87  C   UNL A   1      47.848  26.939  31.135  1.00  0.00     0.064 A 
ATOM     88  C   UNL A   1      48.931  27.392  30.366  1.00  0.00     0.173 A 
ATOM     89  C   UNL A   1      48.131  26.134  32.251  1.00  0.00     0.173 A 
ATOM     90  F   UNL A   1      48.718  28.153  29.282  1.00  0.00    -0.203 F 
ATOM     91  C   UNL A   1      50.237  27.028  30.683  1.00  0.00     0.198 A 
ATOM     92  C   UNL A   1      49.442  25.805  32.588  1.00  0.00     0.198 A 
ATOM     93  F   UNL A   1      47.137  25.677  33.027  1.00  0.00    -0.203 F 
ATOM     94  F   UNL A   1      51.250  27.424  29.898  1.00  0.00    -0.200 F 
ATOM     95  C   UNL A   1      50.493  26.244  31.798  1.00  0.00     0.200 A 
ATOM     96  F   UNL A   1      49.687  25.065  33.677  1.00  0.00    -0.200 F 
ATOM     97  F   UNL A   1      51.751  25.904  32.106  1.00  0.00    -0.200 F 
ENDBRANCH  64  87
ENDBRANCH  38  39
ENDBRANCH  31  33
ENDBRANCH  30  31
ENDBRANCH  29  30
ENDBRANCH  28  29
ENDBRANCH  27  28
ENDBRANCH  26  27
ENDBRANCH   1  26
TORSDOF 20
ENDMDL
