MODEL 1
REMARK VINA RESULT:     -11.2      0.000      0.000
REMARK SMILES O=C(C[C@@H]1C(=O)NC(=S)N1c1ccccc1)OCCOCCOC(=O)c1ccc(-c2c3nc(c(-c4c(F)c(F)c(F)c(F)c4F)c4ccc([nH]4)c(-c4c(F)c(F)c(F)c(F)c4F)c4nc(c(-c5c(F)c(F)c(F)c(F)c5F)c5ccc2[nH]5)C=C4)C=C3)cc1
REMARK SMILES IDX 20 1 19 2 18 3 17 4 2 5 1 6 3 7 4 8 5 9 10 10 6 11 7 12 8 13
REMARK SMILES IDX 9 15 11 16 12 17 16 18 13 19 15 20 14 21 21 22 22 23 23 24
REMARK SMILES IDX 24 25 25 26 26 27 27 28 88 29 28 30 87 31 29 32 30 33 31 34
REMARK SMILES IDX 81 35 32 36 86 37 80 38 82 39 33 40 85 41 79 42 78 43 34 45
REMARK SMILES IDX 66 46 46 47 65 48 47 49 50 50 64 51 83 52 48 53 49 54 63 56
REMARK SMILES IDX 84 57 51 58 35 59 36 60 44 61 37 62 38 63 42 64 45 65 39 66
REMARK SMILES IDX 40 67 43 68 41 69 67 70 68 71 76 72 69 73 70 74 74 75 77 76
REMARK SMILES IDX 71 77 72 78 75 79 73 80 52 81 53 82 61 83 54 84 55 85 59 86
REMARK SMILES IDX 62 87 56 88 57 89 60 90 58 91
REMARK H PARENT 7 14 82 44 50 55
REMARK Flexibility Score: inf
ROOT
ATOM      1  O   UNL A   1      33.276  29.389  24.590  1.00  0.00    -0.374 OA
ENDROOT
BRANCH   1   2
ATOM      2  C   UNL A   1      33.694  28.088  24.202  1.00  0.00     0.202 C 
BRANCH   2   3
ATOM      3  C   UNL A   1      33.090  26.903  24.948  1.00  0.00     0.261 C 
BRANCH   3   4
ATOM      4  O   UNL A   1      33.601  25.628  24.542  1.00  0.00    -0.463 OA
BRANCH   4   5
ATOM      5  C   UNL A   1      33.294  24.960  23.411  1.00  0.00     0.308 C 
ATOM      6  O   UNL A   1      32.201  25.158  22.880  1.00  0.00    -0.252 OA
BRANCH   5   7
ATOM      7  C   UNL A   1      34.159  23.825  22.909  1.00  0.00     0.158 C 
BRANCH   7   8
ATOM      8  C   UNL A   1      34.170  22.517  23.669  1.00  0.00     0.190 C 
ATOM      9  C   UNL A   1      32.740  22.010  23.852  1.00  0.00     0.249 C 
ATOM     10  N   UNL A   1      34.598  22.599  25.069  1.00  0.00    -0.306 N 
ATOM     11  O   UNL A   1      31.963  21.713  22.958  1.00  0.00    -0.272 OA
ATOM     12  N   UNL A   1      32.456  21.948  25.175  1.00  0.00    -0.301 N 
ATOM     13  C   UNL A   1      33.541  22.271  25.930  1.00  0.00     0.180 C 
ATOM     14  H   UNL A   1      31.577  21.701  25.542  1.00  0.00     0.172 HD
ATOM     15  S   UNL A   1      33.463  22.284  27.587  1.00  0.00    -0.040 S 
BRANCH  10  16
ATOM     16  C   UNL A   1      35.973  22.668  25.412  1.00  0.00     0.044 A 
ATOM     17  C   UNL A   1      36.805  21.554  25.244  1.00  0.00     0.026 A 
ATOM     18  C   UNL A   1      36.532  23.847  25.915  1.00  0.00     0.026 A 
ATOM     19  C   UNL A   1      38.156  21.607  25.601  1.00  0.00     0.002 A 
ATOM     20  C   UNL A   1      37.880  23.898  26.285  1.00  0.00     0.002 A 
ATOM     21  C   UNL A   1      38.691  22.777  26.133  1.00  0.00     0.000 A 
ENDBRANCH  10  16
ENDBRANCH   7   8
ENDBRANCH   5   7
ENDBRANCH   4   5
ENDBRANCH   3   4
ENDBRANCH   2   3
ENDBRANCH   1   2
BRANCH   1  22
ATOM     22  C   UNL A   1      31.910  29.527  25.011  1.00  0.00     0.202 C 
BRANCH  22  23
ATOM     23  C   UNL A   1      31.618  30.500  26.161  1.00  0.00     0.261 C 
BRANCH  23  24
ATOM     24  O   UNL A   1      32.665  30.482  27.144  1.00  0.00    -0.460 OA
BRANCH  24  25
ATOM     25  C   UNL A   1      33.312  31.655  27.334  1.00  0.00     0.338 C 
ATOM     26  O   UNL A   1      32.835  32.779  27.322  1.00  0.00    -0.246 OA
BRANCH  25  27
ATOM     27  C   UNL A   1      34.669  31.355  27.825  1.00  0.00     0.060 A 
ATOM     28  C   UNL A   1      34.998  30.017  28.094  1.00  0.00     0.016 A 
ATOM     29  C   UNL A   1      35.604  32.374  28.007  1.00  0.00     0.016 A 
ATOM     30  C   UNL A   1      36.257  29.697  28.596  1.00  0.00     0.010 A 
ATOM     31  C   UNL A   1      36.856  32.055  28.520  1.00  0.00     0.010 A 
ATOM     32  C   UNL A   1      37.170  30.724  28.853  1.00  0.00    -0.014 A 
BRANCH  32  33
ATOM     33  C   UNL A   1      38.381  30.472  29.660  1.00  0.00     0.031 A 
ATOM     34  C   UNL A   1      39.395  29.512  29.115  1.00  0.00     0.074 A 
ATOM     35  C   UNL A   1      38.529  31.020  30.876  1.00  0.00     0.049 A 
ATOM     36  N   UNL A   1      40.418  28.954  29.703  1.00  0.00    -0.248 NA
ATOM     37  C   UNL A   1      39.204  29.103  27.714  1.00  0.00     0.031 C 
ATOM     38  C   UNL A   1      37.618  31.986  31.483  1.00  0.00     0.029 A 
ATOM     39  N   UNL A   1      39.482  30.796  31.836  1.00  0.00    -0.354 N 
ATOM     40  C   UNL A   1      40.972  28.103  28.758  1.00  0.00     0.074 A 
ATOM     41  C   UNL A   1      40.158  28.198  27.567  1.00  0.00     0.031 C 
ATOM     42  C   UNL A   1      38.031  32.242  32.734  1.00  0.00     0.029 A 
ATOM     43  C   UNL A   1      39.204  31.419  33.027  1.00  0.00     0.049 A 
ATOM     44  H   UNL A   1      40.284  30.245  31.686  1.00  0.00     0.167 HD
ATOM     45  C   UNL A   1      42.060  27.309  28.881  1.00  0.00     0.037 A 
ATOM     46  C   UNL A   1      39.802  31.291  34.227  1.00  0.00     0.037 A 
ATOM     47  C   UNL A   1      42.851  27.227  30.080  1.00  0.00     0.049 A 
ATOM     48  C   UNL A   1      40.982  30.367  34.364  1.00  0.00     0.074 A 
ATOM     49  C   UNL A   1      44.000  26.493  30.310  1.00  0.00     0.029 A 
ATOM     50  N   UNL A   1      42.557  27.894  31.263  1.00  0.00    -0.354 N 
ATOM     51  N   UNL A   1      41.530  29.586  33.464  1.00  0.00    -0.248 NA
ATOM     52  C   UNL A   1      41.631  30.309  35.680  1.00  0.00     0.031 C 
ATOM     53  C   UNL A   1      44.360  26.660  31.651  1.00  0.00     0.029 A 
ATOM     54  C   UNL A   1      43.483  27.561  32.236  1.00  0.00     0.049 A 
ATOM     55  H   UNL A   1      41.801  28.511  31.390  1.00  0.00     0.167 HD
ATOM     56  C   UNL A   1      42.604  28.967  34.091  1.00  0.00     0.074 A 
ATOM     57  C   UNL A   1      42.630  29.465  35.452  1.00  0.00     0.031 C 
ATOM     58  C   UNL A   1      43.493  28.077  33.585  1.00  0.00     0.037 A 
BRANCH  45  59
ATOM     59  C   UNL A   1      42.414  26.434  27.712  1.00  0.00     0.064 A 
ATOM     60  C   UNL A   1      41.826  25.174  27.516  1.00  0.00     0.173 A 
ATOM     61  C   UNL A   1      43.374  26.857  26.780  1.00  0.00     0.173 A 
ATOM     62  F   UNL A   1      40.913  24.712  28.384  1.00  0.00    -0.203 F 
ATOM     63  C   UNL A   1      42.224  24.352  26.464  1.00  0.00     0.198 A 
ATOM     64  C   UNL A   1      43.740  26.049  25.706  1.00  0.00     0.198 A 
ATOM     65  F   UNL A   1      43.968  28.052  26.914  1.00  0.00    -0.203 F 
ATOM     66  F   UNL A   1      41.704  23.122  26.345  1.00  0.00    -0.200 F 
ATOM     67  C   UNL A   1      43.175  24.792  25.558  1.00  0.00     0.200 A 
ATOM     68  F   UNL A   1      44.650  26.483  24.823  1.00  0.00    -0.200 F 
ATOM     69  F   UNL A   1      43.559  23.998  24.548  1.00  0.00    -0.200 F 
ENDBRANCH  45  59
BRANCH  46  70
ATOM     70  C   UNL A   1      39.266  32.049  35.387  1.00  0.00     0.064 A 
ATOM     71  C   UNL A   1      38.439  31.430  36.334  1.00  0.00     0.173 A 
ATOM     72  C   UNL A   1      39.611  33.393  35.600  1.00  0.00     0.173 A 
ATOM     73  F   UNL A   1      38.065  30.154  36.164  1.00  0.00    -0.203 F 
ATOM     74  C   UNL A   1      37.974  32.127  37.448  1.00  0.00     0.198 A 
ATOM     75  C   UNL A   1      39.169  34.079  36.728  1.00  0.00     0.198 A 
ATOM     76  F   UNL A   1      40.403  34.028  34.724  1.00  0.00    -0.203 F 
ATOM     77  F   UNL A   1      37.163  31.520  38.324  1.00  0.00    -0.200 F 
ATOM     78  C   UNL A   1      38.348  33.447  37.650  1.00  0.00     0.200 A 
ATOM     79  F   UNL A   1      39.547  35.350  36.926  1.00  0.00    -0.200 F 
ATOM     80  F   UNL A   1      37.918  34.110  38.732  1.00  0.00    -0.200 F 
ENDBRANCH  46  70
BRANCH  58  81
ATOM     81  C   UNL A   1      44.607  27.617  34.482  1.00  0.00     0.064 A 
ATOM     82  C   UNL A   1      45.800  28.339  34.617  1.00  0.00     0.173 A 
ATOM     83  C   UNL A   1      44.436  26.474  35.281  1.00  0.00     0.173 A 
ATOM     84  F   UNL A   1      46.018  29.431  33.869  1.00  0.00    -0.203 F 
ATOM     85  C   UNL A   1      46.788  27.927  35.510  1.00  0.00     0.198 A 
ATOM     86  C   UNL A   1      45.410  26.084  36.195  1.00  0.00     0.198 A 
ATOM     87  F   UNL A   1      43.309  25.752  35.196  1.00  0.00    -0.203 F 
ATOM     88  F   UNL A   1      47.937  28.612  35.597  1.00  0.00    -0.200 F 
ATOM     89  C   UNL A   1      46.588  26.808  36.304  1.00  0.00     0.200 A 
ATOM     90  F   UNL A   1      45.206  25.015  36.975  1.00  0.00    -0.200 F 
ATOM     91  F   UNL A   1      47.530  26.427  37.177  1.00  0.00    -0.200 F 
ENDBRANCH  58  81
ENDBRANCH  32  33
ENDBRANCH  25  27
ENDBRANCH  24  25
ENDBRANCH  23  24
ENDBRANCH  22  23
ENDBRANCH   1  22
TORSDOF 16
ENDMDL
MODEL 2
REMARK VINA RESULT:     -11.2      1.162      2.521
REMARK SMILES O=C(C[C@@H]1C(=O)NC(=S)N1c1ccccc1)OCCOCCOC(=O)c1ccc(-c2c3nc(c(-c4c(F)c(F)c(F)c(F)c4F)c4ccc([nH]4)c(-c4c(F)c(F)c(F)c(F)c4F)c4nc(c(-c5c(F)c(F)c(F)c(F)c5F)c5ccc2[nH]5)C=C4)C=C3)cc1
REMARK SMILES IDX 20 1 19 2 18 3 17 4 2 5 1 6 3 7 4 8 5 9 10 10 6 11 7 12 8 13
REMARK SMILES IDX 9 15 11 16 12 17 16 18 13 19 15 20 14 21 21 22 22 23 23 24
REMARK SMILES IDX 24 25 25 26 26 27 27 28 88 29 28 30 87 31 29 32 30 33 31 34
REMARK SMILES IDX 81 35 32 36 86 37 80 38 82 39 33 40 85 41 79 42 78 43 34 45
REMARK SMILES IDX 66 46 46 47 65 48 47 49 50 50 64 51 83 52 48 53 49 54 63 56
REMARK SMILES IDX 84 57 51 58 35 59 36 60 44 61 37 62 38 63 42 64 45 65 39 66
REMARK SMILES IDX 40 67 43 68 41 69 67 70 68 71 76 72 69 73 70 74 74 75 77 76
REMARK SMILES IDX 71 77 72 78 75 79 73 80 52 81 53 82 61 83 54 84 55 85 59 86
REMARK SMILES IDX 62 87 56 88 57 89 60 90 58 91
REMARK H PARENT 7 14 82 44 50 55
REMARK Flexibility Score: inf
ROOT
ATOM      1  O   UNL A   1      33.005  29.132  24.043  1.00  0.00    -0.374 OA
ENDROOT
BRANCH   1   2
ATOM      2  C   UNL A   1      32.989  28.552  22.746  1.00  0.00     0.202 C 
BRANCH   2   3
ATOM      3  C   UNL A   1      31.795  27.676  22.382  1.00  0.00     0.261 C 
BRANCH   3   4
ATOM      4  O   UNL A   1      32.055  26.269  22.444  1.00  0.00    -0.463 OA
BRANCH   4   5
ATOM      5  C   UNL A   1      32.953  25.583  21.708  1.00  0.00     0.308 C 
ATOM      6  O   UNL A   1      33.164  25.933  20.546  1.00  0.00    -0.252 OA
BRANCH   5   7
ATOM      7  C   UNL A   1      33.536  24.275  22.197  1.00  0.00     0.158 C 
BRANCH   7   8
ATOM      8  C   UNL A   1      34.398  24.275  23.441  1.00  0.00     0.190 C 
ATOM      9  C   UNL A   1      35.409  23.131  23.374  1.00  0.00     0.249 C 
ATOM     10  N   UNL A   1      33.709  23.940  24.691  1.00  0.00    -0.306 N 
ATOM     11  O   UNL A   1      36.280  22.990  22.530  1.00  0.00    -0.272 OA
ATOM     12  N   UNL A   1      35.183  22.278  24.401  1.00  0.00    -0.301 N 
ATOM     13  C   UNL A   1      34.194  22.734  25.217  1.00  0.00     0.180 C 
ATOM     14  H   UNL A   1      35.672  21.435  24.539  1.00  0.00     0.172 HD
ATOM     15  S   UNL A   1      33.712  21.873  26.550  1.00  0.00    -0.040 S 
BRANCH  10  16
ATOM     16  C   UNL A   1      32.929  24.906  25.380  1.00  0.00     0.044 A 
ATOM     17  C   UNL A   1      33.537  26.024  25.964  1.00  0.00     0.026 A 
ATOM     18  C   UNL A   1      31.541  24.770  25.484  1.00  0.00     0.026 A 
ATOM     19  C   UNL A   1      32.779  26.968  26.665  1.00  0.00     0.002 A 
ATOM     20  C   UNL A   1      30.784  25.707  26.195  1.00  0.00     0.002 A 
ATOM     21  C   UNL A   1      31.403  26.803  26.789  1.00  0.00     0.000 A 
ENDBRANCH  10  16
ENDBRANCH   7   8
ENDBRANCH   5   7
ENDBRANCH   4   5
ENDBRANCH   3   4
ENDBRANCH   2   3
ENDBRANCH   1   2
BRANCH   1  22
ATOM     22  C   UNL A   1      31.746  29.589  24.559  1.00  0.00     0.202 C 
BRANCH  22  23
ATOM     23  C   UNL A   1      31.774  30.486  25.803  1.00  0.00     0.261 C 
BRANCH  23  24
ATOM     24  O   UNL A   1      32.997  30.328  26.539  1.00  0.00    -0.460 OA
BRANCH  24  25
ATOM     25  C   UNL A   1      33.422  31.421  27.214  1.00  0.00     0.338 C 
ATOM     26  O   UNL A   1      32.762  32.391  27.550  1.00  0.00    -0.246 OA
BRANCH  25  27
ATOM     27  C   UNL A   1      34.777  31.145  27.724  1.00  0.00     0.060 A 
ATOM     28  C   UNL A   1      35.126  29.814  28.001  1.00  0.00     0.016 A 
ATOM     29  C   UNL A   1      35.692  32.181  27.915  1.00  0.00     0.016 A 
ATOM     30  C   UNL A   1      36.384  29.516  28.520  1.00  0.00     0.010 A 
ATOM     31  C   UNL A   1      36.943  31.885  28.445  1.00  0.00     0.010 A 
ATOM     32  C   UNL A   1      37.276  30.560  28.786  1.00  0.00    -0.014 A 
BRANCH  32  33
ATOM     33  C   UNL A   1      38.480  30.331  29.609  1.00  0.00     0.031 A 
ATOM     34  C   UNL A   1      39.496  29.354  29.101  1.00  0.00     0.074 A 
ATOM     35  C   UNL A   1      38.619  30.915  30.809  1.00  0.00     0.049 A 
ATOM     36  N   UNL A   1      40.515  28.813  29.713  1.00  0.00    -0.248 NA
ATOM     37  C   UNL A   1      39.315  28.903  27.711  1.00  0.00     0.031 C 
ATOM     38  C   UNL A   1      37.706  31.901  31.379  1.00  0.00     0.029 A 
ATOM     39  N   UNL A   1      39.565  30.720  31.782  1.00  0.00    -0.354 N 
ATOM     40  C   UNL A   1      41.074  27.933  28.798  1.00  0.00     0.074 A 
ATOM     41  C   UNL A   1      40.269  27.993  27.599  1.00  0.00     0.031 C 
ATOM     42  C   UNL A   1      38.110  32.194  32.626  1.00  0.00     0.029 A 
ATOM     43  C   UNL A   1      39.279  31.378  32.951  1.00  0.00     0.049 A 
ATOM     44  H   UNL A   1      40.368  30.164  31.655  1.00  0.00     0.167 HD
ATOM     45  C   UNL A   1      42.161  27.142  28.954  1.00  0.00     0.037 A 
ATOM     46  C   UNL A   1      39.868  31.287  34.160  1.00  0.00     0.037 A 
ATOM     47  C   UNL A   1      42.942  27.095  30.161  1.00  0.00     0.049 A 
ATOM     48  C   UNL A   1      41.046  30.365  34.333  1.00  0.00     0.074 A 
ATOM     49  C   UNL A   1      44.088  26.367  30.421  1.00  0.00     0.029 A 
ATOM     50  N   UNL A   1      42.640  27.798  31.320  1.00  0.00    -0.354 N 
ATOM     51  N   UNL A   1      41.599  29.557  33.461  1.00  0.00    -0.248 NA
ATOM     52  C   UNL A   1      41.685  30.347  35.656  1.00  0.00     0.031 C 
ATOM     53  C   UNL A   1      44.439  26.574  31.758  1.00  0.00     0.029 A 
ATOM     54  C   UNL A   1      43.559  27.493  32.310  1.00  0.00     0.049 A 
ATOM     55  H   UNL A   1      41.884  28.420  31.423  1.00  0.00     0.167 HD
ATOM     56  C   UNL A   1      42.668  28.956  34.115  1.00  0.00     0.074 A 
ATOM     57  C   UNL A   1      42.684  29.495  35.460  1.00  0.00     0.031 C 
ATOM     58  C   UNL A   1      43.560  28.050  33.642  1.00  0.00     0.037 A 
BRANCH  45  59
ATOM     59  C   UNL A   1      42.521  26.231  27.814  1.00  0.00     0.064 A 
ATOM     60  C   UNL A   1      43.490  26.576  26.858  1.00  0.00     0.173 A 
ATOM     61  C   UNL A   1      41.870  24.997  27.665  1.00  0.00     0.173 A 
ATOM     62  F   UNL A   1      44.134  27.751  26.943  1.00  0.00    -0.203 F 
ATOM     63  C   UNL A   1      43.754  25.746  25.772  1.00  0.00     0.198 A 
ATOM     64  C   UNL A   1      42.166  24.150  26.600  1.00  0.00     0.198 A 
ATOM     65  F   UNL A   1      40.937  24.611  28.549  1.00  0.00    -0.203 F 
ATOM     66  F   UNL A   1      44.626  26.135  24.831  1.00  0.00    -0.200 F 
ATOM     67  C   UNL A   1      43.097  24.533  25.646  1.00  0.00     0.200 A 
ATOM     68  F   UNL A   1      41.539  22.972  26.488  1.00  0.00    -0.200 F 
ATOM     69  F   UNL A   1      43.349  23.737  24.597  1.00  0.00    -0.200 F 
ENDBRANCH  45  59
BRANCH  46  70
ATOM     70  C   UNL A   1      39.324  32.080  35.292  1.00  0.00     0.064 A 
ATOM     71  C   UNL A   1      38.492  31.490  36.253  1.00  0.00     0.173 A 
ATOM     72  C   UNL A   1      39.667  33.430  35.465  1.00  0.00     0.173 A 
ATOM     73  F   UNL A   1      38.121  30.209  36.121  1.00  0.00    -0.203 F 
ATOM     74  C   UNL A   1      38.021  32.221  37.342  1.00  0.00     0.198 A 
ATOM     75  C   UNL A   1      39.218  34.151  36.568  1.00  0.00     0.198 A 
ATOM     76  F   UNL A   1      40.464  34.039  34.575  1.00  0.00    -0.203 F 
ATOM     77  F   UNL A   1      37.204  31.641  38.232  1.00  0.00    -0.200 F 
ATOM     78  C   UNL A   1      38.392  33.547  37.504  1.00  0.00     0.200 A 
ATOM     79  F   UNL A   1      39.594  35.428  36.729  1.00  0.00    -0.200 F 
ATOM     80  F   UNL A   1      37.955  34.243  38.563  1.00  0.00    -0.200 F 
ENDBRANCH  46  70
BRANCH  58  81
ATOM     81  C   UNL A   1      44.666  27.616  34.561  1.00  0.00     0.064 A 
ATOM     82  C   UNL A   1      44.562  26.470  35.362  1.00  0.00     0.173 A 
ATOM     83  C   UNL A   1      45.882  28.319  34.575  1.00  0.00     0.173 A 
ATOM     84  F   UNL A   1      43.417  25.771  35.395  1.00  0.00    -0.203 F 
ATOM     85  C   UNL A   1      45.629  26.051  36.153  1.00  0.00     0.198 A 
ATOM     86  C   UNL A   1      46.957  27.879  35.341  1.00  0.00     0.198 A 
ATOM     87  F   UNL A   1      46.037  29.417  33.821  1.00  0.00    -0.203 F 
ATOM     88  F   UNL A   1      45.496  24.974  36.939  1.00  0.00    -0.200 F 
ATOM     89  C   UNL A   1      46.828  26.748  36.133  1.00  0.00     0.200 A 
ATOM     90  F   UNL A   1      48.120  28.542  35.304  1.00  0.00    -0.200 F 
ATOM     91  F   UNL A   1      47.861  26.331  36.878  1.00  0.00    -0.200 F 
ENDBRANCH  58  81
ENDBRANCH  32  33
ENDBRANCH  25  27
ENDBRANCH  24  25
ENDBRANCH  23  24
ENDBRANCH  22  23
ENDBRANCH   1  22
TORSDOF 16
ENDMDL
MODEL 3
REMARK VINA RESULT:     -11.2      4.533      7.383
REMARK SMILES O=C(C[C@@H]1C(=O)NC(=S)N1c1ccccc1)OCCOCCOC(=O)c1ccc(-c2c3nc(c(-c4c(F)c(F)c(F)c(F)c4F)c4ccc([nH]4)c(-c4c(F)c(F)c(F)c(F)c4F)c4nc(c(-c5c(F)c(F)c(F)c(F)c5F)c5ccc2[nH]5)C=C4)C=C3)cc1
REMARK SMILES IDX 20 1 19 2 18 3 17 4 2 5 1 6 3 7 4 8 5 9 10 10 6 11 7 12 8 13
REMARK SMILES IDX 9 15 11 16 12 17 16 18 13 19 15 20 14 21 21 22 22 23 23 24
REMARK SMILES IDX 24 25 25 26 26 27 27 28 88 29 28 30 87 31 29 32 30 33 31 34
REMARK SMILES IDX 81 35 32 36 86 37 80 38 82 39 33 40 85 41 79 42 78 43 34 45
REMARK SMILES IDX 66 46 46 47 65 48 47 49 50 50 64 51 83 52 48 53 49 54 63 56
REMARK SMILES IDX 84 57 51 58 35 59 36 60 44 61 37 62 38 63 42 64 45 65 39 66
REMARK SMILES IDX 40 67 43 68 41 69 67 70 68 71 76 72 69 73 70 74 74 75 77 76
REMARK SMILES IDX 71 77 72 78 75 79 73 80 52 81 53 82 61 83 54 84 55 85 59 86
REMARK SMILES IDX 62 87 56 88 57 89 60 90 58 91
REMARK H PARENT 7 14 82 44 50 55
REMARK Flexibility Score: inf
ROOT
ATOM      1  O   UNL A   1      36.813  19.809  25.004  1.00  0.00    -0.374 OA
ENDROOT
BRANCH   1   2
ATOM      2  C   UNL A   1      36.347  18.477  24.833  1.00  0.00     0.202 C 
BRANCH   2   3
ATOM      3  C   UNL A   1      34.856  18.280  24.582  1.00  0.00     0.261 C 
BRANCH   3   4
ATOM      4  O   UNL A   1      34.079  19.480  24.673  1.00  0.00    -0.463 OA
BRANCH   4   5
ATOM      5  C   UNL A   1      32.766  19.570  24.968  1.00  0.00     0.308 C 
ATOM      6  O   UNL A   1      32.168  18.558  25.338  1.00  0.00    -0.252 OA
BRANCH   5   7
ATOM      7  C   UNL A   1      31.971  20.816  24.646  1.00  0.00     0.158 C 
BRANCH   7   8
ATOM      8  C   UNL A   1      32.125  22.035  25.529  1.00  0.00     0.190 C 
ATOM      9  C   UNL A   1      30.753  22.632  25.836  1.00  0.00     0.249 C 
ATOM     10  N   UNL A   1      32.780  23.190  24.907  1.00  0.00    -0.306 N 
ATOM     11  O   UNL A   1      29.842  22.074  26.427  1.00  0.00    -0.272 OA
ATOM     12  N   UNL A   1      30.695  23.890  25.337  1.00  0.00    -0.301 N 
ATOM     13  C   UNL A   1      31.886  24.265  24.796  1.00  0.00     0.180 C 
ATOM     14  H   UNL A   1      29.893  24.460  25.363  1.00  0.00     0.172 HD
ATOM     15  S   UNL A   1      32.085  25.760  24.104  1.00  0.00    -0.040 S 
BRANCH  10  16
ATOM     16  C   UNL A   1      34.192  23.253  24.782  1.00  0.00     0.044 A 
ATOM     17  C   UNL A   1      34.985  23.647  25.867  1.00  0.00     0.026 A 
ATOM     18  C   UNL A   1      34.825  22.917  23.581  1.00  0.00     0.026 A 
ATOM     19  C   UNL A   1      36.376  23.734  25.744  1.00  0.00     0.002 A 
ATOM     20  C   UNL A   1      36.214  23.015  23.453  1.00  0.00     0.002 A 
ATOM     21  C   UNL A   1      36.989  23.429  24.533  1.00  0.00     0.000 A 
ENDBRANCH  10  16
ENDBRANCH   7   8
ENDBRANCH   5   7
ENDBRANCH   4   5
ENDBRANCH   3   4
ENDBRANCH   2   3
ENDBRANCH   1   2
BRANCH   1  22
ATOM     22  C   UNL A   1      38.209  20.038  24.761  1.00  0.00     0.202 C 
BRANCH  22  23
ATOM     23  C   UNL A   1      39.210  19.432  25.754  1.00  0.00     0.261 C 
BRANCH  23  24
ATOM     24  O   UNL A   1      40.390  20.242  25.873  1.00  0.00    -0.460 OA
BRANCH  24  25
ATOM     25  C   UNL A   1      40.870  20.399  27.128  1.00  0.00     0.338 C 
ATOM     26  O   UNL A   1      41.329  19.538  27.862  1.00  0.00    -0.246 OA
BRANCH  25  27
ATOM     27  C   UNL A   1      40.999  21.843  27.391  1.00  0.00     0.060 A 
ATOM     28  C   UNL A   1      40.250  22.733  26.604  1.00  0.00     0.016 A 
ATOM     29  C   UNL A   1      41.834  22.313  28.405  1.00  0.00     0.016 A 
ATOM     30  C   UNL A   1      40.372  24.106  26.796  1.00  0.00     0.010 A 
ATOM     31  C   UNL A   1      41.966  23.685  28.587  1.00  0.00     0.010 A 
ATOM     32  C   UNL A   1      41.268  24.583  27.759  1.00  0.00    -0.014 A 
BRANCH  32  33
ATOM     33  C   UNL A   1      41.657  26.007  27.787  1.00  0.00     0.031 A 
ATOM     34  C   UNL A   1      43.000  26.373  27.231  1.00  0.00     0.074 A 
ATOM     35  C   UNL A   1      40.871  26.928  28.365  1.00  0.00     0.049 A 
ATOM     36  N   UNL A   1      43.668  27.491  27.328  1.00  0.00    -0.248 NA
ATOM     37  C   UNL A   1      43.697  25.314  26.484  1.00  0.00     0.031 C 
ATOM     38  C   UNL A   1      39.539  26.680  28.907  1.00  0.00     0.029 A 
ATOM     39  N   UNL A   1      41.112  28.251  28.634  1.00  0.00    -0.354 N 
ATOM     40  C   UNL A   1      44.877  27.259  26.688  1.00  0.00     0.074 A 
ATOM     41  C   UNL A   1      44.861  25.889  26.228  1.00  0.00     0.031 C 
ATOM     42  C   UNL A   1      39.092  27.806  29.486  1.00  0.00     0.029 A 
ATOM     43  C   UNL A   1      40.130  28.833  29.396  1.00  0.00     0.049 A 
ATOM     44  H   UNL A   1      41.906  28.735  28.312  1.00  0.00     0.167 HD
ATOM     45  C   UNL A   1      45.908  28.117  26.509  1.00  0.00     0.037 A 
ATOM     46  C   UNL A   1      40.103  30.039  29.995  1.00  0.00     0.037 A 
ATOM     47  C   UNL A   1      45.902  29.475  26.982  1.00  0.00     0.049 A 
ATOM     48  C   UNL A   1      41.278  30.966  29.829  1.00  0.00     0.074 A 
ATOM     49  C   UNL A   1      46.868  30.450  26.823  1.00  0.00     0.029 A 
ATOM     50  N   UNL A   1      44.877  30.042  27.729  1.00  0.00    -0.354 N 
ATOM     51  N   UNL A   1      42.409  30.763  29.196  1.00  0.00    -0.248 NA
ATOM     52  C   UNL A   1      41.173  32.290  30.456  1.00  0.00     0.031 C 
ATOM     53  C   UNL A   1      46.461  31.584  27.532  1.00  0.00     0.029 A 
ATOM     54  C   UNL A   1      45.204  31.344  28.068  1.00  0.00     0.049 A 
ATOM     55  H   UNL A   1      44.042  29.586  27.981  1.00  0.00     0.167 HD
ATOM     56  C   UNL A   1      43.137  31.939  29.319  1.00  0.00     0.074 A 
ATOM     57  C   UNL A   1      42.318  32.853  30.090  1.00  0.00     0.031 C 
ATOM     58  C   UNL A   1      44.367  32.239  28.831  1.00  0.00     0.037 A 
BRANCH  45  59
ATOM     59  C   UNL A   1      47.137  27.587  25.825  1.00  0.00     0.064 A 
ATOM     60  C   UNL A   1      47.307  27.656  24.433  1.00  0.00     0.173 A 
ATOM     61  C   UNL A   1      48.155  26.980  26.577  1.00  0.00     0.173 A 
ATOM     62  F   UNL A   1      46.359  28.212  23.663  1.00  0.00    -0.203 F 
ATOM     63  C   UNL A   1      48.422  27.093  23.818  1.00  0.00     0.198 A 
ATOM     64  C   UNL A   1      49.288  26.455  25.962  1.00  0.00     0.198 A 
ATOM     65  F   UNL A   1      48.049  26.888  27.911  1.00  0.00    -0.203 F 
ATOM     66  F   UNL A   1      48.523  27.103  22.481  1.00  0.00    -0.200 F 
ATOM     67  C   UNL A   1      49.414  26.498  24.582  1.00  0.00     0.200 A 
ATOM     68  F   UNL A   1      50.252  25.892  26.704  1.00  0.00    -0.200 F 
ATOM     69  F   UNL A   1      50.485  25.953  23.987  1.00  0.00    -0.200 F 
ENDBRANCH  45  59
BRANCH  46  70
ATOM     70  C   UNL A   1      38.926  30.412  30.821  1.00  0.00     0.064 A 
ATOM     71  C   UNL A   1      38.926  30.218  32.208  1.00  0.00     0.173 A 
ATOM     72  C   UNL A   1      37.798  31.017  30.245  1.00  0.00     0.173 A 
ATOM     73  F   UNL A   1      39.973  29.626  32.801  1.00  0.00    -0.203 F 
ATOM     74  C   UNL A   1      37.841  30.612  32.989  1.00  0.00     0.198 A 
ATOM     75  C   UNL A   1      36.726  31.436  31.031  1.00  0.00     0.198 A 
ATOM     76  F   UNL A   1      37.751  31.228  28.922  1.00  0.00    -0.203 F 
ATOM     77  F   UNL A   1      37.856  30.390  34.311  1.00  0.00    -0.200 F 
ATOM     78  C   UNL A   1      36.747  31.230  32.402  1.00  0.00     0.200 A 
ATOM     79  F   UNL A   1      35.679  32.047  30.460  1.00  0.00    -0.200 F 
ATOM     80  F   UNL A   1      35.714  31.627  33.157  1.00  0.00    -0.200 F 
ENDBRANCH  46  70
BRANCH  58  81
ATOM     81  C   UNL A   1      44.889  33.629  29.064  1.00  0.00     0.064 A 
ATOM     82  C   UNL A   1      45.726  33.937  30.145  1.00  0.00     0.173 A 
ATOM     83  C   UNL A   1      44.610  34.647  28.137  1.00  0.00     0.173 A 
ATOM     84  F   UNL A   1      46.013  33.004  31.065  1.00  0.00    -0.203 F 
ATOM     85  C   UNL A   1      46.253  35.218  30.298  1.00  0.00     0.198 A 
ATOM     86  C   UNL A   1      45.165  35.916  28.275  1.00  0.00     0.198 A 
ATOM     87  F   UNL A   1      43.821  34.402  27.080  1.00  0.00    -0.203 F 
ATOM     88  F   UNL A   1      47.021  35.502  31.359  1.00  0.00    -0.200 F 
ATOM     89  C   UNL A   1      45.981  36.202  29.358  1.00  0.00     0.200 A 
ATOM     90  F   UNL A   1      44.917  36.857  27.355  1.00  0.00    -0.200 F 
ATOM     91  F   UNL A   1      46.507  37.426  29.496  1.00  0.00    -0.200 F 
ENDBRANCH  58  81
ENDBRANCH  32  33
ENDBRANCH  25  27
ENDBRANCH  24  25
ENDBRANCH  23  24
ENDBRANCH  22  23
ENDBRANCH   1  22
TORSDOF 16
ENDMDL
