MODEL 1
REMARK VINA RESULT:     -11.7      0.000      0.000
REMARK SMILES O=C(OCCOCCOC(=O)[C@H]1CCCC[C@@H]1c1nc([C@@H]2CSCCS2)no1)c1ccc(-c2c3nc(c(-c4c(F)c(F)c(F)c(F)c4F)c4ccc([nH]4)c(-c4c(F)c(F)c(F)c(F)c4F)c4nc(c(-c5c(F)c(F)c(F)c(F)c5F)c5ccc2[nH]5)C=C4)C=C3)cc1
REMARK SMILES IDX 6 1 5 2 4 3 3 4 2 5 1 6 29 7 30 8 91 9 31 10 90 11 32 12
REMARK SMILES IDX 33 13 34 14 84 15 35 16 89 17 83 18 85 19 36 20 88 21 82 22
REMARK SMILES IDX 81 23 37 25 69 26 49 27 68 28 50 29 53 30 67 31 86 32 51 33
REMARK SMILES IDX 52 34 66 36 87 37 54 38 38 39 39 40 47 41 40 42 41 43 45 44
REMARK SMILES IDX 48 45 42 46 43 47 46 48 44 49 70 50 71 51 79 52 72 53 73 54
REMARK SMILES IDX 77 55 80 56 74 57 75 58 78 59 76 60 55 61 56 62 64 63 57 64
REMARK SMILES IDX 58 65 62 66 65 67 59 68 60 69 63 70 61 71 7 72 8 73 9 74
REMARK SMILES IDX 10 75 11 76 12 77 13 78 17 79 14 80 16 81 15 82 18 83 19 84
REMARK SMILES IDX 28 85 20 86 27 87 21 88 22 89 26 90 23 91 25 92 24 93
REMARK H PARENT 85 24 53 35
REMARK Flexibility Score: inf
ROOT
ATOM      1  O   UNL A   1      41.749  21.814  25.468  1.00  0.00    -0.374 OA
ENDROOT
BRANCH   1   2
ATOM      2  C   UNL A   1      43.102  21.409  25.673  1.00  0.00     0.202 C 
BRANCH   2   3
ATOM      3  C   UNL A   1      44.139  22.313  25.007  1.00  0.00     0.261 C 
BRANCH   3   4
ATOM      4  O   UNL A   1      43.603  23.627  24.812  1.00  0.00    -0.460 OA
BRANCH   4   5
ATOM      5  C   UNL A   1      44.175  24.781  25.238  1.00  0.00     0.338 C 
ATOM      6  O   UNL A   1      45.136  25.240  24.626  1.00  0.00    -0.246 OA
BRANCH   5   7
ATOM      7  C   UNL A   1      43.602  25.584  26.358  1.00  0.00     0.060 A 
ATOM      8  C   UNL A   1      43.836  26.944  26.558  1.00  0.00     0.016 A 
ATOM      9  C   UNL A   1      42.723  24.929  27.233  1.00  0.00     0.016 A 
ATOM     10  C   UNL A   1      43.303  27.625  27.629  1.00  0.00     0.010 A 
ATOM     11  C   UNL A   1      42.124  25.622  28.288  1.00  0.00     0.010 A 
ATOM     12  C   UNL A   1      42.433  26.972  28.489  1.00  0.00    -0.014 A 
BRANCH  12  13
ATOM     13  C   UNL A   1      41.978  27.738  29.654  1.00  0.00     0.031 A 
ATOM     14  C   UNL A   1      40.691  28.482  29.539  1.00  0.00     0.074 A 
ATOM     15  C   UNL A   1      42.614  27.574  30.826  1.00  0.00     0.049 A 
ATOM     16  N   UNL A   1      40.104  29.259  30.405  1.00  0.00    -0.248 NA
ATOM     17  C   UNL A   1      39.951  28.313  28.276  1.00  0.00     0.031 C 
ATOM     18  C   UNL A   1      43.771  26.697  31.041  1.00  0.00     0.029 A 
ATOM     19  N   UNL A   1      42.349  28.081  32.066  1.00  0.00    -0.354 N 
ATOM     20  C   UNL A   1      38.959  29.718  29.771  1.00  0.00     0.074 A 
ATOM     21  C   UNL A   1      38.917  29.118  28.458  1.00  0.00     0.031 C 
ATOM     22  C   UNL A   1      44.085  26.696  32.345  1.00  0.00     0.029 A 
ATOM     23  C   UNL A   1      43.222  27.645  33.031  1.00  0.00     0.049 A 
ATOM     24  H   UNL A   1      41.604  28.699  32.249  1.00  0.00     0.167 HD
ATOM     25  C   UNL A   1      38.045  30.589  30.257  1.00  0.00     0.037 A 
ATOM     26  C   UNL A   1      43.325  28.022  34.318  1.00  0.00     0.037 A 
ATOM     27  C   UNL A   1      38.134  31.144  31.580  1.00  0.00     0.049 A 
ATOM     28  C   UNL A   1      42.360  29.068  34.804  1.00  0.00     0.074 A 
ATOM     29  C   UNL A   1      37.339  32.101  32.180  1.00  0.00     0.029 A 
ATOM     30  N   UNL A   1      39.095  30.771  32.515  1.00  0.00    -0.354 N 
ATOM     31  N   UNL A   1      41.348  29.614  34.171  1.00  0.00    -0.248 NA
ATOM     32  C   UNL A   1      42.567  29.574  36.163  1.00  0.00     0.031 C 
ATOM     33  C   UNL A   1      37.850  32.339  33.462  1.00  0.00     0.029 A 
ATOM     34  C   UNL A   1      38.926  31.489  33.684  1.00  0.00     0.049 A 
ATOM     35  H   UNL A   1      39.794  30.094  32.366  1.00  0.00     0.167 HD
ATOM     36  C   UNL A   1      40.783  30.518  35.054  1.00  0.00     0.074 A 
ATOM     37  C   UNL A   1      41.561  30.431  36.278  1.00  0.00     0.031 C 
ATOM     38  C   UNL A   1      39.727  31.350  34.878  1.00  0.00     0.037 A 
BRANCH  25  39
ATOM     39  C   UNL A   1      36.984  31.054  29.304  1.00  0.00     0.064 A 
ATOM     40  C   UNL A   1      36.961  32.356  28.778  1.00  0.00     0.173 A 
ATOM     41  C   UNL A   1      35.915  30.203  28.986  1.00  0.00     0.173 A 
ATOM     42  F   UNL A   1      37.938  33.224  29.082  1.00  0.00    -0.203 F 
ATOM     43  C   UNL A   1      35.884  32.800  28.011  1.00  0.00     0.198 A 
ATOM     44  C   UNL A   1      34.857  30.640  28.193  1.00  0.00     0.198 A 
ATOM     45  F   UNL A   1      35.879  28.953  29.470  1.00  0.00    -0.203 F 
ATOM     46  F   UNL A   1      35.843  34.072  27.592  1.00  0.00    -0.200 F 
ATOM     47  C   UNL A   1      34.834  31.942  27.720  1.00  0.00     0.200 A 
ATOM     48  F   UNL A   1      33.843  29.809  27.914  1.00  0.00    -0.200 F 
ATOM     49  F   UNL A   1      33.790  32.377  27.002  1.00  0.00    -0.200 F 
ENDBRANCH  25  39
BRANCH  26  50
ATOM     50  C   UNL A   1      44.398  27.462  35.183  1.00  0.00     0.064 A 
ATOM     51  C   UNL A   1      44.180  26.322  35.968  1.00  0.00     0.173 A 
ATOM     52  C   UNL A   1      45.675  28.047  35.232  1.00  0.00     0.173 A 
ATOM     53  F   UNL A   1      42.975  25.735  35.975  1.00  0.00    -0.203 F 
ATOM     54  C   UNL A   1      45.192  25.796  36.771  1.00  0.00     0.198 A 
ATOM     55  C   UNL A   1      46.693  27.503  36.010  1.00  0.00     0.198 A 
ATOM     56  F   UNL A   1      45.941  29.142  34.505  1.00  0.00    -0.203 F 
ATOM     57  F   UNL A   1      44.944  24.727  37.541  1.00  0.00    -0.200 F 
ATOM     58  C   UNL A   1      46.449  26.381  36.785  1.00  0.00     0.200 A 
ATOM     59  F   UNL A   1      47.910  28.063  36.006  1.00  0.00    -0.200 F 
ATOM     60  F   UNL A   1      47.422  25.869  37.550  1.00  0.00    -0.200 F 
ENDBRANCH  26  50
BRANCH  38  61
ATOM     61  C   UNL A   1      39.333  32.186  36.056  1.00  0.00     0.064 A 
ATOM     62  C   UNL A   1      39.893  33.451  36.282  1.00  0.00     0.173 A 
ATOM     63  C   UNL A   1      38.346  31.728  36.940  1.00  0.00     0.173 A 
ATOM     64  F   UNL A   1      40.853  33.919  35.470  1.00  0.00    -0.203 F 
ATOM     65  C   UNL A   1      39.494  34.220  37.369  1.00  0.00     0.198 A 
ATOM     66  C   UNL A   1      37.927  32.512  38.008  1.00  0.00     0.198 A 
ATOM     67  F   UNL A   1      37.779  30.525  36.758  1.00  0.00    -0.203 F 
ATOM     68  F   UNL A   1      40.075  35.405  37.597  1.00  0.00    -0.200 F 
ATOM     69  C   UNL A   1      38.506  33.754  38.225  1.00  0.00     0.200 A 
ATOM     70  F   UNL A   1      36.962  32.069  38.825  1.00  0.00    -0.200 F 
ATOM     71  F   UNL A   1      38.115  34.502  39.267  1.00  0.00    -0.200 F 
ENDBRANCH  38  61
ENDBRANCH  12  13
ENDBRANCH   5   7
ENDBRANCH   4   5
ENDBRANCH   3   4
ENDBRANCH   2   3
ENDBRANCH   1   2
BRANCH   1  72
ATOM     72  C   UNL A   1      40.780  21.015  26.136  1.00  0.00     0.202 C 
BRANCH  72  73
ATOM     73  C   UNL A   1      39.657  21.882  26.702  1.00  0.00     0.261 C 
BRANCH  73  74
ATOM     74  O   UNL A   1      38.588  22.062  25.747  1.00  0.00    -0.463 OA
BRANCH  74  75
ATOM     75  C   UNL A   1      37.931  23.258  25.808  1.00  0.00     0.309 C 
ATOM     76  O   UNL A   1      38.187  24.156  26.601  1.00  0.00    -0.252 OA
BRANCH  75  77
ATOM     77  C   UNL A   1      36.822  23.324  24.759  1.00  0.00     0.111 C 
ATOM     78  C   UNL A   1      36.493  21.908  24.252  1.00  0.00     0.016 C 
ATOM     79  C   UNL A   1      35.578  24.074  25.282  1.00  0.00     0.093 C 
ATOM     80  C   UNL A   1      35.614  21.102  25.206  1.00  0.00     0.001 C 
ATOM     81  C   UNL A   1      34.675  23.206  26.180  1.00  0.00     0.014 C 
ATOM     82  C   UNL A   1      34.342  21.854  25.569  1.00  0.00     0.001 C 
BRANCH  79  83
ATOM     83  C   UNL A   1      34.742  24.698  24.204  1.00  0.00     0.230 A 
ATOM     84  N   UNL A   1      34.039  25.808  24.265  1.00  0.00    -0.195 NA
ATOM     85  O   UNL A   1      34.714  24.113  22.974  1.00  0.00    -0.339 OA
ATOM     86  C   UNL A   1      33.558  25.925  22.983  1.00  0.00     0.185 A 
ATOM     87  N   UNL A   1      33.934  24.931  22.163  1.00  0.00    -0.061 NA
BRANCH  86  88
ATOM     88  C   UNL A   1      32.838  27.137  22.468  1.00  0.00     0.128 C 
ATOM     89  C   UNL A   1      33.449  28.460  22.952  1.00  0.00     0.092 C 
ATOM     90  S   UNL A   1      31.005  26.993  22.551  1.00  0.00    -0.149 SA
ATOM     91  S   UNL A   1      33.012  29.036  24.625  1.00  0.00    -0.160 SA
ATOM     92  C   UNL A   1      30.628  27.714  24.183  1.00  0.00     0.081 C 
ATOM     93  C   UNL A   1      31.212  29.099  24.412  1.00  0.00     0.080 C 
ENDBRANCH  86  88
ENDBRANCH  79  83
ENDBRANCH  75  77
ENDBRANCH  74  75
ENDBRANCH  73  74
ENDBRANCH  72  73
ENDBRANCH   1  72
TORSDOF 16
ENDMDL
MODEL 2
REMARK VINA RESULT:     -11.7      3.745      9.842
REMARK SMILES O=C(OCCOCCOC(=O)[C@H]1CCCC[C@@H]1c1nc([C@@H]2CSCCS2)no1)c1ccc(-c2c3nc(c(-c4c(F)c(F)c(F)c(F)c4F)c4ccc([nH]4)c(-c4c(F)c(F)c(F)c(F)c4F)c4nc(c(-c5c(F)c(F)c(F)c(F)c5F)c5ccc2[nH]5)C=C4)C=C3)cc1
REMARK SMILES IDX 6 1 5 2 4 3 3 4 2 5 1 6 29 7 30 8 91 9 31 10 90 11 32 12
REMARK SMILES IDX 33 13 34 14 84 15 35 16 89 17 83 18 85 19 36 20 88 21 82 22
REMARK SMILES IDX 81 23 37 25 69 26 49 27 68 28 50 29 53 30 67 31 86 32 51 33
REMARK SMILES IDX 52 34 66 36 87 37 54 38 38 39 39 40 47 41 40 42 41 43 45 44
REMARK SMILES IDX 48 45 42 46 43 47 46 48 44 49 70 50 71 51 79 52 72 53 73 54
REMARK SMILES IDX 77 55 80 56 74 57 75 58 78 59 76 60 55 61 56 62 64 63 57 64
REMARK SMILES IDX 58 65 62 66 65 67 59 68 60 69 63 70 61 71 7 72 8 73 9 74
REMARK SMILES IDX 10 75 11 76 12 77 13 78 17 79 14 80 16 81 15 82 18 83 19 84
REMARK SMILES IDX 28 85 20 86 27 87 21 88 22 89 26 90 23 91 25 92 24 93
REMARK H PARENT 85 24 53 35
REMARK Flexibility Score: inf
ROOT
ATOM      1  O   UNL A   1      34.517  34.112  28.931  1.00  0.00    -0.374 OA
ENDROOT
BRANCH   1   2
ATOM      2  C   UNL A   1      33.268  34.718  28.598  1.00  0.00     0.202 C 
BRANCH   2   3
ATOM      3  C   UNL A   1      32.912  35.938  29.447  1.00  0.00     0.261 C 
BRANCH   3   4
ATOM      4  O   UNL A   1      32.205  35.535  30.626  1.00  0.00    -0.460 OA
BRANCH   4   5
ATOM      5  C   UNL A   1      32.658  35.662  31.899  1.00  0.00     0.338 C 
ATOM      6  O   UNL A   1      31.973  36.255  32.727  1.00  0.00    -0.246 OA
BRANCH   5   7
ATOM      7  C   UNL A   1      33.911  34.998  32.364  1.00  0.00     0.060 A 
ATOM      8  C   UNL A   1      35.176  35.585  32.334  1.00  0.00     0.016 A 
ATOM      9  C   UNL A   1      33.790  33.716  32.920  1.00  0.00     0.016 A 
ATOM     10  C   UNL A   1      36.302  34.910  32.749  1.00  0.00     0.010 A 
ATOM     11  C   UNL A   1      34.915  33.043  33.404  1.00  0.00     0.010 A 
ATOM     12  C   UNL A   1      36.175  33.643  33.300  1.00  0.00    -0.014 A 
BRANCH  12  13
ATOM     13  C   UNL A   1      37.426  32.956  33.636  1.00  0.00     0.031 A 
ATOM     14  C   UNL A   1      37.971  33.134  35.013  1.00  0.00     0.074 A 
ATOM     15  C   UNL A   1      37.912  32.040  32.780  1.00  0.00     0.049 A 
ATOM     16  N   UNL A   1      39.071  32.670  35.533  1.00  0.00    -0.248 NA
ATOM     17  C   UNL A   1      37.151  33.932  35.940  1.00  0.00     0.031 C 
ATOM     18  C   UNL A   1      37.303  31.683  31.494  1.00  0.00     0.029 A 
ATOM     19  N   UNL A   1      38.986  31.203  32.883  1.00  0.00    -0.354 N 
ATOM     20  C   UNL A   1      39.106  33.169  36.827  1.00  0.00     0.074 A 
ATOM     21  C   UNL A   1      37.908  33.951  37.025  1.00  0.00     0.031 C 
ATOM     22  C   UNL A   1      37.990  30.668  30.950  1.00  0.00     0.029 A 
ATOM     23  C   UNL A   1      39.138  30.377  31.796  1.00  0.00     0.049 A 
ATOM     24  H   UNL A   1      39.591  31.193  33.659  1.00  0.00     0.167 HD
ATOM     25  C   UNL A   1      40.081  32.995  37.747  1.00  0.00     0.037 A 
ATOM     26  C   UNL A   1      40.133  29.519  31.512  1.00  0.00     0.037 A 
ATOM     27  C   UNL A   1      41.247  32.193  37.497  1.00  0.00     0.049 A 
ATOM     28  C   UNL A   1      41.257  29.421  32.507  1.00  0.00     0.074 A 
ATOM     29  C   UNL A   1      42.358  31.995  38.292  1.00  0.00     0.029 A 
ATOM     30  N   UNL A   1      41.440  31.444  36.339  1.00  0.00    -0.354 N 
ATOM     31  N   UNL A   1      41.368  29.994  33.684  1.00  0.00    -0.248 NA
ATOM     32  C   UNL A   1      42.403  28.592  32.128  1.00  0.00     0.031 C 
ATOM     33  C   UNL A   1      43.242  31.162  37.594  1.00  0.00     0.029 A 
ATOM     34  C   UNL A   1      42.658  30.793  36.389  1.00  0.00     0.049 A 
ATOM     35  H   UNL A   1      40.800  31.386  35.592  1.00  0.00     0.167 HD
ATOM     36  C   UNL A   1      42.588  29.585  34.197  1.00  0.00     0.074 A 
ATOM     37  C   UNL A   1      43.170  28.698  33.204  1.00  0.00     0.031 C 
ATOM     38  C   UNL A   1      43.181  29.911  35.372  1.00  0.00     0.037 A 
BRANCH  25  39
ATOM     39  C   UNL A   1      39.956  33.782  39.018  1.00  0.00     0.064 A 
ATOM     40  C   UNL A   1      39.160  33.358  40.094  1.00  0.00     0.173 A 
ATOM     41  C   UNL A   1      40.574  35.038  39.121  1.00  0.00     0.173 A 
ATOM     42  F   UNL A   1      38.515  32.183  40.033  1.00  0.00    -0.203 F 
ATOM     43  C   UNL A   1      38.951  34.180  41.200  1.00  0.00     0.198 A 
ATOM     44  C   UNL A   1      40.389  35.844  40.241  1.00  0.00     0.198 A 
ATOM     45  F   UNL A   1      41.336  35.501  38.118  1.00  0.00    -0.203 F 
ATOM     46  F   UNL A   1      38.120  33.789  42.175  1.00  0.00    -0.200 F 
ATOM     47  C   UNL A   1      39.565  35.422  41.272  1.00  0.00     0.200 A 
ATOM     48  F   UNL A   1      40.983  37.043  40.308  1.00  0.00    -0.200 F 
ATOM     49  F   UNL A   1      39.345  36.221  42.325  1.00  0.00    -0.200 F 
ENDBRANCH  25  39
BRANCH  26  50
ATOM     50  C   UNL A   1      40.131  28.760  30.234  1.00  0.00     0.064 A 
ATOM     51  C   UNL A   1      39.521  27.504  30.132  1.00  0.00     0.173 A 
ATOM     52  C   UNL A   1      40.730  29.284  29.075  1.00  0.00     0.173 A 
ATOM     53  F   UNL A   1      38.951  26.948  31.212  1.00  0.00    -0.203 F 
ATOM     54  C   UNL A   1      39.515  26.799  28.928  1.00  0.00     0.198 A 
ATOM     55  C   UNL A   1      40.696  28.594  27.866  1.00  0.00     0.198 A 
ATOM     56  F   UNL A   1      41.334  30.481  29.112  1.00  0.00    -0.203 F 
ATOM     57  F   UNL A   1      38.956  25.582  28.870  1.00  0.00    -0.200 F 
ATOM     58  C   UNL A   1      40.094  27.348  27.795  1.00  0.00     0.200 A 
ATOM     59  F   UNL A   1      41.244  29.138  26.770  1.00  0.00    -0.200 F 
ATOM     60  F   UNL A   1      40.080  26.675  26.637  1.00  0.00    -0.200 F 
ENDBRANCH  26  50
BRANCH  38  61
ATOM     61  C   UNL A   1      44.500  29.262  35.656  1.00  0.00     0.064 A 
ATOM     62  C   UNL A   1      45.711  29.860  35.284  1.00  0.00     0.173 A 
ATOM     63  C   UNL A   1      44.545  28.045  36.352  1.00  0.00     0.173 A 
ATOM     64  F   UNL A   1      45.712  31.015  34.600  1.00  0.00    -0.203 F 
ATOM     65  C   UNL A   1      46.925  29.249  35.579  1.00  0.00     0.198 A 
ATOM     66  C   UNL A   1      45.760  27.453  36.674  1.00  0.00     0.198 A 
ATOM     67  F   UNL A   1      43.409  27.440  36.733  1.00  0.00    -0.203 F 
ATOM     68  F   UNL A   1      48.071  29.812  35.173  1.00  0.00    -0.200 F 
ATOM     69  C   UNL A   1      46.948  28.052  36.281  1.00  0.00     0.200 A 
ATOM     70  F   UNL A   1      45.783  26.306  37.365  1.00  0.00    -0.200 F 
ATOM     71  F   UNL A   1      48.120  27.471  36.575  1.00  0.00    -0.200 F 
ENDBRANCH  38  61
ENDBRANCH  12  13
ENDBRANCH   5   7
ENDBRANCH   4   5
ENDBRANCH   3   4
ENDBRANCH   2   3
ENDBRANCH   1   2
BRANCH   1  72
ATOM     72  C   UNL A   1      34.427  32.760  29.361  1.00  0.00     0.202 C 
BRANCH  72  73
ATOM     73  C   UNL A   1      34.949  31.811  28.282  1.00  0.00     0.261 C 
BRANCH  73  74
ATOM     74  O   UNL A   1      33.931  30.880  27.851  1.00  0.00    -0.463 OA
BRANCH  74  75
ATOM     75  C   UNL A   1      34.382  29.671  27.404  1.00  0.00     0.309 C 
ATOM     76  O   UNL A   1      35.557  29.401  27.188  1.00  0.00    -0.252 OA
BRANCH  75  77
ATOM     77  C   UNL A   1      33.221  28.701  27.196  1.00  0.00     0.111 C 
ATOM     78  C   UNL A   1      31.912  29.484  26.987  1.00  0.00     0.016 C 
ATOM     79  C   UNL A   1      33.504  27.698  26.056  1.00  0.00     0.093 C 
ATOM     80  C   UNL A   1      31.755  30.054  25.579  1.00  0.00     0.001 C 
ATOM     81  C   UNL A   1      33.262  28.286  24.652  1.00  0.00     0.014 C 
ATOM     82  C   UNL A   1      31.915  28.978  24.515  1.00  0.00     0.001 C 
BRANCH  79  83
ATOM     83  C   UNL A   1      32.757  26.403  26.181  1.00  0.00     0.230 A 
ATOM     84  N   UNL A   1      33.067  25.237  25.658  1.00  0.00    -0.195 NA
ATOM     85  O   UNL A   1      31.643  26.362  26.962  1.00  0.00    -0.339 OA
ATOM     86  C   UNL A   1      32.088  24.416  26.164  1.00  0.00     0.185 A 
ATOM     87  N   UNL A   1      31.203  25.042  26.956  1.00  0.00    -0.061 NA
BRANCH  86  88
ATOM     88  C   UNL A   1      32.091  22.922  26.019  1.00  0.00     0.128 C 
ATOM     89  C   UNL A   1      33.082  22.222  26.960  1.00  0.00     0.092 C 
ATOM     90  S   UNL A   1      32.071  22.354  24.269  1.00  0.00    -0.149 SA
ATOM     91  S   UNL A   1      34.835  22.173  26.465  1.00  0.00    -0.160 SA
ATOM     92  C   UNL A   1      33.846  22.192  23.887  1.00  0.00     0.081 C 
ATOM     93  C   UNL A   1      34.628  21.336  24.871  1.00  0.00     0.080 C 
ENDBRANCH  86  88
ENDBRANCH  79  83
ENDBRANCH  75  77
ENDBRANCH  74  75
ENDBRANCH  73  74
ENDBRANCH  72  73
ENDBRANCH   1  72
TORSDOF 16
ENDMDL
MODEL 3
REMARK VINA RESULT:     -11.4      0.731      7.406
REMARK SMILES O=C(OCCOCCOC(=O)[C@H]1CCCC[C@@H]1c1nc([C@@H]2CSCCS2)no1)c1ccc(-c2c3nc(c(-c4c(F)c(F)c(F)c(F)c4F)c4ccc([nH]4)c(-c4c(F)c(F)c(F)c(F)c4F)c4nc(c(-c5c(F)c(F)c(F)c(F)c5F)c5ccc2[nH]5)C=C4)C=C3)cc1
REMARK SMILES IDX 6 1 5 2 4 3 3 4 2 5 1 6 29 7 30 8 91 9 31 10 90 11 32 12
REMARK SMILES IDX 33 13 34 14 84 15 35 16 89 17 83 18 85 19 36 20 88 21 82 22
REMARK SMILES IDX 81 23 37 25 69 26 49 27 68 28 50 29 53 30 67 31 86 32 51 33
REMARK SMILES IDX 52 34 66 36 87 37 54 38 38 39 39 40 47 41 40 42 41 43 45 44
REMARK SMILES IDX 48 45 42 46 43 47 46 48 44 49 70 50 71 51 79 52 72 53 73 54
REMARK SMILES IDX 77 55 80 56 74 57 75 58 78 59 76 60 55 61 56 62 64 63 57 64
REMARK SMILES IDX 58 65 62 66 65 67 59 68 60 69 63 70 61 71 7 72 8 73 9 74
REMARK SMILES IDX 10 75 11 76 12 77 13 78 17 79 14 80 16 81 15 82 18 83 19 84
REMARK SMILES IDX 28 85 20 86 27 87 21 88 22 89 26 90 23 91 25 92 24 93
REMARK H PARENT 85 24 53 35
REMARK Flexibility Score: inf
ROOT
ATOM      1  O   UNL A   1      41.763  21.833  25.585  1.00  0.00    -0.374 OA
ENDROOT
BRANCH   1   2
ATOM      2  C   UNL A   1      43.174  21.674  25.729  1.00  0.00     0.202 C 
BRANCH   2   3
ATOM      3  C   UNL A   1      44.004  22.452  24.708  1.00  0.00     0.261 C 
BRANCH   3   4
ATOM      4  O   UNL A   1      43.558  23.811  24.635  1.00  0.00    -0.460 OA
BRANCH   4   5
ATOM      5  C   UNL A   1      44.193  24.879  25.181  1.00  0.00     0.338 C 
ATOM      6  O   UNL A   1      45.258  25.258  24.700  1.00  0.00    -0.246 OA
BRANCH   5   7
ATOM      7  C   UNL A   1      43.584  25.691  26.275  1.00  0.00     0.060 A 
ATOM      8  C   UNL A   1      43.787  27.059  26.453  1.00  0.00     0.016 A 
ATOM      9  C   UNL A   1      42.704  25.033  27.147  1.00  0.00     0.016 A 
ATOM     10  C   UNL A   1      43.221  27.748  27.501  1.00  0.00     0.010 A 
ATOM     11  C   UNL A   1      42.073  25.734  28.179  1.00  0.00     0.010 A 
ATOM     12  C   UNL A   1      42.350  27.093  28.359  1.00  0.00    -0.014 A 
BRANCH  12  13
ATOM     13  C   UNL A   1      41.859  27.872  29.501  1.00  0.00     0.031 A 
ATOM     14  C   UNL A   1      42.736  27.974  30.703  1.00  0.00     0.074 A 
ATOM     15  C   UNL A   1      40.757  28.626  29.345  1.00  0.00     0.049 A 
ATOM     16  N   UNL A   1      42.511  28.562  31.843  1.00  0.00    -0.248 NA
ATOM     17  C   UNL A   1      44.060  27.337  30.600  1.00  0.00     0.031 C 
ATOM     18  C   UNL A   1      39.965  28.716  28.114  1.00  0.00     0.029 A 
ATOM     19  N   UNL A   1      40.147  29.502  30.196  1.00  0.00    -0.354 N 
ATOM     20  C   UNL A   1      43.638  28.317  32.613  1.00  0.00     0.074 A 
ATOM     21  C   UNL A   1      44.557  27.547  31.807  1.00  0.00     0.031 C 
ATOM     22  C   UNL A   1      39.001  29.633  28.278  1.00  0.00     0.029 A 
ATOM     23  C   UNL A   1      39.046  30.114  29.650  1.00  0.00     0.049 A 
ATOM     24  H   UNL A   1      40.465  29.678  31.111  1.00  0.00     0.167 HD
ATOM     25  C   UNL A   1      43.855  28.692  33.894  1.00  0.00     0.037 A 
ATOM     26  C   UNL A   1      38.154  30.936  30.231  1.00  0.00     0.037 A 
ATOM     27  C   UNL A   1      42.906  29.470  34.643  1.00  0.00     0.049 A 
ATOM     28  C   UNL A   1      38.363  31.255  31.685  1.00  0.00     0.074 A 
ATOM     29  C   UNL A   1      42.943  29.850  35.970  1.00  0.00     0.029 A 
ATOM     30  N   UNL A   1      41.735  29.994  34.103  1.00  0.00    -0.354 N 
ATOM     31  N   UNL A   1      39.362  30.917  32.468  1.00  0.00    -0.248 NA
ATOM     32  C   UNL A   1      37.315  32.036  32.346  1.00  0.00     0.031 C 
ATOM     33  C   UNL A   1      41.769  30.566  36.242  1.00  0.00     0.029 A 
ATOM     34  C   UNL A   1      41.030  30.682  35.073  1.00  0.00     0.049 A 
ATOM     35  H   UNL A   1      41.450  29.890  33.166  1.00  0.00     0.167 HD
ATOM     36  C   UNL A   1      39.075  31.455  33.712  1.00  0.00     0.074 A 
ATOM     37  C   UNL A   1      37.812  32.158  33.569  1.00  0.00     0.031 C 
ATOM     38  C   UNL A   1      39.779  31.375  34.868  1.00  0.00     0.037 A 
BRANCH  25  39
ATOM     39  C   UNL A   1      45.089  28.153  34.555  1.00  0.00     0.064 A 
ATOM     40  C   UNL A   1      45.098  26.942  35.265  1.00  0.00     0.173 A 
ATOM     41  C   UNL A   1      46.267  28.917  34.554  1.00  0.00     0.173 A 
ATOM     42  F   UNL A   1      43.988  26.191  35.332  1.00  0.00    -0.203 F 
ATOM     43  C   UNL A   1      46.222  26.542  35.987  1.00  0.00     0.198 A 
ATOM     44  C   UNL A   1      47.398  28.499  35.251  1.00  0.00     0.198 A 
ATOM     45  F   UNL A   1      46.312  30.088  33.902  1.00  0.00    -0.203 F 
ATOM     46  F   UNL A   1      46.178  25.426  36.727  1.00  0.00    -0.200 F 
ATOM     47  C   UNL A   1      47.370  27.321  35.980  1.00  0.00     0.200 A 
ATOM     48  F   UNL A   1      48.505  29.254  35.241  1.00  0.00    -0.200 F 
ATOM     49  F   UNL A   1      48.441  26.947  36.692  1.00  0.00    -0.200 F 
ENDBRANCH  25  39
BRANCH  26  50
ATOM     50  C   UNL A   1      36.985  31.441  29.463  1.00  0.00     0.064 A 
ATOM     51  C   UNL A   1      36.891  32.784  29.077  1.00  0.00     0.173 A 
ATOM     52  C   UNL A   1      35.937  30.584  29.083  1.00  0.00     0.173 A 
ATOM     53  F   UNL A   1      37.853  33.650  29.429  1.00  0.00    -0.203 F 
ATOM     54  C   UNL A   1      35.796  33.251  28.350  1.00  0.00     0.198 A 
ATOM     55  C   UNL A   1      34.860  31.045  28.331  1.00  0.00     0.198 A 
ATOM     56  F   UNL A   1      35.970  29.288  29.428  1.00  0.00    -0.203 F 
ATOM     57  F   UNL A   1      35.714  34.550  28.026  1.00  0.00    -0.200 F 
ATOM     58  C   UNL A   1      34.786  32.380  27.970  1.00  0.00     0.200 A 
ATOM     59  F   UNL A   1      33.895  30.194  27.953  1.00  0.00    -0.200 F 
ATOM     60  F   UNL A   1      33.739  32.828  27.264  1.00  0.00    -0.200 F 
ENDBRANCH  26  50
BRANCH  38  61
ATOM     61  C   UNL A   1      39.215  32.109  36.045  1.00  0.00     0.064 A 
ATOM     62  C   UNL A   1      39.554  33.442  36.314  1.00  0.00     0.173 A 
ATOM     63  C   UNL A   1      38.285  31.476  36.883  1.00  0.00     0.173 A 
ATOM     64  F   UNL A   1      40.454  34.078  35.548  1.00  0.00    -0.203 F 
ATOM     65  C   UNL A   1      38.998  34.111  37.399  1.00  0.00     0.198 A 
ATOM     66  C   UNL A   1      37.707  32.158  37.947  1.00  0.00     0.198 A 
ATOM     67  F   UNL A   1      37.927  30.203  36.658  1.00  0.00    -0.203 F 
ATOM     68  F   UNL A   1      39.371  35.369  37.669  1.00  0.00    -0.200 F 
ATOM     69  C   UNL A   1      38.070  33.471  38.208  1.00  0.00     0.200 A 
ATOM     70  F   UNL A   1      36.799  31.546  38.719  1.00  0.00    -0.200 F 
ATOM     71  F   UNL A   1      37.527  34.122  39.247  1.00  0.00    -0.200 F 
ENDBRANCH  38  61
ENDBRANCH  12  13
ENDBRANCH   5   7
ENDBRANCH   4   5
ENDBRANCH   3   4
ENDBRANCH   2   3
ENDBRANCH   1   2
BRANCH   1  72
ATOM     72  C   UNL A   1      40.991  21.289  26.648  1.00  0.00     0.202 C 
BRANCH  72  73
ATOM     73  C   UNL A   1      39.837  22.222  27.015  1.00  0.00     0.261 C 
BRANCH  73  74
ATOM     74  O   UNL A   1      38.851  22.292  25.961  1.00  0.00    -0.463 OA
BRANCH  74  75
ATOM     75  C   UNL A   1      38.052  23.400  25.968  1.00  0.00     0.309 C 
ATOM     76  O   UNL A   1      38.195  24.359  26.715  1.00  0.00    -0.252 OA
BRANCH  75  77
ATOM     77  C   UNL A   1      36.943  23.277  24.924  1.00  0.00     0.111 C 
ATOM     78  C   UNL A   1      36.926  21.852  24.340  1.00  0.00     0.016 C 
ATOM     79  C   UNL A   1      35.572  23.708  25.486  1.00  0.00     0.093 C 
ATOM     80  C   UNL A   1      36.254  20.824  25.250  1.00  0.00     0.001 C 
ATOM     81  C   UNL A   1      34.890  22.618  26.335  1.00  0.00     0.014 C 
ATOM     82  C   UNL A   1      34.853  21.260  25.652  1.00  0.00     0.001 C 
BRANCH  79  83
ATOM     83  C   UNL A   1      34.607  24.191  24.443  1.00  0.00     0.230 A 
ATOM     84  N   UNL A   1      33.396  24.670  24.620  1.00  0.00    -0.195 NA
ATOM     85  O   UNL A   1      35.004  24.205  23.140  1.00  0.00    -0.339 OA
ATOM     86  C   UNL A   1      33.025  25.019  23.344  1.00  0.00     0.185 A 
ATOM     87  N   UNL A   1      33.956  24.761  22.412  1.00  0.00    -0.061 NA
BRANCH  86  88
ATOM     88  C   UNL A   1      31.782  25.794  23.016  1.00  0.00     0.128 C 
ATOM     89  C   UNL A   1      32.066  27.132  22.317  1.00  0.00     0.092 C 
ATOM     90  S   UNL A   1      30.551  25.821  24.384  1.00  0.00    -0.149 SA
ATOM     91  S   UNL A   1      32.554  28.548  23.357  1.00  0.00    -0.160 SA
ATOM     92  C   UNL A   1      31.009  27.331  25.296  1.00  0.00     0.081 C 
ATOM     93  C   UNL A   1      31.100  28.584  24.439  1.00  0.00     0.080 C 
ENDBRANCH  86  88
ENDBRANCH  79  83
ENDBRANCH  75  77
ENDBRANCH  74  75
ENDBRANCH  73  74
ENDBRANCH  72  73
ENDBRANCH   1  72
TORSDOF 16
ENDMDL
