MODEL 1
REMARK VINA RESULT:     -10.2      0.000      0.000
REMARK SMILES COCc1cc(C[NH+]2CCC(CC(=O)OCCOCCOC(=O)c3ccc(-c4c5nc(c(-c6c(F)c(F)c(F)c(F)c6F)c6ccc([nH]6)c(-c6c(F)c(F)c(F)c(F)c6F)c6nc(c(-c7c(F)c(F)c(F)c(F)c7F)c7ccc4[nH]7)C=C6)C=C5)cc3)CC2)no1
REMARK SMILES IDX 16 1 15 2 13 3 14 4 12 5 11 6 8 7 9 8 88 9 10 11 87 12 7 13
REMARK SMILES IDX 6 14 4 15 5 16 90 17 89 18 3 19 2 20 1 21 17 22 18 23 19 24
REMARK SMILES IDX 20 25 21 26 22 27 23 28 24 29 25 30 86 31 26 32 85 33 27 34
REMARK SMILES IDX 28 35 29 36 79 37 30 38 84 39 78 40 80 41 31 42 83 43 77 44
REMARK SMILES IDX 76 45 32 47 64 48 44 49 63 50 45 51 48 52 62 53 81 54 46 55
REMARK SMILES IDX 47 56 61 58 82 59 49 60 33 61 34 62 42 63 35 64 36 65 40 66
REMARK SMILES IDX 43 67 37 68 38 69 41 70 39 71 65 72 66 73 74 74 67 75 68 76
REMARK SMILES IDX 72 77 75 78 69 79 70 80 73 81 71 82 50 83 51 84 59 85 52 86
REMARK SMILES IDX 53 87 57 88 60 89 54 90 55 91 58 92 56 93
REMARK H PARENT 8 10 80 46 48 57
REMARK Flexibility Score: inf
ROOT
ATOM      1  C   UNL A   1      35.286  32.383  28.030  1.00  0.00     0.261 C 
ENDROOT
BRANCH   1   2
ATOM      2  O   UNL A   1      35.042  30.993  28.329  1.00  0.00    -0.463 OA
BRANCH   2   3
ATOM      3  C   UNL A   1      34.200  30.332  27.496  1.00  0.00     0.306 C 
ATOM      4  O   UNL A   1      33.171  30.799  27.026  1.00  0.00    -0.252 OA
BRANCH   3   5
ATOM      5  C   UNL A   1      34.633  28.903  27.245  1.00  0.00     0.126 C 
BRANCH   5   6
ATOM      6  C   UNL A   1      33.727  28.025  26.358  1.00  0.00     0.011 C 
ATOM      7  N   UNL A   1      31.407  27.999  24.574  1.00  0.00    -0.330 N 
ATOM      8  C   UNL A   1      31.324  27.316  25.863  1.00  0.00     0.262 C 
ATOM      9  C   UNL A   1      32.747  27.885  23.999  1.00  0.00     0.262 C 
ATOM     10  H   UNL A   1      31.236  28.985  24.771  1.00  0.00     0.348 HD
ATOM     11  C   UNL A   1      32.277  27.965  26.870  1.00  0.00     0.066 C 
ATOM     12  C   UNL A   1      33.754  28.576  24.918  1.00  0.00     0.066 C 
BRANCH   7  13
ATOM     13  C   UNL A   1      30.344  27.638  23.623  1.00  0.00     0.323 C 
BRANCH  13  14
ATOM     14  C   UNL A   1      29.289  28.682  23.428  1.00  0.00     0.138 A 
ATOM     15  C   UNL A   1      28.212  30.588  23.159  1.00  0.00     0.162 A 
ATOM     16  C   UNL A   1      29.451  30.087  23.472  1.00  0.00     0.081 A 
ATOM     17  O   UNL A   1      27.352  29.552  22.962  1.00  0.00    -0.358 OA
ATOM     18  N   UNL A   1      28.025  28.354  23.127  1.00  0.00    -0.079 NA
BRANCH  15  19
ATOM     19  C   UNL A   1      27.655  31.952  23.026  1.00  0.00     0.238 C 
BRANCH  19  20
ATOM     20  O   UNL A   1      28.310  32.650  21.964  1.00  0.00    -0.377 OA
ATOM     21  C   UNL A   1      28.028  32.139  20.669  1.00  0.00     0.195 C 
ENDBRANCH  19  20
ENDBRANCH  15  19
ENDBRANCH  13  14
ENDBRANCH   7  13
ENDBRANCH   5   6
ENDBRANCH   3   5
ENDBRANCH   2   3
ENDBRANCH   1   2
BRANCH   1  22
ATOM     22  C   UNL A   1      35.121  33.239  29.287  1.00  0.00     0.202 C 
BRANCH  22  23
ATOM     23  O   UNL A   1      34.711  34.590  29.061  1.00  0.00    -0.374 OA
BRANCH  23  24
ATOM     24  C   UNL A   1      33.316  34.816  28.873  1.00  0.00     0.202 C 
BRANCH  24  25
ATOM     25  C   UNL A   1      32.750  36.051  29.584  1.00  0.00     0.261 C 
BRANCH  25  26
ATOM     26  O   UNL A   1      33.397  36.285  30.848  1.00  0.00    -0.460 OA
BRANCH  26  27
ATOM     27  C   UNL A   1      32.964  35.483  31.848  1.00  0.00     0.338 C 
ATOM     28  O   UNL A   1      31.807  35.177  32.106  1.00  0.00    -0.246 OA
BRANCH  27  29
ATOM     29  C   UNL A   1      34.101  34.870  32.558  1.00  0.00     0.060 A 
ATOM     30  C   UNL A   1      35.312  35.571  32.533  1.00  0.00     0.016 A 
ATOM     31  C   UNL A   1      34.026  33.603  33.144  1.00  0.00     0.016 A 
ATOM     32  C   UNL A   1      36.475  34.973  33.012  1.00  0.00     0.010 A 
ATOM     33  C   UNL A   1      35.196  33.002  33.626  1.00  0.00     0.010 A 
ATOM     34  C   UNL A   1      36.433  33.664  33.509  1.00  0.00    -0.014 A 
BRANCH  34  35
ATOM     35  C   UNL A   1      37.717  32.947  33.710  1.00  0.00     0.031 A 
ATOM     36  C   UNL A   1      38.497  33.194  34.973  1.00  0.00     0.074 A 
ATOM     37  C   UNL A   1      38.144  32.030  32.826  1.00  0.00     0.049 A 
ATOM     38  N   UNL A   1      39.596  32.624  35.397  1.00  0.00    -0.248 NA
ATOM     39  C   UNL A   1      37.967  34.224  35.878  1.00  0.00     0.031 C 
ATOM     40  C   UNL A   1      37.472  31.689  31.575  1.00  0.00     0.029 A 
ATOM     41  N   UNL A   1      39.247  31.214  32.854  1.00  0.00    -0.354 N 
ATOM     42  C   UNL A   1      39.886  33.224  36.616  1.00  0.00     0.074 A 
ATOM     43  C   UNL A   1      38.874  34.232  36.842  1.00  0.00     0.031 C 
ATOM     44  C   UNL A   1      38.180  30.734  30.949  1.00  0.00     0.029 A 
ATOM     45  C   UNL A   1      39.359  30.406  31.751  1.00  0.00     0.049 A 
ATOM     46  H   UNL A   1      39.895  31.207  33.595  1.00  0.00     0.167 HD
ATOM     47  C   UNL A   1      40.894  32.948  37.479  1.00  0.00     0.037 A 
ATOM     48  C   UNL A   1      40.308  29.507  31.425  1.00  0.00     0.037 A 
ATOM     49  C   UNL A   1      41.896  31.939  37.262  1.00  0.00     0.049 A 
ATOM     50  C   UNL A   1      41.432  29.230  32.388  1.00  0.00     0.074 A 
ATOM     51  C   UNL A   1      42.938  31.563  38.091  1.00  0.00     0.029 A 
ATOM     52  N   UNL A   1      41.985  31.150  36.125  1.00  0.00    -0.354 N 
ATOM     53  N   UNL A   1      41.671  29.768  33.559  1.00  0.00    -0.248 NA
ATOM     54  C   UNL A   1      42.408  28.205  31.989  1.00  0.00     0.031 C 
ATOM     55  C   UNL A   1      43.686  30.578  37.434  1.00  0.00     0.029 A 
ATOM     56  C   UNL A   1      43.079  30.305  36.218  1.00  0.00     0.049 A 
ATOM     57  H   UNL A   1      41.362  31.184  35.363  1.00  0.00     0.167 HD
ATOM     58  C   UNL A   1      42.809  29.137  34.047  1.00  0.00     0.074 A 
ATOM     59  C   UNL A   1      43.204  28.164  33.050  1.00  0.00     0.031 C 
ATOM     60  C   UNL A   1      43.465  29.344  35.215  1.00  0.00     0.037 A 
BRANCH  47  61
ATOM     61  C   UNL A   1      40.969  33.776  38.729  1.00  0.00     0.064 A 
ATOM     62  C   UNL A   1      40.203  33.470  39.865  1.00  0.00     0.173 A 
ATOM     63  C   UNL A   1      41.817  34.892  38.789  1.00  0.00     0.173 A 
ATOM     64  F   UNL A   1      39.364  32.424  39.852  1.00  0.00    -0.203 F 
ATOM     65  C   UNL A   1      40.256  34.274  41.001  1.00  0.00     0.198 A 
ATOM     66  C   UNL A   1      41.889  35.675  39.939  1.00  0.00     0.198 A 
ATOM     67  F   UNL A   1      42.571  35.227  37.732  1.00  0.00    -0.203 F 
ATOM     68  F   UNL A   1      39.470  33.999  42.052  1.00  0.00    -0.200 F 
ATOM     69  C   UNL A   1      41.101  35.373  41.039  1.00  0.00     0.200 A 
ATOM     70  F   UNL A   1      42.712  36.733  39.975  1.00  0.00    -0.200 F 
ATOM     71  F   UNL A   1      41.147  36.148  42.130  1.00  0.00    -0.200 F 
ENDBRANCH  47  61
BRANCH  48  72
ATOM     72  C   UNL A   1      40.224  28.799  30.122  1.00  0.00     0.064 A 
ATOM     73  C   UNL A   1      40.814  29.327  28.966  1.00  0.00     0.173 A 
ATOM     74  C   UNL A   1      39.562  27.568  30.016  1.00  0.00     0.173 A 
ATOM     75  F   UNL A   1      41.437  30.513  29.014  1.00  0.00    -0.203 F 
ATOM     76  C   UNL A   1      40.737  28.651  27.749  1.00  0.00     0.198 A 
ATOM     77  C   UNL A   1      39.507  26.882  28.805  1.00  0.00     0.198 A 
ATOM     78  F   UNL A   1      38.982  27.022  31.095  1.00  0.00    -0.203 F 
ATOM     79  F   UNL A   1      41.281  29.193  26.651  1.00  0.00    -0.200 F 
ATOM     80  C   UNL A   1      40.091  27.426  27.671  1.00  0.00     0.200 A 
ATOM     81  F   UNL A   1      38.893  25.693  28.738  1.00  0.00    -0.200 F 
ATOM     82  F   UNL A   1      40.027  26.773  26.504  1.00  0.00    -0.200 F 
ENDBRANCH  48  72
BRANCH  60  83
ATOM     83  C   UNL A   1      44.669  28.489  35.490  1.00  0.00     0.064 A 
ATOM     84  C   UNL A   1      44.558  27.248  36.133  1.00  0.00     0.173 A 
ATOM     85  C   UNL A   1      45.944  28.902  35.072  1.00  0.00     0.173 A 
ATOM     86  F   UNL A   1      43.363  26.814  36.562  1.00  0.00    -0.203 F 
ATOM     87  C   UNL A   1      45.683  26.463  36.372  1.00  0.00     0.198 A 
ATOM     88  C   UNL A   1      47.063  28.102  35.289  1.00  0.00     0.198 A 
ATOM     89  F   UNL A   1      46.104  30.077  34.446  1.00  0.00    -0.203 F 
ATOM     90  F   UNL A   1      45.560  25.302  37.031  1.00  0.00    -0.200 F 
ATOM     91  C   UNL A   1      46.933  26.887  35.945  1.00  0.00     0.200 A 
ATOM     92  F   UNL A   1      48.267  28.508  34.865  1.00  0.00    -0.200 F 
ATOM     93  F   UNL A   1      48.014  26.129  36.173  1.00  0.00    -0.200 F 
ENDBRANCH  60  83
ENDBRANCH  34  35
ENDBRANCH  27  29
ENDBRANCH  26  27
ENDBRANCH  25  26
ENDBRANCH  24  25
ENDBRANCH  23  24
ENDBRANCH  22  23
ENDBRANCH   1  22
TORSDOF 19
ENDMDL
MODEL 2
REMARK VINA RESULT:      -9.9      2.018      3.767
REMARK SMILES COCc1cc(C[NH+]2CCC(CC(=O)OCCOCCOC(=O)c3ccc(-c4c5nc(c(-c6c(F)c(F)c(F)c(F)c6F)c6ccc([nH]6)c(-c6c(F)c(F)c(F)c(F)c6F)c6nc(c(-c7c(F)c(F)c(F)c(F)c7F)c7ccc4[nH]7)C=C6)C=C5)cc3)CC2)no1
REMARK SMILES IDX 16 1 15 2 13 3 14 4 12 5 11 6 8 7 9 8 88 9 10 11 87 12 7 13
REMARK SMILES IDX 6 14 4 15 5 16 90 17 89 18 3 19 2 20 1 21 17 22 18 23 19 24
REMARK SMILES IDX 20 25 21 26 22 27 23 28 24 29 25 30 86 31 26 32 85 33 27 34
REMARK SMILES IDX 28 35 29 36 79 37 30 38 84 39 78 40 80 41 31 42 83 43 77 44
REMARK SMILES IDX 76 45 32 47 64 48 44 49 63 50 45 51 48 52 62 53 81 54 46 55
REMARK SMILES IDX 47 56 61 58 82 59 49 60 33 61 34 62 42 63 35 64 36 65 40 66
REMARK SMILES IDX 43 67 37 68 38 69 41 70 39 71 65 72 66 73 74 74 67 75 68 76
REMARK SMILES IDX 72 77 75 78 69 79 70 80 73 81 71 82 50 83 51 84 59 85 52 86
REMARK SMILES IDX 53 87 57 88 60 89 54 90 55 91 58 92 56 93
REMARK H PARENT 8 10 80 46 48 57
REMARK Flexibility Score: inf
ROOT
ATOM      1  C   UNL A   1      35.431  32.406  28.049  1.00  0.00     0.261 C 
ENDROOT
BRANCH   1   2
ATOM      2  O   UNL A   1      35.322  31.037  28.491  1.00  0.00    -0.463 OA
BRANCH   2   3
ATOM      3  C   UNL A   1      34.674  30.182  27.662  1.00  0.00     0.306 C 
ATOM      4  O   UNL A   1      35.139  29.131  27.238  1.00  0.00    -0.252 OA
BRANCH   3   5
ATOM      5  C   UNL A   1      33.310  30.692  27.250  1.00  0.00     0.126 C 
BRANCH   5   6
ATOM      6  C   UNL A   1      32.363  29.709  26.531  1.00  0.00     0.011 C 
ATOM      7  N   UNL A   1      31.872  26.904  25.857  1.00  0.00    -0.330 N 
ATOM      8  C   UNL A   1      32.197  27.847  24.790  1.00  0.00     0.262 C 
ATOM      9  C   UNL A   1      31.062  27.538  26.897  1.00  0.00     0.262 C 
ATOM     10  H   UNL A   1      32.764  26.640  26.276  1.00  0.00     0.348 HD
ATOM     11  C   UNL A   1      33.038  29.002  25.342  1.00  0.00     0.066 C 
ATOM     12  C   UNL A   1      31.863  28.665  27.549  1.00  0.00     0.066 C 
BRANCH   7  13
ATOM     13  C   UNL A   1      31.308  25.627  25.392  1.00  0.00     0.323 C 
BRANCH  13  14
ATOM     14  C   UNL A   1      31.828  24.412  26.096  1.00  0.00     0.138 A 
ATOM     15  C   UNL A   1      33.031  22.673  26.721  1.00  0.00     0.162 A 
ATOM     16  C   UNL A   1      32.922  23.600  25.715  1.00  0.00     0.081 A 
ATOM     17  O   UNL A   1      32.051  22.898  27.639  1.00  0.00    -0.358 OA
ATOM     18  N   UNL A   1      31.295  23.990  27.251  1.00  0.00    -0.079 NA
BRANCH  15  19
ATOM     19  C   UNL A   1      33.936  21.531  26.977  1.00  0.00     0.238 C 
BRANCH  19  20
ATOM     20  O   UNL A   1      33.711  20.500  26.012  1.00  0.00    -0.377 OA
ATOM     21  C   UNL A   1      34.702  20.426  24.996  1.00  0.00     0.195 C 
ENDBRANCH  19  20
ENDBRANCH  15  19
ENDBRANCH  13  14
ENDBRANCH   7  13
ENDBRANCH   5   6
ENDBRANCH   3   5
ENDBRANCH   2   3
ENDBRANCH   1   2
BRANCH   1  22
ATOM     22  C   UNL A   1      35.287  33.366  29.232  1.00  0.00     0.202 C 
BRANCH  22  23
ATOM     23  O   UNL A   1      34.773  34.661  28.912  1.00  0.00    -0.374 OA
BRANCH  23  24
ATOM     24  C   UNL A   1      33.356  34.785  28.819  1.00  0.00     0.202 C 
BRANCH  24  25
ATOM     25  C   UNL A   1      32.754  35.993  29.547  1.00  0.00     0.261 C 
BRANCH  25  26
ATOM     26  O   UNL A   1      33.402  36.236  30.809  1.00  0.00    -0.460 OA
BRANCH  26  27
ATOM     27  C   UNL A   1      32.968  35.442  31.815  1.00  0.00     0.338 C 
ATOM     28  O   UNL A   1      31.812  35.136  32.072  1.00  0.00    -0.246 OA
BRANCH  27  29
ATOM     29  C   UNL A   1      34.105  34.841  32.536  1.00  0.00     0.060 A 
ATOM     30  C   UNL A   1      35.316  35.542  32.501  1.00  0.00     0.016 A 
ATOM     31  C   UNL A   1      34.030  33.584  33.143  1.00  0.00     0.016 A 
ATOM     32  C   UNL A   1      36.478  34.952  32.990  1.00  0.00     0.010 A 
ATOM     33  C   UNL A   1      35.200  32.991  33.635  1.00  0.00     0.010 A 
ATOM     34  C   UNL A   1      36.436  33.651  33.509  1.00  0.00    -0.014 A 
BRANCH  34  35
ATOM     35  C   UNL A   1      37.720  32.938  33.722  1.00  0.00     0.031 A 
ATOM     36  C   UNL A   1      38.489  33.189  34.991  1.00  0.00     0.074 A 
ATOM     37  C   UNL A   1      38.156  32.020  32.844  1.00  0.00     0.049 A 
ATOM     38  N   UNL A   1      39.586  32.623  35.426  1.00  0.00    -0.248 NA
ATOM     39  C   UNL A   1      37.948  34.220  35.889  1.00  0.00     0.031 C 
ATOM     40  C   UNL A   1      37.496  31.674  31.588  1.00  0.00     0.029 A 
ATOM     41  N   UNL A   1      39.261  31.206  32.883  1.00  0.00    -0.354 N 
ATOM     42  C   UNL A   1      39.864  33.226  36.645  1.00  0.00     0.074 A 
ATOM     43  C   UNL A   1      38.848  34.233  36.860  1.00  0.00     0.031 C 
ATOM     44  C   UNL A   1      38.212  30.719  30.970  1.00  0.00     0.029 A 
ATOM     45  C   UNL A   1      39.384  30.395  31.783  1.00  0.00     0.049 A 
ATOM     46  H   UNL A   1      39.902  31.203  33.630  1.00  0.00     0.167 HD
ATOM     47  C   UNL A   1      40.865  32.955  37.518  1.00  0.00     0.037 A 
ATOM     48  C   UNL A   1      40.338  29.498  31.467  1.00  0.00     0.037 A 
ATOM     49  C   UNL A   1      41.871  31.948  37.311  1.00  0.00     0.049 A 
ATOM     50  C   UNL A   1      41.455  29.226  32.440  1.00  0.00     0.074 A 
ATOM     51  C   UNL A   1      42.906  31.575  38.150  1.00  0.00     0.029 A 
ATOM     52  N   UNL A   1      41.971  31.156  36.177  1.00  0.00    -0.354 N 
ATOM     53  N   UNL A   1      41.682  29.767  33.612  1.00  0.00    -0.248 NA
ATOM     54  C   UNL A   1      42.436  28.202  32.052  1.00  0.00     0.031 C 
ATOM     55  C   UNL A   1      43.662  30.591  37.502  1.00  0.00     0.029 A 
ATOM     56  C   UNL A   1      43.067  30.314  36.282  1.00  0.00     0.049 A 
ATOM     57  H   UNL A   1      41.355  31.187  35.410  1.00  0.00     0.167 HD
ATOM     58  C   UNL A   1      42.817  29.140  34.111  1.00  0.00     0.074 A 
ATOM     59  C   UNL A   1      43.223  28.165  33.120  1.00  0.00     0.031 C 
ATOM     60  C   UNL A   1      43.464  29.351  35.284  1.00  0.00     0.037 A 
BRANCH  47  61
ATOM     61  C   UNL A   1      40.928  33.786  38.766  1.00  0.00     0.064 A 
ATOM     62  C   UNL A   1      41.726  34.937  38.848  1.00  0.00     0.173 A 
ATOM     63  C   UNL A   1      40.182  33.422  39.897  1.00  0.00     0.173 A 
ATOM     64  F   UNL A   1      42.472  35.318  37.800  1.00  0.00    -0.203 F 
ATOM     65  C   UNL A   1      41.803  35.673  40.029  1.00  0.00     0.198 A 
ATOM     66  C   UNL A   1      40.239  34.177  41.066  1.00  0.00     0.198 A 
ATOM     67  F   UNL A   1      39.403  32.331  39.871  1.00  0.00    -0.203 F 
ATOM     68  F   UNL A   1      42.619  36.733  40.104  1.00  0.00    -0.200 F 
ATOM     69  C   UNL A   1      41.057  35.294  41.135  1.00  0.00     0.200 A 
ATOM     70  F   UNL A   1      39.511  33.814  42.132  1.00  0.00    -0.200 F 
ATOM     71  F   UNL A   1      41.136  35.999  42.272  1.00  0.00    -0.200 F 
ENDBRANCH  47  61
BRANCH  48  72
ATOM     72  C   UNL A   1      40.267  28.787  30.165  1.00  0.00     0.064 A 
ATOM     73  C   UNL A   1      39.581  27.572  30.033  1.00  0.00     0.173 A 
ATOM     74  C   UNL A   1      40.872  29.325  29.020  1.00  0.00     0.173 A 
ATOM     75  F   UNL A   1      39.006  27.009  31.106  1.00  0.00    -0.203 F 
ATOM     76  C   UNL A   1      39.512  26.917  28.806  1.00  0.00     0.198 A 
ATOM     77  C   UNL A   1      40.781  28.681  27.788  1.00  0.00     0.198 A 
ATOM     78  F   UNL A   1      41.539  30.486  29.095  1.00  0.00    -0.203 F 
ATOM     79  F   UNL A   1      38.879  25.740  28.713  1.00  0.00    -0.200 F 
ATOM     80  C   UNL A   1      40.105  27.475  27.683  1.00  0.00     0.200 A 
ATOM     81  F   UNL A   1      41.345  29.232  26.704  1.00  0.00    -0.200 F 
ATOM     82  F   UNL A   1      40.028  26.850  26.501  1.00  0.00    -0.200 F 
ENDBRANCH  48  72
BRANCH  60  83
ATOM     83  C   UNL A   1      44.667  28.500  35.571  1.00  0.00     0.064 A 
ATOM     84  C   UNL A   1      45.959  28.906  35.206  1.00  0.00     0.173 A 
ATOM     85  C   UNL A   1      44.529  27.281  36.253  1.00  0.00     0.173 A 
ATOM     86  F   UNL A   1      46.142  30.057  34.542  1.00  0.00    -0.203 F 
ATOM     87  C   UNL A   1      47.065  28.108  35.487  1.00  0.00     0.198 A 
ATOM     88  C   UNL A   1      45.641  26.500  36.557  1.00  0.00     0.198 A 
ATOM     89  F   UNL A   1      43.316  26.851  36.632  1.00  0.00    -0.203 F 
ATOM     90  F   UNL A   1      48.285  28.493  35.087  1.00  0.00    -0.200 F 
ATOM     91  C   UNL A   1      46.907  26.910  36.167  1.00  0.00     0.200 A 
ATOM     92  F   UNL A   1      45.487  25.348  37.224  1.00  0.00    -0.200 F 
ATOM     93  F   UNL A   1      47.973  26.146  36.440  1.00  0.00    -0.200 F 
ENDBRANCH  60  83
ENDBRANCH  34  35
ENDBRANCH  27  29
ENDBRANCH  26  27
ENDBRANCH  25  26
ENDBRANCH  24  25
ENDBRANCH  23  24
ENDBRANCH  22  23
ENDBRANCH   1  22
TORSDOF 19
ENDMDL
MODEL 3
REMARK VINA RESULT:      -9.7      4.022      7.657
REMARK SMILES COCc1cc(C[NH+]2CCC(CC(=O)OCCOCCOC(=O)c3ccc(-c4c5nc(c(-c6c(F)c(F)c(F)c(F)c6F)c6ccc([nH]6)c(-c6c(F)c(F)c(F)c(F)c6F)c6nc(c(-c7c(F)c(F)c(F)c(F)c7F)c7ccc4[nH]7)C=C6)C=C5)cc3)CC2)no1
REMARK SMILES IDX 16 1 15 2 13 3 14 4 12 5 11 6 8 7 9 8 88 9 10 11 87 12 7 13
REMARK SMILES IDX 6 14 4 15 5 16 90 17 89 18 3 19 2 20 1 21 17 22 18 23 19 24
REMARK SMILES IDX 20 25 21 26 22 27 23 28 24 29 25 30 86 31 26 32 85 33 27 34
REMARK SMILES IDX 28 35 29 36 79 37 30 38 84 39 78 40 80 41 31 42 83 43 77 44
REMARK SMILES IDX 76 45 32 47 64 48 44 49 63 50 45 51 48 52 62 53 81 54 46 55
REMARK SMILES IDX 47 56 61 58 82 59 49 60 33 61 34 62 42 63 35 64 36 65 40 66
REMARK SMILES IDX 43 67 37 68 38 69 41 70 39 71 65 72 66 73 74 74 67 75 68 76
REMARK SMILES IDX 72 77 75 78 69 79 70 80 73 81 71 82 50 83 51 84 59 85 52 86
REMARK SMILES IDX 53 87 57 88 60 89 54 90 55 91 58 92 56 93
REMARK H PARENT 8 10 80 46 48 57
REMARK Flexibility Score: inf
ROOT
ATOM      1  C   UNL A   1      33.207  35.248  31.159  1.00  0.00     0.261 C 
ENDROOT
BRANCH   1   2
ATOM      2  O   UNL A   1      34.124  34.207  31.554  1.00  0.00    -0.463 OA
BRANCH   2   3
ATOM      3  C   UNL A   1      35.309  34.609  32.077  1.00  0.00     0.306 C 
ATOM      4  O   UNL A   1      35.453  35.565  32.829  1.00  0.00    -0.252 OA
BRANCH   3   5
ATOM      5  C   UNL A   1      36.476  33.782  31.580  1.00  0.00     0.126 C 
BRANCH   5   6
ATOM      6  C   UNL A   1      37.806  34.513  31.302  1.00  0.00     0.011 C 
ATOM      7  N   UNL A   1      40.638  34.180  30.643  1.00  0.00    -0.330 N 
ATOM      8  C   UNL A   1      40.268  34.711  31.953  1.00  0.00     0.262 C 
ATOM      9  C   UNL A   1      39.715  34.639  29.605  1.00  0.00     0.262 C 
ATOM     10  H   UNL A   1      40.543  33.167  30.717  1.00  0.00     0.348 HD
ATOM     11  C   UNL A   1      38.881  34.203  32.358  1.00  0.00     0.066 C 
ATOM     12  C   UNL A   1      38.312  34.110  29.903  1.00  0.00     0.066 C 
BRANCH   7  13
ATOM     13  C   UNL A   1      42.050  34.379  30.281  1.00  0.00     0.323 C 
BRANCH  13  14
ATOM     14  C   UNL A   1      42.763  33.147  29.816  1.00  0.00     0.138 A 
ATOM     15  C   UNL A   1      44.031  31.714  28.720  1.00  0.00     0.162 A 
ATOM     16  C   UNL A   1      43.542  32.994  28.646  1.00  0.00     0.081 A 
ATOM     17  O   UNL A   1      43.557  31.124  29.852  1.00  0.00    -0.358 OA
ATOM     18  N   UNL A   1      42.763  32.021  30.544  1.00  0.00    -0.079 NA
BRANCH  15  19
ATOM     19  C   UNL A   1      44.899  30.889  27.850  1.00  0.00     0.238 C 
BRANCH  19  20
ATOM     20  O   UNL A   1      44.402  29.550  27.788  1.00  0.00    -0.377 OA
ATOM     21  C   UNL A   1      43.296  29.379  26.912  1.00  0.00     0.195 C 
ENDBRANCH  19  20
ENDBRANCH  15  19
ENDBRANCH  13  14
ENDBRANCH   7  13
ENDBRANCH   5   6
ENDBRANCH   3   5
ENDBRANCH   2   3
ENDBRANCH   1   2
BRANCH   1  22
ATOM     22  C   UNL A   1      33.567  35.783  29.772  1.00  0.00     0.202 C 
BRANCH  22  23
ATOM     23  O   UNL A   1      32.679  35.404  28.718  1.00  0.00    -0.374 OA
BRANCH  23  24
ATOM     24  C   UNL A   1      32.847  34.096  28.175  1.00  0.00     0.202 C 
BRANCH  24  25
ATOM     25  C   UNL A   1      34.300  33.633  28.015  1.00  0.00     0.261 C 
BRANCH  25  26
ATOM     26  O   UNL A   1      34.583  32.469  28.813  1.00  0.00    -0.460 OA
BRANCH  26  27
ATOM     27  C   UNL A   1      34.530  31.304  28.128  1.00  0.00     0.338 C 
ATOM     28  O   UNL A   1      33.666  30.945  27.339  1.00  0.00    -0.246 OA
BRANCH  27  29
ATOM     29  C   UNL A   1      35.757  30.515  28.339  1.00  0.00     0.060 A 
ATOM     30  C   UNL A   1      35.805  29.716  29.488  1.00  0.00     0.016 A 
ATOM     31  C   UNL A   1      36.873  30.624  27.505  1.00  0.00     0.016 A 
ATOM     32  C   UNL A   1      36.994  29.095  29.858  1.00  0.00     0.010 A 
ATOM     33  C   UNL A   1      38.071  29.998  27.878  1.00  0.00     0.010 A 
ATOM     34  C   UNL A   1      38.148  29.279  29.084  1.00  0.00    -0.014 A 
BRANCH  34  35
ATOM     35  C   UNL A   1      39.454  28.877  29.664  1.00  0.00     0.031 A 
ATOM     36  C   UNL A   1      39.939  29.568  30.910  1.00  0.00     0.074 A 
ATOM     37  C   UNL A   1      40.159  27.860  29.143  1.00  0.00     0.049 A 
ATOM     38  N   UNL A   1      41.003  29.329  31.634  1.00  0.00    -0.248 NA
ATOM     39  C   UNL A   1      39.113  30.680  31.404  1.00  0.00     0.031 C 
ATOM     40  C   UNL A   1      39.790  27.101  27.951  1.00  0.00     0.029 A 
ATOM     41  N   UNL A   1      41.335  27.287  29.561  1.00  0.00    -0.354 N 
ATOM     42  C   UNL A   1      40.973  30.257  32.667  1.00  0.00     0.074 A 
ATOM     43  C   UNL A   1      39.811  31.092  32.451  1.00  0.00     0.031 C 
ATOM     44  C   UNL A   1      40.725  26.162  27.728  1.00  0.00     0.029 A 
ATOM     45  C   UNL A   1      41.762  26.262  28.755  1.00  0.00     0.049 A 
ATOM     46  H   UNL A   1      41.825  27.583  30.362  1.00  0.00     0.167 HD
ATOM     47  C   UNL A   1      41.824  30.392  33.712  1.00  0.00     0.037 A 
ATOM     48  C   UNL A   1      42.867  25.496  28.836  1.00  0.00     0.037 A 
ATOM     49  C   UNL A   1      42.974  29.557  33.935  1.00  0.00     0.049 A 
ATOM     50  C   UNL A   1      43.813  25.675  29.993  1.00  0.00     0.074 A 
ATOM     51  C   UNL A   1      43.879  29.593  34.980  1.00  0.00     0.029 A 
ATOM     52  N   UNL A   1      43.383  28.537  33.088  1.00  0.00    -0.354 N 
ATOM     53  N   UNL A   1      43.751  26.523  30.990  1.00  0.00    -0.248 NA
ATOM     54  C   UNL A   1      44.975  24.775  30.044  1.00  0.00     0.031 C 
ATOM     55  C   UNL A   1      44.863  28.625  34.742  1.00  0.00     0.029 A 
ATOM     56  C   UNL A   1      44.542  27.953  33.574  1.00  0.00     0.049 A 
ATOM     57  H   UNL A   1      42.917  28.267  32.263  1.00  0.00     0.167 HD
ATOM     58  C   UNL A   1      44.848  26.248  31.797  1.00  0.00     0.074 A 
ATOM     59  C   UNL A   1      45.551  25.144  31.180  1.00  0.00     0.031 C 
ATOM     60  C   UNL A   1      45.236  26.856  32.946  1.00  0.00     0.037 A 
BRANCH  47  61
ATOM     61  C   UNL A   1      41.549  31.506  34.679  1.00  0.00     0.064 A 
ATOM     62  C   UNL A   1      42.177  32.756  34.565  1.00  0.00     0.173 A 
ATOM     63  C   UNL A   1      40.648  31.319  35.737  1.00  0.00     0.173 A 
ATOM     64  F   UNL A   1      43.062  32.980  33.581  1.00  0.00    -0.203 F 
ATOM     65  C   UNL A   1      41.940  33.764  35.496  1.00  0.00     0.198 A 
ATOM     66  C   UNL A   1      40.390  32.340  36.649  1.00  0.00     0.198 A 
ATOM     67  F   UNL A   1      40.020  30.144  35.891  1.00  0.00    -0.203 F 
ATOM     68  F   UNL A   1      42.598  34.929  35.403  1.00  0.00    -0.200 F 
ATOM     69  C   UNL A   1      41.045  33.557  36.535  1.00  0.00     0.200 A 
ATOM     70  F   UNL A   1      39.519  32.140  37.648  1.00  0.00    -0.200 F 
ATOM     71  F   UNL A   1      40.822  34.525  37.433  1.00  0.00    -0.200 F 
ENDBRANCH  47  61
BRANCH  48  72
ATOM     72  C   UNL A   1      43.127  24.481  27.783  1.00  0.00     0.064 A 
ATOM     73  C   UNL A   1      43.827  24.805  26.614  1.00  0.00     0.173 A 
ATOM     74  C   UNL A   1      42.692  23.157  27.939  1.00  0.00     0.173 A 
ATOM     75  F   UNL A   1      44.242  26.064  26.410  1.00  0.00    -0.203 F 
ATOM     76  C   UNL A   1      44.075  23.844  25.635  1.00  0.00     0.198 A 
ATOM     77  C   UNL A   1      42.962  22.192  26.972  1.00  0.00     0.198 A 
ATOM     78  F   UNL A   1      42.019  22.797  29.042  1.00  0.00    -0.203 F 
ATOM     79  F   UNL A   1      44.717  24.188  24.511  1.00  0.00    -0.200 F 
ATOM     80  C   UNL A   1      43.649  22.537  25.818  1.00  0.00     0.200 A 
ATOM     81  F   UNL A   1      42.559  20.927  27.160  1.00  0.00    -0.200 F 
ATOM     82  F   UNL A   1      43.897  21.612  24.883  1.00  0.00    -0.200 F 
ENDBRANCH  48  72
BRANCH  60  83
ATOM     83  C   UNL A   1      46.468  26.327  33.623  1.00  0.00     0.064 A 
ATOM     84  C   UNL A   1      46.403  25.281  34.554  1.00  0.00     0.173 A 
ATOM     85  C   UNL A   1      47.732  26.850  33.308  1.00  0.00     0.173 A 
ATOM     86  F   UNL A   1      45.218  24.755  34.898  1.00  0.00    -0.203 F 
ATOM     87  C   UNL A   1      47.556  24.796  35.166  1.00  0.00     0.198 A 
ATOM     88  C   UNL A   1      48.885  26.344  33.901  1.00  0.00     0.198 A 
ATOM     89  F   UNL A   1      47.849  27.846  32.418  1.00  0.00    -0.203 F 
ATOM     90  F   UNL A   1      47.466  23.827  36.089  1.00  0.00    -0.200 F 
ATOM     91  C   UNL A   1      48.796  25.323  34.836  1.00  0.00     0.200 A 
ATOM     92  F   UNL A   1      50.082  26.846  33.572  1.00  0.00    -0.200 F 
ATOM     93  F   UNL A   1      49.905  24.852  35.423  1.00  0.00    -0.200 F 
ENDBRANCH  60  83
ENDBRANCH  34  35
ENDBRANCH  27  29
ENDBRANCH  26  27
ENDBRANCH  25  26
ENDBRANCH  24  25
ENDBRANCH  23  24
ENDBRANCH  22  23
ENDBRANCH   1  22
TORSDOF 19
ENDMDL
