MODEL 1
REMARK VINA RESULT:     -11.4      0.000      0.000
REMARK SMILES C[NH2+][C@@]1(C(=O)OCCOCCOC(=O)c2ccc(-c3c4nc(c(-c5c(F)c(F)c(F)c(F)c5F)c5ccc([nH]5)c(-c5c(F)c(F)c(F)c(F)c5F)c5nc(c(-c6c(F)c(F)c(F)c(F)c6F)c6ccc3[nH]6)C=C5)C=C4)cc2)C=CC=C(c2ccccc2)C1
REMARK SMILES IDX 10 1 9 2 8 3 7 4 6 5 4 6 5 7 3 8 78 9 88 10 79 11 81 12
REMARK SMILES IDX 80 13 2 14 1 15 82 18 83 19 87 20 84 21 86 22 85 23 11 24
REMARK SMILES IDX 12 25 13 26 14 27 15 28 16 29 77 30 17 31 76 32 18 33 19 34
REMARK SMILES IDX 20 35 70 36 21 37 75 38 69 39 71 40 22 41 74 42 68 43 67 44
REMARK SMILES IDX 23 46 55 47 35 48 54 49 36 50 39 51 53 52 72 53 37 54 38 55
REMARK SMILES IDX 52 57 73 58 40 59 24 60 25 61 33 62 26 63 27 64 31 65 34 66
REMARK SMILES IDX 28 67 29 68 32 69 30 70 56 71 57 72 65 73 58 74 59 75 63 76
REMARK SMILES IDX 66 77 60 78 61 79 64 80 62 81 41 82 42 83 50 84 43 85 44 86
REMARK SMILES IDX 48 87 51 88 45 89 46 90 49 91 47 92
REMARK H PARENT 2 16 2 17 71 45 39 56
REMARK Flexibility Score: inf
ROOT
ATOM      1  C   UNL A   1      31.183  29.830  24.867  1.00  0.00     0.202 C 
ENDROOT
BRANCH   1   2
ATOM      2  O   UNL A   1      32.282  29.315  24.114  1.00  0.00    -0.374 OA
BRANCH   2   3
ATOM      3  C   UNL A   1      32.010  28.782  22.821  1.00  0.00     0.202 C 
BRANCH   3   4
ATOM      4  C   UNL A   1      30.608  28.210  22.602  1.00  0.00     0.261 C 
BRANCH   4   5
ATOM      5  O   UNL A   1      30.615  26.773  22.648  1.00  0.00    -0.458 OA
BRANCH   5   6
ATOM      6  C   UNL A   1      30.086  26.225  23.779  1.00  0.00     0.372 C 
ATOM      7  O   UNL A   1      28.896  26.321  24.080  1.00  0.00    -0.244 OA
BRANCH   6   8
ATOM      8  C   UNL A   1      31.147  25.501  24.686  1.00  0.00     0.217 C 
ATOM      9  C   UNL A   1      31.306  26.465  25.858  1.00  0.00     0.053 C 
ATOM     10  C   UNL A   1      32.534  25.253  23.983  1.00  0.00     0.122 C 
ATOM     11  C   UNL A   1      32.485  26.687  26.458  1.00  0.00     0.003 C 
ATOM     12  C   UNL A   1      33.686  25.191  24.968  1.00  0.00    -0.034 C 
ATOM     13  C   UNL A   1      33.646  25.910  26.105  1.00  0.00     0.004 C 
BRANCH   8  14
ATOM     14  N   UNL A   1      30.538  24.181  25.033  1.00  0.00    -0.331 N 
ATOM     15  C   UNL A   1      30.391  23.875  26.443  1.00  0.00     0.332 C 
ATOM     16  H   UNL A   1      29.608  24.150  24.614  1.00  0.00     0.347 HD
ATOM     17  H   UNL A   1      31.191  23.483  24.676  1.00  0.00     0.347 HD
ENDBRANCH   8  14
BRANCH  12  18
ATOM     18  C   UNL A   1      34.850  24.332  24.694  1.00  0.00    -0.022 A 
ATOM     19  C   UNL A   1      35.017  23.770  23.418  1.00  0.00     0.008 A 
ATOM     20  C   UNL A   1      35.785  24.030  25.690  1.00  0.00     0.008 A 
ATOM     21  C   UNL A   1      36.076  22.902  23.150  1.00  0.00     0.001 A 
ATOM     22  C   UNL A   1      36.844  23.156  25.422  1.00  0.00     0.001 A 
ATOM     23  C   UNL A   1      36.987  22.589  24.156  1.00  0.00     0.000 A 
ENDBRANCH  12  18
ENDBRANCH   6   8
ENDBRANCH   5   6
ENDBRANCH   4   5
ENDBRANCH   3   4
ENDBRANCH   2   3
ENDBRANCH   1   2
BRANCH   1  24
ATOM     24  C   UNL A   1      31.537  30.699  26.081  1.00  0.00     0.261 C 
BRANCH  24  25
ATOM     25  O   UNL A   1      32.886  30.478  26.539  1.00  0.00    -0.460 OA
BRANCH  25  26
ATOM     26  C   UNL A   1      33.433  31.521  27.205  1.00  0.00     0.338 C 
ATOM     27  O   UNL A   1      32.891  32.576  27.512  1.00  0.00    -0.246 OA
BRANCH  26  28
ATOM     28  C   UNL A   1      34.779  31.172  27.694  1.00  0.00     0.060 A 
ATOM     29  C   UNL A   1      35.027  29.826  27.997  1.00  0.00     0.016 A 
ATOM     30  C   UNL A   1      35.746  32.147  27.946  1.00  0.00     0.016 A 
ATOM     31  C   UNL A   1      36.226  29.457  28.603  1.00  0.00     0.010 A 
ATOM     32  C   UNL A   1      36.946  31.775  28.566  1.00  0.00     0.010 A 
ATOM     33  C   UNL A   1      37.174  30.435  28.931  1.00  0.00    -0.014 A 
BRANCH  33  34
ATOM     34  C   UNL A   1      38.324  30.070  29.794  1.00  0.00     0.031 A 
ATOM     35  C   UNL A   1      39.353  29.108  29.270  1.00  0.00     0.074 A 
ATOM     36  C   UNL A   1      38.472  30.618  31.012  1.00  0.00     0.049 A 
ATOM     37  N   UNL A   1      40.428  28.640  29.852  1.00  0.00    -0.248 NA
ATOM     38  C   UNL A   1      39.143  28.608  27.902  1.00  0.00     0.031 C 
ATOM     39  C   UNL A   1      37.566  31.590  31.617  1.00  0.00     0.029 A 
ATOM     40  N   UNL A   1      39.446  30.428  31.961  1.00  0.00    -0.354 N 
ATOM     41  C   UNL A   1      41.021  27.794  28.924  1.00  0.00     0.074 A 
ATOM     42  C   UNL A   1      40.171  27.786  27.752  1.00  0.00     0.031 C 
ATOM     43  C   UNL A   1      38.017  31.903  32.843  1.00  0.00     0.029 A 
ATOM     44  C   UNL A   1      39.230  31.133  33.118  1.00  0.00     0.049 A 
ATOM     45  H   UNL A   1      40.225  29.840  31.825  1.00  0.00     0.167 HD
ATOM     46  C   UNL A   1      42.176  27.095  29.033  1.00  0.00     0.037 A 
ATOM     47  C   UNL A   1      39.924  31.142  34.273  1.00  0.00     0.037 A 
ATOM     48  C   UNL A   1      43.020  27.097  30.199  1.00  0.00     0.049 A 
ATOM     49  C   UNL A   1      41.170  30.304  34.396  1.00  0.00     0.074 A 
ATOM     50  C   UNL A   1      44.214  26.428  30.404  1.00  0.00     0.029 A 
ATOM     51  N   UNL A   1      42.753  27.803  31.363  1.00  0.00    -0.354 N 
ATOM     52  N   UNL A   1      41.733  29.523  33.508  1.00  0.00    -0.248 NA
ATOM     53  C   UNL A   1      41.878  30.354  35.684  1.00  0.00     0.031 C 
ATOM     54  C   UNL A   1      44.647  26.695  31.708  1.00  0.00     0.029 A 
ATOM     55  C   UNL A   1      43.748  27.568  32.298  1.00  0.00     0.049 A 
ATOM     56  H   UNL A   1      41.972  28.386  31.504  1.00  0.00     0.167 HD
ATOM     57  C   UNL A   1      42.871  29.008  34.116  1.00  0.00     0.074 A 
ATOM     58  C   UNL A   1      42.925  29.575  35.447  1.00  0.00     0.031 C 
ATOM     59  C   UNL A   1      43.788  28.143  33.618  1.00  0.00     0.037 A 
BRANCH  46  60
ATOM     60  C   UNL A   1      42.584  26.249  27.863  1.00  0.00     0.064 A 
ATOM     61  C   UNL A   1      42.066  24.960  27.673  1.00  0.00     0.173 A 
ATOM     62  C   UNL A   1      43.483  26.745  26.907  1.00  0.00     0.173 A 
ATOM     63  F   UNL A   1      41.214  24.436  28.568  1.00  0.00    -0.203 F 
ATOM     64  C   UNL A   1      42.453  24.187  26.582  1.00  0.00     0.198 A 
ATOM     65  C   UNL A   1      43.849  25.978  25.803  1.00  0.00     0.198 A 
ATOM     66  F   UNL A   1      44.005  27.973  27.042  1.00  0.00    -0.203 F 
ATOM     67  F   UNL A   1      41.981  22.940  26.444  1.00  0.00    -0.200 F 
ATOM     68  C   UNL A   1      43.339  24.698  25.646  1.00  0.00     0.200 A 
ATOM     69  F   UNL A   1      44.697  26.477  24.895  1.00  0.00    -0.200 F 
ATOM     70  F   UNL A   1      43.709  23.955  24.594  1.00  0.00    -0.200 F 
ENDBRANCH  46  60
BRANCH  47  71
ATOM     71  C   UNL A   1      39.445  31.964  35.414  1.00  0.00     0.064 A 
ATOM     72  C   UNL A   1      39.866  33.290  35.580  1.00  0.00     0.173 A 
ATOM     73  C   UNL A   1      38.563  31.433  36.366  1.00  0.00     0.173 A 
ATOM     74  F   UNL A   1      40.731  33.832  34.710  1.00  0.00    -0.203 F 
ATOM     75  C   UNL A   1      39.433  34.050  36.665  1.00  0.00     0.198 A 
ATOM     76  C   UNL A   1      38.110  32.203  37.436  1.00  0.00     0.198 A 
ATOM     77  F   UNL A   1      38.134  30.168  36.254  1.00  0.00    -0.203 F 
ATOM     78  F   UNL A   1      39.883  35.303  36.823  1.00  0.00    -0.200 F 
ATOM     79  C   UNL A   1      38.551  33.509  37.587  1.00  0.00     0.200 A 
ATOM     80  F   UNL A   1      37.250  31.678  38.319  1.00  0.00    -0.200 F 
ATOM     81  F   UNL A   1      38.132  34.243  38.627  1.00  0.00    -0.200 F 
ENDBRANCH  47  71
BRANCH  59  82
ATOM     82  C   UNL A   1      44.944  27.778  34.502  1.00  0.00     0.064 A 
ATOM     83  C   UNL A   1      44.900  26.657  35.346  1.00  0.00     0.173 A 
ATOM     84  C   UNL A   1      46.127  28.532  34.474  1.00  0.00     0.173 A 
ATOM     85  F   UNL A   1      43.786  25.913  35.419  1.00  0.00    -0.203 F 
ATOM     86  C   UNL A   1      45.989  26.318  36.143  1.00  0.00     0.198 A 
ATOM     87  C   UNL A   1      47.225  28.174  35.252  1.00  0.00     0.198 A 
ATOM     88  F   UNL A   1      46.224  29.609  33.679  1.00  0.00    -0.203 F 
ATOM     89  F   UNL A   1      45.910  25.268  36.971  1.00  0.00    -0.200 F 
ATOM     90  C   UNL A   1      47.153  27.072  36.091  1.00  0.00     0.200 A 
ATOM     91  F   UNL A   1      48.352  28.896  35.192  1.00  0.00    -0.200 F 
ATOM     92  F   UNL A   1      48.203  26.739  36.854  1.00  0.00    -0.200 F 
ENDBRANCH  59  82
ENDBRANCH  33  34
ENDBRANCH  26  28
ENDBRANCH  25  26
ENDBRANCH  24  25
ENDBRANCH   1  24
TORSDOF 16
ENDMDL
MODEL 2
REMARK VINA RESULT:     -11.4      0.966      7.559
REMARK SMILES C[NH2+][C@@]1(C(=O)OCCOCCOC(=O)c2ccc(-c3c4nc(c(-c5c(F)c(F)c(F)c(F)c5F)c5ccc([nH]5)c(-c5c(F)c(F)c(F)c(F)c5F)c5nc(c(-c6c(F)c(F)c(F)c(F)c6F)c6ccc3[nH]6)C=C5)C=C4)cc2)C=CC=C(c2ccccc2)C1
REMARK SMILES IDX 10 1 9 2 8 3 7 4 6 5 4 6 5 7 3 8 78 9 88 10 79 11 81 12
REMARK SMILES IDX 80 13 2 14 1 15 82 18 83 19 87 20 84 21 86 22 85 23 11 24
REMARK SMILES IDX 12 25 13 26 14 27 15 28 16 29 77 30 17 31 76 32 18 33 19 34
REMARK SMILES IDX 20 35 70 36 21 37 75 38 69 39 71 40 22 41 74 42 68 43 67 44
REMARK SMILES IDX 23 46 55 47 35 48 54 49 36 50 39 51 53 52 72 53 37 54 38 55
REMARK SMILES IDX 52 57 73 58 40 59 24 60 25 61 33 62 26 63 27 64 31 65 34 66
REMARK SMILES IDX 28 67 29 68 32 69 30 70 56 71 57 72 65 73 58 74 59 75 63 76
REMARK SMILES IDX 66 77 60 78 61 79 64 80 62 81 41 82 42 83 50 84 43 85 44 86
REMARK SMILES IDX 48 87 51 88 45 89 46 90 49 91 47 92
REMARK H PARENT 2 16 2 17 71 45 39 56
REMARK Flexibility Score: inf
ROOT
ATOM      1  C   UNL A   1      32.062  29.378  25.464  1.00  0.00     0.202 C 
ENDROOT
BRANCH   1   2
ATOM      2  O   UNL A   1      31.509  29.177  24.163  1.00  0.00    -0.374 OA
BRANCH   2   3
ATOM      3  C   UNL A   1      32.306  28.491  23.201  1.00  0.00     0.202 C 
BRANCH   3   4
ATOM      4  C   UNL A   1      31.616  27.369  22.423  1.00  0.00     0.261 C 
BRANCH   4   5
ATOM      5  O   UNL A   1      31.892  26.083  23.003  1.00  0.00    -0.458 OA
BRANCH   5   6
ATOM      6  C   UNL A   1      33.044  25.488  22.578  1.00  0.00     0.372 C 
ATOM      7  O   UNL A   1      33.609  25.791  21.528  1.00  0.00    -0.244 OA
BRANCH   6   8
ATOM      8  C   UNL A   1      33.552  24.347  23.532  1.00  0.00     0.217 C 
ATOM      9  C   UNL A   1      32.662  24.508  24.760  1.00  0.00     0.053 C 
ATOM     10  C   UNL A   1      35.070  24.467  23.930  1.00  0.00     0.122 C 
ATOM     11  C   UNL A   1      33.112  24.321  26.010  1.00  0.00     0.003 C 
ATOM     12  C   UNL A   1      35.375  23.832  25.274  1.00  0.00    -0.034 C 
ATOM     13  C   UNL A   1      34.442  23.817  26.244  1.00  0.00     0.004 C 
BRANCH   8  14
ATOM     14  N   UNL A   1      33.352  23.075  22.770  1.00  0.00    -0.331 N 
ATOM     15  C   UNL A   1      32.209  22.262  23.139  1.00  0.00     0.332 C 
ATOM     16  H   UNL A   1      33.250  23.319  21.785  1.00  0.00     0.347 HD
ATOM     17  H   UNL A   1      34.168  22.502  22.988  1.00  0.00     0.347 HD
ENDBRANCH   8  14
BRANCH  12  18
ATOM     18  C   UNL A   1      36.689  23.217  25.523  1.00  0.00    -0.022 A 
ATOM     19  C   UNL A   1      36.936  21.903  25.092  1.00  0.00     0.008 A 
ATOM     20  C   UNL A   1      37.695  23.900  26.214  1.00  0.00     0.008 A 
ATOM     21  C   UNL A   1      38.150  21.274  25.370  1.00  0.00     0.001 A 
ATOM     22  C   UNL A   1      38.911  23.266  26.498  1.00  0.00     0.001 A 
ATOM     23  C   UNL A   1      39.136  21.954  26.080  1.00  0.00     0.000 A 
ENDBRANCH  12  18
ENDBRANCH   6   8
ENDBRANCH   5   6
ENDBRANCH   4   5
ENDBRANCH   3   4
ENDBRANCH   2   3
ENDBRANCH   1   2
BRANCH   1  24
ATOM     24  C   UNL A   1      31.862  30.768  26.082  1.00  0.00     0.261 C 
BRANCH  24  25
ATOM     25  O   UNL A   1      32.465  30.880  27.386  1.00  0.00    -0.460 OA
BRANCH  25  26
ATOM     26  C   UNL A   1      33.297  31.937  27.535  1.00  0.00     0.338 C 
ATOM     27  O   UNL A   1      33.000  33.125  27.519  1.00  0.00    -0.246 OA
BRANCH  26  28
ATOM     28  C   UNL A   1      34.650  31.482  27.902  1.00  0.00     0.060 A 
ATOM     29  C   UNL A   1      34.833  30.110  28.119  1.00  0.00     0.016 A 
ATOM     30  C   UNL A   1      35.694  32.382  28.126  1.00  0.00     0.016 A 
ATOM     31  C   UNL A   1      36.047  29.637  28.613  1.00  0.00     0.010 A 
ATOM     32  C   UNL A   1      36.909  31.906  28.633  1.00  0.00     0.010 A 
ATOM     33  C   UNL A   1      37.077  30.538  28.914  1.00  0.00    -0.014 A 
BRANCH  33  34
ATOM     34  C   UNL A   1      38.262  30.059  29.668  1.00  0.00     0.031 A 
ATOM     35  C   UNL A   1      38.485  30.558  31.069  1.00  0.00     0.074 A 
ATOM     36  C   UNL A   1      39.104  29.161  29.130  1.00  0.00     0.049 A 
ATOM     37  N   UNL A   1      39.454  30.286  31.905  1.00  0.00    -0.248 NA
ATOM     38  C   UNL A   1      37.476  31.489  31.599  1.00  0.00     0.031 C 
ATOM     39  C   UNL A   1      38.976  28.574  27.800  1.00  0.00     0.029 A 
ATOM     40  N   UNL A   1      40.243  28.589  29.644  1.00  0.00    -0.354 N 
ATOM     41  C   UNL A   1      39.173  31.008  33.057  1.00  0.00     0.074 A 
ATOM     42  C   UNL A   1      37.960  31.757  32.803  1.00  0.00     0.031 C 
ATOM     43  C   UNL A   1      40.003  27.733  27.593  1.00  0.00     0.029 A 
ATOM     44  C   UNL A   1      40.875  27.744  28.768  1.00  0.00     0.049 A 
ATOM     45  H   UNL A   1      40.573  28.770  30.553  1.00  0.00     0.167 HD
ATOM     46  C   UNL A   1      39.856  31.036  34.226  1.00  0.00     0.037 A 
ATOM     47  C   UNL A   1      42.035  27.070  28.894  1.00  0.00     0.037 A 
ATOM     48  C   UNL A   1      41.064  30.296  34.479  1.00  0.00     0.049 A 
ATOM     49  C   UNL A   1      42.814  27.169  30.180  1.00  0.00     0.074 A 
ATOM     50  C   UNL A   1      41.826  30.252  35.634  1.00  0.00     0.029 A 
ATOM     51  N   UNL A   1      41.690  29.471  33.556  1.00  0.00    -0.354 N 
ATOM     52  N   UNL A   1      42.530  27.839  31.270  1.00  0.00    -0.248 NA
ATOM     53  C   UNL A   1      44.073  26.414  30.252  1.00  0.00     0.031 C 
ATOM     54  C   UNL A   1      42.936  29.435  35.395  1.00  0.00     0.029 A 
ATOM     55  C   UNL A   1      42.841  28.932  34.108  1.00  0.00     0.049 A 
ATOM     56  H   UNL A   1      41.364  29.295  32.644  1.00  0.00     0.167 HD
ATOM     57  C   UNL A   1      43.559  27.569  32.165  1.00  0.00     0.074 A 
ATOM     58  C   UNL A   1      44.468  26.663  31.494  1.00  0.00     0.031 C 
ATOM     59  C   UNL A   1      43.734  28.029  33.427  1.00  0.00     0.037 A 
BRANCH  46  60
ATOM     60  C   UNL A   1      39.320  31.916  35.317  1.00  0.00     0.064 A 
ATOM     61  C   UNL A   1      39.617  33.286  35.367  1.00  0.00     0.173 A 
ATOM     62  C   UNL A   1      38.479  31.388  36.308  1.00  0.00     0.173 A 
ATOM     63  F   UNL A   1      40.429  33.835  34.450  1.00  0.00    -0.203 F 
ATOM     64  C   UNL A   1      39.113  34.091  36.385  1.00  0.00     0.198 A 
ATOM     65  C   UNL A   1      37.956  32.201  37.310  1.00  0.00     0.198 A 
ATOM     66  F   UNL A   1      38.163  30.085  36.302  1.00  0.00    -0.203 F 
ATOM     67  F   UNL A   1      39.446  35.388  36.440  1.00  0.00    -0.200 F 
ATOM     68  C   UNL A   1      38.278  33.549  37.352  1.00  0.00     0.200 A 
ATOM     69  F   UNL A   1      37.142  31.679  38.237  1.00  0.00    -0.200 F 
ATOM     70  F   UNL A   1      37.790  34.325  38.329  1.00  0.00    -0.200 F 
ENDBRANCH  46  60
BRANCH  47  71
ATOM     71  C   UNL A   1      42.538  26.251  27.762  1.00  0.00     0.064 A 
ATOM     72  C   UNL A   1      42.133  24.920  27.592  1.00  0.00     0.173 A 
ATOM     73  C   UNL A   1      43.443  26.783  26.832  1.00  0.00     0.173 A 
ATOM     74  F   UNL A   1      41.291  24.360  28.472  1.00  0.00    -0.203 F 
ATOM     75  C   UNL A   1      42.627  24.148  26.542  1.00  0.00     0.198 A 
ATOM     76  C   UNL A   1      43.916  26.017  25.768  1.00  0.00     0.198 A 
ATOM     77  F   UNL A   1      43.865  28.050  26.953  1.00  0.00    -0.203 F 
ATOM     78  F   UNL A   1      42.255  22.866  26.426  1.00  0.00    -0.200 F 
ATOM     79  C   UNL A   1      43.511  24.698  25.628  1.00  0.00     0.200 A 
ATOM     80  F   UNL A   1      44.763  26.558  24.881  1.00  0.00    -0.200 F 
ATOM     81  F   UNL A   1      43.980  23.956  24.616  1.00  0.00    -0.200 F 
ENDBRANCH  47  71
BRANCH  59  82
ATOM     82  C   UNL A   1      44.938  27.542  34.179  1.00  0.00     0.064 A 
ATOM     83  C   UNL A   1      44.905  26.360  34.934  1.00  0.00     0.173 A 
ATOM     84  C   UNL A   1      46.152  28.242  34.107  1.00  0.00     0.173 A 
ATOM     85  F   UNL A   1      43.765  25.662  35.045  1.00  0.00    -0.203 F 
ATOM     86  C   UNL A   1      46.037  25.908  35.606  1.00  0.00     0.198 A 
ATOM     87  C   UNL A   1      47.290  27.773  34.758  1.00  0.00     0.198 A 
ATOM     88  F   UNL A   1      46.238  29.374  33.392  1.00  0.00    -0.203 F 
ATOM     89  F   UNL A   1      45.972  24.799  36.354  1.00  0.00    -0.200 F 
ATOM     90  C   UNL A   1      47.230  26.611  35.512  1.00  0.00     0.200 A 
ATOM     91  F   UNL A   1      48.443  28.447  34.657  1.00  0.00    -0.200 F 
ATOM     92  F   UNL A   1      48.321  26.171  36.154  1.00  0.00    -0.200 F 
ENDBRANCH  59  82
ENDBRANCH  33  34
ENDBRANCH  26  28
ENDBRANCH  25  26
ENDBRANCH  24  25
ENDBRANCH   1  24
TORSDOF 16
ENDMDL
MODEL 3
REMARK VINA RESULT:     -11.3      3.801      9.762
REMARK SMILES C[NH2+][C@@]1(C(=O)OCCOCCOC(=O)c2ccc(-c3c4nc(c(-c5c(F)c(F)c(F)c(F)c5F)c5ccc([nH]5)c(-c5c(F)c(F)c(F)c(F)c5F)c5nc(c(-c6c(F)c(F)c(F)c(F)c6F)c6ccc3[nH]6)C=C5)C=C4)cc2)C=CC=C(c2ccccc2)C1
REMARK SMILES IDX 10 1 9 2 8 3 7 4 6 5 4 6 5 7 3 8 78 9 88 10 79 11 81 12
REMARK SMILES IDX 80 13 2 14 1 15 82 18 83 19 87 20 84 21 86 22 85 23 11 24
REMARK SMILES IDX 12 25 13 26 14 27 15 28 16 29 77 30 17 31 76 32 18 33 19 34
REMARK SMILES IDX 20 35 70 36 21 37 75 38 69 39 71 40 22 41 74 42 68 43 67 44
REMARK SMILES IDX 23 46 55 47 35 48 54 49 36 50 39 51 53 52 72 53 37 54 38 55
REMARK SMILES IDX 52 57 73 58 40 59 24 60 25 61 33 62 26 63 27 64 31 65 34 66
REMARK SMILES IDX 28 67 29 68 32 69 30 70 56 71 57 72 65 73 58 74 59 75 63 76
REMARK SMILES IDX 66 77 60 78 61 79 64 80 62 81 41 82 42 83 50 84 43 85 44 86
REMARK SMILES IDX 48 87 51 88 45 89 46 90 49 91 47 92
REMARK H PARENT 2 16 2 17 71 45 39 56
REMARK Flexibility Score: inf
ROOT
ATOM      1  C   UNL A   1      33.373  34.526  28.400  1.00  0.00     0.202 C 
ENDROOT
BRANCH   1   2
ATOM      2  O   UNL A   1      33.041  34.644  29.783  1.00  0.00    -0.374 OA
BRANCH   2   3
ATOM      3  C   UNL A   1      32.833  35.953  30.308  1.00  0.00     0.202 C 
BRANCH   3   4
ATOM      4  C   UNL A   1      32.364  36.036  31.762  1.00  0.00     0.261 C 
BRANCH   4   5
ATOM      5  O   UNL A   1      32.998  35.034  32.575  1.00  0.00    -0.458 OA
BRANCH   5   6
ATOM      6  C   UNL A   1      34.146  35.430  33.197  1.00  0.00     0.372 C 
ATOM      7  O   UNL A   1      34.241  36.484  33.825  1.00  0.00    -0.244 OA
BRANCH   6   8
ATOM      8  C   UNL A   1      35.347  34.437  32.994  1.00  0.00     0.217 C 
ATOM      9  C   UNL A   1      35.533  33.840  34.386  1.00  0.00     0.053 C 
ATOM     10  C   UNL A   1      36.677  35.122  32.505  1.00  0.00     0.122 C 
ATOM     11  C   UNL A   1      36.740  33.551  34.895  1.00  0.00     0.003 C 
ATOM     12  C   UNL A   1      37.919  34.362  32.932  1.00  0.00    -0.034 C 
ATOM     13  C   UNL A   1      37.925  33.665  34.083  1.00  0.00     0.004 C 
BRANCH   8  14
ATOM     14  N   UNL A   1      34.890  33.470  31.949  1.00  0.00    -0.331 N 
ATOM     15  C   UNL A   1      35.137  32.063  32.203  1.00  0.00     0.332 C 
ATOM     16  H   UNL A   1      33.882  33.589  31.838  1.00  0.00     0.347 HD
ATOM     17  H   UNL A   1      35.441  33.691  31.120  1.00  0.00     0.347 HD
ENDBRANCH   8  14
BRANCH  12  18
ATOM     18  C   UNL A   1      39.121  34.370  32.082  1.00  0.00    -0.022 A 
ATOM     19  C   UNL A   1      38.997  34.174  30.697  1.00  0.00     0.008 A 
ATOM     20  C   UNL A   1      40.399  34.536  32.628  1.00  0.00     0.008 A 
ATOM     21  C   UNL A   1      40.126  34.114  29.878  1.00  0.00     0.001 A 
ATOM     22  C   UNL A   1      41.530  34.471  31.807  1.00  0.00     0.001 A 
ATOM     23  C   UNL A   1      41.394  34.256  30.435  1.00  0.00     0.000 A 
ENDBRANCH  12  18
ENDBRANCH   6   8
ENDBRANCH   5   6
ENDBRANCH   4   5
ENDBRANCH   3   4
ENDBRANCH   2   3
ENDBRANCH   1   2
BRANCH   1  24
ATOM     24  C   UNL A   1      34.595  33.663  28.063  1.00  0.00     0.261 C 
BRANCH  24  25
ATOM     25  O   UNL A   1      34.635  32.445  28.834  1.00  0.00    -0.460 OA
BRANCH  25  26
ATOM     26  C   UNL A   1      34.668  31.311  28.098  1.00  0.00     0.338 C 
ATOM     27  O   UNL A   1      33.897  30.981  27.204  1.00  0.00    -0.246 OA
BRANCH  26  28
ATOM     28  C   UNL A   1      35.891  30.542  28.387  1.00  0.00     0.060 A 
ATOM     29  C   UNL A   1      35.890  29.734  29.532  1.00  0.00     0.016 A 
ATOM     30  C   UNL A   1      37.047  30.680  27.617  1.00  0.00     0.016 A 
ATOM     31  C   UNL A   1      37.062  29.102  29.942  1.00  0.00     0.010 A 
ATOM     32  C   UNL A   1      38.227  30.053  28.037  1.00  0.00     0.010 A 
ATOM     33  C   UNL A   1      38.248  29.293  29.221  1.00  0.00    -0.014 A 
BRANCH  33  34
ATOM     34  C   UNL A   1      39.532  28.827  29.799  1.00  0.00     0.031 A 
ATOM     35  C   UNL A   1      40.074  29.516  31.021  1.00  0.00     0.074 A 
ATOM     36  C   UNL A   1      40.186  27.779  29.271  1.00  0.00     0.049 A 
ATOM     37  N   UNL A   1      41.177  29.286  31.686  1.00  0.00    -0.248 NA
ATOM     38  C   UNL A   1      39.257  30.611  31.569  1.00  0.00     0.031 C 
ATOM     39  C   UNL A   1      39.745  27.005  28.114  1.00  0.00     0.029 A 
ATOM     40  N   UNL A   1      41.369  27.188  29.643  1.00  0.00    -0.354 N 
ATOM     41  C   UNL A   1      41.189  30.204  32.728  1.00  0.00     0.074 A 
ATOM     42  C   UNL A   1      39.999  31.016  32.590  1.00  0.00     0.031 C 
ATOM     43  C   UNL A   1      40.653  26.047  27.858  1.00  0.00     0.029 A 
ATOM     44  C   UNL A   1      41.750  26.159  28.820  1.00  0.00     0.049 A 
ATOM     45  H   UNL A   1      41.893  27.477  30.424  1.00  0.00     0.167 HD
ATOM     46  C   UNL A   1      42.102  30.349  33.717  1.00  0.00     0.037 A 
ATOM     47  C   UNL A   1      42.866  25.405  28.831  1.00  0.00     0.037 A 
ATOM     48  C   UNL A   1      43.288  29.545  33.853  1.00  0.00     0.049 A 
ATOM     49  C   UNL A   1      43.902  25.629  29.902  1.00  0.00     0.074 A 
ATOM     50  C   UNL A   1      44.270  29.611  34.826  1.00  0.00     0.029 A 
ATOM     51  N   UNL A   1      43.655  28.529  32.982  1.00  0.00    -0.354 N 
ATOM     52  N   UNL A   1      43.895  26.486  30.894  1.00  0.00    -0.248 NA
ATOM     53  C   UNL A   1      45.099  24.777  29.857  1.00  0.00     0.031 C 
ATOM     54  C   UNL A   1      45.253  28.663  34.519  1.00  0.00     0.029 A 
ATOM     55  C   UNL A   1      44.860  27.976  33.383  1.00  0.00     0.049 A 
ATOM     56  H   UNL A   1      43.135  28.244  32.197  1.00  0.00     0.167 HD
ATOM     57  C   UNL A   1      45.069  26.262  31.603  1.00  0.00     0.074 A 
ATOM     58  C   UNL A   1      45.759  25.179  30.934  1.00  0.00     0.031 C 
ATOM     59  C   UNL A   1      45.532  26.896  32.708  1.00  0.00     0.037 A 
BRANCH  46  60
ATOM     60  C   UNL A   1      41.862  31.437  34.722  1.00  0.00     0.064 A 
ATOM     61  C   UNL A   1      40.882  31.314  35.717  1.00  0.00     0.173 A 
ATOM     62  C   UNL A   1      42.639  32.605  34.705  1.00  0.00     0.173 A 
ATOM     63  F   UNL A   1      40.103  30.222  35.766  1.00  0.00    -0.203 F 
ATOM     64  C   UNL A   1      40.670  32.331  36.644  1.00  0.00     0.198 A 
ATOM     65  C   UNL A   1      42.442  33.610  35.649  1.00  0.00     0.198 A 
ATOM     66  F   UNL A   1      43.591  32.770  33.775  1.00  0.00    -0.203 F 
ATOM     67  F   UNL A   1      39.698  32.212  37.558  1.00  0.00    -0.200 F 
ATOM     68  C   UNL A   1      41.454  33.475  36.612  1.00  0.00     0.200 A 
ATOM     69  F   UNL A   1      43.206  34.710  35.623  1.00  0.00    -0.200 F 
ATOM     70  F   UNL A   1      41.252  34.453  37.506  1.00  0.00    -0.200 F 
ENDBRANCH  46  60
BRANCH  47  71
ATOM     71  C   UNL A   1      43.070  24.374  27.782  1.00  0.00     0.064 A 
ATOM     72  C   UNL A   1      42.671  23.045  27.982  1.00  0.00     0.173 A 
ATOM     73  C   UNL A   1      43.678  24.697  26.560  1.00  0.00     0.173 A 
ATOM     74  F   UNL A   1      42.110  22.683  29.145  1.00  0.00    -0.203 F 
ATOM     75  C   UNL A   1      42.885  22.076  27.005  1.00  0.00     0.198 A 
ATOM     76  C   UNL A   1      43.868  23.731  25.573  1.00  0.00     0.198 A 
ATOM     77  F   UNL A   1      44.082  25.953  26.322  1.00  0.00    -0.203 F 
ATOM     78  F   UNL A   1      42.531  20.804  27.237  1.00  0.00    -0.200 F 
ATOM     79  C   UNL A   1      43.477  22.420  25.799  1.00  0.00     0.200 A 
ATOM     80  F   UNL A   1      44.432  24.072  24.406  1.00  0.00    -0.200 F 
ATOM     81  F   UNL A   1      43.678  21.488  24.858  1.00  0.00    -0.200 F 
ENDBRANCH  47  71
BRANCH  59  82
ATOM     82  C   UNL A   1      46.835  26.419  33.282  1.00  0.00     0.064 A 
ATOM     83  C   UNL A   1      48.055  27.017  32.934  1.00  0.00     0.173 A 
ATOM     84  C   UNL A   1      46.857  25.379  34.224  1.00  0.00     0.173 A 
ATOM     85  F   UNL A   1      48.087  28.005  32.027  1.00  0.00    -0.203 F 
ATOM     86  C   UNL A   1      49.252  26.578  33.493  1.00  0.00     0.198 A 
ATOM     87  C   UNL A   1      48.053  24.961  34.801  1.00  0.00     0.198 A 
ATOM     88  F   UNL A   1      45.717  24.778  34.596  1.00  0.00    -0.203 F 
ATOM     89  F   UNL A   1      50.410  27.137  33.115  1.00  0.00    -0.200 F 
ATOM     90  C   UNL A   1      49.250  25.555  34.430  1.00  0.00     0.200 A 
ATOM     91  F   UNL A   1      48.048  23.982  35.715  1.00  0.00    -0.200 F 
ATOM     92  F   UNL A   1      50.403  25.140  34.972  1.00  0.00    -0.200 F 
ENDBRANCH  59  82
ENDBRANCH  33  34
ENDBRANCH  26  28
ENDBRANCH  25  26
ENDBRANCH  24  25
ENDBRANCH   1  24
TORSDOF 16
ENDMDL
