MODEL 1
REMARK VINA RESULT:     -12.1      0.000      0.000
REMARK SMILES COc1c(C)cccc1C(=O)NC(=S)Nc1ccc(C(=O)OCCOCCOC(=O)c2ccc(-c3c4nc(c(-c5c(F)c(F)c(F)c(F)c5F)c5ccc([nH]5)c(-c5c(F)c(F)c(F)c(F)c5F)c5nc(c(-c6c(F)c(F)c(F)c(F)c6F)c6ccc3[nH]6)C=C5)C=C4)cc2)cc1C
REMARK SMILES IDX 23 1 22 2 20 3 21 4 19 5 16 6 17 7 95 8 18 9 94 10 96 11
REMARK SMILES IDX 15 12 13 14 14 15 12 16 10 17 11 18 9 20 3 21 4 22 5 23 6 24
REMARK SMILES IDX 8 25 7 26 2 27 1 28 24 29 25 30 26 31 27 32 28 33 29 34
REMARK SMILES IDX 30 35 31 36 32 37 93 38 33 39 92 40 34 41 35 42 36 43 86 44
REMARK SMILES IDX 37 45 91 46 85 47 87 48 38 49 90 50 84 51 83 52 39 54 71 55
REMARK SMILES IDX 51 56 70 57 52 58 55 59 69 60 88 61 53 62 54 63 68 65 89 66
REMARK SMILES IDX 56 67 40 68 41 69 49 70 42 71 43 72 47 73 50 74 44 75 45 76
REMARK SMILES IDX 48 77 46 78 72 79 73 80 81 81 74 82 75 83 79 84 82 85 76 86
REMARK SMILES IDX 77 87 80 88 78 89 57 90 58 91 66 92 59 93 60 94 64 95 67 96
REMARK SMILES IDX 61 97 62 98 65 99 63 100
REMARK H PARENT 15 13 12 19 87 53 55 64
REMARK Flexibility Score: inf
ROOT
ATOM      1  C   UNL A   1      35.357  34.218  28.175  1.00  0.00     0.261 C 
ENDROOT
BRANCH   1   2
ATOM      2  O   UNL A   1      35.264  32.896  27.631  1.00  0.00    -0.460 OA
BRANCH   2   3
ATOM      3  C   UNL A   1      34.734  31.906  28.384  1.00  0.00     0.338 C 
ATOM      4  O   UNL A   1      34.562  31.766  29.575  1.00  0.00    -0.246 OA
BRANCH   3   5
ATOM      5  C   UNL A   1      34.121  31.071  27.391  1.00  0.00     0.060 A 
ATOM      6  C   UNL A   1      31.612  28.582  25.209  1.00  0.00     0.043 A 
ATOM      7  C   UNL A   1      31.142  30.520  25.573  1.00  0.00     0.027 A 
ATOM      8  C   UNL A   1      33.281  28.028  26.107  1.00  0.00    -0.027 A 
ATOM      9  C   UNL A   1      32.404  31.652  26.573  1.00  0.00     0.018 A 
ATOM     10  C   UNL A   1      34.508  29.156  27.142  1.00  0.00     0.021 A 
ATOM     11  C   UNL A   1      33.314  26.541  26.442  1.00  0.00     0.046 C 
BRANCH   6  12
ATOM     12  N   UNL A   1      31.577  27.987  23.868  1.00  0.00    -0.332 N 
ATOM     13  H   UNL A   1      31.813  28.626  23.157  1.00  0.00     0.169 HD
BRANCH  12  14
ATOM     14  C   UNL A   1      31.283  26.722  23.384  1.00  0.00     0.177 C 
ATOM     15  S   UNL A   1      30.139  25.840  24.246  1.00  0.00    -0.040 S 
BRANCH  14  16
ATOM     16  N   UNL A   1      31.740  26.118  22.210  1.00  0.00    -0.299 N 
ATOM     17  C   UNL A   1      32.926  25.542  21.704  1.00  0.00     0.261 C 
ATOM     18  O   UNL A   1      33.129  25.221  20.545  1.00  0.00    -0.269 OA
ATOM     19  H   UNL A   1      31.023  26.084  21.537  1.00  0.00     0.172 HD
BRANCH  17  20
ATOM     20  C   UNL A   1      33.846  25.324  22.756  1.00  0.00     0.082 A 
ATOM     21  C   UNL A   1      34.138  24.196  23.287  1.00  0.00     0.134 A 
ATOM     22  C   UNL A   1      35.714  23.337  24.295  1.00  0.00    -0.008 A 
ATOM     23  C   UNL A   1      36.168  21.560  24.270  1.00  0.00     0.048 C 
ATOM     24  C   UNL A   1      36.769  23.676  24.965  1.00  0.00     0.007 A 
ATOM     25  C   UNL A   1      34.101  25.053  23.966  1.00  0.00     0.018 A 
ATOM     26  C   UNL A   1      35.605  24.192  25.026  1.00  0.00     0.001 A 
BRANCH  21  27
ATOM     27  O   UNL A   1      32.653  23.440  22.832  1.00  0.00    -0.496 OA
ATOM     28  C   UNL A   1      32.320  22.020  22.746  1.00  0.00     0.278 C 
ENDBRANCH  21  27
ENDBRANCH  17  20
ENDBRANCH  14  16
ENDBRANCH  12  14
ENDBRANCH   6  12
ENDBRANCH   3   5
ENDBRANCH   2   3
ENDBRANCH   1   2
BRANCH   1  29
ATOM     29  C   UNL A   1      34.027  34.904  28.151  1.00  0.00     0.202 C 
BRANCH  29  30
ATOM     30  O   UNL A   1      34.096  35.902  29.153  1.00  0.00    -0.374 OA
BRANCH  30  31
ATOM     31  C   UNL A   1      32.895  36.204  29.828  1.00  0.00     0.202 C 
BRANCH  31  32
ATOM     32  C   UNL A   1      32.825  35.540  31.208  1.00  0.00     0.261 C 
BRANCH  32  33
ATOM     33  O   UNL A   1      33.715  34.397  31.246  1.00  0.00    -0.460 OA
BRANCH  33  34
ATOM     34  C   UNL A   1      33.969  33.838  32.467  1.00  0.00     0.338 C 
ATOM     35  O   UNL A   1      33.124  33.592  33.312  1.00  0.00    -0.246 OA
BRANCH  34  36
ATOM     36  C   UNL A   1      35.444  33.789  32.721  1.00  0.00     0.060 A 
ATOM     37  C   UNL A   1      36.371  34.121  31.709  1.00  0.00     0.016 A 
ATOM     38  C   UNL A   1      35.888  33.108  33.845  1.00  0.00     0.016 A 
ATOM     39  C   UNL A   1      37.684  33.606  31.746  1.00  0.00     0.010 A 
ATOM     40  C   UNL A   1      37.126  32.500  33.805  1.00  0.00     0.010 A 
ATOM     41  C   UNL A   1      38.026  32.695  32.740  1.00  0.00    -0.014 A 
BRANCH  41  42
ATOM     42  C   UNL A   1      39.182  31.773  32.748  1.00  0.00     0.031 A 
ATOM     43  C   UNL A   1      39.040  30.499  32.000  1.00  0.00     0.074 A 
ATOM     44  C   UNL A   1      40.436  32.212  33.054  1.00  0.00     0.049 A 
ATOM     45  N   UNL A   1      40.007  29.683  31.800  1.00  0.00    -0.248 NA
ATOM     46  C   UNL A   1      37.788  30.013  31.419  1.00  0.00     0.031 C 
ATOM     47  C   UNL A   1      41.720  31.775  32.470  1.00  0.00     0.029 A 
ATOM     48  N   UNL A   1      40.846  33.259  33.889  1.00  0.00    -0.354 N 
ATOM     49  C   UNL A   1      39.633  28.783  30.838  1.00  0.00     0.074 A 
ATOM     50  C   UNL A   1      38.210  28.958  30.711  1.00  0.00     0.031 C 
ATOM     51  C   UNL A   1      42.746  32.344  33.125  1.00  0.00     0.029 A 
ATOM     52  C   UNL A   1      42.186  33.028  34.271  1.00  0.00     0.049 A 
ATOM     53  H   UNL A   1      40.293  34.026  34.163  1.00  0.00     0.167 HD
ATOM     54  C   UNL A   1      40.626  28.075  30.229  1.00  0.00     0.037 A 
ATOM     55  C   UNL A   1      42.459  32.833  35.588  1.00  0.00     0.037 A 
ATOM     56  C   UNL A   1      41.907  28.278  30.939  1.00  0.00     0.049 A 
ATOM     57  C   UNL A   1      42.774  31.370  35.799  1.00  0.00     0.074 A 
ATOM     58  C   UNL A   1      43.109  28.906  30.673  1.00  0.00     0.029 A 
ATOM     59  N   UNL A   1      41.924  28.025  32.307  1.00  0.00    -0.354 N 
ATOM     60  N   UNL A   1      42.809  30.513  34.813  1.00  0.00    -0.248 NA
ATOM     61  C   UNL A   1      43.045  30.729  37.075  1.00  0.00     0.031 C 
ATOM     62  C   UNL A   1      43.820  29.047  31.919  1.00  0.00     0.029 A 
ATOM     63  C   UNL A   1      43.074  28.463  32.931  1.00  0.00     0.049 A 
ATOM     64  H   UNL A   1      41.188  27.577  32.784  1.00  0.00     0.167 HD
ATOM     65  C   UNL A   1      43.088  29.265  35.247  1.00  0.00     0.074 A 
ATOM     66  C   UNL A   1      43.171  29.441  36.696  1.00  0.00     0.031 C 
ATOM     67  C   UNL A   1      43.225  28.218  34.371  1.00  0.00     0.037 A 
BRANCH  54  68
ATOM     68  C   UNL A   1      40.484  27.249  28.968  1.00  0.00     0.064 A 
ATOM     69  C   UNL A   1      41.168  27.635  27.794  1.00  0.00     0.173 A 
ATOM     70  C   UNL A   1      39.642  26.125  28.810  1.00  0.00     0.173 A 
ATOM     71  F   UNL A   1      41.995  28.690  27.791  1.00  0.00    -0.203 F 
ATOM     72  C   UNL A   1      41.020  26.959  26.577  1.00  0.00     0.198 A 
ATOM     73  C   UNL A   1      39.533  25.421  27.604  1.00  0.00     0.198 A 
ATOM     74  F   UNL A   1      38.846  25.685  29.789  1.00  0.00    -0.203 F 
ATOM     75  F   UNL A   1      41.662  27.404  25.487  1.00  0.00    -0.200 F 
ATOM     76  C   UNL A   1      40.213  25.845  26.484  1.00  0.00     0.200 A 
ATOM     77  F   UNL A   1      38.741  24.340  27.535  1.00  0.00    -0.200 F 
ATOM     78  F   UNL A   1      40.073  25.195  25.320  1.00  0.00    -0.200 F 
ENDBRANCH  54  68
BRANCH  55  79
ATOM     79  C   UNL A   1      41.646  33.804  36.401  1.00  0.00     0.064 A 
ATOM     80  C   UNL A   1      40.572  33.232  37.136  1.00  0.00     0.173 A 
ATOM     81  C   UNL A   1      42.231  34.960  36.937  1.00  0.00     0.173 A 
ATOM     82  F   UNL A   1      39.979  32.112  36.694  1.00  0.00    -0.203 F 
ATOM     83  C   UNL A   1      40.256  33.667  38.426  1.00  0.00     0.198 A 
ATOM     84  C   UNL A   1      41.893  35.402  38.225  1.00  0.00     0.198 A 
ATOM     85  F   UNL A   1      43.260  35.547  36.310  1.00  0.00    -0.203 F 
ATOM     86  F   UNL A   1      39.392  32.967  39.178  1.00  0.00    -0.200 F 
ATOM     87  C   UNL A   1      40.954  34.720  38.987  1.00  0.00     0.200 A 
ATOM     88  F   UNL A   1      42.574  36.413  38.786  1.00  0.00    -0.200 F 
ATOM     89  F   UNL A   1      40.786  35.020  40.285  1.00  0.00    -0.200 F 
ENDBRANCH  55  79
BRANCH  67  90
ATOM     90  C   UNL A   1      43.457  26.814  34.852  1.00  0.00     0.064 A 
ATOM     91  C   UNL A   1      42.411  25.897  35.005  1.00  0.00     0.173 A 
ATOM     92  C   UNL A   1      44.745  26.336  35.182  1.00  0.00     0.173 A 
ATOM     93  F   UNL A   1      41.131  26.291  34.933  1.00  0.00    -0.203 F 
ATOM     94  C   UNL A   1      42.657  24.550  35.251  1.00  0.00     0.198 A 
ATOM     95  C   UNL A   1      44.980  25.007  35.507  1.00  0.00     0.198 A 
ATOM     96  F   UNL A   1      45.832  27.118  35.179  1.00  0.00    -0.203 F 
ATOM     97  F   UNL A   1      41.636  23.682  35.243  1.00  0.00    -0.200 F 
ATOM     98  C   UNL A   1      43.942  24.102  35.486  1.00  0.00     0.200 A 
ATOM     99  F   UNL A   1      46.225  24.610  35.802  1.00  0.00    -0.200 F 
ATOM    100  F   UNL A   1      44.183  22.803  35.701  1.00  0.00    -0.200 F 
ENDBRANCH  67  90
ENDBRANCH  41  42
ENDBRANCH  34  36
ENDBRANCH  33  34
ENDBRANCH  32  33
ENDBRANCH  31  32
ENDBRANCH  30  31
ENDBRANCH  29  30
ENDBRANCH   1  29
TORSDOF 19
ENDMDL
MODEL 2
REMARK VINA RESULT:     -11.6      3.805      9.318
REMARK SMILES COc1c(C)cccc1C(=O)NC(=S)Nc1ccc(C(=O)OCCOCCOC(=O)c2ccc(-c3c4nc(c(-c5c(F)c(F)c(F)c(F)c5F)c5ccc([nH]5)c(-c5c(F)c(F)c(F)c(F)c5F)c5nc(c(-c6c(F)c(F)c(F)c(F)c6F)c6ccc3[nH]6)C=C5)C=C4)cc2)cc1C
REMARK SMILES IDX 23 1 22 2 20 3 21 4 19 5 16 6 17 7 95 8 18 9 94 10 96 11
REMARK SMILES IDX 15 12 13 14 14 15 12 16 10 17 11 18 9 20 3 21 4 22 5 23 6 24
REMARK SMILES IDX 8 25 7 26 2 27 1 28 24 29 25 30 26 31 27 32 28 33 29 34
REMARK SMILES IDX 30 35 31 36 32 37 93 38 33 39 92 40 34 41 35 42 36 43 86 44
REMARK SMILES IDX 37 45 91 46 85 47 87 48 38 49 90 50 84 51 83 52 39 54 71 55
REMARK SMILES IDX 51 56 70 57 52 58 55 59 69 60 88 61 53 62 54 63 68 65 89 66
REMARK SMILES IDX 56 67 40 68 41 69 49 70 42 71 43 72 47 73 50 74 44 75 45 76
REMARK SMILES IDX 48 77 46 78 72 79 73 80 81 81 74 82 75 83 79 84 82 85 76 86
REMARK SMILES IDX 77 87 80 88 78 89 57 90 58 91 66 92 59 93 60 94 64 95 67 96
REMARK SMILES IDX 61 97 62 98 65 99 63 100
REMARK H PARENT 15 13 12 19 87 53 55 64
REMARK Flexibility Score: inf
ROOT
ATOM      1  C   UNL A   1      39.929  21.337  26.560  1.00  0.00     0.261 C 
ENDROOT
BRANCH   1   2
ATOM      2  O   UNL A   1      38.734  21.579  25.810  1.00  0.00    -0.460 OA
BRANCH   2   3
ATOM      3  C   UNL A   1      38.133  20.549  25.171  1.00  0.00     0.338 C 
ATOM      4  O   UNL A   1      38.350  19.359  25.123  1.00  0.00    -0.246 OA
BRANCH   3   5
ATOM      5  C   UNL A   1      36.913  21.152  24.715  1.00  0.00     0.060 A 
ATOM      6  C   UNL A   1      33.391  23.315  24.316  1.00  0.00     0.043 A 
ATOM      7  C   UNL A   1      35.200  24.224  24.387  1.00  0.00     0.027 A 
ATOM      8  C   UNL A   1      33.514  21.363  24.587  1.00  0.00    -0.027 A 
ATOM      9  C   UNL A   1      36.831  23.131  24.528  1.00  0.00     0.018 A 
ATOM     10  C   UNL A   1      35.145  20.288  24.773  1.00  0.00     0.021 A 
ATOM     11  C   UNL A   1      32.257  20.765  25.208  1.00  0.00     0.046 C 
BRANCH   6  12
ATOM     12  N   UNL A   1      32.398  23.585  23.268  1.00  0.00    -0.332 N 
ATOM     13  H   UNL A   1      32.124  22.775  22.780  1.00  0.00     0.169 HD
BRANCH  12  14
ATOM     14  C   UNL A   1      31.763  24.731  22.816  1.00  0.00     0.177 C 
ATOM     15  S   UNL A   1      32.546  25.588  21.599  1.00  0.00    -0.040 S 
BRANCH  14  16
ATOM     16  N   UNL A   1      30.502  25.217  23.170  1.00  0.00    -0.299 N 
ATOM     17  C   UNL A   1      29.900  25.941  24.222  1.00  0.00     0.261 C 
ATOM     18  O   UNL A   1      28.702  26.103  24.388  1.00  0.00    -0.269 OA
ATOM     19  H   UNL A   1      29.837  24.985  22.483  1.00  0.00     0.172 HD
BRANCH  17  20
ATOM     20  C   UNL A   1      30.896  26.521  25.043  1.00  0.00     0.082 A 
ATOM     21  C   UNL A   1      31.235  27.755  25.067  1.00  0.00     0.134 A 
ATOM     22  C   UNL A   1      32.078  29.090  26.388  1.00  0.00    -0.008 A 
ATOM     23  C   UNL A   1      31.764  30.897  26.442  1.00  0.00     0.048 C 
ATOM     24  C   UNL A   1      32.785  29.103  27.473  1.00  0.00     0.007 A 
ATOM     25  C   UNL A   1      32.043  27.031  25.199  1.00  0.00     0.018 A 
ATOM     26  C   UNL A   1      32.938  28.360  26.449  1.00  0.00     0.001 A 
BRANCH  21  27
ATOM     27  O   UNL A   1      30.677  28.084  23.465  1.00  0.00    -0.496 OA
ATOM     28  C   UNL A   1      30.692  29.335  22.713  1.00  0.00     0.278 C 
ENDBRANCH  21  27
ENDBRANCH  17  20
ENDBRANCH  14  16
ENDBRANCH  12  14
ENDBRANCH   6  12
ENDBRANCH   3   5
ENDBRANCH   2   3
ENDBRANCH   1   2
BRANCH   1  29
ATOM     29  C   UNL A   1      40.397  22.584  27.244  1.00  0.00     0.202 C 
BRANCH  29  30
ATOM     30  O   UNL A   1      40.569  23.541  26.214  1.00  0.00    -0.374 OA
BRANCH  30  31
ATOM     31  C   UNL A   1      41.666  24.417  26.344  1.00  0.00     0.202 C 
BRANCH  31  32
ATOM     32  C   UNL A   1      41.234  25.888  26.354  1.00  0.00     0.261 C 
BRANCH  32  33
ATOM     33  O   UNL A   1      41.172  26.369  27.720  1.00  0.00    -0.460 OA
BRANCH  33  34
ATOM     34  C   UNL A   1      39.937  26.467  28.298  1.00  0.00     0.338 C 
ATOM     35  O   UNL A   1      39.108  25.573  28.328  1.00  0.00    -0.246 OA
BRANCH  34  36
ATOM     36  C   UNL A   1      39.650  27.888  28.674  1.00  0.00     0.060 A 
ATOM     37  C   UNL A   1      40.573  28.918  28.395  1.00  0.00     0.016 A 
ATOM     38  C   UNL A   1      38.626  28.126  29.580  1.00  0.00     0.016 A 
ATOM     39  C   UNL A   1      40.574  30.104  29.161  1.00  0.00     0.010 A 
ATOM     40  C   UNL A   1      38.720  29.223  30.411  1.00  0.00     0.010 A 
ATOM     41  C   UNL A   1      39.718  30.205  30.252  1.00  0.00    -0.014 A 
BRANCH  41  42
ATOM     42  C   UNL A   1      39.812  31.159  31.377  1.00  0.00     0.031 A 
ATOM     43  C   UNL A   1      40.914  30.954  32.350  1.00  0.00     0.074 A 
ATOM     44  C   UNL A   1      39.213  32.382  31.321  1.00  0.00     0.049 A 
ATOM     45  N   UNL A   1      41.202  31.787  33.281  1.00  0.00    -0.248 NA
ATOM     46  C   UNL A   1      41.787  29.780  32.381  1.00  0.00     0.031 C 
ATOM     47  C   UNL A   1      39.706  33.662  31.867  1.00  0.00     0.029 A 
ATOM     48  N   UNL A   1      38.057  32.789  30.644  1.00  0.00    -0.354 N 
ATOM     49  C   UNL A   1      42.429  31.465  33.796  1.00  0.00     0.074 A 
ATOM     50  C   UNL A   1      42.705  30.149  33.283  1.00  0.00     0.031 C 
ATOM     51  C   UNL A   1      38.771  34.618  31.728  1.00  0.00     0.029 A 
ATOM     52  C   UNL A   1      37.569  33.964  31.256  1.00  0.00     0.049 A 
ATOM     53  H   UNL A   1      37.653  32.333  29.870  1.00  0.00     0.167 HD
ATOM     54  C   UNL A   1      43.068  32.423  34.525  1.00  0.00     0.037 A 
ATOM     55  C   UNL A   1      36.342  33.929  31.840  1.00  0.00     0.037 A 
ATOM     56  C   UNL A   1      42.151  33.550  34.801  1.00  0.00     0.049 A 
ATOM     57  C   UNL A   1      36.526  33.939  33.340  1.00  0.00     0.074 A 
ATOM     58  C   UNL A   1      42.044  34.871  34.409  1.00  0.00     0.029 A 
ATOM     59  N   UNL A   1      40.931  33.247  35.396  1.00  0.00    -0.354 N 
ATOM     60  N   UNL A   1      37.704  34.023  33.899  1.00  0.00    -0.248 NA
ATOM     61  C   UNL A   1      35.470  33.832  34.331  1.00  0.00     0.031 C 
ATOM     62  C   UNL A   1      40.722  35.329  34.755  1.00  0.00     0.029 A 
ATOM     63  C   UNL A   1      40.046  34.306  35.400  1.00  0.00     0.049 A 
ATOM     64  H   UNL A   1      40.719  32.364  35.777  1.00  0.00     0.167 HD
ATOM     65  C   UNL A   1      37.620  33.991  35.247  1.00  0.00     0.074 A 
ATOM     66  C   UNL A   1      36.188  33.808  35.473  1.00  0.00     0.031 C 
ATOM     67  C   UNL A   1      38.735  34.119  36.035  1.00  0.00     0.037 A 
BRANCH  54  68
ATOM     68  C   UNL A   1      44.523  32.398  34.945  1.00  0.00     0.064 A 
ATOM     69  C   UNL A   1      44.936  31.550  35.995  1.00  0.00     0.173 A 
ATOM     70  C   UNL A   1      45.545  33.225  34.426  1.00  0.00     0.173 A 
ATOM     71  F   UNL A   1      44.073  30.716  36.591  1.00  0.00    -0.203 F 
ATOM     72  C   UNL A   1      46.249  31.535  36.481  1.00  0.00     0.198 A 
ATOM     73  C   UNL A   1      46.868  33.174  34.880  1.00  0.00     0.198 A 
ATOM     74  F   UNL A   1      45.307  34.158  33.499  1.00  0.00    -0.203 F 
ATOM     75  F   UNL A   1      46.567  30.739  37.512  1.00  0.00    -0.200 F 
ATOM     76  C   UNL A   1      47.219  32.336  35.916  1.00  0.00     0.200 A 
ATOM     77  F   UNL A   1      47.795  33.963  34.317  1.00  0.00    -0.200 F 
ATOM     78  F   UNL A   1      48.476  32.320  36.379  1.00  0.00    -0.200 F 
ENDBRANCH  54  68
BRANCH  55  79
ATOM     79  C   UNL A   1      35.407  33.148  30.957  1.00  0.00     0.064 A 
ATOM     80  C   UNL A   1      34.850  33.873  29.869  1.00  0.00     0.173 A 
ATOM     81  C   UNL A   1      35.574  31.768  30.774  1.00  0.00     0.173 A 
ATOM     82  F   UNL A   1      34.681  35.201  29.965  1.00  0.00    -0.203 F 
ATOM     83  C   UNL A   1      34.678  33.287  28.612  1.00  0.00     0.198 A 
ATOM     84  C   UNL A   1      35.380  31.184  29.513  1.00  0.00     0.198 A 
ATOM     85  F   UNL A   1      36.109  31.020  31.749  1.00  0.00    -0.203 F 
ATOM     86  F   UNL A   1      34.363  34.050  27.553  1.00  0.00    -0.200 F 
ATOM     87  C   UNL A   1      34.993  31.955  28.425  1.00  0.00     0.200 A 
ATOM     88  F   UNL A   1      35.697  29.895  29.316  1.00  0.00    -0.200 F 
ATOM     89  F   UNL A   1      35.009  31.436  27.187  1.00  0.00    -0.200 F 
ENDBRANCH  55  79
BRANCH  67  90
ATOM     90  C   UNL A   1      38.660  34.004  37.531  1.00  0.00     0.064 A 
ATOM     91  C   UNL A   1      39.000  35.064  38.377  1.00  0.00     0.173 A 
ATOM     92  C   UNL A   1      38.244  32.816  38.173  1.00  0.00     0.173 A 
ATOM     93  F   UNL A   1      39.610  36.160  37.902  1.00  0.00    -0.203 F 
ATOM     94  C   UNL A   1      38.734  35.018  39.743  1.00  0.00     0.198 A 
ATOM     95  C   UNL A   1      38.055  32.744  39.546  1.00  0.00     0.198 A 
ATOM     96  F   UNL A   1      37.976  31.686  37.506  1.00  0.00    -0.203 F 
ATOM     97  F   UNL A   1      38.939  36.111  40.491  1.00  0.00    -0.200 F 
ATOM     98  C   UNL A   1      38.246  33.864  40.324  1.00  0.00     0.200 A 
ATOM     99  F   UNL A   1      37.650  31.592  40.098  1.00  0.00    -0.200 F 
ATOM    100  F   UNL A   1      37.968  33.825  41.633  1.00  0.00    -0.200 F 
ENDBRANCH  67  90
ENDBRANCH  41  42
ENDBRANCH  34  36
ENDBRANCH  33  34
ENDBRANCH  32  33
ENDBRANCH  31  32
ENDBRANCH  30  31
ENDBRANCH  29  30
ENDBRANCH   1  29
TORSDOF 19
ENDMDL
MODEL 3
REMARK VINA RESULT:     -10.8      4.278     10.039
REMARK SMILES COc1c(C)cccc1C(=O)NC(=S)Nc1ccc(C(=O)OCCOCCOC(=O)c2ccc(-c3c4nc(c(-c5c(F)c(F)c(F)c(F)c5F)c5ccc([nH]5)c(-c5c(F)c(F)c(F)c(F)c5F)c5nc(c(-c6c(F)c(F)c(F)c(F)c6F)c6ccc3[nH]6)C=C5)C=C4)cc2)cc1C
REMARK SMILES IDX 23 1 22 2 20 3 21 4 19 5 16 6 17 7 95 8 18 9 94 10 96 11
REMARK SMILES IDX 15 12 13 14 14 15 12 16 10 17 11 18 9 20 3 21 4 22 5 23 6 24
REMARK SMILES IDX 8 25 7 26 2 27 1 28 24 29 25 30 26 31 27 32 28 33 29 34
REMARK SMILES IDX 30 35 31 36 32 37 93 38 33 39 92 40 34 41 35 42 36 43 86 44
REMARK SMILES IDX 37 45 91 46 85 47 87 48 38 49 90 50 84 51 83 52 39 54 71 55
REMARK SMILES IDX 51 56 70 57 52 58 55 59 69 60 88 61 53 62 54 63 68 65 89 66
REMARK SMILES IDX 56 67 40 68 41 69 49 70 42 71 43 72 47 73 50 74 44 75 45 76
REMARK SMILES IDX 48 77 46 78 72 79 73 80 81 81 74 82 75 83 79 84 82 85 76 86
REMARK SMILES IDX 77 87 80 88 78 89 57 90 58 91 66 92 59 93 60 94 64 95 67 96
REMARK SMILES IDX 61 97 62 98 65 99 63 100
REMARK H PARENT 15 13 12 19 87 53 55 64
REMARK Flexibility Score: inf
ROOT
ATOM      1  C   UNL A   1      40.410  21.635  27.370  1.00  0.00     0.261 C 
ENDROOT
BRANCH   1   2
ATOM      2  O   UNL A   1      39.458  21.872  26.327  1.00  0.00    -0.460 OA
BRANCH   2   3
ATOM      3  C   UNL A   1      39.014  20.830  25.586  1.00  0.00     0.338 C 
ATOM      4  O   UNL A   1      39.419  19.703  25.408  1.00  0.00    -0.246 OA
BRANCH   3   5
ATOM      5  C   UNL A   1      37.702  21.271  25.208  1.00  0.00     0.060 A 
ATOM      6  C   UNL A   1      33.824  22.752  25.100  1.00  0.00     0.043 A 
ATOM      7  C   UNL A   1      35.417  23.955  25.447  1.00  0.00     0.027 A 
ATOM      8  C   UNL A   1      34.330  20.849  24.964  1.00  0.00    -0.027 A 
ATOM      9  C   UNL A   1      37.231  23.191  25.434  1.00  0.00     0.018 A 
ATOM     10  C   UNL A   1      36.139  20.092  25.000  1.00  0.00     0.021 A 
ATOM     11  C   UNL A   1      33.212  19.901  25.385  1.00  0.00     0.046 C 
BRANCH   6  12
ATOM     12  N   UNL A   1      32.804  23.044  24.086  1.00  0.00    -0.332 N 
ATOM     13  H   UNL A   1      32.742  22.349  23.392  1.00  0.00     0.169 HD
BRANCH  12  14
ATOM     14  C   UNL A   1      31.909  24.085  23.892  1.00  0.00     0.177 C 
ATOM     15  S   UNL A   1      32.043  24.923  22.439  1.00  0.00    -0.040 S 
BRANCH  14  16
ATOM     16  N   UNL A   1      30.840  24.469  24.704  1.00  0.00    -0.299 N 
ATOM     17  C   UNL A   1      30.612  25.237  25.867  1.00  0.00     0.261 C 
ATOM     18  O   UNL A   1      29.571  25.286  26.501  1.00  0.00    -0.269 OA
ATOM     19  H   UNL A   1      29.996  24.092  24.366  1.00  0.00     0.172 HD
BRANCH  17  20
ATOM     20  C   UNL A   1      31.758  26.009  26.171  1.00  0.00     0.082 A 
ATOM     21  C   UNL A   1      31.892  27.270  25.993  1.00  0.00     0.134 A 
ATOM     22  C   UNL A   1      32.994  28.821  26.780  1.00  0.00    -0.008 A 
ATOM     23  C   UNL A   1      32.467  30.576  26.875  1.00  0.00     0.048 C 
ATOM     24  C   UNL A   1      34.070  29.027  27.470  1.00  0.00     0.007 A 
ATOM     25  C   UNL A   1      32.782  26.660  25.811  1.00  0.00     0.018 A 
ATOM     26  C   UNL A   1      33.901  28.204  26.511  1.00  0.00     0.001 A 
BRANCH  21  27
ATOM     27  O   UNL A   1      30.691  27.365  24.756  1.00  0.00    -0.496 OA
ATOM     28  C   UNL A   1      30.488  28.386  23.732  1.00  0.00     0.278 C 
ENDBRANCH  21  27
ENDBRANCH  17  20
ENDBRANCH  14  16
ENDBRANCH  12  14
ENDBRANCH   6  12
ENDBRANCH   3   5
ENDBRANCH   2   3
ENDBRANCH   1   2
BRANCH   1  29
ATOM     29  C   UNL A   1      41.509  22.651  27.336  1.00  0.00     0.202 C 
BRANCH  29  30
ATOM     30  O   UNL A   1      41.792  22.861  25.965  1.00  0.00    -0.374 OA
BRANCH  30  31
ATOM     31  C   UNL A   1      43.084  22.508  25.526  1.00  0.00     0.202 C 
BRANCH  31  32
ATOM     32  C   UNL A   1      43.929  23.735  25.166  1.00  0.00     0.261 C 
BRANCH  32  33
ATOM     33  O   UNL A   1      44.001  24.629  26.304  1.00  0.00    -0.460 OA
BRANCH  33  34
ATOM     34  C   UNL A   1      45.242  24.930  26.790  1.00  0.00     0.338 C 
ATOM     35  O   UNL A   1      46.188  25.296  26.112  1.00  0.00    -0.246 OA
BRANCH  34  36
ATOM     36  C   UNL A   1      45.352  24.521  28.227  1.00  0.00     0.060 A 
ATOM     37  C   UNL A   1      44.371  23.706  28.831  1.00  0.00     0.016 A 
ATOM     38  C   UNL A   1      46.245  25.213  29.033  1.00  0.00     0.016 A 
ATOM     39  C   UNL A   1      44.176  23.739  30.228  1.00  0.00     0.010 A 
ATOM     40  C   UNL A   1      45.960  25.343  30.376  1.00  0.00     0.010 A 
ATOM     41  C   UNL A   1      44.897  24.653  30.990  1.00  0.00    -0.014 A 
BRANCH  41  42
ATOM     42  C   UNL A   1      44.592  25.108  32.363  1.00  0.00     0.031 A 
ATOM     43  C   UNL A   1      43.861  26.393  32.505  1.00  0.00     0.074 A 
ATOM     44  C   UNL A   1      44.594  24.241  33.415  1.00  0.00     0.049 A 
ATOM     45  N   UNL A   1      43.405  26.828  33.621  1.00  0.00    -0.248 NA
ATOM     46  C   UNL A   1      43.590  27.320  31.407  1.00  0.00     0.031 C 
ATOM     47  C   UNL A   1      43.700  24.234  34.590  1.00  0.00     0.029 A 
ATOM     48  N   UNL A   1      45.337  23.070  33.616  1.00  0.00    -0.354 N 
ATOM     49  C   UNL A   1      42.536  27.856  33.370  1.00  0.00     0.074 A 
ATOM     50  C   UNL A   1      42.767  28.199  31.991  1.00  0.00     0.031 C 
ATOM     51  C   UNL A   1      44.101  23.304  35.474  1.00  0.00     0.029 A 
ATOM     52  C   UNL A   1      45.371  22.794  35.001  1.00  0.00     0.049 A 
ATOM     53  H   UNL A   1      45.762  22.531  32.911  1.00  0.00     0.167 HD
ATOM     54  C   UNL A   1      41.680  28.205  34.371  1.00  0.00     0.037 A 
ATOM     55  C   UNL A   1      46.573  22.804  35.634  1.00  0.00     0.037 A 
ATOM     56  C   UNL A   1      42.060  27.525  35.628  1.00  0.00     0.049 A 
ATOM     57  C   UNL A   1      46.654  24.049  36.487  1.00  0.00     0.074 A 
ATOM     58  C   UNL A   1      41.527  26.533  36.429  1.00  0.00     0.029 A 
ATOM     59  N   UNL A   1      43.373  27.677  36.062  1.00  0.00    -0.354 N 
ATOM     60  N   UNL A   1      45.664  24.895  36.584  1.00  0.00    -0.248 NA
ATOM     61  C   UNL A   1      47.803  24.479  37.264  1.00  0.00     0.031 C 
ATOM     62  C   UNL A   1      42.565  26.079  37.320  1.00  0.00     0.029 A 
ATOM     63  C   UNL A   1      43.709  26.828  37.096  1.00  0.00     0.049 A 
ATOM     64  H   UNL A   1      44.001  28.326  35.669  1.00  0.00     0.167 HD
ATOM     65  C   UNL A   1      45.976  25.939  37.382  1.00  0.00     0.074 A 
ATOM     66  C   UNL A   1      47.365  25.661  37.743  1.00  0.00     0.031 C 
ATOM     67  C   UNL A   1      45.060  26.920  37.666  1.00  0.00     0.037 A 
BRANCH  54  68
ATOM     68  C   UNL A   1      40.467  29.101  34.232  1.00  0.00     0.064 A 
ATOM     69  C   UNL A   1      40.294  30.192  35.112  1.00  0.00     0.173 A 
ATOM     70  C   UNL A   1      39.401  28.910  33.324  1.00  0.00     0.173 A 
ATOM     71  F   UNL A   1      41.219  30.490  36.034  1.00  0.00    -0.203 F 
ATOM     72  C   UNL A   1      39.159  31.011  35.084  1.00  0.00     0.198 A 
ATOM     73  C   UNL A   1      38.289  29.759  33.265  1.00  0.00     0.198 A 
ATOM     74  F   UNL A   1      39.353  27.867  32.489  1.00  0.00    -0.203 F 
ATOM     75  F   UNL A   1      39.033  32.003  35.978  1.00  0.00    -0.200 F 
ATOM     76  C   UNL A   1      38.162  30.804  34.154  1.00  0.00     0.200 A 
ATOM     77  F   UNL A   1      37.331  29.539  32.353  1.00  0.00    -0.200 F 
ATOM     78  F   UNL A   1      37.077  31.590  34.125  1.00  0.00    -0.200 F 
ENDBRANCH  54  68
BRANCH  55  79
ATOM     79  C   UNL A   1      47.592  22.134  34.751  1.00  0.00     0.064 A 
ATOM     80  C   UNL A   1      48.533  23.005  34.138  1.00  0.00     0.173 A 
ATOM     81  C   UNL A   1      48.022  20.826  35.014  1.00  0.00     0.173 A 
ATOM     82  F   UNL A   1      48.196  24.278  33.876  1.00  0.00    -0.203 F 
ATOM     83  C   UNL A   1      49.877  22.649  34.001  1.00  0.00     0.198 A 
ATOM     84  C   UNL A   1      49.371  20.471  34.854  1.00  0.00     0.198 A 
ATOM     85  F   UNL A   1      47.197  19.952  35.605  1.00  0.00    -0.203 F 
ATOM     86  F   UNL A   1      50.781  23.568  33.627  1.00  0.00    -0.200 F 
ATOM     87  C   UNL A   1      50.302  21.399  34.408  1.00  0.00     0.200 A 
ATOM     88  F   UNL A   1      49.797  19.265  35.260  1.00  0.00    -0.200 F 
ATOM     89  F   UNL A   1      51.614  21.118  34.454  1.00  0.00    -0.200 F 
ENDBRANCH  55  79
BRANCH  67  90
ATOM     90  C   UNL A   1      45.424  28.124  38.487  1.00  0.00     0.064 A 
ATOM     91  C   UNL A   1      45.855  29.320  37.905  1.00  0.00     0.173 A 
ATOM     92  C   UNL A   1      45.358  28.118  39.899  1.00  0.00     0.173 A 
ATOM     93  F   UNL A   1      46.166  29.382  36.602  1.00  0.00    -0.203 F 
ATOM     94  C   UNL A   1      45.993  30.485  38.655  1.00  0.00     0.198 A 
ATOM     95  C   UNL A   1      45.573  29.262  40.654  1.00  0.00     0.198 A 
ATOM     96  F   UNL A   1      45.055  27.022  40.606  1.00  0.00    -0.203 F 
ATOM     97  F   UNL A   1      46.264  31.641  38.033  1.00  0.00    -0.200 F 
ATOM     98  C   UNL A   1      45.836  30.459  40.027  1.00  0.00     0.200 A 
ATOM     99  F   UNL A   1      45.487  29.197  41.990  1.00  0.00    -0.200 F 
ATOM    100  F   UNL A   1      45.946  31.582  40.746  1.00  0.00    -0.200 F 
ENDBRANCH  67  90
ENDBRANCH  41  42
ENDBRANCH  34  36
ENDBRANCH  33  34
ENDBRANCH  32  33
ENDBRANCH  31  32
ENDBRANCH  30  31
ENDBRANCH  29  30
ENDBRANCH   1  29
TORSDOF 19
ENDMDL
