MODEL 1
REMARK VINA RESULT:     -12.5      0.000      0.000
REMARK SMILES COc1ccc2[nH]cc([C@H](C(=O)OCCOCCOC(=O)c3ccc(-c4c5nc(c(-c6c(F)c(F)c(F)c(F)c6F)c6ccc([nH]6)c(-c6c(F)c(F)c(F)c(F)c6F)c6nc(c(-c7c(F)c(F)c(F)c(F)c7F)c7ccc4[nH]7)C=C6)C=C5)cc3)[NH+]3CC[NH+](Cc4cccc5ccccc45)CC3)c2c1
REMARK SMILES IDX 15 1 14 2 13 3 11 4 12 5 10 6 9 7 3 8 4 9 103 10 5 11 102 12
REMARK SMILES IDX 6 13 7 14 8 15 2 17 1 18 85 19 86 20 101 21 87 23 100 24
REMARK SMILES IDX 88 25 89 27 90 28 91 29 99 30 92 31 94 32 98 33 93 34 95 35
REMARK SMILES IDX 97 36 96 37 16 38 17 39 18 40 19 41 20 42 21 43 22 44 23 45
REMARK SMILES IDX 84 46 24 47 83 48 25 49 26 50 27 51 77 52 28 53 82 54 76 55
REMARK SMILES IDX 78 56 29 57 81 58 75 59 74 60 30 62 62 63 42 64 61 65 43 66
REMARK SMILES IDX 46 67 60 68 79 69 44 70 45 71 59 73 80 74 47 75 31 76 32 77
REMARK SMILES IDX 40 78 33 79 34 80 38 81 41 82 35 83 36 84 39 85 37 86 63 87
REMARK SMILES IDX 64 88 72 89 65 90 66 91 70 92 73 93 67 94 68 95 71 96 69 97
REMARK SMILES IDX 48 98 49 99 57 100 50 101 51 102 55 103 58 104 52 105 53 106
REMARK SMILES IDX 56 107 54 108
REMARK H PARENT 7 16 85 22 88 26 78 61 46 72
REMARK Flexibility Score: inf
ROOT
ATOM      1  C   UNL A   1      38.049  23.062  25.757  1.00  0.00     0.202 C 
ENDROOT
BRANCH   1   2
ATOM      2  C   UNL A   1      36.925  22.517  24.853  1.00  0.00     0.261 C 
BRANCH   2   3
ATOM      3  O   UNL A   1      36.205  23.579  24.186  1.00  0.00    -0.459 OA
BRANCH   3   4
ATOM      4  C   UNL A   1      34.966  23.940  24.637  1.00  0.00     0.370 C 
ATOM      5  O   UNL A   1      34.789  24.844  25.447  1.00  0.00    -0.245 OA
BRANCH   4   6
ATOM      6  C   UNL A   1      33.834  23.049  24.061  1.00  0.00     0.328 C 
BRANCH   6   7
ATOM      7  C   UNL A   1      33.365  21.868  24.950  1.00  0.00     0.046 A 
ATOM      8  C   UNL A   1      32.470  18.482  23.358  1.00  0.00     0.119 A 
ATOM      9  C   UNL A   1      32.669  17.714  24.495  1.00  0.00     0.048 A 
ATOM     10  C   UNL A   1      32.504  19.884  23.426  1.00  0.00     0.057 A 
ATOM     11  C   UNL A   1      32.900  18.334  25.727  1.00  0.00     0.030 A 
ATOM     12  C   UNL A   1      32.900  20.537  24.610  1.00  0.00     0.013 A 
ATOM     13  C   UNL A   1      33.038  19.734  25.747  1.00  0.00     0.046 A 
ATOM     14  N   UNL A   1      33.364  20.569  26.787  1.00  0.00    -0.361 N 
ATOM     15  C   UNL A   1      33.563  21.841  26.327  1.00  0.00     0.094 A 
ATOM     16  H   UNL A   1      33.444  20.291  27.729  1.00  0.00     0.166 HD
BRANCH   8  17
ATOM     17  O   UNL A   1      32.517  17.951  22.096  1.00  0.00    -0.497 OA
ATOM     18  C   UNL A   1      32.153  18.824  21.039  1.00  0.00     0.278 C 
ENDBRANCH   8  17
ENDBRANCH   6   7
BRANCH   6  19
ATOM     19  N   UNL A   1      32.615  23.793  23.680  1.00  0.00    -0.310 N 
ATOM     20  C   UNL A   1      31.626  24.086  24.694  1.00  0.00     0.325 C 
ATOM     21  C   UNL A   1      32.554  24.660  22.512  1.00  0.00     0.325 C 
ATOM     22  H   UNL A   1      32.323  22.930  23.222  1.00  0.00     0.349 HD
ATOM     23  C   UNL A   1      31.486  25.575  25.011  1.00  0.00     0.324 C 
ATOM     24  C   UNL A   1      32.112  26.149  22.739  1.00  0.00     0.324 C 
ATOM     25  N   UNL A   1      31.274  26.475  23.896  1.00  0.00    -0.322 N 
ATOM     26  H   UNL A   1      31.653  27.389  24.144  1.00  0.00     0.348 HD
BRANCH  25  27
ATOM     27  C   UNL A   1      29.887  26.905  23.706  1.00  0.00     0.300 C 
BRANCH  27  28
ATOM     28  C   UNL A   1      29.658  28.363  23.371  1.00  0.00     0.014 A 
ATOM     29  C   UNL A   1      28.711  28.635  22.372  1.00  0.00     0.010 A 
ATOM     30  C   UNL A   1      30.260  29.443  24.089  1.00  0.00    -0.010 A 
ATOM     31  C   UNL A   1      28.233  29.921  22.189  1.00  0.00     0.001 A 
ATOM     32  C   UNL A   1      29.631  30.703  24.019  1.00  0.00    -0.018 A 
ATOM     33  C   UNL A   1      31.408  29.345  24.920  1.00  0.00     0.009 A 
ATOM     34  C   UNL A   1      28.634  30.930  23.059  1.00  0.00     0.009 A 
ATOM     35  C   UNL A   1      29.990  31.716  24.928  1.00  0.00     0.009 A 
ATOM     36  C   UNL A   1      31.779  30.369  25.798  1.00  0.00     0.001 A 
ATOM     37  C   UNL A   1      31.033  31.537  25.837  1.00  0.00     0.001 A 
ENDBRANCH  27  28
ENDBRANCH  25  27
ENDBRANCH   6  19
ENDBRANCH   4   6
ENDBRANCH   3   4
ENDBRANCH   2   3
ENDBRANCH   1   2
BRANCH   1  38
ATOM     38  O   UNL A   1      39.091  22.156  26.125  1.00  0.00    -0.374 OA
BRANCH  38  39
ATOM     39  C   UNL A   1      39.037  20.851  25.565  1.00  0.00     0.202 C 
BRANCH  39  40
ATOM     40  C   UNL A   1      39.879  19.783  26.272  1.00  0.00     0.261 C 
BRANCH  40  41
ATOM     41  O   UNL A   1      40.901  19.291  25.397  1.00  0.00    -0.460 OA
BRANCH  41  42
ATOM     42  C   UNL A   1      42.093  19.103  26.001  1.00  0.00     0.338 C 
ATOM     43  O   UNL A   1      42.685  18.052  26.182  1.00  0.00    -0.246 OA
BRANCH  42  44
ATOM     44  C   UNL A   1      42.681  20.420  26.286  1.00  0.00     0.060 A 
ATOM     45  C   UNL A   1      42.647  20.865  27.610  1.00  0.00     0.016 A 
ATOM     46  C   UNL A   1      43.226  21.220  25.281  1.00  0.00     0.016 A 
ATOM     47  C   UNL A   1      43.107  22.140  27.927  1.00  0.00     0.010 A 
ATOM     48  C   UNL A   1      43.714  22.489  25.605  1.00  0.00     0.010 A 
ATOM     49  C   UNL A   1      43.613  22.976  26.922  1.00  0.00    -0.014 A 
BRANCH  49  50
ATOM     50  C   UNL A   1      43.835  24.417  27.211  1.00  0.00     0.031 A 
ATOM     51  C   UNL A   1      45.202  24.997  26.957  1.00  0.00     0.074 A 
ATOM     52  C   UNL A   1      42.835  25.215  27.629  1.00  0.00     0.049 A 
ATOM     53  N   UNL A   1      45.640  26.215  27.147  1.00  0.00    -0.248 NA
ATOM     54  C   UNL A   1      46.219  24.072  26.432  1.00  0.00     0.031 C 
ATOM     55  C   UNL A   1      41.460  24.791  27.885  1.00  0.00     0.029 A 
ATOM     56  N   UNL A   1      42.827  26.562  27.901  1.00  0.00    -0.354 N 
ATOM     57  C   UNL A   1      46.981  26.192  26.785  1.00  0.00     0.074 A 
ATOM     58  C   UNL A   1      47.302  24.831  26.420  1.00  0.00     0.031 C 
ATOM     59  C   UNL A   1      40.736  25.861  28.259  1.00  0.00     0.029 A 
ATOM     60  C   UNL A   1      41.604  27.037  28.306  1.00  0.00     0.049 A 
ATOM     61  H   UNL A   1      43.625  27.134  27.814  1.00  0.00     0.167 HD
ATOM     62  C   UNL A   1      47.865  27.216  26.731  1.00  0.00     0.037 A 
ATOM     63  C   UNL A   1      41.234  28.278  28.683  1.00  0.00     0.037 A 
ATOM     64  C   UNL A   1      47.544  28.578  27.057  1.00  0.00     0.049 A 
ATOM     65  C   UNL A   1      42.252  29.393  28.667  1.00  0.00     0.074 A 
ATOM     66  C   UNL A   1      48.362  29.692  27.006  1.00  0.00     0.029 A 
ATOM     67  N   UNL A   1      46.302  29.012  27.493  1.00  0.00    -0.354 N 
ATOM     68  N   UNL A   1      43.510  29.366  28.296  1.00  0.00    -0.248 NA
ATOM     69  C   UNL A   1      41.794  30.716  29.121  1.00  0.00     0.031 C 
ATOM     70  C   UNL A   1      47.632  30.792  27.465  1.00  0.00     0.029 A 
ATOM     71  C   UNL A   1      46.338  30.375  27.739  1.00  0.00     0.049 A 
ATOM     72  H   UNL A   1      45.511  28.438  27.609  1.00  0.00     0.167 HD
ATOM     73  C   UNL A   1      43.979  30.668  28.438  1.00  0.00     0.074 A 
ATOM     74  C   UNL A   1      42.869  31.463  28.914  1.00  0.00     0.031 C 
ATOM     75  C   UNL A   1      45.220  31.159  28.194  1.00  0.00     0.037 A 
BRANCH  62  76
ATOM     76  C   UNL A   1      49.272  26.893  26.317  1.00  0.00     0.064 A 
ATOM     77  C   UNL A   1      50.246  26.499  27.247  1.00  0.00     0.173 A 
ATOM     78  C   UNL A   1      49.645  26.965  24.967  1.00  0.00     0.173 A 
ATOM     79  F   UNL A   1      49.946  26.430  28.553  1.00  0.00    -0.203 F 
ATOM     80  C   UNL A   1      51.551  26.226  26.845  1.00  0.00     0.198 A 
ATOM     81  C   UNL A   1      50.941  26.656  24.564  1.00  0.00     0.198 A 
ATOM     82  F   UNL A   1      48.751  27.333  24.036  1.00  0.00    -0.203 F 
ATOM     83  F   UNL A   1      52.480  25.913  27.759  1.00  0.00    -0.200 F 
ATOM     84  C   UNL A   1      51.894  26.296  25.504  1.00  0.00     0.200 A 
ATOM     85  F   UNL A   1      51.267  26.711  23.265  1.00  0.00    -0.200 F 
ATOM     86  F   UNL A   1      53.149  26.028  25.118  1.00  0.00    -0.200 F 
ENDBRANCH  62  76
BRANCH  63  87
ATOM     87  C   UNL A   1      39.836  28.546  29.119  1.00  0.00     0.064 A 
ATOM     88  C   UNL A   1      38.888  29.074  28.230  1.00  0.00     0.173 A 
ATOM     89  C   UNL A   1      39.433  28.327  30.444  1.00  0.00     0.173 A 
ATOM     90  F   UNL A   1      39.229  29.328  26.958  1.00  0.00    -0.203 F 
ATOM     91  C   UNL A   1      37.602  29.401  28.658  1.00  0.00     0.198 A 
ATOM     92  C   UNL A   1      38.137  28.624  30.863  1.00  0.00     0.198 A 
ATOM     93  F   UNL A   1      40.300  27.827  31.337  1.00  0.00    -0.203 F 
ATOM     94  F   UNL A   1      36.736  29.963  27.803  1.00  0.00    -0.200 F 
ATOM     95  C   UNL A   1      37.226  29.171  29.972  1.00  0.00     0.200 A 
ATOM     96  F   UNL A   1      37.776  28.389  32.131  1.00  0.00    -0.200 F 
ATOM     97  F   UNL A   1      35.991  29.490  30.385  1.00  0.00    -0.200 F 
ENDBRANCH  63  87
BRANCH  75  98
ATOM     98  C   UNL A   1      45.438  32.635  28.386  1.00  0.00     0.064 A 
ATOM     99  C   UNL A   1      45.927  33.161  29.590  1.00  0.00     0.173 A 
ATOM    100  C   UNL A   1      45.210  33.526  27.325  1.00  0.00     0.173 A 
ATOM    101  F   UNL A   1      46.151  32.355  30.639  1.00  0.00    -0.203 F 
ATOM    102  C   UNL A   1      46.155  34.528  29.734  1.00  0.00     0.198 A 
ATOM    103  C   UNL A   1      45.472  34.886  27.461  1.00  0.00     0.198 A 
ATOM    104  F   UNL A   1      44.753  33.075  26.147  1.00  0.00    -0.203 F 
ATOM    105  F   UNL A   1      46.576  35.014  30.909  1.00  0.00    -0.200 F 
ATOM    106  C   UNL A   1      45.936  35.387  28.667  1.00  0.00     0.200 A 
ATOM    107  F   UNL A   1      45.278  35.712  26.422  1.00  0.00    -0.200 F 
ATOM    108  F   UNL A   1      46.168  36.700  28.803  1.00  0.00    -0.200 F 
ENDBRANCH  75  98
ENDBRANCH  49  50
ENDBRANCH  42  44
ENDBRANCH  41  42
ENDBRANCH  40  41
ENDBRANCH  39  40
ENDBRANCH  38  39
ENDBRANCH   1  38
TORSDOF 19
ENDMDL
MODEL 2
REMARK VINA RESULT:     -12.4      2.690      5.614
REMARK SMILES COc1ccc2[nH]cc([C@H](C(=O)OCCOCCOC(=O)c3ccc(-c4c5nc(c(-c6c(F)c(F)c(F)c(F)c6F)c6ccc([nH]6)c(-c6c(F)c(F)c(F)c(F)c6F)c6nc(c(-c7c(F)c(F)c(F)c(F)c7F)c7ccc4[nH]7)C=C6)C=C5)cc3)[NH+]3CC[NH+](Cc4cccc5ccccc45)CC3)c2c1
REMARK SMILES IDX 15 1 14 2 13 3 11 4 12 5 10 6 9 7 3 8 4 9 103 10 5 11 102 12
REMARK SMILES IDX 6 13 7 14 8 15 2 17 1 18 85 19 86 20 101 21 87 23 100 24
REMARK SMILES IDX 88 25 89 27 90 28 91 29 99 30 92 31 94 32 98 33 93 34 95 35
REMARK SMILES IDX 97 36 96 37 16 38 17 39 18 40 19 41 20 42 21 43 22 44 23 45
REMARK SMILES IDX 84 46 24 47 83 48 25 49 26 50 27 51 77 52 28 53 82 54 76 55
REMARK SMILES IDX 78 56 29 57 81 58 75 59 74 60 30 62 62 63 42 64 61 65 43 66
REMARK SMILES IDX 46 67 60 68 79 69 44 70 45 71 59 73 80 74 47 75 31 76 32 77
REMARK SMILES IDX 40 78 33 79 34 80 38 81 41 82 35 83 36 84 39 85 37 86 63 87
REMARK SMILES IDX 64 88 72 89 65 90 66 91 70 92 73 93 67 94 68 95 71 96 69 97
REMARK SMILES IDX 48 98 49 99 57 100 50 101 51 102 55 103 58 104 52 105 53 106
REMARK SMILES IDX 56 107 54 108
REMARK H PARENT 7 16 85 22 88 26 78 61 46 72
REMARK Flexibility Score: inf
ROOT
ATOM      1  C   UNL A   1      34.068  22.595  23.133  1.00  0.00     0.202 C 
ENDROOT
BRANCH   1   2
ATOM      2  C   UNL A   1      32.597  23.058  23.071  1.00  0.00     0.261 C 
BRANCH   2   3
ATOM      3  O   UNL A   1      32.441  24.423  23.521  1.00  0.00    -0.459 OA
BRANCH   3   4
ATOM      4  C   UNL A   1      32.176  25.407  22.608  1.00  0.00     0.370 C 
ATOM      5  O   UNL A   1      32.265  25.234  21.397  1.00  0.00    -0.245 OA
BRANCH   4   6
ATOM      6  C   UNL A   1      31.814  26.761  23.273  1.00  0.00     0.328 C 
BRANCH   6   7
ATOM      7  C   UNL A   1      30.313  26.998  23.583  1.00  0.00     0.046 A 
ATOM      8  C   UNL A   1      28.712  30.428  22.897  1.00  0.00     0.119 A 
ATOM      9  C   UNL A   1      27.404  29.977  22.798  1.00  0.00     0.048 A 
ATOM     10  C   UNL A   1      29.737  29.566  23.320  1.00  0.00     0.057 A 
ATOM     11  C   UNL A   1      27.094  28.653  23.127  1.00  0.00     0.030 A 
ATOM     12  C   UNL A   1      29.492  28.191  23.496  1.00  0.00     0.013 A 
ATOM     13  C   UNL A   1      28.154  27.784  23.441  1.00  0.00     0.046 A 
ATOM     14  N   UNL A   1      28.137  26.435  23.698  1.00  0.00    -0.361 N 
ATOM     15  C   UNL A   1      29.414  25.954  23.782  1.00  0.00     0.094 A 
ATOM     16  H   UNL A   1      27.322  25.892  23.804  1.00  0.00     0.166 HD
BRANCH   8  17
ATOM     17  O   UNL A   1      29.126  31.606  22.333  1.00  0.00    -0.497 OA
ATOM     18  C   UNL A   1      28.360  32.074  21.235  1.00  0.00     0.278 C 
ENDBRANCH   8  17
ENDBRANCH   6   7
BRANCH   6  19
ATOM     19  N   UNL A   1      32.546  27.032  24.528  1.00  0.00    -0.310 N 
ATOM     20  C   UNL A   1      33.595  28.028  24.527  1.00  0.00     0.325 C 
ATOM     21  C   UNL A   1      31.990  26.746  25.842  1.00  0.00     0.325 C 
ATOM     22  H   UNL A   1      32.994  26.129  24.373  1.00  0.00     0.349 HD
ATOM     23  C   UNL A   1      33.277  29.264  25.369  1.00  0.00     0.324 C 
ATOM     24  C   UNL A   1      31.919  27.929  26.871  1.00  0.00     0.324 C 
ATOM     25  N   UNL A   1      32.858  29.046  26.738  1.00  0.00    -0.322 N 
ATOM     26  H   UNL A   1      32.259  29.823  27.019  1.00  0.00     0.348 HD
BRANCH  25  27
ATOM     27  C   UNL A   1      33.903  29.257  27.743  1.00  0.00     0.300 C 
BRANCH  27  28
ATOM     28  C   UNL A   1      34.578  30.612  27.759  1.00  0.00     0.014 A 
ATOM     29  C   UNL A   1      33.733  31.733  27.730  1.00  0.00     0.010 A 
ATOM     30  C   UNL A   1      35.987  30.791  27.917  1.00  0.00    -0.010 A 
ATOM     31  C   UNL A   1      34.229  32.993  28.018  1.00  0.00     0.001 A 
ATOM     32  C   UNL A   1      36.437  32.042  28.390  1.00  0.00    -0.018 A 
ATOM     33  C   UNL A   1      36.977  29.797  27.697  1.00  0.00     0.009 A 
ATOM     34  C   UNL A   1      35.554  33.131  28.420  1.00  0.00     0.009 A 
ATOM     35  C   UNL A   1      37.759  32.181  28.850  1.00  0.00     0.009 A 
ATOM     36  C   UNL A   1      38.298  29.955  28.127  1.00  0.00     0.001 A 
ATOM     37  C   UNL A   1      38.674  31.133  28.754  1.00  0.00     0.001 A 
ENDBRANCH  27  28
ENDBRANCH  25  27
ENDBRANCH   6  19
ENDBRANCH   4   6
ENDBRANCH   3   4
ENDBRANCH   2   3
ENDBRANCH   1   2
BRANCH   1  38
ATOM     38  O   UNL A   1      35.035  23.545  23.585  1.00  0.00    -0.374 OA
BRANCH  38  39
ATOM     39  C   UNL A   1      36.395  23.136  23.566  1.00  0.00     0.202 C 
BRANCH  39  40
ATOM     40  C   UNL A   1      36.821  22.170  24.678  1.00  0.00     0.261 C 
BRANCH  40  41
ATOM     41  O   UNL A   1      37.426  22.887  25.760  1.00  0.00    -0.460 OA
BRANCH  41  42
ATOM     42  C   UNL A   1      38.648  22.430  26.103  1.00  0.00     0.338 C 
ATOM     43  O   UNL A   1      39.202  21.411  25.723  1.00  0.00    -0.246 OA
BRANCH  42  44
ATOM     44  C   UNL A   1      39.318  23.457  26.914  1.00  0.00     0.060 A 
ATOM     45  C   UNL A   1      38.801  24.754  26.861  1.00  0.00     0.016 A 
ATOM     46  C   UNL A   1      40.446  23.172  27.684  1.00  0.00     0.016 A 
ATOM     47  C   UNL A   1      39.445  25.786  27.537  1.00  0.00     0.010 A 
ATOM     48  C   UNL A   1      41.076  24.205  28.384  1.00  0.00     0.010 A 
ATOM     49  C   UNL A   1      40.608  25.527  28.276  1.00  0.00    -0.014 A 
BRANCH  49  50
ATOM     50  C   UNL A   1      41.441  26.662  28.752  1.00  0.00     0.031 A 
ATOM     51  C   UNL A   1      42.810  26.849  28.150  1.00  0.00     0.074 A 
ATOM     52  C   UNL A   1      40.977  27.549  29.653  1.00  0.00     0.049 A 
ATOM     53  N   UNL A   1      43.722  27.749  28.415  1.00  0.00    -0.248 NA
ATOM     54  C   UNL A   1      43.211  25.877  27.120  1.00  0.00     0.031 C 
ATOM     55  C   UNL A   1      39.664  27.504  30.291  1.00  0.00     0.029 A 
ATOM     56  N   UNL A   1      41.567  28.674  30.177  1.00  0.00    -0.354 N 
ATOM     57  C   UNL A   1      44.803  27.437  27.601  1.00  0.00     0.074 A 
ATOM     58  C   UNL A   1      44.460  26.234  26.877  1.00  0.00     0.031 C 
ATOM     59  C   UNL A   1      39.539  28.565  31.108  1.00  0.00     0.029 A 
ATOM     60  C   UNL A   1      40.777  29.343  31.080  1.00  0.00     0.049 A 
ATOM     61  H   UNL A   1      42.473  28.973  29.929  1.00  0.00     0.167 HD
ATOM     62  C   UNL A   1      45.970  28.105  27.444  1.00  0.00     0.037 A 
ATOM     63  C   UNL A   1      41.033  30.449  31.807  1.00  0.00     0.037 A 
ATOM     64  C   UNL A   1      46.303  29.322  28.132  1.00  0.00     0.049 A 
ATOM     65  C   UNL A   1      42.364  31.147  31.655  1.00  0.00     0.074 A 
ATOM     66  C   UNL A   1      47.447  30.091  28.019  1.00  0.00     0.029 A 
ATOM     67  N   UNL A   1      45.488  29.951  29.061  1.00  0.00    -0.354 N 
ATOM     68  N   UNL A   1      43.368  30.859  30.862  1.00  0.00    -0.248 NA
ATOM     69  C   UNL A   1      42.593  32.329  32.501  1.00  0.00     0.031 C 
ATOM     70  C   UNL A   1      47.350  31.153  28.922  1.00  0.00     0.029 A 
ATOM     71  C   UNL A   1      46.116  31.084  29.549  1.00  0.00     0.049 A 
ATOM     72  H   UNL A   1      44.595  29.637  29.333  1.00  0.00     0.167 HD
ATOM     73  C   UNL A   1      44.327  31.840  31.088  1.00  0.00     0.074 A 
ATOM     74  C   UNL A   1      43.781  32.739  32.080  1.00  0.00     0.031 C 
ATOM     75  C   UNL A   1      45.552  31.983  30.522  1.00  0.00     0.037 A 
BRANCH  62  76
ATOM     76  C   UNL A   1      46.979  27.520  26.499  1.00  0.00     0.064 A 
ATOM     77  C   UNL A   1      47.939  26.589  26.923  1.00  0.00     0.173 A 
ATOM     78  C   UNL A   1      46.975  27.889  25.145  1.00  0.00     0.173 A 
ATOM     79  F   UNL A   1      47.996  26.216  28.210  1.00  0.00    -0.203 F 
ATOM     80  C   UNL A   1      48.880  26.076  26.034  1.00  0.00     0.198 A 
ATOM     81  C   UNL A   1      47.895  27.345  24.252  1.00  0.00     0.198 A 
ATOM     82  F   UNL A   1      46.077  28.773  24.686  1.00  0.00    -0.203 F 
ATOM     83  F   UNL A   1      49.827  25.235  26.475  1.00  0.00    -0.200 F 
ATOM     84  C   UNL A   1      48.852  26.448  24.699  1.00  0.00     0.200 A 
ATOM     85  F   UNL A   1      47.857  27.696  22.959  1.00  0.00    -0.200 F 
ATOM     86  F   UNL A   1      49.755  25.949  23.844  1.00  0.00    -0.200 F 
ENDBRANCH  62  76
BRANCH  63  87
ATOM     87  C   UNL A   1      40.015  30.975  32.758  1.00  0.00     0.064 A 
ATOM     88  C   UNL A   1      39.746  30.321  33.969  1.00  0.00     0.173 A 
ATOM     89  C   UNL A   1      39.254  32.113  32.451  1.00  0.00     0.173 A 
ATOM     90  F   UNL A   1      40.426  29.212  34.298  1.00  0.00    -0.203 F 
ATOM     91  C   UNL A   1      38.737  30.767  34.822  1.00  0.00     0.198 A 
ATOM     92  C   UNL A   1      38.268  32.577  33.320  1.00  0.00     0.198 A 
ATOM     93  F   UNL A   1      39.466  32.775  31.304  1.00  0.00    -0.203 F 
ATOM     94  F   UNL A   1      38.460  30.086  35.942  1.00  0.00    -0.200 F 
ATOM     95  C   UNL A   1      38.002  31.897  34.499  1.00  0.00     0.200 A 
ATOM     96  F   UNL A   1      37.568  33.676  33.008  1.00  0.00    -0.200 F 
ATOM     97  F   UNL A   1      37.029  32.323  35.316  1.00  0.00    -0.200 F 
ENDBRANCH  63  87
BRANCH  75  98
ATOM     98  C   UNL A   1      46.371  33.180  30.918  1.00  0.00     0.064 A 
ATOM     99  C   UNL A   1      47.268  33.141  31.995  1.00  0.00     0.173 A 
ATOM    100  C   UNL A   1      46.297  34.366  30.169  1.00  0.00     0.173 A 
ATOM    101  F   UNL A   1      47.369  32.038  32.751  1.00  0.00    -0.203 F 
ATOM    102  C   UNL A   1      48.042  34.252  32.323  1.00  0.00     0.198 A 
ATOM    103  C   UNL A   1      47.097  35.462  30.478  1.00  0.00     0.198 A 
ATOM    104  F   UNL A   1      45.463  34.454  29.122  1.00  0.00    -0.203 F 
ATOM    105  F   UNL A   1      48.857  34.208  33.385  1.00  0.00    -0.200 F 
ATOM    106  C   UNL A   1      47.962  35.407  31.559  1.00  0.00     0.200 A 
ATOM    107  F   UNL A   1      47.033  36.570  29.726  1.00  0.00    -0.200 F 
ATOM    108  F   UNL A   1      48.718  36.471  31.868  1.00  0.00    -0.200 F 
ENDBRANCH  75  98
ENDBRANCH  49  50
ENDBRANCH  42  44
ENDBRANCH  41  42
ENDBRANCH  40  41
ENDBRANCH  39  40
ENDBRANCH  38  39
ENDBRANCH   1  38
TORSDOF 19
ENDMDL
MODEL 3
REMARK VINA RESULT:     -12.3      2.726      8.303
REMARK SMILES COc1ccc2[nH]cc([C@H](C(=O)OCCOCCOC(=O)c3ccc(-c4c5nc(c(-c6c(F)c(F)c(F)c(F)c6F)c6ccc([nH]6)c(-c6c(F)c(F)c(F)c(F)c6F)c6nc(c(-c7c(F)c(F)c(F)c(F)c7F)c7ccc4[nH]7)C=C6)C=C5)cc3)[NH+]3CC[NH+](Cc4cccc5ccccc45)CC3)c2c1
REMARK SMILES IDX 15 1 14 2 13 3 11 4 12 5 10 6 9 7 3 8 4 9 103 10 5 11 102 12
REMARK SMILES IDX 6 13 7 14 8 15 2 17 1 18 85 19 86 20 101 21 87 23 100 24
REMARK SMILES IDX 88 25 89 27 90 28 91 29 99 30 92 31 94 32 98 33 93 34 95 35
REMARK SMILES IDX 97 36 96 37 16 38 17 39 18 40 19 41 20 42 21 43 22 44 23 45
REMARK SMILES IDX 84 46 24 47 83 48 25 49 26 50 27 51 77 52 28 53 82 54 76 55
REMARK SMILES IDX 78 56 29 57 81 58 75 59 74 60 30 62 62 63 42 64 61 65 43 66
REMARK SMILES IDX 46 67 60 68 79 69 44 70 45 71 59 73 80 74 47 75 31 76 32 77
REMARK SMILES IDX 40 78 33 79 34 80 38 81 41 82 35 83 36 84 39 85 37 86 63 87
REMARK SMILES IDX 64 88 72 89 65 90 66 91 70 92 73 93 67 94 68 95 71 96 69 97
REMARK SMILES IDX 48 98 49 99 57 100 50 101 51 102 55 103 58 104 52 105 53 106
REMARK SMILES IDX 56 107 54 108
REMARK H PARENT 7 16 85 22 88 26 78 61 46 72
REMARK Flexibility Score: inf
ROOT
ATOM      1  C   UNL A   1      34.747  23.767  23.779  1.00  0.00     0.202 C 
ENDROOT
BRANCH   1   2
ATOM      2  C   UNL A   1      33.615  23.560  22.751  1.00  0.00     0.261 C 
BRANCH   2   3
ATOM      3  O   UNL A   1      32.477  24.410  23.023  1.00  0.00    -0.459 OA
BRANCH   3   4
ATOM      4  C   UNL A   1      32.218  25.472  22.201  1.00  0.00     0.370 C 
ATOM      5  O   UNL A   1      32.282  25.398  20.978  1.00  0.00    -0.245 OA
BRANCH   4   6
ATOM      6  C   UNL A   1      31.897  26.773  22.982  1.00  0.00     0.328 C 
BRANCH   6   7
ATOM      7  C   UNL A   1      30.420  26.977  23.406  1.00  0.00     0.046 A 
ATOM      8  C   UNL A   1      28.737  30.409  22.970  1.00  0.00     0.119 A 
ATOM      9  C   UNL A   1      27.431  29.944  22.945  1.00  0.00     0.048 A 
ATOM     10  C   UNL A   1      29.798  29.545  23.286  1.00  0.00     0.057 A 
ATOM     11  C   UNL A   1      27.159  28.604  23.242  1.00  0.00     0.030 A 
ATOM     12  C   UNL A   1      29.582  28.161  23.424  1.00  0.00     0.013 A 
ATOM     13  C   UNL A   1      28.248  27.738  23.447  1.00  0.00     0.046 A 
ATOM     14  N   UNL A   1      28.263  26.380  23.650  1.00  0.00    -0.361 N 
ATOM     15  C   UNL A   1      29.548  25.914  23.626  1.00  0.00     0.094 A 
ATOM     16  H   UNL A   1      27.464  25.823  23.792  1.00  0.00     0.166 HD
BRANCH   8  17
ATOM     17  O   UNL A   1      29.097  31.613  22.427  1.00  0.00    -0.497 OA
ATOM     18  C   UNL A   1      28.101  32.275  21.664  1.00  0.00     0.278 C 
ENDBRANCH   8  17
ENDBRANCH   6   7
BRANCH   6  19
ATOM     19  N   UNL A   1      32.710  26.959  24.203  1.00  0.00    -0.310 N 
ATOM     20  C   UNL A   1      33.673  28.037  24.247  1.00  0.00     0.325 C 
ATOM     21  C   UNL A   1      32.292  26.473  25.510  1.00  0.00     0.325 C 
ATOM     22  H   UNL A   1      33.213  26.124  23.904  1.00  0.00     0.349 HD
ATOM     23  C   UNL A   1      33.332  29.133  25.256  1.00  0.00     0.324 C 
ATOM     24  C   UNL A   1      32.216  27.517  26.679  1.00  0.00     0.324 C 
ATOM     25  N   UNL A   1      33.050  28.721  26.615  1.00  0.00    -0.322 N 
ATOM     26  H   UNL A   1      32.417  29.403  27.034  1.00  0.00     0.348 HD
BRANCH  25  27
ATOM     27  C   UNL A   1      34.156  28.904  27.557  1.00  0.00     0.300 C 
BRANCH  27  28
ATOM     28  C   UNL A   1      34.733  30.299  27.677  1.00  0.00     0.014 A 
ATOM     29  C   UNL A   1      33.815  31.360  27.652  1.00  0.00     0.010 A 
ATOM     30  C   UNL A   1      36.116  30.563  27.925  1.00  0.00    -0.010 A 
ATOM     31  C   UNL A   1      34.206  32.634  28.028  1.00  0.00     0.001 A 
ATOM     32  C   UNL A   1      36.451  31.815  28.483  1.00  0.00    -0.018 A 
ATOM     33  C   UNL A   1      37.183  29.649  27.716  1.00  0.00     0.009 A 
ATOM     34  C   UNL A   1      35.494  32.840  28.513  1.00  0.00     0.009 A 
ATOM     35  C   UNL A   1      37.733  32.019  29.024  1.00  0.00     0.009 A 
ATOM     36  C   UNL A   1      38.464  29.874  28.230  1.00  0.00     0.001 A 
ATOM     37  C   UNL A   1      38.723  31.040  28.932  1.00  0.00     0.001 A 
ENDBRANCH  27  28
ENDBRANCH  25  27
ENDBRANCH   6  19
ENDBRANCH   4   6
ENDBRANCH   3   4
ENDBRANCH   2   3
ENDBRANCH   1   2
BRANCH   1  38
ATOM     38  O   UNL A   1      34.772  22.896  24.911  1.00  0.00    -0.374 OA
BRANCH  38  39
ATOM     39  C   UNL A   1      35.752  21.867  24.911  1.00  0.00     0.202 C 
BRANCH  39  40
ATOM     40  C   UNL A   1      37.195  22.315  24.649  1.00  0.00     0.261 C 
BRANCH  40  41
ATOM     41  O   UNL A   1      37.729  22.984  25.797  1.00  0.00    -0.460 OA
BRANCH  41  42
ATOM     42  C   UNL A   1      38.876  22.444  26.259  1.00  0.00     0.338 C 
ATOM     43  O   UNL A   1      39.287  21.306  26.100  1.00  0.00    -0.246 OA
BRANCH  42  44
ATOM     44  C   UNL A   1      39.676  23.511  26.877  1.00  0.00     0.060 A 
ATOM     45  C   UNL A   1      39.374  24.828  26.520  1.00  0.00     0.016 A 
ATOM     46  C   UNL A   1      40.721  23.235  27.760  1.00  0.00     0.016 A 
ATOM     47  C   UNL A   1      40.154  25.875  27.002  1.00  0.00     0.010 A 
ATOM     48  C   UNL A   1      41.486  24.291  28.265  1.00  0.00     0.010 A 
ATOM     49  C   UNL A   1      41.238  25.613  27.852  1.00  0.00    -0.014 A 
BRANCH  49  50
ATOM     50  C   UNL A   1      42.227  26.687  28.131  1.00  0.00     0.031 A 
ATOM     51  C   UNL A   1      41.930  27.663  29.239  1.00  0.00     0.074 A 
ATOM     52  C   UNL A   1      43.393  26.763  27.463  1.00  0.00     0.049 A 
ATOM     53  N   UNL A   1      42.627  28.690  29.655  1.00  0.00    -0.248 NA
ATOM     54  C   UNL A   1      40.666  27.465  29.967  1.00  0.00     0.031 C 
ATOM     55  C   UNL A   1      43.819  25.867  26.390  1.00  0.00     0.029 A 
ATOM     56  N   UNL A   1      44.441  27.640  27.604  1.00  0.00    -0.354 N 
ATOM     57  C   UNL A   1      41.877  29.264  30.674  1.00  0.00     0.074 A 
ATOM     58  C   UNL A   1      40.647  28.512  30.775  1.00  0.00     0.031 C 
ATOM     59  C   UNL A   1      45.048  26.228  25.982  1.00  0.00     0.029 A 
ATOM     60  C   UNL A   1      45.481  27.403  26.738  1.00  0.00     0.049 A 
ATOM     61  H   UNL A   1      44.448  28.371  28.264  1.00  0.00     0.167 HD
ATOM     62  C   UNL A   1      42.191  30.307  31.477  1.00  0.00     0.037 A 
ATOM     63  C   UNL A   1      46.641  28.069  26.568  1.00  0.00     0.037 A 
ATOM     64  C   UNL A   1      43.427  31.037  31.407  1.00  0.00     0.049 A 
ATOM     65  C   UNL A   1      46.945  29.264  27.439  1.00  0.00     0.074 A 
ATOM     66  C   UNL A   1      43.852  32.091  32.196  1.00  0.00     0.029 A 
ATOM     67  N   UNL A   1      44.441  30.784  30.495  1.00  0.00    -0.354 N 
ATOM     68  N   UNL A   1      46.242  29.781  28.417  1.00  0.00    -0.248 NA
ATOM     69  C   UNL A   1      48.213  29.966  27.182  1.00  0.00     0.031 C 
ATOM     70  C   UNL A   1      45.098  32.514  31.724  1.00  0.00     0.029 A 
ATOM     71  C   UNL A   1      45.479  31.680  30.685  1.00  0.00     0.049 A 
ATOM     72  H   UNL A   1      44.424  30.074  29.814  1.00  0.00     0.167 HD
ATOM     73  C   UNL A   1      46.994  30.841  28.912  1.00  0.00     0.074 A 
ATOM     74  C   UNL A   1      48.214  30.886  28.137  1.00  0.00     0.031 C 
ATOM     75  C   UNL A   1      46.699  31.701  29.919  1.00  0.00     0.037 A 
BRANCH  62  76
ATOM     76  C   UNL A   1      41.169  30.730  32.492  1.00  0.00     0.064 A 
ATOM     77  C   UNL A   1      41.033  30.074  33.725  1.00  0.00     0.173 A 
ATOM     78  C   UNL A   1      40.321  31.816  32.230  1.00  0.00     0.173 A 
ATOM     79  F   UNL A   1      41.808  29.018  34.018  1.00  0.00    -0.203 F 
ATOM     80  C   UNL A   1      40.063  30.468  34.642  1.00  0.00     0.198 A 
ATOM     81  C   UNL A   1      39.377  32.231  33.165  1.00  0.00     0.198 A 
ATOM     82  F   UNL A   1      40.411  32.481  31.067  1.00  0.00    -0.203 F 
ATOM     83  F   UNL A   1      39.910  29.788  35.787  1.00  0.00    -0.200 F 
ATOM     84  C   UNL A   1      39.242  31.551  34.365  1.00  0.00     0.200 A 
ATOM     85  F   UNL A   1      38.594  33.286  32.901  1.00  0.00    -0.200 F 
ATOM     86  F   UNL A   1      38.313  31.932  35.252  1.00  0.00    -0.200 F 
ENDBRANCH  62  76
BRANCH  63  87
ATOM     87  C   UNL A   1      47.611  27.634  25.525  1.00  0.00     0.064 A 
ATOM     88  C   UNL A   1      47.422  27.963  24.175  1.00  0.00     0.173 A 
ATOM     89  C   UNL A   1      48.719  26.839  25.851  1.00  0.00     0.173 A 
ATOM     90  F   UNL A   1      46.362  28.698  23.806  1.00  0.00    -0.203 F 
ATOM     91  C   UNL A   1      48.285  27.488  23.189  1.00  0.00     0.198 A 
ATOM     92  C   UNL A   1      49.602  26.392  24.868  1.00  0.00     0.198 A 
ATOM     93  F   UNL A   1      48.947  26.492  27.127  1.00  0.00    -0.203 F 
ATOM     94  F   UNL A   1      48.044  27.765  21.900  1.00  0.00    -0.200 F 
ATOM     95  C   UNL A   1      49.377  26.708  23.537  1.00  0.00     0.200 A 
ATOM     96  F   UNL A   1      50.661  25.648  25.212  1.00  0.00    -0.200 F 
ATOM     97  F   UNL A   1      50.205  26.246  22.589  1.00  0.00    -0.200 F 
ENDBRANCH  63  87
BRANCH  75  98
ATOM     98  C   UNL A   1      47.730  32.733  30.282  1.00  0.00     0.064 A 
ATOM     99  C   UNL A   1      48.730  32.479  31.231  1.00  0.00     0.173 A 
ATOM    100  C   UNL A   1      47.750  33.974  29.624  1.00  0.00     0.173 A 
ATOM    101  F   UNL A   1      48.750  31.315  31.898  1.00  0.00    -0.203 F 
ATOM    102  C   UNL A   1      49.697  33.438  31.527  1.00  0.00     0.198 A 
ATOM    103  C   UNL A   1      48.738  34.916  29.897  1.00  0.00     0.198 A 
ATOM    104  F   UNL A   1      46.823  34.265  28.699  1.00  0.00    -0.203 F 
ATOM    105  F   UNL A   1      50.613  33.192  32.473  1.00  0.00    -0.200 F 
ATOM    106  C   UNL A   1      49.705  34.651  30.854  1.00  0.00     0.200 A 
ATOM    107  F   UNL A   1      48.756  36.079  29.230  1.00  0.00    -0.200 F 
ATOM    108  F   UNL A   1      50.644  35.567  31.131  1.00  0.00    -0.200 F 
ENDBRANCH  75  98
ENDBRANCH  49  50
ENDBRANCH  42  44
ENDBRANCH  41  42
ENDBRANCH  40  41
ENDBRANCH  39  40
ENDBRANCH  38  39
ENDBRANCH   1  38
TORSDOF 19
ENDMDL
