MODEL 1
REMARK VINA RESULT:     -11.0      0.000      0.000
REMARK SMILES CC[C@H]1CCC[C@](Cc2ccc(OC)cc2)(C(=O)OCCOCCOC(=O)c2ccc(-c3c4nc(c(-c5c(F)c(F)c(F)c(F)c5F)c5ccc([nH]5)c(-c5c(F)c(F)c(F)c(F)c5F)c5nc(c(-c6c(F)c(F)c(F)c(F)c6F)c6ccc3[nH]6)C=C5)C=C4)cc2)C1
REMARK SMILES IDX 21 1 20 2 19 3 17 4 18 5 7 6 3 7 4 8 91 9 5 10 6 11 2 12
REMARK SMILES IDX 1 13 8 14 9 15 10 16 16 17 11 18 15 19 12 20 13 21 14 22
REMARK SMILES IDX 22 23 23 24 24 25 25 26 26 27 27 28 28 29 29 30 90 31 30 32
REMARK SMILES IDX 89 33 31 34 32 35 33 36 83 37 34 38 88 39 82 40 84 41 35 42
REMARK SMILES IDX 87 43 81 44 80 45 36 47 68 48 48 49 67 50 49 51 52 52 66 53
REMARK SMILES IDX 85 54 50 55 51 56 65 58 86 59 53 60 37 61 38 62 46 63 39 64
REMARK SMILES IDX 40 65 44 66 47 67 41 68 42 69 45 70 43 71 69 72 70 73 78 74
REMARK SMILES IDX 71 75 72 76 76 77 79 78 73 79 74 80 77 81 75 82 54 83 55 84
REMARK SMILES IDX 63 85 56 86 57 87 61 88 64 89 58 90 59 91 62 92 60 93
REMARK H PARENT 84 46 52 57
REMARK Flexibility Score: inf
ROOT
ATOM      1  C   UNL A   1      36.165  21.614  24.985  1.00  0.00     0.202 C 
ENDROOT
BRANCH   1   2
ATOM      2  C   UNL A   1      35.794  22.903  24.224  1.00  0.00     0.261 C 
BRANCH   2   3
ATOM      3  O   UNL A   1      34.551  23.524  24.603  1.00  0.00    -0.463 OA
BRANCH   3   4
ATOM      4  C   UNL A   1      34.062  24.377  23.663  1.00  0.00     0.312 C 
ATOM      5  O   UNL A   1      34.382  24.294  22.478  1.00  0.00    -0.252 OA
BRANCH   4   6
ATOM      6  C   UNL A   1      33.092  25.484  24.198  1.00  0.00     0.072 C 
ATOM      7  C   UNL A   1      30.467  25.743  23.709  1.00  0.00    -0.010 C 
ATOM      8  C   UNL A   1      30.777  27.041  22.947  1.00  0.00     0.003 C 
ATOM      9  C   UNL A   1      31.697  24.857  23.894  1.00  0.00     0.022 C 
ATOM     10  C   UNL A   1      32.139  27.676  23.199  1.00  0.00     0.001 C 
ATOM     11  C   UNL A   1      33.314  26.702  23.283  1.00  0.00     0.019 C 
BRANCH   7  12
ATOM     12  C   UNL A   1      29.566  25.932  24.939  1.00  0.00     0.000 C 
ATOM     13  C   UNL A   1      29.855  24.969  26.090  1.00  0.00     0.004 C 
ENDBRANCH   7  12
BRANCH   6  14
ATOM     14  C   UNL A   1      33.362  25.796  25.728  1.00  0.00     0.054 C 
BRANCH  14  15
ATOM     15  C   UNL A   1      33.225  27.198  26.301  1.00  0.00    -0.047 A 
ATOM     16  C   UNL A   1      34.332  28.045  26.453  1.00  0.00     0.007 A 
ATOM     17  C   UNL A   1      31.979  27.688  26.718  1.00  0.00     0.007 A 
ATOM     18  C   UNL A   1      34.155  29.405  26.740  1.00  0.00     0.046 A 
ATOM     19  C   UNL A   1      31.795  29.047  26.995  1.00  0.00     0.046 A 
ATOM     20  C   UNL A   1      32.874  29.917  26.910  1.00  0.00     0.118 A 
BRANCH  20  21
ATOM     21  O   UNL A   1      32.729  31.274  26.999  1.00  0.00    -0.497 OA
ATOM     22  C   UNL A   1      31.401  31.680  26.644  1.00  0.00     0.278 C 
ENDBRANCH  20  21
ENDBRANCH  14  15
ENDBRANCH   6  14
ENDBRANCH   4   6
ENDBRANCH   3   4
ENDBRANCH   2   3
ENDBRANCH   1   2
BRANCH   1  23
ATOM     23  O   UNL A   1      37.524  21.220  25.095  1.00  0.00    -0.374 OA
BRANCH  23  24
ATOM     24  C   UNL A   1      37.840  19.836  25.001  1.00  0.00     0.202 C 
BRANCH  24  25
ATOM     25  C   UNL A   1      39.159  19.323  25.594  1.00  0.00     0.261 C 
BRANCH  25  26
ATOM     26  O   UNL A   1      40.153  20.358  25.720  1.00  0.00    -0.460 OA
BRANCH  26  27
ATOM     27  C   UNL A   1      40.788  20.385  26.919  1.00  0.00     0.338 C 
ATOM     28  O   UNL A   1      41.321  19.456  27.498  1.00  0.00    -0.246 OA
BRANCH  27  29
ATOM     29  C   UNL A   1      40.938  21.776  27.381  1.00  0.00     0.060 A 
ATOM     30  C   UNL A   1      40.309  22.780  26.633  1.00  0.00     0.016 A 
ATOM     31  C   UNL A   1      41.771  22.102  28.452  1.00  0.00     0.016 A 
ATOM     32  C   UNL A   1      40.548  24.119  26.923  1.00  0.00     0.010 A 
ATOM     33  C   UNL A   1      42.024  23.450  28.732  1.00  0.00     0.010 A 
ATOM     34  C   UNL A   1      41.444  24.462  27.944  1.00  0.00    -0.014 A 
BRANCH  34  35
ATOM     35  C   UNL A   1      41.894  25.868  28.071  1.00  0.00     0.031 A 
ATOM     36  C   UNL A   1      43.220  26.261  27.478  1.00  0.00     0.074 A 
ATOM     37  C   UNL A   1      41.118  26.789  28.668  1.00  0.00     0.049 A 
ATOM     38  N   UNL A   1      43.828  27.420  27.496  1.00  0.00    -0.248 NA
ATOM     39  C   UNL A   1      43.961  25.204  26.770  1.00  0.00     0.031 C 
ATOM     40  C   UNL A   1      39.796  26.537  29.237  1.00  0.00     0.029 A 
ATOM     41  N   UNL A   1      41.336  28.124  28.896  1.00  0.00    -0.354 N 
ATOM     42  C   UNL A   1      45.022  27.229  26.812  1.00  0.00     0.074 A 
ATOM     43  C   UNL A   1      45.067  25.840  26.410  1.00  0.00     0.031 C 
ATOM     44  C   UNL A   1      39.325  27.679  29.765  1.00  0.00     0.029 A 
ATOM     45  C   UNL A   1      40.325  28.732  29.598  1.00  0.00     0.049 A 
ATOM     46  H   UNL A   1      42.140  28.601  28.589  1.00  0.00     0.167 HD
ATOM     47  C   UNL A   1      45.989  28.136  26.536  1.00  0.00     0.037 A 
ATOM     48  C   UNL A   1      40.232  29.990  30.071  1.00  0.00     0.037 A 
ATOM     49  C   UNL A   1      45.937  29.520  26.927  1.00  0.00     0.049 A 
ATOM     50  C   UNL A   1      41.352  30.963  29.803  1.00  0.00     0.074 A 
ATOM     51  C   UNL A   1      46.857  30.522  26.675  1.00  0.00     0.029 A 
ATOM     52  N   UNL A   1      44.907  30.094  27.657  1.00  0.00    -0.354 N 
ATOM     53  N   UNL A   1      42.465  30.783  29.133  1.00  0.00    -0.248 NA
ATOM     54  C   UNL A   1      41.200  32.318  30.355  1.00  0.00     0.031 C 
ATOM     55  C   UNL A   1      46.408  31.693  27.297  1.00  0.00     0.029 A 
ATOM     56  C   UNL A   1      45.181  31.431  27.887  1.00  0.00     0.049 A 
ATOM     57  H   UNL A   1      44.101  29.620  27.965  1.00  0.00     0.167 HD
ATOM     58  C   UNL A   1      43.128  32.002  29.155  1.00  0.00     0.074 A 
ATOM     59  C   UNL A   1      42.288  32.921  29.895  1.00  0.00     0.031 C 
ATOM     60  C   UNL A   1      44.325  32.334  28.614  1.00  0.00     0.037 A 
BRANCH  47  61
ATOM     61  C   UNL A   1      47.202  27.659  25.793  1.00  0.00     0.064 A 
ATOM     62  C   UNL A   1      47.257  27.659  24.391  1.00  0.00     0.173 A 
ATOM     63  C   UNL A   1      48.346  27.249  26.495  1.00  0.00     0.173 A 
ATOM     64  F   UNL A   1      46.185  28.028  23.674  1.00  0.00    -0.203 F 
ATOM     65  C   UNL A   1      48.408  27.252  23.720  1.00  0.00     0.198 A 
ATOM     66  C   UNL A   1      49.502  26.868  25.821  1.00  0.00     0.198 A 
ATOM     67  F   UNL A   1      48.347  27.234  27.837  1.00  0.00    -0.203 F 
ATOM     68  F   UNL A   1      48.427  27.228  22.380  1.00  0.00    -0.200 F 
ATOM     69  C   UNL A   1      49.532  26.866  24.435  1.00  0.00     0.200 A 
ATOM     70  F   UNL A   1      50.592  26.508  26.514  1.00  0.00    -0.200 F 
ATOM     71  F   UNL A   1      50.643  26.488  23.787  1.00  0.00    -0.200 F 
ENDBRANCH  47  61
BRANCH  48  72
ATOM     72  C   UNL A   1      39.044  30.404  30.865  1.00  0.00     0.064 A 
ATOM     73  C   UNL A   1      37.913  30.954  30.248  1.00  0.00     0.173 A 
ATOM     74  C   UNL A   1      39.032  30.286  32.263  1.00  0.00     0.173 A 
ATOM     75  F   UNL A   1      37.887  31.112  28.916  1.00  0.00    -0.203 F 
ATOM     76  C   UNL A   1      36.824  31.395  31.000  1.00  0.00     0.198 A 
ATOM     77  C   UNL A   1      37.932  30.698  33.011  1.00  0.00     0.198 A 
ATOM     78  F   UNL A   1      40.090  29.768  32.903  1.00  0.00    -0.203 F 
ATOM     79  F   UNL A   1      35.779  31.968  30.388  1.00  0.00    -0.200 F 
ATOM     80  C   UNL A   1      36.833  31.261  32.381  1.00  0.00     0.200 A 
ATOM     81  F   UNL A   1      37.940  30.556  34.343  1.00  0.00    -0.200 F 
ATOM     82  F   UNL A   1      35.788  31.686  33.103  1.00  0.00    -0.200 F 
ENDBRANCH  48  72
BRANCH  60  83
ATOM     83  C   UNL A   1      44.780  33.758  28.758  1.00  0.00     0.064 A 
ATOM     84  C   UNL A   1      45.607  34.163  29.816  1.00  0.00     0.173 A 
ATOM     85  C   UNL A   1      44.421  34.718  27.800  1.00  0.00     0.173 A 
ATOM     86  F   UNL A   1      45.967  33.285  30.766  1.00  0.00    -0.203 F 
ATOM     87  C   UNL A   1      46.036  35.483  29.924  1.00  0.00     0.198 A 
ATOM     88  C   UNL A   1      44.876  36.029  27.894  1.00  0.00     0.198 A 
ATOM     89  F   UNL A   1      43.639  34.379  26.765  1.00  0.00    -0.203 F 
ATOM     90  F   UNL A   1      46.787  35.859  30.968  1.00  0.00    -0.200 F 
ATOM     91  C   UNL A   1      45.677  36.413  28.959  1.00  0.00     0.200 A 
ATOM     92  F   UNL A   1      44.541  36.922  26.952  1.00  0.00    -0.200 F 
ATOM     93  F   UNL A   1      46.098  37.681  29.059  1.00  0.00    -0.200 F 
ENDBRANCH  60  83
ENDBRANCH  34  35
ENDBRANCH  27  29
ENDBRANCH  26  27
ENDBRANCH  25  26
ENDBRANCH  24  25
ENDBRANCH  23  24
ENDBRANCH   1  23
TORSDOF 18
ENDMDL
MODEL 2
REMARK VINA RESULT:     -11.0      4.300     10.238
REMARK SMILES CC[C@H]1CCC[C@](Cc2ccc(OC)cc2)(C(=O)OCCOCCOC(=O)c2ccc(-c3c4nc(c(-c5c(F)c(F)c(F)c(F)c5F)c5ccc([nH]5)c(-c5c(F)c(F)c(F)c(F)c5F)c5nc(c(-c6c(F)c(F)c(F)c(F)c6F)c6ccc3[nH]6)C=C5)C=C4)cc2)C1
REMARK SMILES IDX 21 1 20 2 19 3 17 4 18 5 7 6 3 7 4 8 91 9 5 10 6 11 2 12
REMARK SMILES IDX 1 13 8 14 9 15 10 16 16 17 11 18 15 19 12 20 13 21 14 22
REMARK SMILES IDX 22 23 23 24 24 25 25 26 26 27 27 28 28 29 29 30 90 31 30 32
REMARK SMILES IDX 89 33 31 34 32 35 33 36 83 37 34 38 88 39 82 40 84 41 35 42
REMARK SMILES IDX 87 43 81 44 80 45 36 47 68 48 48 49 67 50 49 51 52 52 66 53
REMARK SMILES IDX 85 54 50 55 51 56 65 58 86 59 53 60 37 61 38 62 46 63 39 64
REMARK SMILES IDX 40 65 44 66 47 67 41 68 42 69 45 70 43 71 69 72 70 73 78 74
REMARK SMILES IDX 71 75 72 76 76 77 79 78 73 79 74 80 77 81 75 82 54 83 55 84
REMARK SMILES IDX 63 85 56 86 57 87 61 88 64 89 58 90 59 91 62 92 60 93
REMARK H PARENT 84 46 52 57
REMARK Flexibility Score: inf
ROOT
ATOM      1  C   UNL A   1      31.700  27.275  24.580  1.00  0.00     0.202 C 
ENDROOT
BRANCH   1   2
ATOM      2  C   UNL A   1      31.851  26.434  23.296  1.00  0.00     0.261 C 
BRANCH   2   3
ATOM      3  O   UNL A   1      31.922  25.008  23.481  1.00  0.00    -0.463 OA
BRANCH   3   4
ATOM      4  C   UNL A   1      33.167  24.497  23.280  1.00  0.00     0.312 C 
ATOM      5  O   UNL A   1      33.953  24.993  22.475  1.00  0.00    -0.252 OA
BRANCH   4   6
ATOM      6  C   UNL A   1      33.512  23.221  24.119  1.00  0.00     0.072 C 
ATOM      7  C   UNL A   1      34.958  23.082  26.376  1.00  0.00    -0.010 C 
ATOM      8  C   UNL A   1      36.021  22.288  25.599  1.00  0.00     0.003 C 
ATOM      9  C   UNL A   1      34.005  23.847  25.460  1.00  0.00     0.022 C 
ATOM     10  C   UNL A   1      35.588  21.677  24.272  1.00  0.00     0.001 C 
ATOM     11  C   UNL A   1      34.703  22.563  23.397  1.00  0.00     0.019 C 
BRANCH   7  12
ATOM     12  C   UNL A   1      34.319  22.311  27.540  1.00  0.00     0.000 C 
ATOM     13  C   UNL A   1      32.825  22.568  27.726  1.00  0.00     0.004 C 
ENDBRANCH   7  12
BRANCH   6  14
ATOM     14  C   UNL A   1      32.258  22.262  24.254  1.00  0.00     0.054 C 
BRANCH  14  15
ATOM     15  C   UNL A   1      32.361  20.762  24.020  1.00  0.00    -0.047 A 
ATOM     16  C   UNL A   1      32.153  20.197  22.754  1.00  0.00     0.007 A 
ATOM     17  C   UNL A   1      32.652  19.886  25.075  1.00  0.00     0.007 A 
ATOM     18  C   UNL A   1      32.496  18.862  22.504  1.00  0.00     0.046 A 
ATOM     19  C   UNL A   1      33.006  18.555  24.830  1.00  0.00     0.046 A 
ATOM     20  C   UNL A   1      33.017  18.077  23.527  1.00  0.00     0.118 A 
BRANCH  20  21
ATOM     21  O   UNL A   1      33.517  16.845  23.203  1.00  0.00    -0.497 OA
ATOM     22  C   UNL A   1      34.167  16.236  24.324  1.00  0.00     0.278 C 
ENDBRANCH  20  21
ENDBRANCH  14  15
ENDBRANCH   6  14
ENDBRANCH   4   6
ENDBRANCH   3   4
ENDBRANCH   2   3
ENDBRANCH   1   2
BRANCH   1  23
ATOM     23  O   UNL A   1      31.629  28.690  24.499  1.00  0.00    -0.374 OA
BRANCH  23  24
ATOM     24  C   UNL A   1      31.575  29.439  25.707  1.00  0.00     0.202 C 
BRANCH  24  25
ATOM     25  C   UNL A   1      32.678  30.463  26.008  1.00  0.00     0.261 C 
BRANCH  25  26
ATOM     26  O   UNL A   1      32.625  30.959  27.359  1.00  0.00    -0.460 OA
BRANCH  26  27
ATOM     27  C   UNL A   1      33.491  31.970  27.620  1.00  0.00     0.338 C 
ATOM     28  O   UNL A   1      33.236  33.156  27.733  1.00  0.00    -0.246 OA
BRANCH  27  29
ATOM     29  C   UNL A   1      34.818  31.426  27.962  1.00  0.00     0.060 A 
ATOM     30  C   UNL A   1      34.886  30.084  28.358  1.00  0.00     0.016 A 
ATOM     31  C   UNL A   1      35.950  32.241  28.005  1.00  0.00     0.016 A 
ATOM     32  C   UNL A   1      36.078  29.561  28.848  1.00  0.00     0.010 A 
ATOM     33  C   UNL A   1      37.145  31.718  28.513  1.00  0.00     0.010 A 
ATOM     34  C   UNL A   1      37.202  30.388  28.972  1.00  0.00    -0.014 A 
BRANCH  34  35
ATOM     35  C   UNL A   1      38.378  29.903  29.734  1.00  0.00     0.031 A 
ATOM     36  C   UNL A   1      38.598  30.416  31.131  1.00  0.00     0.074 A 
ATOM     37  C   UNL A   1      39.212  28.991  29.206  1.00  0.00     0.049 A 
ATOM     38  N   UNL A   1      39.571  30.157  31.968  1.00  0.00    -0.248 NA
ATOM     39  C   UNL A   1      37.586  31.347  31.656  1.00  0.00     0.031 C 
ATOM     40  C   UNL A   1      39.074  28.388  27.882  1.00  0.00     0.029 A 
ATOM     41  N   UNL A   1      40.346  28.417  29.723  1.00  0.00    -0.354 N 
ATOM     42  C   UNL A   1      39.292  30.897  33.110  1.00  0.00     0.074 A 
ATOM     43  C   UNL A   1      38.073  31.633  32.854  1.00  0.00     0.031 C 
ATOM     44  C   UNL A   1      40.096  27.539  27.683  1.00  0.00     0.029 A 
ATOM     45  C   UNL A   1      40.974  27.561  28.851  1.00  0.00     0.049 A 
ATOM     46  H   UNL A   1      40.679  28.601  30.630  1.00  0.00     0.167 HD
ATOM     47  C   UNL A   1      39.986  30.948  34.271  1.00  0.00     0.037 A 
ATOM     48  C   UNL A   1      42.136  26.894  28.977  1.00  0.00     0.037 A 
ATOM     49  C   UNL A   1      41.192  30.205  34.527  1.00  0.00     0.049 A 
ATOM     50  C   UNL A   1      42.923  27.018  30.258  1.00  0.00     0.074 A 
ATOM     51  C   UNL A   1      41.957  30.173  35.679  1.00  0.00     0.029 A 
ATOM     52  N   UNL A   1      41.810  29.367  33.612  1.00  0.00    -0.354 N 
ATOM     53  N   UNL A   1      42.639  27.698  31.342  1.00  0.00    -0.248 NA
ATOM     54  C   UNL A   1      44.190  26.277  30.333  1.00  0.00     0.031 C 
ATOM     55  C   UNL A   1      43.067  29.354  35.444  1.00  0.00     0.029 A 
ATOM     56  C   UNL A   1      42.962  28.832  34.164  1.00  0.00     0.049 A 
ATOM     57  H   UNL A   1      41.479  29.180  32.703  1.00  0.00     0.167 HD
ATOM     58  C   UNL A   1      43.671  27.444  32.236  1.00  0.00     0.074 A 
ATOM     59  C   UNL A   1      44.583  26.536  31.572  1.00  0.00     0.031 C 
ATOM     60  C   UNL A   1      43.850  27.918  33.493  1.00  0.00     0.037 A 
BRANCH  47  61
ATOM     61  C   UNL A   1      39.475  31.855  35.352  1.00  0.00     0.064 A 
ATOM     62  C   UNL A   1      38.522  31.426  36.286  1.00  0.00     0.173 A 
ATOM     63  C   UNL A   1      39.989  33.154  35.487  1.00  0.00     0.173 A 
ATOM     64  F   UNL A   1      37.989  30.198  36.192  1.00  0.00    -0.203 F 
ATOM     65  C   UNL A   1      38.090  32.269  37.308  1.00  0.00     0.198 A 
ATOM     66  C   UNL A   1      39.575  33.984  36.523  1.00  0.00     0.198 A 
ATOM     67  F   UNL A   1      40.905  33.612  34.620  1.00  0.00    -0.203 F 
ATOM     68  F   UNL A   1      37.153  31.850  38.169  1.00  0.00    -0.200 F 
ATOM     69  C   UNL A   1      38.624  33.544  37.431  1.00  0.00     0.200 A 
ATOM     70  F   UNL A   1      40.101  35.211  36.649  1.00  0.00    -0.200 F 
ATOM     71  F   UNL A   1      38.217  34.348  38.422  1.00  0.00    -0.200 F 
ENDBRANCH  47  61
BRANCH  48  72
ATOM     72  C   UNL A   1      42.645  26.061  27.855  1.00  0.00     0.064 A 
ATOM     73  C   UNL A   1      43.523  26.589  26.898  1.00  0.00     0.173 A 
ATOM     74  C   UNL A   1      42.236  24.728  27.699  1.00  0.00     0.173 A 
ATOM     75  F   UNL A   1      43.922  27.866  26.989  1.00  0.00    -0.203 F 
ATOM     76  C   UNL A   1      43.952  25.824  25.815  1.00  0.00     0.198 A 
ATOM     77  C   UNL A   1      42.689  23.955  26.633  1.00  0.00     0.198 A 
ATOM     78  F   UNL A   1      41.394  24.176  28.585  1.00  0.00    -0.203 F 
ATOM     79  F   UNL A   1      44.747  26.370  24.886  1.00  0.00    -0.200 F 
ATOM     80  C   UNL A   1      43.539  24.506  25.686  1.00  0.00     0.200 A 
ATOM     81  F   UNL A   1      42.296  22.679  26.519  1.00  0.00    -0.200 F 
ATOM     82  F   UNL A   1      43.950  23.771  24.644  1.00  0.00    -0.200 F 
ENDBRANCH  48  72
BRANCH  60  83
ATOM     83  C   UNL A   1      45.050  27.432  34.252  1.00  0.00     0.064 A 
ATOM     84  C   UNL A   1      46.266  28.131  34.233  1.00  0.00     0.173 A 
ATOM     85  C   UNL A   1      44.968  26.277  35.045  1.00  0.00     0.173 A 
ATOM     86  F   UNL A   1      46.400  29.234  33.480  1.00  0.00    -0.203 F 
ATOM     87  C   UNL A   1      47.363  27.676  34.960  1.00  0.00     0.198 A 
ATOM     88  C   UNL A   1      46.057  25.842  35.794  1.00  0.00     0.198 A 
ATOM     89  F   UNL A   1      43.825  25.578  35.103  1.00  0.00    -0.203 F 
ATOM     90  F   UNL A   1      48.530  28.334  34.891  1.00  0.00    -0.200 F 
ATOM     91  C   UNL A   1      47.256  26.538  35.745  1.00  0.00     0.200 A 
ATOM     92  F   UNL A   1      45.947  24.751  36.564  1.00  0.00    -0.200 F 
ATOM     93  F   UNL A   1      48.311  26.106  36.451  1.00  0.00    -0.200 F 
ENDBRANCH  60  83
ENDBRANCH  34  35
ENDBRANCH  27  29
ENDBRANCH  26  27
ENDBRANCH  25  26
ENDBRANCH  24  25
ENDBRANCH  23  24
ENDBRANCH   1  23
TORSDOF 18
ENDMDL
MODEL 3
REMARK VINA RESULT:     -10.9      0.579      2.035
REMARK SMILES CC[C@H]1CCC[C@](Cc2ccc(OC)cc2)(C(=O)OCCOCCOC(=O)c2ccc(-c3c4nc(c(-c5c(F)c(F)c(F)c(F)c5F)c5ccc([nH]5)c(-c5c(F)c(F)c(F)c(F)c5F)c5nc(c(-c6c(F)c(F)c(F)c(F)c6F)c6ccc3[nH]6)C=C5)C=C4)cc2)C1
REMARK SMILES IDX 21 1 20 2 19 3 17 4 18 5 7 6 3 7 4 8 91 9 5 10 6 11 2 12
REMARK SMILES IDX 1 13 8 14 9 15 10 16 16 17 11 18 15 19 12 20 13 21 14 22
REMARK SMILES IDX 22 23 23 24 24 25 25 26 26 27 27 28 28 29 29 30 90 31 30 32
REMARK SMILES IDX 89 33 31 34 32 35 33 36 83 37 34 38 88 39 82 40 84 41 35 42
REMARK SMILES IDX 87 43 81 44 80 45 36 47 68 48 48 49 67 50 49 51 52 52 66 53
REMARK SMILES IDX 85 54 50 55 51 56 65 58 86 59 53 60 37 61 38 62 46 63 39 64
REMARK SMILES IDX 40 65 44 66 47 67 41 68 42 69 45 70 43 71 69 72 70 73 78 74
REMARK SMILES IDX 71 75 72 76 76 77 79 78 73 79 74 80 77 81 75 82 54 83 55 84
REMARK SMILES IDX 63 85 56 86 57 87 61 88 64 89 58 90 59 91 62 92 60 93
REMARK H PARENT 84 46 52 57
REMARK Flexibility Score: inf
ROOT
ATOM      1  C   UNL A   1      36.499  22.264  24.447  1.00  0.00     0.202 C 
ENDROOT
BRANCH   1   2
ATOM      2  C   UNL A   1      35.993  22.852  23.114  1.00  0.00     0.261 C 
BRANCH   2   3
ATOM      3  O   UNL A   1      35.271  24.094  23.206  1.00  0.00    -0.463 OA
BRANCH   3   4
ATOM      4  C   UNL A   1      33.920  23.936  23.218  1.00  0.00     0.312 C 
ATOM      5  O   UNL A   1      33.378  22.918  22.787  1.00  0.00    -0.252 OA
BRANCH   4   6
ATOM      6  C   UNL A   1      33.106  25.147  23.787  1.00  0.00     0.072 C 
ATOM      7  C   UNL A   1      30.620  25.910  23.128  1.00  0.00    -0.010 C 
ATOM      8  C   UNL A   1      31.215  27.193  22.527  1.00  0.00     0.003 C 
ATOM      9  C   UNL A   1      31.660  24.807  23.315  1.00  0.00     0.022 C 
ATOM     10  C   UNL A   1      32.636  27.552  22.945  1.00  0.00     0.001 C 
ATOM     11  C   UNL A   1      33.615  26.381  23.019  1.00  0.00     0.019 C 
BRANCH   7  12
ATOM     12  C   UNL A   1      29.654  26.148  24.298  1.00  0.00     0.000 C 
ATOM     13  C   UNL A   1      28.295  26.716  23.892  1.00  0.00     0.004 C 
ENDBRANCH   7  12
BRANCH   6  14
ATOM     14  C   UNL A   1      33.282  25.273  25.357  1.00  0.00     0.054 C 
BRANCH  14  15
ATOM     15  C   UNL A   1      33.086  26.593  26.087  1.00  0.00    -0.047 A 
ATOM     16  C   UNL A   1      34.143  27.491  26.285  1.00  0.00     0.007 A 
ATOM     17  C   UNL A   1      31.834  26.950  26.606  1.00  0.00     0.007 A 
ATOM     18  C   UNL A   1      33.897  28.797  26.728  1.00  0.00     0.046 A 
ATOM     19  C   UNL A   1      31.578  28.256  27.039  1.00  0.00     0.046 A 
ATOM     20  C   UNL A   1      32.595  29.200  27.007  1.00  0.00     0.118 A 
BRANCH  20  21
ATOM     21  O   UNL A   1      32.371  30.528  27.251  1.00  0.00    -0.497 OA
ATOM     22  C   UNL A   1      33.600  31.236  27.446  1.00  0.00     0.278 C 
ENDBRANCH  20  21
ENDBRANCH  14  15
ENDBRANCH   6  14
ENDBRANCH   4   6
ENDBRANCH   3   4
ENDBRANCH   2   3
ENDBRANCH   1   2
BRANCH   1  23
ATOM     23  O   UNL A   1      37.738  21.574  24.495  1.00  0.00    -0.374 OA
BRANCH  23  24
ATOM     24  C   UNL A   1      37.764  20.258  25.036  1.00  0.00     0.202 C 
BRANCH  24  25
ATOM     25  C   UNL A   1      39.085  19.689  25.569  1.00  0.00     0.261 C 
BRANCH  25  26
ATOM     26  O   UNL A   1      40.086  20.704  25.775  1.00  0.00    -0.460 OA
BRANCH  26  27
ATOM     27  C   UNL A   1      40.642  20.702  27.013  1.00  0.00     0.338 C 
ATOM     28  O   UNL A   1      41.086  19.748  27.626  1.00  0.00    -0.246 OA
BRANCH  27  29
ATOM     29  C   UNL A   1      40.835  22.085  27.484  1.00  0.00     0.060 A 
ATOM     30  C   UNL A   1      40.130  23.099  26.823  1.00  0.00     0.016 A 
ATOM     31  C   UNL A   1      41.772  22.395  28.470  1.00  0.00     0.016 A 
ATOM     32  C   UNL A   1      40.394  24.435  27.112  1.00  0.00     0.010 A 
ATOM     33  C   UNL A   1      42.048  23.738  28.748  1.00  0.00     0.010 A 
ATOM     34  C   UNL A   1      41.388  24.762  28.043  1.00  0.00    -0.014 A 
BRANCH  34  35
ATOM     35  C   UNL A   1      41.846  26.168  28.150  1.00  0.00     0.031 A 
ATOM     36  C   UNL A   1      43.183  26.541  27.571  1.00  0.00     0.074 A 
ATOM     37  C   UNL A   1      41.066  27.105  28.717  1.00  0.00     0.049 A 
ATOM     38  N   UNL A   1      43.798  27.696  27.576  1.00  0.00    -0.248 NA
ATOM     39  C   UNL A   1      43.928  25.467  26.894  1.00  0.00     0.031 C 
ATOM     40  C   UNL A   1      39.734  26.871  29.270  1.00  0.00     0.029 A 
ATOM     41  N   UNL A   1      41.289  28.443  28.924  1.00  0.00    -0.354 N 
ATOM     42  C   UNL A   1      45.001  27.485  26.914  1.00  0.00     0.074 A 
ATOM     43  C   UNL A   1      45.043  26.088  26.540  1.00  0.00     0.031 C 
ATOM     44  C   UNL A   1      39.263  28.026  29.770  1.00  0.00     0.029 A 
ATOM     45  C   UNL A   1      40.271  29.070  29.598  1.00  0.00     0.049 A 
ATOM     46  H   UNL A   1      42.101  28.908  28.619  1.00  0.00     0.167 HD
ATOM     47  C   UNL A   1      45.978  28.381  26.635  1.00  0.00     0.037 A 
ATOM     48  C   UNL A   1      40.179  30.337  30.045  1.00  0.00     0.037 A 
ATOM     49  C   UNL A   1      45.928  29.772  26.999  1.00  0.00     0.049 A 
ATOM     50  C   UNL A   1      41.309  31.298  29.776  1.00  0.00     0.074 A 
ATOM     51  C   UNL A   1      46.858  30.764  26.743  1.00  0.00     0.029 A 
ATOM     52  N   UNL A   1      44.891  30.366  27.702  1.00  0.00    -0.354 N 
ATOM     53  N   UNL A   1      42.431  31.098  29.127  1.00  0.00    -0.248 NA
ATOM     54  C   UNL A   1      41.157  32.664  30.299  1.00  0.00     0.031 C 
ATOM     55  C   UNL A   1      46.407  31.949  27.335  1.00  0.00     0.029 A 
ATOM     56  C   UNL A   1      45.170  31.706  27.911  1.00  0.00     0.049 A 
ATOM     57  H   UNL A   1      44.077  29.904  28.007  1.00  0.00     0.167 HD
ATOM     58  C   UNL A   1      43.102  32.314  29.136  1.00  0.00     0.074 A 
ATOM     59  C   UNL A   1      42.256  33.252  29.845  1.00  0.00     0.031 C 
ATOM     60  C   UNL A   1      44.309  32.628  28.607  1.00  0.00     0.037 A 
BRANCH  47  61
ATOM     61  C   UNL A   1      47.199  27.882  25.920  1.00  0.00     0.064 A 
ATOM     62  C   UNL A   1      48.324  27.417  26.617  1.00  0.00     0.173 A 
ATOM     63  C   UNL A   1      47.222  27.818  24.519  1.00  0.00     0.173 A 
ATOM     64  F   UNL A   1      48.357  27.471  27.958  1.00  0.00    -0.203 F 
ATOM     65  C   UNL A   1      49.433  26.919  25.937  1.00  0.00     0.198 A 
ATOM     66  C   UNL A   1      48.321  27.296  23.843  1.00  0.00     0.198 A 
ATOM     67  F   UNL A   1      46.170  28.247  23.805  1.00  0.00    -0.203 F 
ATOM     68  F   UNL A   1      50.510  26.512  26.622  1.00  0.00    -0.200 F 
ATOM     69  C   UNL A   1      49.426  26.851  24.551  1.00  0.00     0.200 A 
ATOM     70  F   UNL A   1      48.308  27.219  22.505  1.00  0.00    -0.200 F 
ATOM     71  F   UNL A   1      50.489  26.359  23.899  1.00  0.00    -0.200 F 
ENDBRANCH  47  61
BRANCH  48  72
ATOM     72  C   UNL A   1      38.982  30.773  30.813  1.00  0.00     0.064 A 
ATOM     73  C   UNL A   1      38.928  30.647  32.207  1.00  0.00     0.173 A 
ATOM     74  C   UNL A   1      37.854  31.294  30.161  1.00  0.00     0.173 A 
ATOM     75  F   UNL A   1      39.970  30.130  32.874  1.00  0.00    -0.203 F 
ATOM     76  C   UNL A   1      37.782  31.002  32.919  1.00  0.00     0.198 A 
ATOM     77  C   UNL A   1      36.721  31.677  30.875  1.00  0.00     0.198 A 
ATOM     78  F   UNL A   1      37.853  31.433  28.827  1.00  0.00    -0.203 F 
ATOM     79  F   UNL A   1      37.737  30.820  34.245  1.00  0.00    -0.200 F 
ATOM     80  C   UNL A   1      36.682  31.521  32.252  1.00  0.00     0.200 A 
ATOM     81  F   UNL A   1      35.666  32.189  30.228  1.00  0.00    -0.200 F 
ATOM     82  F   UNL A   1      35.581  31.861  32.936  1.00  0.00    -0.200 F 
ENDBRANCH  48  72
BRANCH  60  83
ATOM     83  C   UNL A   1      44.771  34.051  28.731  1.00  0.00     0.064 A 
ATOM     84  C   UNL A   1      44.389  35.033  27.806  1.00  0.00     0.173 A 
ATOM     85  C   UNL A   1      45.568  34.446  29.817  1.00  0.00     0.173 A 
ATOM     86  F   UNL A   1      43.639  34.704  26.743  1.00  0.00    -0.203 F 
ATOM     87  C   UNL A   1      44.810  36.353  27.948  1.00  0.00     0.198 A 
ATOM     88  C   UNL A   1      45.961  35.771  29.973  1.00  0.00     0.198 A 
ATOM     89  F   UNL A   1      45.952  33.546  30.735  1.00  0.00    -0.203 F 
ATOM     90  F   UNL A   1      44.472  37.265  27.026  1.00  0.00    -0.200 F 
ATOM     91  C   UNL A   1      45.589  36.722  29.035  1.00  0.00     0.200 A 
ATOM     92  F   UNL A   1      46.701  36.129  31.032  1.00  0.00    -0.200 F 
ATOM     93  F   UNL A   1      45.986  37.994  29.175  1.00  0.00    -0.200 F 
ENDBRANCH  60  83
ENDBRANCH  34  35
ENDBRANCH  27  29
ENDBRANCH  26  27
ENDBRANCH  25  26
ENDBRANCH  24  25
ENDBRANCH  23  24
ENDBRANCH   1  23
TORSDOF 18
ENDMDL
