MODEL 1
REMARK VINA RESULT:     -11.3      0.000      0.000
REMARK SMILES O=C(CCC(=O)OCCOCCOC(=O)c1ccc(-c2c3nc(c(-c4c(F)c(F)c(F)c(F)c4F)c4ccc([nH]4)c(-c4c(F)c(F)c(F)c(F)c4F)c4nc(c(-c5c(F)c(F)c(F)c(F)c5F)c5ccc2[nH]5)C=C4)C=C3)cc1)Nc1ccc(N2CCN(c3ccc(F)cc3)CC2)cc1
REMARK SMILES IDX 8 1 7 2 5 3 6 4 4 5 3 6 2 7 1 8 79 9 80 11 81 12 98 13 82 14
REMARK SMILES IDX 97 15 83 16 84 17 85 18 96 19 86 20 95 21 87 22 88 23 89 24
REMARK SMILES IDX 94 25 90 26 93 27 91 28 92 29 9 30 10 31 11 32 12 33 13 34
REMARK SMILES IDX 14 35 15 36 16 37 17 38 78 39 18 40 77 41 19 42 20 43 21 44
REMARK SMILES IDX 71 45 22 46 76 47 70 48 72 49 23 50 75 51 69 52 68 53 24 55
REMARK SMILES IDX 56 56 36 57 55 58 37 59 40 60 54 61 73 62 38 63 39 64 53 66
REMARK SMILES IDX 74 67 41 68 25 69 26 70 34 71 27 72 28 73 32 74 35 75 29 76
REMARK SMILES IDX 30 77 33 78 31 79 57 80 58 81 66 82 59 83 60 84 64 85 67 86
REMARK SMILES IDX 61 87 62 88 65 89 63 90 42 91 43 92 51 93 44 94 45 95 49 96
REMARK SMILES IDX 52 97 46 98 47 99 50 100 48 101
REMARK H PARENT 79 10 72 54 40 65
REMARK Flexibility Score: inf
ROOT
ATOM      1  C   UNL A   1      35.255  22.522  24.246  1.00  0.00     0.261 C 
ENDROOT
BRANCH   1   2
ATOM      2  O   UNL A   1      33.933  22.637  24.826  1.00  0.00    -0.463 OA
BRANCH   2   3
ATOM      3  C   UNL A   1      32.882  22.282  24.033  1.00  0.00     0.306 C 
ATOM      4  O   UNL A   1      32.223  21.261  24.152  1.00  0.00    -0.252 OA
BRANCH   3   5
ATOM      5  C   UNL A   1      32.654  23.307  22.941  1.00  0.00     0.132 C 
BRANCH   5   6
ATOM      6  C   UNL A   1      31.387  24.139  23.117  1.00  0.00     0.112 C 
BRANCH   6   7
ATOM      7  C   UNL A   1      31.503  25.248  24.150  1.00  0.00     0.224 C 
ATOM      8  O   UNL A   1      30.925  25.154  25.229  1.00  0.00    -0.275 OA
ATOM      9  N   UNL A   1      32.297  26.300  23.748  1.00  0.00    -0.326 N 
ATOM     10  H   UNL A   1      32.730  26.218  22.868  1.00  0.00     0.169 HD
BRANCH   9  11
ATOM     11  C   UNL A   1      32.548  27.476  24.470  1.00  0.00     0.041 A 
ATOM     12  C   UNL A   1      31.616  28.499  24.331  1.00  0.00     0.028 A 
ATOM     13  C   UNL A   1      33.636  27.652  25.324  1.00  0.00     0.028 A 
ATOM     14  C   UNL A   1      31.714  29.632  25.134  1.00  0.00     0.028 A 
ATOM     15  C   UNL A   1      33.764  28.830  26.067  1.00  0.00     0.028 A 
ATOM     16  C   UNL A   1      32.781  29.817  26.019  1.00  0.00     0.037 A 
BRANCH  16  17
ATOM     17  N   UNL A   1      32.815  30.886  26.874  1.00  0.00    -0.368 N 
ATOM     18  C   UNL A   1      33.807  30.908  27.947  1.00  0.00     0.138 C 
ATOM     19  C   UNL A   1      31.766  31.910  26.979  1.00  0.00     0.138 C 
ATOM     20  C   UNL A   1      34.481  32.287  27.996  1.00  0.00     0.138 C 
ATOM     21  C   UNL A   1      32.375  33.321  27.168  1.00  0.00     0.138 C 
ATOM     22  N   UNL A   1      33.456  33.325  28.175  1.00  0.00    -0.368 N 
BRANCH  22  23
ATOM     23  C   UNL A   1      33.540  34.240  29.196  1.00  0.00     0.037 A 
ATOM     24  C   UNL A   1      32.905  35.493  29.112  1.00  0.00     0.029 A 
ATOM     25  C   UNL A   1      34.277  33.974  30.355  1.00  0.00     0.029 A 
ATOM     26  C   UNL A   1      33.010  36.444  30.127  1.00  0.00     0.041 A 
ATOM     27  C   UNL A   1      34.360  34.906  31.388  1.00  0.00     0.041 A 
ATOM     28  C   UNL A   1      33.741  36.139  31.261  1.00  0.00     0.123 A 
ATOM     29  F   UNL A   1      33.847  37.054  32.233  1.00  0.00    -0.207 F 
ENDBRANCH  22  23
ENDBRANCH  16  17
ENDBRANCH   9  11
ENDBRANCH   6   7
ENDBRANCH   5   6
ENDBRANCH   3   5
ENDBRANCH   2   3
ENDBRANCH   1   2
BRANCH   1  30
ATOM     30  C   UNL A   1      36.029  21.360  24.875  1.00  0.00     0.202 C 
BRANCH  30  31
ATOM     31  O   UNL A   1      37.421  21.326  24.558  1.00  0.00    -0.374 OA
BRANCH  31  32
ATOM     32  C   UNL A   1      38.179  20.289  25.174  1.00  0.00     0.202 C 
BRANCH  32  33
ATOM     33  C   UNL A   1      39.491  20.734  25.832  1.00  0.00     0.261 C 
BRANCH  33  34
ATOM     34  O   UNL A   1      40.190  19.631  26.439  1.00  0.00    -0.460 OA
BRANCH  34  35
ATOM     35  C   UNL A   1      41.505  19.542  26.115  1.00  0.00     0.338 C 
ATOM     36  O   UNL A   1      42.057  18.646  25.501  1.00  0.00    -0.246 OA
BRANCH  35  37
ATOM     37  C   UNL A   1      42.203  20.791  26.485  1.00  0.00     0.060 A 
ATOM     38  C   UNL A   1      42.275  21.140  27.840  1.00  0.00     0.016 A 
ATOM     39  C   UNL A   1      42.719  21.646  25.517  1.00  0.00     0.016 A 
ATOM     40  C   UNL A   1      42.850  22.357  28.234  1.00  0.00     0.010 A 
ATOM     41  C   UNL A   1      43.283  22.863  25.918  1.00  0.00     0.010 A 
ATOM     42  C   UNL A   1      43.349  23.246  27.276  1.00  0.00    -0.014 A 
BRANCH  42  43
ATOM     43  C   UNL A   1      43.833  24.619  27.629  1.00  0.00     0.031 A 
ATOM     44  C   UNL A   1      42.816  25.682  27.964  1.00  0.00     0.074 A 
ATOM     45  C   UNL A   1      45.136  24.969  27.577  1.00  0.00     0.049 A 
ATOM     46  N   UNL A   1      42.973  26.975  28.111  1.00  0.00    -0.248 NA
ATOM     47  C   UNL A   1      41.428  25.225  28.136  1.00  0.00     0.031 C 
ATOM     48  C   UNL A   1      46.252  24.073  27.290  1.00  0.00     0.029 A 
ATOM     49  N   UNL A   1      45.732  26.209  27.692  1.00  0.00    -0.354 N 
ATOM     50  C   UNL A   1      41.713  27.478  28.409  1.00  0.00     0.074 A 
ATOM     51  C   UNL A   1      40.787  26.368  28.326  1.00  0.00     0.031 C 
ATOM     52  C   UNL A   1      47.375  24.800  27.140  1.00  0.00     0.029 A 
ATOM     53  C   UNL A   1      47.060  26.217  27.323  1.00  0.00     0.049 A 
ATOM     54  H   UNL A   1      45.255  27.011  28.007  1.00  0.00     0.167 HD
ATOM     55  C   UNL A   1      41.359  28.734  28.773  1.00  0.00     0.037 A 
ATOM     56  C   UNL A   1      47.910  27.245  27.104  1.00  0.00     0.037 A 
ATOM     57  C   UNL A   1      42.268  29.843  28.901  1.00  0.00     0.049 A 
ATOM     58  C   UNL A   1      47.467  28.663  27.395  1.00  0.00     0.074 A 
ATOM     59  C   UNL A   1      42.001  31.135  29.324  1.00  0.00     0.029 A 
ATOM     60  N   UNL A   1      43.620  29.794  28.604  1.00  0.00    -0.354 N 
ATOM     61  N   UNL A   1      46.314  29.096  27.844  1.00  0.00    -0.248 NA
ATOM     62  C   UNL A   1      48.458  29.732  27.186  1.00  0.00     0.031 C 
ATOM     63  C   UNL A   1      43.188  31.876  29.256  1.00  0.00     0.029 A 
ATOM     64  C   UNL A   1      44.193  31.041  28.802  1.00  0.00     0.049 A 
ATOM     65  H   UNL A   1      44.103  28.992  28.298  1.00  0.00     0.167 HD
ATOM     66  C   UNL A   1      46.470  30.465  28.048  1.00  0.00     0.074 A 
ATOM     67  C   UNL A   1      47.816  30.801  27.642  1.00  0.00     0.031 C 
ATOM     68  C   UNL A   1      45.571  31.358  28.530  1.00  0.00     0.037 A 
BRANCH  55  69
ATOM     69  C   UNL A   1      39.912  28.967  29.100  1.00  0.00     0.064 A 
ATOM     70  C   UNL A   1      39.443  28.892  30.422  1.00  0.00     0.173 A 
ATOM     71  C   UNL A   1      38.991  29.292  28.094  1.00  0.00     0.173 A 
ATOM     72  F   UNL A   1      40.283  28.570  31.418  1.00  0.00    -0.203 F 
ATOM     73  C   UNL A   1      38.100  29.100  30.719  1.00  0.00     0.198 A 
ATOM     74  C   UNL A   1      37.653  29.531  28.400  1.00  0.00     0.198 A 
ATOM     75  F   UNL A   1      39.389  29.380  26.817  1.00  0.00    -0.203 F 
ATOM     76  F   UNL A   1      37.667  28.969  31.980  1.00  0.00    -0.200 F 
ATOM     77  C   UNL A   1      37.208  29.427  29.710  1.00  0.00     0.200 A 
ATOM     78  F   UNL A   1      36.794  29.857  27.425  1.00  0.00    -0.200 F 
ATOM     79  F   UNL A   1      35.916  29.632  29.997  1.00  0.00    -0.200 F 
ENDBRANCH  55  69
BRANCH  56  80
ATOM     80  C   UNL A   1      49.276  26.984  26.563  1.00  0.00     0.064 A 
ATOM     81  C   UNL A   1      50.379  26.791  27.403  1.00  0.00     0.173 A 
ATOM     82  C   UNL A   1      49.519  26.959  25.180  1.00  0.00     0.173 A 
ATOM     83  F   UNL A   1      50.220  26.834  28.733  1.00  0.00    -0.203 F 
ATOM     84  C   UNL A   1      51.662  26.602  26.882  1.00  0.00     0.198 A 
ATOM     85  C   UNL A   1      50.791  26.743  24.659  1.00  0.00     0.198 A 
ATOM     86  F   UNL A   1      48.517  27.151  24.317  1.00  0.00    -0.203 F 
ATOM     87  F   UNL A   1      52.705  26.466  27.711  1.00  0.00    -0.200 F 
ATOM     88  C   UNL A   1      51.866  26.572  25.510  1.00  0.00     0.200 A 
ATOM     89  F   UNL A   1      50.970  26.711  23.330  1.00  0.00    -0.200 F 
ATOM     90  F   UNL A   1      53.096  26.391  25.011  1.00  0.00    -0.200 F 
ENDBRANCH  56  80
BRANCH  68  91
ATOM     91  C   UNL A   1      46.035  32.763  28.808  1.00  0.00     0.064 A 
ATOM     92  C   UNL A   1      46.615  33.136  30.027  1.00  0.00     0.173 A 
ATOM     93  C   UNL A   1      45.971  33.737  27.803  1.00  0.00     0.173 A 
ATOM     94  F   UNL A   1      46.766  32.243  31.006  1.00  0.00    -0.203 F 
ATOM     95  C   UNL A   1      47.074  34.431  30.253  1.00  0.00     0.198 A 
ATOM     96  C   UNL A   1      46.456  35.028  28.019  1.00  0.00     0.198 A 
ATOM     97  F   UNL A   1      45.460  33.433  26.601  1.00  0.00    -0.203 F 
ATOM     98  F   UNL A   1      47.600  34.754  31.442  1.00  0.00    -0.200 F 
ATOM     99  C   UNL A   1      46.997  35.376  29.247  1.00  0.00     0.200 A 
ATOM    100  F   UNL A   1      46.407  35.935  27.034  1.00  0.00    -0.200 F 
ATOM    101  F   UNL A   1      47.454  36.618  29.458  1.00  0.00    -0.200 F 
ENDBRANCH  68  91
ENDBRANCH  42  43
ENDBRANCH  35  37
ENDBRANCH  34  35
ENDBRANCH  33  34
ENDBRANCH  32  33
ENDBRANCH  31  32
ENDBRANCH  30  31
ENDBRANCH   1  30
TORSDOF 19
ENDMDL
MODEL 2
REMARK VINA RESULT:     -11.2      3.890     10.633
REMARK SMILES O=C(CCC(=O)OCCOCCOC(=O)c1ccc(-c2c3nc(c(-c4c(F)c(F)c(F)c(F)c4F)c4ccc([nH]4)c(-c4c(F)c(F)c(F)c(F)c4F)c4nc(c(-c5c(F)c(F)c(F)c(F)c5F)c5ccc2[nH]5)C=C4)C=C3)cc1)Nc1ccc(N2CCN(c3ccc(F)cc3)CC2)cc1
REMARK SMILES IDX 8 1 7 2 5 3 6 4 4 5 3 6 2 7 1 8 79 9 80 11 81 12 98 13 82 14
REMARK SMILES IDX 97 15 83 16 84 17 85 18 96 19 86 20 95 21 87 22 88 23 89 24
REMARK SMILES IDX 94 25 90 26 93 27 91 28 92 29 9 30 10 31 11 32 12 33 13 34
REMARK SMILES IDX 14 35 15 36 16 37 17 38 78 39 18 40 77 41 19 42 20 43 21 44
REMARK SMILES IDX 71 45 22 46 76 47 70 48 72 49 23 50 75 51 69 52 68 53 24 55
REMARK SMILES IDX 56 56 36 57 55 58 37 59 40 60 54 61 73 62 38 63 39 64 53 66
REMARK SMILES IDX 74 67 41 68 25 69 26 70 34 71 27 72 28 73 32 74 35 75 29 76
REMARK SMILES IDX 30 77 33 78 31 79 57 80 58 81 66 82 59 83 60 84 64 85 67 86
REMARK SMILES IDX 61 87 62 88 65 89 63 90 42 91 43 92 51 93 44 94 45 95 49 96
REMARK SMILES IDX 52 97 46 98 47 99 50 100 48 101
REMARK H PARENT 79 10 72 54 40 65
REMARK Flexibility Score: inf
ROOT
ATOM      1  C   UNL A   1      34.292  34.678  29.322  1.00  0.00     0.261 C 
ENDROOT
BRANCH   1   2
ATOM      2  O   UNL A   1      33.669  34.559  28.021  1.00  0.00    -0.463 OA
BRANCH   2   3
ATOM      3  C   UNL A   1      32.925  33.438  27.796  1.00  0.00     0.306 C 
ATOM      4  O   UNL A   1      31.839  33.413  27.238  1.00  0.00    -0.252 OA
BRANCH   3   5
ATOM      5  C   UNL A   1      33.605  32.212  28.368  1.00  0.00     0.132 C 
BRANCH   5   6
ATOM      6  C   UNL A   1      34.640  31.580  27.443  1.00  0.00     0.112 C 
BRANCH   6   7
ATOM      7  C   UNL A   1      34.501  30.074  27.280  1.00  0.00     0.224 C 
ATOM      8  O   UNL A   1      35.113  29.312  28.022  1.00  0.00    -0.275 OA
ATOM      9  N   UNL A   1      33.647  29.702  26.265  1.00  0.00    -0.326 N 
ATOM     10  H   UNL A   1      33.194  30.428  25.778  1.00  0.00     0.169 HD
BRANCH   9  11
ATOM     11  C   UNL A   1      33.361  28.391  25.857  1.00  0.00     0.041 A 
ATOM     12  C   UNL A   1      33.976  27.959  24.685  1.00  0.00     0.028 A 
ATOM     13  C   UNL A   1      32.545  27.513  26.566  1.00  0.00     0.028 A 
ATOM     14  C   UNL A   1      33.865  26.625  24.303  1.00  0.00     0.028 A 
ATOM     15  C   UNL A   1      32.379  26.195  26.127  1.00  0.00     0.028 A 
ATOM     16  C   UNL A   1      33.074  25.718  25.017  1.00  0.00     0.037 A 
BRANCH  16  17
ATOM     17  N   UNL A   1      33.052  24.388  24.690  1.00  0.00    -0.368 N 
ATOM     18  C   UNL A   1      33.563  23.411  25.649  1.00  0.00     0.138 C 
ATOM     19  C   UNL A   1      32.798  23.859  23.343  1.00  0.00     0.138 C 
ATOM     20  C   UNL A   1      32.575  22.242  25.767  1.00  0.00     0.138 C 
ATOM     21  C   UNL A   1      31.913  22.590  23.395  1.00  0.00     0.138 C 
ATOM     22  N   UNL A   1      32.362  21.647  24.440  1.00  0.00    -0.368 N 
BRANCH  22  23
ATOM     23  C   UNL A   1      32.543  20.303  24.224  1.00  0.00     0.037 A 
ATOM     24  C   UNL A   1      32.958  19.443  25.258  1.00  0.00     0.029 A 
ATOM     25  C   UNL A   1      32.344  19.734  22.962  1.00  0.00     0.029 A 
ATOM     26  C   UNL A   1      33.178  18.083  25.044  1.00  0.00     0.041 A 
ATOM     27  C   UNL A   1      32.530  18.370  22.747  1.00  0.00     0.041 A 
ATOM     28  C   UNL A   1      32.962  17.557  23.783  1.00  0.00     0.123 A 
ATOM     29  F   UNL A   1      33.179  16.253  23.576  1.00  0.00    -0.207 F 
ENDBRANCH  22  23
ENDBRANCH  16  17
ENDBRANCH   9  11
ENDBRANCH   6   7
ENDBRANCH   5   6
ENDBRANCH   3   5
ENDBRANCH   2   3
ENDBRANCH   1   2
BRANCH   1  30
ATOM     30  C   UNL A   1      33.277  35.135  30.376  1.00  0.00     0.202 C 
BRANCH  30  31
ATOM     31  O   UNL A   1      33.450  34.549  31.667  1.00  0.00    -0.374 OA
BRANCH  31  32
ATOM     32  C   UNL A   1      34.648  33.802  31.861  1.00  0.00     0.202 C 
BRANCH  32  33
ATOM     33  C   UNL A   1      34.638  32.841  33.056  1.00  0.00     0.261 C 
BRANCH  33  34
ATOM     34  O   UNL A   1      35.900  32.832  33.749  1.00  0.00    -0.460 OA
BRANCH  34  35
ATOM     35  C   UNL A   1      36.842  33.660  33.230  1.00  0.00     0.338 C 
ATOM     36  O   UNL A   1      36.986  34.848  33.453  1.00  0.00    -0.246 OA
BRANCH  35  37
ATOM     37  C   UNL A   1      37.813  32.884  32.430  1.00  0.00     0.060 A 
ATOM     38  C   UNL A   1      38.433  31.776  33.023  1.00  0.00     0.016 A 
ATOM     39  C   UNL A   1      38.166  33.274  31.143  1.00  0.00     0.016 A 
ATOM     40  C   UNL A   1      39.425  31.061  32.336  1.00  0.00     0.010 A 
ATOM     41  C   UNL A   1      39.164  32.560  30.467  1.00  0.00     0.010 A 
ATOM     42  C   UNL A   1      39.817  31.453  31.052  1.00  0.00    -0.014 A 
BRANCH  42  43
ATOM     43  C   UNL A   1      40.972  30.820  30.337  1.00  0.00     0.031 A 
ATOM     44  C   UNL A   1      42.111  31.699  29.880  1.00  0.00     0.074 A 
ATOM     45  C   UNL A   1      40.997  29.511  30.007  1.00  0.00     0.049 A 
ATOM     46  N   UNL A   1      43.115  31.422  29.085  1.00  0.00    -0.248 NA
ATOM     47  C   UNL A   1      42.103  33.085  30.373  1.00  0.00     0.031 C 
ATOM     48  C   UNL A   1      39.996  28.516  30.378  1.00  0.00     0.029 A 
ATOM     49  N   UNL A   1      41.877  28.809  29.208  1.00  0.00    -0.354 N 
ATOM     50  C   UNL A   1      43.863  32.589  28.999  1.00  0.00     0.074 A 
ATOM     51  C   UNL A   1      43.145  33.603  29.743  1.00  0.00     0.031 C 
ATOM     52  C   UNL A   1      40.252  27.367  29.724  1.00  0.00     0.029 A 
ATOM     53  C   UNL A   1      41.438  27.543  28.886  1.00  0.00     0.049 A 
ATOM     54  H   UNL A   1      42.737  29.177  28.898  1.00  0.00     0.167 HD
ATOM     55  C   UNL A   1      45.063  32.794  28.405  1.00  0.00     0.037 A 
ATOM     56  C   UNL A   1      41.902  26.650  27.985  1.00  0.00     0.037 A 
ATOM     57  C   UNL A   1      45.813  31.791  27.694  1.00  0.00     0.049 A 
ATOM     58  C   UNL A   1      43.182  26.938  27.229  1.00  0.00     0.074 A 
ATOM     59  C   UNL A   1      47.066  31.898  27.115  1.00  0.00     0.029 A 
ATOM     60  N   UNL A   1      45.378  30.496  27.463  1.00  0.00    -0.354 N 
ATOM     61  N   UNL A   1      43.967  27.986  27.296  1.00  0.00    -0.248 NA
ATOM     62  C   UNL A   1      43.661  25.901  26.301  1.00  0.00     0.031 C 
ATOM     63  C   UNL A   1      47.378  30.675  26.507  1.00  0.00     0.029 A 
ATOM     64  C   UNL A   1      46.324  29.805  26.720  1.00  0.00     0.049 A 
ATOM     65  H   UNL A   1      44.524  30.121  27.780  1.00  0.00     0.167 HD
ATOM     66  C   UNL A   1      45.065  27.697  26.490  1.00  0.00     0.074 A 
ATOM     67  C   UNL A   1      44.832  26.392  25.913  1.00  0.00     0.031 C 
ATOM     68  C   UNL A   1      46.165  28.454  26.252  1.00  0.00     0.037 A 
BRANCH  55  69
ATOM     69  C   UNL A   1      45.664  34.164  28.534  1.00  0.00     0.064 A 
ATOM     70  C   UNL A   1      45.309  35.200  27.656  1.00  0.00     0.173 A 
ATOM     71  C   UNL A   1      46.582  34.452  29.554  1.00  0.00     0.173 A 
ATOM     72  F   UNL A   1      44.445  34.970  26.655  1.00  0.00    -0.203 F 
ATOM     73  C   UNL A   1      45.875  36.465  27.774  1.00  0.00     0.198 A 
ATOM     74  C   UNL A   1      47.123  35.729  29.688  1.00  0.00     0.198 A 
ATOM     75  F   UNL A   1      46.951  33.498  30.421  1.00  0.00    -0.203 F 
ATOM     76  F   UNL A   1      45.562  37.423  26.890  1.00  0.00    -0.200 F 
ATOM     77  C   UNL A   1      46.776  36.731  28.793  1.00  0.00     0.200 A 
ATOM     78  F   UNL A   1      47.985  35.987  30.681  1.00  0.00    -0.200 F 
ATOM     79  F   UNL A   1      47.317  37.951  28.909  1.00  0.00    -0.200 F 
ENDBRANCH  55  69
BRANCH  56  80
ATOM     80  C   UNL A   1      41.147  25.390  27.723  1.00  0.00     0.064 A 
ATOM     81  C   UNL A   1      41.570  24.156  28.232  1.00  0.00     0.173 A 
ATOM     82  C   UNL A   1      39.995  25.384  26.920  1.00  0.00     0.173 A 
ATOM     83  F   UNL A   1      42.679  24.088  28.981  1.00  0.00    -0.203 F 
ATOM     84  C   UNL A   1      40.883  22.975  27.935  1.00  0.00     0.198 A 
ATOM     85  C   UNL A   1      39.293  24.213  26.645  1.00  0.00     0.198 A 
ATOM     86  F   UNL A   1      39.541  26.521  26.387  1.00  0.00    -0.203 F 
ATOM     87  F   UNL A   1      41.338  21.804  28.398  1.00  0.00    -0.200 F 
ATOM     88  C   UNL A   1      39.742  23.006  27.146  1.00  0.00     0.200 A 
ATOM     89  F   UNL A   1      38.189  24.262  25.886  1.00  0.00    -0.200 F 
ATOM     90  F   UNL A   1      39.084  21.875  26.860  1.00  0.00    -0.200 F 
ENDBRANCH  56  80
BRANCH  68  91
ATOM     91  C   UNL A   1      47.294  27.847  25.462  1.00  0.00     0.064 A 
ATOM     92  C   UNL A   1      47.346  27.899  24.064  1.00  0.00     0.173 A 
ATOM     93  C   UNL A   1      48.386  27.271  26.125  1.00  0.00     0.173 A 
ATOM     94  F   UNL A   1      46.371  28.490  23.371  1.00  0.00    -0.203 F 
ATOM     95  C   UNL A   1      48.417  27.367  23.352  1.00  0.00     0.198 A 
ATOM     96  C   UNL A   1      49.473  26.762  25.412  1.00  0.00     0.198 A 
ATOM     97  F   UNL A   1      48.413  27.223  27.464  1.00  0.00    -0.203 F 
ATOM     98  F   UNL A   1      48.418  27.415  22.012  1.00  0.00    -0.200 F 
ATOM     99  C   UNL A   1      49.483  26.800  24.027  1.00  0.00     0.200 A 
ATOM    100  F   UNL A   1      50.517  26.239  26.070  1.00  0.00    -0.200 F 
ATOM    101  F   UNL A   1      50.522  26.303  23.343  1.00  0.00    -0.200 F 
ENDBRANCH  68  91
ENDBRANCH  42  43
ENDBRANCH  35  37
ENDBRANCH  34  35
ENDBRANCH  33  34
ENDBRANCH  32  33
ENDBRANCH  31  32
ENDBRANCH  30  31
ENDBRANCH   1  30
TORSDOF 19
ENDMDL
MODEL 3
REMARK VINA RESULT:     -11.1      5.084      8.743
REMARK SMILES O=C(CCC(=O)OCCOCCOC(=O)c1ccc(-c2c3nc(c(-c4c(F)c(F)c(F)c(F)c4F)c4ccc([nH]4)c(-c4c(F)c(F)c(F)c(F)c4F)c4nc(c(-c5c(F)c(F)c(F)c(F)c5F)c5ccc2[nH]5)C=C4)C=C3)cc1)Nc1ccc(N2CCN(c3ccc(F)cc3)CC2)cc1
REMARK SMILES IDX 8 1 7 2 5 3 6 4 4 5 3 6 2 7 1 8 79 9 80 11 81 12 98 13 82 14
REMARK SMILES IDX 97 15 83 16 84 17 85 18 96 19 86 20 95 21 87 22 88 23 89 24
REMARK SMILES IDX 94 25 90 26 93 27 91 28 92 29 9 30 10 31 11 32 12 33 13 34
REMARK SMILES IDX 14 35 15 36 16 37 17 38 78 39 18 40 77 41 19 42 20 43 21 44
REMARK SMILES IDX 71 45 22 46 76 47 70 48 72 49 23 50 75 51 69 52 68 53 24 55
REMARK SMILES IDX 56 56 36 57 55 58 37 59 40 60 54 61 73 62 38 63 39 64 53 66
REMARK SMILES IDX 74 67 41 68 25 69 26 70 34 71 27 72 28 73 32 74 35 75 29 76
REMARK SMILES IDX 30 77 33 78 31 79 57 80 58 81 66 82 59 83 60 84 64 85 67 86
REMARK SMILES IDX 61 87 62 88 65 89 63 90 42 91 43 92 51 93 44 94 45 95 49 96
REMARK SMILES IDX 52 97 46 98 47 99 50 100 48 101
REMARK H PARENT 79 10 72 54 40 65
REMARK Flexibility Score: inf
ROOT
ATOM      1  C   UNL A   1      44.399  19.498  25.508  1.00  0.00     0.261 C 
ENDROOT
BRANCH   1   2
ATOM      2  O   UNL A   1      43.233  20.262  25.118  1.00  0.00    -0.463 OA
BRANCH   2   3
ATOM      3  C   UNL A   1      42.431  20.716  26.124  1.00  0.00     0.306 C 
ATOM      4  O   UNL A   1      41.383  20.199  26.478  1.00  0.00    -0.252 OA
BRANCH   3   5
ATOM      5  C   UNL A   1      42.989  21.986  26.731  1.00  0.00     0.132 C 
BRANCH   5   6
ATOM      6  C   UNL A   1      42.533  23.266  26.037  1.00  0.00     0.112 C 
BRANCH   6   7
ATOM      7  C   UNL A   1      42.020  24.342  26.980  1.00  0.00     0.224 C 
ATOM      8  O   UNL A   1      42.269  24.285  28.180  1.00  0.00    -0.275 OA
ATOM      9  N   UNL A   1      41.294  25.330  26.352  1.00  0.00    -0.326 N 
ATOM     10  H   UNL A   1      41.209  25.265  25.373  1.00  0.00     0.169 HD
BRANCH   9  11
ATOM     11  C   UNL A   1      40.662  26.420  26.970  1.00  0.00     0.041 A 
ATOM     12  C   UNL A   1      39.911  26.137  28.106  1.00  0.00     0.028 A 
ATOM     13  C   UNL A   1      40.778  27.739  26.536  1.00  0.00     0.028 A 
ATOM     14  C   UNL A   1      39.386  27.183  28.861  1.00  0.00     0.028 A 
ATOM     15  C   UNL A   1      40.179  28.775  27.261  1.00  0.00     0.028 A 
ATOM     16  C   UNL A   1      39.515  28.517  28.459  1.00  0.00     0.037 A 
BRANCH  16  17
ATOM     17  N   UNL A   1      39.082  29.542  29.259  1.00  0.00    -0.368 N 
ATOM     18  C   UNL A   1      37.647  29.730  29.459  1.00  0.00     0.138 C 
ATOM     19  C   UNL A   1      39.924  30.647  29.736  1.00  0.00     0.138 C 
ATOM     20  C   UNL A   1      37.361  29.946  30.952  1.00  0.00     0.138 C 
ATOM     21  C   UNL A   1      39.594  31.013  31.203  1.00  0.00     0.138 C 
ATOM     22  N   UNL A   1      38.137  31.096  31.437  1.00  0.00    -0.368 N 
BRANCH  22  23
ATOM     23  C   UNL A   1      37.530  32.144  32.085  1.00  0.00     0.037 A 
ATOM     24  C   UNL A   1      36.472  31.933  32.989  1.00  0.00     0.029 A 
ATOM     25  C   UNL A   1      37.924  33.467  31.858  1.00  0.00     0.029 A 
ATOM     26  C   UNL A   1      35.825  32.991  33.627  1.00  0.00     0.041 A 
ATOM     27  C   UNL A   1      37.304  34.527  32.517  1.00  0.00     0.041 A 
ATOM     28  C   UNL A   1      36.249  34.284  33.384  1.00  0.00     0.123 A 
ATOM     29  F   UNL A   1      35.624  35.300  33.991  1.00  0.00    -0.207 F 
ENDBRANCH  22  23
ENDBRANCH  16  17
ENDBRANCH   9  11
ENDBRANCH   6   7
ENDBRANCH   5   6
ENDBRANCH   3   5
ENDBRANCH   2   3
ENDBRANCH   1   2
BRANCH   1  30
ATOM     30  C   UNL A   1      45.668  20.073  24.868  1.00  0.00     0.202 C 
BRANCH  30  31
ATOM     31  O   UNL A   1      46.119  21.304  25.434  1.00  0.00    -0.374 OA
BRANCH  31  32
ATOM     32  C   UNL A   1      45.961  22.463  24.620  1.00  0.00     0.202 C 
BRANCH  32  33
ATOM     33  C   UNL A   1      46.393  23.784  25.266  1.00  0.00     0.261 C 
BRANCH  33  34
ATOM     34  O   UNL A   1      45.885  24.925  24.548  1.00  0.00    -0.460 OA
BRANCH  34  35
ATOM     35  C   UNL A   1      46.610  26.062  24.699  1.00  0.00     0.338 C 
ATOM     36  O   UNL A   1      47.579  26.414  24.050  1.00  0.00    -0.246 OA
BRANCH  35  37
ATOM     37  C   UNL A   1      45.971  26.941  25.700  1.00  0.00     0.060 A 
ATOM     38  C   UNL A   1      46.768  27.494  26.711  1.00  0.00     0.016 A 
ATOM     39  C   UNL A   1      44.599  27.167  25.694  1.00  0.00     0.016 A 
ATOM     40  C   UNL A   1      46.193  28.263  27.734  1.00  0.00     0.010 A 
ATOM     41  C   UNL A   1      44.031  27.928  26.723  1.00  0.00     0.010 A 
ATOM     42  C   UNL A   1      44.812  28.478  27.764  1.00  0.00    -0.014 A 
BRANCH  42  43
ATOM     43  C   UNL A   1      44.130  29.161  28.911  1.00  0.00     0.031 A 
ATOM     44  C   UNL A   1      43.974  30.661  28.871  1.00  0.00     0.074 A 
ATOM     45  C   UNL A   1      43.728  28.501  30.018  1.00  0.00     0.049 A 
ATOM     46  N   UNL A   1      43.599  31.489  29.816  1.00  0.00    -0.248 NA
ATOM     47  C   UNL A   1      44.306  31.318  27.597  1.00  0.00     0.031 C 
ATOM     48  C   UNL A   1      43.785  27.056  30.221  1.00  0.00     0.029 A 
ATOM     49  N   UNL A   1      43.256  28.983  31.222  1.00  0.00    -0.354 N 
ATOM     50  C   UNL A   1      43.633  32.755  29.245  1.00  0.00     0.074 A 
ATOM     51  C   UNL A   1      44.158  32.597  27.905  1.00  0.00     0.031 C 
ATOM     52  C   UNL A   1      43.474  26.778  31.501  1.00  0.00     0.029 A 
ATOM     53  C   UNL A   1      43.194  28.026  32.211  1.00  0.00     0.049 A 
ATOM     54  H   UNL A   1      42.990  29.921  31.362  1.00  0.00     0.167 HD
ATOM     55  C   UNL A   1      43.218  33.937  29.761  1.00  0.00     0.037 A 
ATOM     56  C   UNL A   1      42.988  28.143  33.542  1.00  0.00     0.037 A 
ATOM     57  C   UNL A   1      42.657  34.111  31.076  1.00  0.00     0.049 A 
ATOM     58  C   UNL A   1      42.644  29.492  34.135  1.00  0.00     0.074 A 
ATOM     59  C   UNL A   1      42.152  35.264  31.654  1.00  0.00     0.029 A 
ATOM     60  N   UNL A   1      42.527  33.104  32.019  1.00  0.00    -0.354 N 
ATOM     61  N   UNL A   1      42.514  30.652  33.538  1.00  0.00    -0.248 NA
ATOM     62  C   UNL A   1      42.381  29.541  35.583  1.00  0.00     0.031 C 
ATOM     63  C   UNL A   1      41.744  34.961  32.960  1.00  0.00     0.029 A 
ATOM     64  C   UNL A   1      41.983  33.617  33.187  1.00  0.00     0.049 A 
ATOM     65  H   UNL A   1      42.782  32.163  31.880  1.00  0.00     0.167 HD
ATOM     66  C   UNL A   1      42.075  31.542  34.515  1.00  0.00     0.074 A 
ATOM     67  C   UNL A   1      41.994  30.800  35.754  1.00  0.00     0.031 C 
ATOM     68  C   UNL A   1      41.769  32.856  34.389  1.00  0.00     0.037 A 
BRANCH  55  69
ATOM     69  C   UNL A   1      43.321  35.144  28.874  1.00  0.00     0.064 A 
ATOM     70  C   UNL A   1      42.193  35.664  28.219  1.00  0.00     0.173 A 
ATOM     71  C   UNL A   1      44.547  35.800  28.693  1.00  0.00     0.173 A 
ATOM     72  F   UNL A   1      41.000  35.064  28.349  1.00  0.00    -0.203 F 
ATOM     73  C   UNL A   1      42.296  36.778  27.391  1.00  0.00     0.198 A 
ATOM     74  C   UNL A   1      44.639  36.933  27.889  1.00  0.00     0.198 A 
ATOM     75  F   UNL A   1      45.653  35.344  29.299  1.00  0.00    -0.203 F 
ATOM     76  F   UNL A   1      41.216  37.223  26.734  1.00  0.00    -0.200 F 
ATOM     77  C   UNL A   1      43.516  37.415  27.232  1.00  0.00     0.200 A 
ATOM     78  F   UNL A   1      45.817  37.555  27.744  1.00  0.00    -0.200 F 
ATOM     79  F   UNL A   1      43.613  38.490  26.438  1.00  0.00    -0.200 F 
ENDBRANCH  55  69
BRANCH  56  80
ATOM     80  C   UNL A   1      43.115  26.947  34.426  1.00  0.00     0.064 A 
ATOM     81  C   UNL A   1      42.000  26.198  34.820  1.00  0.00     0.173 A 
ATOM     82  C   UNL A   1      44.361  26.545  34.933  1.00  0.00     0.173 A 
ATOM     83  F   UNL A   1      40.778  26.547  34.395  1.00  0.00    -0.203 F 
ATOM     84  C   UNL A   1      42.127  25.113  35.692  1.00  0.00     0.198 A 
ATOM     85  C   UNL A   1      44.494  25.448  35.781  1.00  0.00     0.198 A 
ATOM     86  F   UNL A   1      45.467  27.222  34.614  1.00  0.00    -0.203 F 
ATOM     87  F   UNL A   1      41.036  24.443  36.087  1.00  0.00    -0.200 F 
ATOM     88  C   UNL A   1      43.374  24.736  36.167  1.00  0.00     0.200 A 
ATOM     89  F   UNL A   1      45.708  25.094  36.226  1.00  0.00    -0.200 F 
ATOM     90  F   UNL A   1      43.496  23.697  37.003  1.00  0.00    -0.200 F 
ENDBRANCH  56  80
BRANCH  68  91
ATOM     91  C   UNL A   1      41.160  33.566  35.569  1.00  0.00     0.064 A 
ATOM     92  C   UNL A   1      41.918  34.345  36.451  1.00  0.00     0.173 A 
ATOM     93  C   UNL A   1      39.774  33.529  35.774  1.00  0.00     0.173 A 
ATOM     94  F   UNL A   1      43.234  34.477  36.279  1.00  0.00    -0.203 F 
ATOM     95  C   UNL A   1      41.331  35.026  37.515  1.00  0.00     0.198 A 
ATOM     96  C   UNL A   1      39.182  34.233  36.824  1.00  0.00     0.198 A 
ATOM     97  F   UNL A   1      38.988  32.830  34.942  1.00  0.00    -0.203 F 
ATOM     98  F   UNL A   1      42.096  35.741  38.352  1.00  0.00    -0.200 F 
ATOM     99  C   UNL A   1      39.962  34.972  37.699  1.00  0.00     0.200 A 
ATOM    100  F   UNL A   1      37.851  34.202  36.983  1.00  0.00    -0.200 F 
ATOM    101  F   UNL A   1      39.395  35.640  38.713  1.00  0.00    -0.200 F 
ENDBRANCH  68  91
ENDBRANCH  42  43
ENDBRANCH  35  37
ENDBRANCH  34  35
ENDBRANCH  33  34
ENDBRANCH  32  33
ENDBRANCH  31  32
ENDBRANCH  30  31
ENDBRANCH   1  30
TORSDOF 19
ENDMDL
