MODEL 1
REMARK VINA RESULT:     -12.3      0.000      0.000
REMARK SMILES COc1ccccc1-n1nnc(C(=O)OCCOCCOC(=O)c2ccc(-c3c4nc(c(-c5c(F)c(F)c(F)c(F)c5F)c5ccc([nH]5)c(-c5c(F)c(F)c(F)c(F)c5F)c5nc(c(-c6c(F)c(F)c(F)c(F)c6F)c6ccc3[nH]6)C=C5)C=C4)cc2)c1-c1ccc(Cl)cc1
REMARK SMILES IDX 18 1 17 2 16 3 15 4 13 5 14 6 12 7 9 8 10 9 87 10 11 11 8 12
REMARK SMILES IDX 3 13 4 14 5 15 7 16 6 17 2 18 1 19 88 20 89 21 94 22 90 23
REMARK SMILES IDX 93 24 91 25 92 26 19 27 20 28 21 29 22 30 23 31 24 32 25 33
REMARK SMILES IDX 86 34 26 35 85 36 27 37 28 38 29 39 79 40 30 41 84 42 78 43
REMARK SMILES IDX 80 44 31 45 83 46 77 47 76 48 32 50 64 51 44 52 63 53 45 54
REMARK SMILES IDX 48 55 62 56 81 57 46 58 47 59 61 61 82 62 49 63 33 64 34 65
REMARK SMILES IDX 42 66 35 67 36 68 40 69 43 70 37 71 38 72 41 73 39 74 65 75
REMARK SMILES IDX 66 76 74 77 67 78 68 79 72 80 75 81 69 82 70 83 73 84 71 85
REMARK SMILES IDX 50 86 51 87 59 88 52 89 53 90 57 91 60 92 54 93 55 94 58 95
REMARK SMILES IDX 56 96
REMARK H PARENT 80 49 48 60
REMARK Flexibility Score: inf
ROOT
ATOM      1  O   UNL A   1      36.644  22.029  25.168  1.00  0.00    -0.374 OA
ENDROOT
BRANCH   1   2
ATOM      2  C   UNL A   1      36.641  23.289  24.497  1.00  0.00     0.202 C 
BRANCH   2   3
ATOM      3  C   UNL A   1      35.294  23.965  24.263  1.00  0.00     0.261 C 
BRANCH   3   4
ATOM      4  O   UNL A   1      34.224  23.115  24.684  1.00  0.00    -0.458 OA
BRANCH   4   5
ATOM      5  C   UNL A   1      33.368  23.600  25.624  1.00  0.00     0.361 C 
ATOM      6  O   UNL A   1      33.585  23.599  26.833  1.00  0.00    -0.244 OA
BRANCH   5   7
ATOM      7  C   UNL A   1      32.196  24.206  25.021  1.00  0.00     0.198 A 
ATOM      8  N   UNL A   1      30.727  25.567  24.205  1.00  0.00    -0.208 N 
ATOM      9  N   UNL A   1      30.312  24.313  23.916  1.00  0.00    -0.061 NA
ATOM     10  C   UNL A   1      31.777  25.528  25.108  1.00  0.00     0.109 A 
ATOM     11  N   UNL A   1      31.274  23.485  24.299  1.00  0.00    -0.122 NA
BRANCH   8  12
ATOM     12  C   UNL A   1      30.225  26.677  23.504  1.00  0.00     0.109 A 
ATOM     13  C   UNL A   1      31.054  27.404  22.638  1.00  0.00     0.144 A 
ATOM     14  C   UNL A   1      30.596  28.612  22.116  1.00  0.00     0.049 A 
ATOM     15  C   UNL A   1      29.307  29.062  22.412  1.00  0.00     0.004 A 
ATOM     16  C   UNL A   1      28.907  27.085  23.748  1.00  0.00     0.032 A 
ATOM     17  C   UNL A   1      28.460  28.294  23.212  1.00  0.00     0.003 A 
BRANCH  13  18
ATOM     18  O   UNL A   1      32.331  27.046  22.293  1.00  0.00    -0.494 OA
ATOM     19  C   UNL A   1      32.395  26.009  21.309  1.00  0.00     0.278 C 
ENDBRANCH  13  18
ENDBRANCH   8  12
BRANCH  10  20
ATOM     20  C   UNL A   1      32.284  26.669  25.868  1.00  0.00     0.003 A 
ATOM     21  C   UNL A   1      31.463  27.334  26.789  1.00  0.00     0.012 A 
ATOM     22  C   UNL A   1      33.574  27.162  25.632  1.00  0.00     0.012 A 
ATOM     23  C   UNL A   1      31.888  28.515  27.397  1.00  0.00     0.021 A 
ATOM     24  C   UNL A   1      34.008  28.337  26.254  1.00  0.00     0.021 A 
ATOM     25  C   UNL A   1      33.153  29.021  27.113  1.00  0.00     0.041 A 
ATOM     26  Cl  UNL A   1      33.656  30.511  27.808  1.00  0.00    -0.084 Cl
ENDBRANCH  10  20
ENDBRANCH   5   7
ENDBRANCH   4   5
ENDBRANCH   3   4
ENDBRANCH   2   3
ENDBRANCH   1   2
BRANCH   1  27
ATOM     27  C   UNL A   1      37.719  21.114  24.991  1.00  0.00     0.202 C 
BRANCH  27  28
ATOM     28  C   UNL A   1      38.914  21.203  25.927  1.00  0.00     0.261 C 
BRANCH  28  29
ATOM     29  O   UNL A   1      39.220  22.536  26.304  1.00  0.00    -0.460 OA
BRANCH  29  30
ATOM     30  C   UNL A   1      40.308  22.632  27.103  1.00  0.00     0.338 C 
ATOM     31  O   UNL A   1      40.745  21.787  27.866  1.00  0.00    -0.246 OA
BRANCH  30  32
ATOM     32  C   UNL A   1      40.779  24.016  27.080  1.00  0.00     0.060 A 
ATOM     33  C   UNL A   1      41.847  24.321  27.923  1.00  0.00     0.016 A 
ATOM     34  C   UNL A   1      39.942  25.008  26.548  1.00  0.00     0.016 A 
ATOM     35  C   UNL A   1      41.889  25.584  28.465  1.00  0.00     0.010 A 
ATOM     36  C   UNL A   1      40.009  26.275  27.061  1.00  0.00     0.010 A 
ATOM     37  C   UNL A   1      40.891  26.502  28.108  1.00  0.00    -0.014 A 
BRANCH  37  38
ATOM     38  C   UNL A   1      40.882  27.801  28.738  1.00  0.00     0.031 A 
ATOM     39  C   UNL A   1      41.995  28.625  28.227  1.00  0.00     0.074 A 
ATOM     40  C   UNL A   1      39.931  28.202  29.605  1.00  0.00     0.049 A 
ATOM     41  N   UNL A   1      43.067  28.934  28.870  1.00  0.00    -0.248 NA
ATOM     42  C   UNL A   1      42.055  28.905  26.782  1.00  0.00     0.031 C 
ATOM     43  C   UNL A   1      38.698  27.528  30.022  1.00  0.00     0.029 A 
ATOM     44  N   UNL A   1      39.858  29.393  30.266  1.00  0.00    -0.354 N 
ATOM     45  C   UNL A   1      43.840  29.653  27.972  1.00  0.00     0.074 A 
ATOM     46  C   UNL A   1      43.286  29.409  26.668  1.00  0.00     0.031 C 
ATOM     47  C   UNL A   1      37.893  28.412  30.660  1.00  0.00     0.029 A 
ATOM     48  C   UNL A   1      38.601  29.667  30.817  1.00  0.00     0.049 A 
ATOM     49  H   UNL A   1      40.624  30.005  30.350  1.00  0.00     0.167 HD
ATOM     50  C   UNL A   1      44.671  30.627  28.426  1.00  0.00     0.037 A 
ATOM     51  C   UNL A   1      38.213  30.887  31.284  1.00  0.00     0.037 A 
ATOM     52  C   UNL A   1      44.956  30.443  29.829  1.00  0.00     0.049 A 
ATOM     53  C   UNL A   1      39.466  31.634  31.606  1.00  0.00     0.074 A 
ATOM     54  C   UNL A   1      45.525  29.415  30.559  1.00  0.00     0.029 A 
ATOM     55  N   UNL A   1      44.235  31.188  30.732  1.00  0.00    -0.354 N 
ATOM     56  N   UNL A   1      40.270  31.275  32.571  1.00  0.00    -0.248 NA
ATOM     57  C   UNL A   1      40.082  32.388  30.518  1.00  0.00     0.031 C 
ATOM     58  C   UNL A   1      44.716  29.301  31.726  1.00  0.00     0.029 A 
ATOM     59  C   UNL A   1      43.779  30.334  31.707  1.00  0.00     0.049 A 
ATOM     60  H   UNL A   1      44.075  32.158  30.689  1.00  0.00     0.167 HD
ATOM     61  C   UNL A   1      41.539  31.355  32.015  1.00  0.00     0.074 A 
ATOM     62  C   UNL A   1      41.359  32.069  30.749  1.00  0.00     0.031 C 
ATOM     63  C   UNL A   1      42.564  30.566  32.450  1.00  0.00     0.037 A 
BRANCH  50  64
ATOM     64  C   UNL A   1      44.852  31.940  27.717  1.00  0.00     0.064 A 
ATOM     65  C   UNL A   1      46.033  32.158  26.985  1.00  0.00     0.173 A 
ATOM     66  C   UNL A   1      44.066  33.088  27.966  1.00  0.00     0.173 A 
ATOM     67  F   UNL A   1      46.868  31.143  26.722  1.00  0.00    -0.203 F 
ATOM     68  C   UNL A   1      46.426  33.440  26.593  1.00  0.00     0.198 A 
ATOM     69  C   UNL A   1      44.434  34.355  27.525  1.00  0.00     0.198 A 
ATOM     70  F   UNL A   1      42.977  33.063  28.743  1.00  0.00    -0.203 F 
ATOM     71  F   UNL A   1      47.619  33.617  26.010  1.00  0.00    -0.200 F 
ATOM     72  C   UNL A   1      45.629  34.537  26.866  1.00  0.00     0.200 A 
ATOM     73  F   UNL A   1      43.657  35.407  27.826  1.00  0.00    -0.200 F 
ATOM     74  F   UNL A   1      46.033  35.772  26.543  1.00  0.00    -0.200 F 
ENDBRANCH  50  64
BRANCH  51  75
ATOM     75  C   UNL A   1      36.904  31.572  31.092  1.00  0.00     0.064 A 
ATOM     76  C   UNL A   1      36.081  31.916  32.182  1.00  0.00     0.173 A 
ATOM     77  C   UNL A   1      36.566  32.163  29.858  1.00  0.00     0.173 A 
ATOM     78  F   UNL A   1      36.352  31.443  33.408  1.00  0.00    -0.203 F 
ATOM     79  C   UNL A   1      35.007  32.809  32.047  1.00  0.00     0.198 A 
ATOM     80  C   UNL A   1      35.497  33.052  29.725  1.00  0.00     0.198 A 
ATOM     81  F   UNL A   1      37.325  31.966  28.771  1.00  0.00    -0.203 F 
ATOM     82  F   UNL A   1      34.281  33.154  33.121  1.00  0.00    -0.200 F 
ATOM     83  C   UNL A   1      34.724  33.385  30.822  1.00  0.00     0.200 A 
ATOM     84  F   UNL A   1      35.261  33.633  28.539  1.00  0.00    -0.200 F 
ATOM     85  F   UNL A   1      33.740  34.288  30.701  1.00  0.00    -0.200 F 
ENDBRANCH  51  75
BRANCH  63  86
ATOM     86  C   UNL A   1      42.355  29.728  33.683  1.00  0.00     0.064 A 
ATOM     87  C   UNL A   1      41.817  28.428  33.682  1.00  0.00     0.173 A 
ATOM     88  C   UNL A   1      42.886  30.198  34.892  1.00  0.00     0.173 A 
ATOM     89  F   UNL A   1      41.386  27.862  32.548  1.00  0.00    -0.203 F 
ATOM     90  C   UNL A   1      41.779  27.658  34.846  1.00  0.00     0.198 A 
ATOM     91  C   UNL A   1      42.882  29.415  36.041  1.00  0.00     0.198 A 
ATOM     92  F   UNL A   1      43.468  31.407  34.941  1.00  0.00    -0.203 F 
ATOM     93  F   UNL A   1      41.258  26.422  34.819  1.00  0.00    -0.200 F 
ATOM     94  C   UNL A   1      42.318  28.150  36.023  1.00  0.00     0.200 A 
ATOM     95  F   UNL A   1      43.456  29.876  37.160  1.00  0.00    -0.200 F 
ATOM     96  F   UNL A   1      42.322  27.397  37.131  1.00  0.00    -0.200 F 
ENDBRANCH  63  86
ENDBRANCH  37  38
ENDBRANCH  30  32
ENDBRANCH  29  30
ENDBRANCH  28  29
ENDBRANCH  27  28
ENDBRANCH   1  27
TORSDOF 17
ENDMDL
MODEL 2
REMARK VINA RESULT:     -12.3      5.188     11.107
REMARK SMILES COc1ccccc1-n1nnc(C(=O)OCCOCCOC(=O)c2ccc(-c3c4nc(c(-c5c(F)c(F)c(F)c(F)c5F)c5ccc([nH]5)c(-c5c(F)c(F)c(F)c(F)c5F)c5nc(c(-c6c(F)c(F)c(F)c(F)c6F)c6ccc3[nH]6)C=C5)C=C4)cc2)c1-c1ccc(Cl)cc1
REMARK SMILES IDX 18 1 17 2 16 3 15 4 13 5 14 6 12 7 9 8 10 9 87 10 11 11 8 12
REMARK SMILES IDX 3 13 4 14 5 15 7 16 6 17 2 18 1 19 88 20 89 21 94 22 90 23
REMARK SMILES IDX 93 24 91 25 92 26 19 27 20 28 21 29 22 30 23 31 24 32 25 33
REMARK SMILES IDX 86 34 26 35 85 36 27 37 28 38 29 39 79 40 30 41 84 42 78 43
REMARK SMILES IDX 80 44 31 45 83 46 77 47 76 48 32 50 64 51 44 52 63 53 45 54
REMARK SMILES IDX 48 55 62 56 81 57 46 58 47 59 61 61 82 62 49 63 33 64 34 65
REMARK SMILES IDX 42 66 35 67 36 68 40 69 43 70 37 71 38 72 41 73 39 74 65 75
REMARK SMILES IDX 66 76 74 77 67 78 68 79 72 80 75 81 69 82 70 83 73 84 71 85
REMARK SMILES IDX 50 86 51 87 59 88 52 89 53 90 57 91 60 92 54 93 55 94 58 95
REMARK SMILES IDX 56 96
REMARK H PARENT 80 49 48 60
REMARK Flexibility Score: inf
ROOT
ATOM      1  O   UNL A   1      35.196  34.199  30.381  1.00  0.00    -0.374 OA
ENDROOT
BRANCH   1   2
ATOM      2  C   UNL A   1      34.741  34.316  31.729  1.00  0.00     0.202 C 
BRANCH   2   3
ATOM      3  C   UNL A   1      34.321  33.038  32.449  1.00  0.00     0.261 C 
BRANCH   3   4
ATOM      4  O   UNL A   1      35.198  32.766  33.544  1.00  0.00    -0.458 OA
BRANCH   4   5
ATOM      5  C   UNL A   1      36.273  31.966  33.305  1.00  0.00     0.361 C 
ATOM      6  O   UNL A   1      36.327  31.114  32.421  1.00  0.00    -0.244 OA
BRANCH   5   7
ATOM      7  C   UNL A   1      37.391  32.297  34.167  1.00  0.00     0.198 A 
ATOM      8  N   UNL A   1      39.171  33.144  35.057  1.00  0.00    -0.208 N 
ATOM      9  N   UNL A   1      38.599  32.350  35.990  1.00  0.00    -0.061 NA
ATOM     10  C   UNL A   1      38.573  32.941  33.824  1.00  0.00     0.109 A 
ATOM     11  N   UNL A   1      37.442  31.935  35.493  1.00  0.00    -0.122 NA
BRANCH   8  12
ATOM     12  C   UNL A   1      40.106  34.129  35.417  1.00  0.00     0.109 A 
ATOM     13  C   UNL A   1      41.413  33.772  35.775  1.00  0.00     0.144 A 
ATOM     14  C   UNL A   1      42.256  34.738  36.321  1.00  0.00     0.049 A 
ATOM     15  C   UNL A   1      41.816  36.057  36.458  1.00  0.00     0.004 A 
ATOM     16  C   UNL A   1      39.682  35.463  35.484  1.00  0.00     0.032 A 
ATOM     17  C   UNL A   1      40.540  36.421  36.027  1.00  0.00     0.003 A 
BRANCH  13  18
ATOM     18  O   UNL A   1      41.932  32.507  35.681  1.00  0.00    -0.494 OA
ATOM     19  C   UNL A   1      42.218  31.903  36.946  1.00  0.00     0.278 C 
ENDBRANCH  13  18
ENDBRANCH   8  12
BRANCH  10  20
ATOM     20  C   UNL A   1      39.107  33.391  32.539  1.00  0.00     0.003 A 
ATOM     21  C   UNL A   1      40.352  32.935  32.085  1.00  0.00     0.012 A 
ATOM     22  C   UNL A   1      38.416  34.344  31.779  1.00  0.00     0.012 A 
ATOM     23  C   UNL A   1      40.935  33.481  30.941  1.00  0.00     0.021 A 
ATOM     24  C   UNL A   1      38.992  34.879  30.623  1.00  0.00     0.021 A 
ATOM     25  C   UNL A   1      40.259  34.464  30.225  1.00  0.00     0.041 A 
ATOM     26  Cl  UNL A   1      41.002  35.188  28.853  1.00  0.00    -0.084 Cl
ENDBRANCH  10  20
ENDBRANCH   5   7
ENDBRANCH   4   5
ENDBRANCH   3   4
ENDBRANCH   2   3
ENDBRANCH   1   2
BRANCH   1  27
ATOM     27  C   UNL A   1      34.375  34.619  29.297  1.00  0.00     0.202 C 
BRANCH  27  28
ATOM     28  C   UNL A   1      34.512  33.907  27.961  1.00  0.00     0.261 C 
BRANCH  28  29
ATOM     29  O   UNL A   1      35.681  33.106  27.880  1.00  0.00    -0.460 OA
BRANCH  29  30
ATOM     30  C   UNL A   1      35.421  31.779  27.856  1.00  0.00     0.338 C 
ATOM     31  O   UNL A   1      34.465  31.218  27.350  1.00  0.00    -0.246 OA
BRANCH  30  32
ATOM     32  C   UNL A   1      36.376  31.105  28.737  1.00  0.00     0.060 A 
ATOM     33  C   UNL A   1      37.479  31.856  29.143  1.00  0.00     0.016 A 
ATOM     34  C   UNL A   1      36.358  29.706  28.812  1.00  0.00     0.016 A 
ATOM     35  C   UNL A   1      38.664  31.188  29.341  1.00  0.00     0.010 A 
ATOM     36  C   UNL A   1      37.531  29.040  29.047  1.00  0.00     0.010 A 
ATOM     37  C   UNL A   1      38.688  29.796  29.171  1.00  0.00    -0.014 A 
BRANCH  37  38
ATOM     38  C   UNL A   1      39.946  29.100  29.295  1.00  0.00     0.031 A 
ATOM     39  C   UNL A   1      40.282  28.900  30.719  1.00  0.00     0.074 A 
ATOM     40  C   UNL A   1      40.651  28.640  28.242  1.00  0.00     0.049 A 
ATOM     41  N   UNL A   1      41.196  29.526  31.377  1.00  0.00    -0.248 NA
ATOM     42  C   UNL A   1      39.344  28.139  31.562  1.00  0.00     0.031 C 
ATOM     43  C   UNL A   1      40.306  28.626  26.818  1.00  0.00     0.029 A 
ATOM     44  N   UNL A   1      41.856  28.000  28.263  1.00  0.00    -0.354 N 
ATOM     45  C   UNL A   1      41.095  29.059  32.678  1.00  0.00     0.074 A 
ATOM     46  C   UNL A   1      39.821  28.400  32.780  1.00  0.00     0.031 C 
ATOM     47  C   UNL A   1      41.152  27.799  26.156  1.00  0.00     0.029 A 
ATOM     48  C   UNL A   1      42.174  27.336  27.074  1.00  0.00     0.049 A 
ATOM     49  H   UNL A   1      42.450  28.008  29.048  1.00  0.00     0.167 HD
ATOM     50  C   UNL A   1      42.206  28.988  33.457  1.00  0.00     0.037 A 
ATOM     51  C   UNL A   1      43.177  26.423  26.945  1.00  0.00     0.037 A 
ATOM     52  C   UNL A   1      43.244  29.852  32.947  1.00  0.00     0.049 A 
ATOM     53  C   UNL A   1      44.142  26.697  28.052  1.00  0.00     0.074 A 
ATOM     54  C   UNL A   1      43.320  31.212  32.708  1.00  0.00     0.029 A 
ATOM     55  N   UNL A   1      44.231  29.281  32.178  1.00  0.00    -0.354 N 
ATOM     56  N   UNL A   1      44.849  27.794  28.113  1.00  0.00    -0.248 NA
ATOM     57  C   UNL A   1      43.882  26.040  29.329  1.00  0.00     0.031 C 
ATOM     58  C   UNL A   1      43.981  31.328  31.450  1.00  0.00     0.029 A 
ATOM     59  C   UNL A   1      44.379  30.052  31.050  1.00  0.00     0.049 A 
ATOM     60  H   UNL A   1      44.740  28.467  32.395  1.00  0.00     0.167 HD
ATOM     61  C   UNL A   1      44.740  28.204  29.434  1.00  0.00     0.074 A 
ATOM     62  C   UNL A   1      44.146  27.068  30.143  1.00  0.00     0.031 C 
ATOM     63  C   UNL A   1      44.829  29.520  29.787  1.00  0.00     0.037 A 
BRANCH  50  64
ATOM     64  C   UNL A   1      42.478  27.839  34.388  1.00  0.00     0.064 A 
ATOM     65  C   UNL A   1      43.068  26.673  33.871  1.00  0.00     0.173 A 
ATOM     66  C   UNL A   1      41.919  27.721  35.681  1.00  0.00     0.173 A 
ATOM     67  F   UNL A   1      43.598  26.665  32.639  1.00  0.00    -0.203 F 
ATOM     68  C   UNL A   1      43.039  25.464  34.571  1.00  0.00     0.198 A 
ATOM     69  C   UNL A   1      41.942  26.530  36.398  1.00  0.00     0.198 A 
ATOM     70  F   UNL A   1      41.224  28.707  36.260  1.00  0.00    -0.203 F 
ATOM     71  F   UNL A   1      43.500  24.350  33.989  1.00  0.00    -0.200 F 
ATOM     72  C   UNL A   1      42.474  25.393  35.832  1.00  0.00     0.200 A 
ATOM     73  F   UNL A   1      41.364  26.479  37.608  1.00  0.00    -0.200 F 
ATOM     74  F   UNL A   1      42.394  24.224  36.479  1.00  0.00    -0.200 F 
ENDBRANCH  50  64
BRANCH  51  75
ATOM     75  C   UNL A   1      43.153  25.127  26.211  1.00  0.00     0.064 A 
ATOM     76  C   UNL A   1      44.095  24.827  25.207  1.00  0.00     0.173 A 
ATOM     77  C   UNL A   1      42.387  24.040  26.677  1.00  0.00     0.173 A 
ATOM     78  F   UNL A   1      44.905  25.785  24.733  1.00  0.00    -0.203 F 
ATOM     79  C   UNL A   1      44.270  23.522  24.722  1.00  0.00     0.198 A 
ATOM     80  C   UNL A   1      42.563  22.741  26.194  1.00  0.00     0.198 A 
ATOM     81  F   UNL A   1      41.516  24.196  27.683  1.00  0.00    -0.203 F 
ATOM     82  F   UNL A   1      45.216  23.267  23.805  1.00  0.00    -0.200 F 
ATOM     83  C   UNL A   1      43.513  22.479  25.224  1.00  0.00     0.200 A 
ATOM     84  F   UNL A   1      41.850  21.736  26.721  1.00  0.00    -0.200 F 
ATOM     85  F   UNL A   1      43.722  21.221  24.811  1.00  0.00    -0.200 F 
ENDBRANCH  51  75
BRANCH  63  86
ATOM     86  C   UNL A   1      45.239  30.520  28.739  1.00  0.00     0.064 A 
ATOM     87  C   UNL A   1      44.352  31.152  27.848  1.00  0.00     0.173 A 
ATOM     88  C   UNL A   1      46.561  30.985  28.761  1.00  0.00     0.173 A 
ATOM     89  F   UNL A   1      43.050  30.842  27.839  1.00  0.00    -0.203 F 
ATOM     90  C   UNL A   1      44.783  32.169  26.995  1.00  0.00     0.198 A 
ATOM     91  C   UNL A   1      46.979  32.025  27.937  1.00  0.00     0.198 A 
ATOM     92  F   UNL A   1      47.439  30.464  29.631  1.00  0.00    -0.203 F 
ATOM     93  F   UNL A   1      43.917  32.754  26.153  1.00  0.00    -0.200 F 
ATOM     94  C   UNL A   1      46.095  32.610  27.046  1.00  0.00     0.200 A 
ATOM     95  F   UNL A   1      48.234  32.483  28.032  1.00  0.00    -0.200 F 
ATOM     96  F   UNL A   1      46.500  33.616  26.259  1.00  0.00    -0.200 F 
ENDBRANCH  63  86
ENDBRANCH  37  38
ENDBRANCH  30  32
ENDBRANCH  29  30
ENDBRANCH  28  29
ENDBRANCH  27  28
ENDBRANCH   1  27
TORSDOF 17
ENDMDL
MODEL 3
REMARK VINA RESULT:     -12.2      3.214      8.526
REMARK SMILES COc1ccccc1-n1nnc(C(=O)OCCOCCOC(=O)c2ccc(-c3c4nc(c(-c5c(F)c(F)c(F)c(F)c5F)c5ccc([nH]5)c(-c5c(F)c(F)c(F)c(F)c5F)c5nc(c(-c6c(F)c(F)c(F)c(F)c6F)c6ccc3[nH]6)C=C5)C=C4)cc2)c1-c1ccc(Cl)cc1
REMARK SMILES IDX 18 1 17 2 16 3 15 4 13 5 14 6 12 7 9 8 10 9 87 10 11 11 8 12
REMARK SMILES IDX 3 13 4 14 5 15 7 16 6 17 2 18 1 19 88 20 89 21 94 22 90 23
REMARK SMILES IDX 93 24 91 25 92 26 19 27 20 28 21 29 22 30 23 31 24 32 25 33
REMARK SMILES IDX 86 34 26 35 85 36 27 37 28 38 29 39 79 40 30 41 84 42 78 43
REMARK SMILES IDX 80 44 31 45 83 46 77 47 76 48 32 50 64 51 44 52 63 53 45 54
REMARK SMILES IDX 48 55 62 56 81 57 46 58 47 59 61 61 82 62 49 63 33 64 34 65
REMARK SMILES IDX 42 66 35 67 36 68 40 69 43 70 37 71 38 72 41 73 39 74 65 75
REMARK SMILES IDX 66 76 74 77 67 78 68 79 72 80 75 81 69 82 70 83 73 84 71 85
REMARK SMILES IDX 50 86 51 87 59 88 52 89 53 90 57 91 60 92 54 93 55 94 58 95
REMARK SMILES IDX 56 96
REMARK H PARENT 80 49 48 60
REMARK Flexibility Score: inf
ROOT
ATOM      1  O   UNL A   1      33.383  29.136  27.368  1.00  0.00    -0.374 OA
ENDROOT
BRANCH   1   2
ATOM      2  C   UNL A   1      32.053  28.623  27.320  1.00  0.00     0.202 C 
BRANCH   2   3
ATOM      3  C   UNL A   1      31.819  27.330  26.544  1.00  0.00     0.261 C 
BRANCH   3   4
ATOM      4  O   UNL A   1      33.052  26.823  26.028  1.00  0.00    -0.458 OA
BRANCH   4   5
ATOM      5  C   UNL A   1      33.216  26.827  24.677  1.00  0.00     0.361 C 
ATOM      6  O   UNL A   1      33.782  27.715  24.045  1.00  0.00    -0.244 OA
BRANCH   5   7
ATOM      7  C   UNL A   1      32.717  25.607  24.072  1.00  0.00     0.198 A 
ATOM      8  N   UNL A   1      32.351  23.559  23.481  1.00  0.00    -0.208 N 
ATOM      9  N   UNL A   1      31.358  24.308  22.953  1.00  0.00    -0.061 NA
ATOM     10  C   UNL A   1      33.352  24.375  23.983  1.00  0.00     0.109 A 
ATOM     11  N   UNL A   1      31.507  25.540  23.421  1.00  0.00    -0.122 NA
BRANCH   8  12
ATOM     12  C   UNL A   1      32.215  22.167  23.619  1.00  0.00     0.109 A 
ATOM     13  C   UNL A   1      32.170  21.580  24.891  1.00  0.00     0.144 A 
ATOM     14  C   UNL A   1      32.241  20.192  25.001  1.00  0.00     0.049 A 
ATOM     15  C   UNL A   1      32.301  19.399  23.853  1.00  0.00     0.004 A 
ATOM     16  C   UNL A   1      32.202  21.376  22.462  1.00  0.00     0.032 A 
ATOM     17  C   UNL A   1      32.266  19.988  22.588  1.00  0.00     0.003 A 
BRANCH  13  18
ATOM     18  O   UNL A   1      32.115  22.274  26.071  1.00  0.00    -0.494 OA
ATOM     19  C   UNL A   1      30.820  22.807  26.369  1.00  0.00     0.278 C 
ENDBRANCH  13  18
ENDBRANCH   8  12
BRANCH  10  20
ATOM     20  C   UNL A   1      34.696  23.936  24.357  1.00  0.00     0.003 A 
ATOM     21  C   UNL A   1      35.533  23.321  23.416  1.00  0.00     0.012 A 
ATOM     22  C   UNL A   1      35.138  24.055  25.681  1.00  0.00     0.012 A 
ATOM     23  C   UNL A   1      36.749  22.759  23.805  1.00  0.00     0.021 A 
ATOM     24  C   UNL A   1      36.365  23.507  26.069  1.00  0.00     0.021 A 
ATOM     25  C   UNL A   1      37.151  22.840  25.135  1.00  0.00     0.041 A 
ATOM     26  Cl  UNL A   1      38.617  22.091  25.634  1.00  0.00    -0.084 Cl
ENDBRANCH  10  20
ENDBRANCH   5   7
ENDBRANCH   4   5
ENDBRANCH   3   4
ENDBRANCH   2   3
ENDBRANCH   1   2
BRANCH   1  27
ATOM     27  C   UNL A   1      33.694  30.405  26.803  1.00  0.00     0.202 C 
BRANCH  27  28
ATOM     28  C   UNL A   1      33.450  31.653  27.635  1.00  0.00     0.261 C 
BRANCH  28  29
ATOM     29  O   UNL A   1      34.284  31.724  28.781  1.00  0.00    -0.460 OA
BRANCH  29  30
ATOM     30  C   UNL A   1      35.519  32.209  28.516  1.00  0.00     0.338 C 
ATOM     31  O   UNL A   1      35.838  32.990  27.635  1.00  0.00    -0.246 OA
BRANCH  30  32
ATOM     32  C   UNL A   1      36.488  31.475  29.330  1.00  0.00     0.060 A 
ATOM     33  C   UNL A   1      37.638  32.171  29.700  1.00  0.00     0.016 A 
ATOM     34  C   UNL A   1      36.417  30.075  29.371  1.00  0.00     0.016 A 
ATOM     35  C   UNL A   1      38.804  31.452  29.821  1.00  0.00     0.010 A 
ATOM     36  C   UNL A   1      37.573  29.359  29.530  1.00  0.00     0.010 A 
ATOM     37  C   UNL A   1      38.764  30.065  29.616  1.00  0.00    -0.014 A 
BRANCH  37  38
ATOM     38  C   UNL A   1      39.998  29.318  29.659  1.00  0.00     0.031 A 
ATOM     39  C   UNL A   1      40.465  29.182  31.052  1.00  0.00     0.074 A 
ATOM     40  C   UNL A   1      40.574  28.767  28.572  1.00  0.00     0.049 A 
ATOM     41  N   UNL A   1      41.465  29.799  31.580  1.00  0.00    -0.248 NA
ATOM     42  C   UNL A   1      39.584  28.516  32.027  1.00  0.00     0.031 C 
ATOM     43  C   UNL A   1      40.089  28.690  27.192  1.00  0.00     0.029 A 
ATOM     44  N   UNL A   1      41.747  28.073  28.515  1.00  0.00    -0.354 N 
ATOM     45  C   UNL A   1      41.475  29.411  32.911  1.00  0.00     0.074 A 
ATOM     46  C   UNL A   1      40.190  28.821  33.176  1.00  0.00     0.031 C 
ATOM     47  C   UNL A   1      40.830  27.788  26.502  1.00  0.00     0.029 A 
ATOM     48  C   UNL A   1      41.918  27.328  27.343  1.00  0.00     0.049 A 
ATOM     49  H   UNL A   1      42.416  28.095  29.236  1.00  0.00     0.167 HD
ATOM     50  C   UNL A   1      42.654  29.331  33.581  1.00  0.00     0.037 A 
ATOM     51  C   UNL A   1      42.863  26.363  27.172  1.00  0.00     0.037 A 
ATOM     52  C   UNL A   1      43.671  30.114  32.922  1.00  0.00     0.049 A 
ATOM     53  C   UNL A   1      43.944  26.651  28.163  1.00  0.00     0.074 A 
ATOM     54  C   UNL A   1      43.780  31.453  32.595  1.00  0.00     0.029 A 
ATOM     55  N   UNL A   1      44.551  29.455  32.097  1.00  0.00    -0.354 N 
ATOM     56  N   UNL A   1      44.700  27.715  28.089  1.00  0.00    -0.248 NA
ATOM     57  C   UNL A   1      43.785  26.080  29.496  1.00  0.00     0.031 C 
ATOM     58  C   UNL A   1      44.317  31.467  31.275  1.00  0.00     0.029 A 
ATOM     59  C   UNL A   1      44.619  30.154  30.916  1.00  0.00     0.049 A 
ATOM     60  H   UNL A   1      45.045  28.631  32.313  1.00  0.00     0.167 HD
ATOM     61  C   UNL A   1      44.740  28.203  29.387  1.00  0.00     0.074 A 
ATOM     62  C   UNL A   1      44.172  27.138  30.217  1.00  0.00     0.031 C 
ATOM     63  C   UNL A   1      44.919  29.531  29.649  1.00  0.00     0.037 A 
BRANCH  50  64
ATOM     64  C   UNL A   1      42.968  28.224  34.550  1.00  0.00     0.064 A 
ATOM     65  C   UNL A   1      43.393  28.560  35.848  1.00  0.00     0.173 A 
ATOM     66  C   UNL A   1      43.157  26.875  34.173  1.00  0.00     0.173 A 
ATOM     67  F   UNL A   1      43.290  29.820  36.294  1.00  0.00    -0.203 F 
ATOM     68  C   UNL A   1      44.019  27.627  36.678  1.00  0.00     0.198 A 
ATOM     69  C   UNL A   1      43.731  25.936  35.024  1.00  0.00     0.198 A 
ATOM     70  F   UNL A   1      42.910  26.430  32.937  1.00  0.00    -0.203 F 
ATOM     71  F   UNL A   1      44.521  28.021  37.856  1.00  0.00    -0.200 F 
ATOM     72  C   UNL A   1      44.191  26.318  36.265  1.00  0.00     0.200 A 
ATOM     73  F   UNL A   1      43.911  24.680  34.591  1.00  0.00    -0.200 F 
ATOM     74  F   UNL A   1      44.843  25.439  37.035  1.00  0.00    -0.200 F 
ENDBRANCH  50  64
BRANCH  51  75
ATOM     75  C   UNL A   1      42.712  25.030  26.523  1.00  0.00     0.064 A 
ATOM     76  C   UNL A   1      43.483  24.660  25.404  1.00  0.00     0.173 A 
ATOM     77  C   UNL A   1      42.017  23.985  27.162  1.00  0.00     0.173 A 
ATOM     78  F   UNL A   1      44.220  25.576  24.759  1.00  0.00    -0.203 F 
ATOM     79  C   UNL A   1      43.567  23.328  24.970  1.00  0.00     0.198 A 
ATOM     80  C   UNL A   1      42.102  22.659  26.730  1.00  0.00     0.198 A 
ATOM     81  F   UNL A   1      41.314  24.210  28.281  1.00  0.00    -0.203 F 
ATOM     82  F   UNL A   1      44.356  23.007  23.934  1.00  0.00    -0.200 F 
ATOM     83  C   UNL A   1      42.886  22.327  25.641  1.00  0.00     0.200 A 
ATOM     84  F   UNL A   1      41.468  21.696  27.416  1.00  0.00    -0.200 F 
ATOM     85  F   UNL A   1      43.015  21.045  25.271  1.00  0.00    -0.200 F 
ENDBRANCH  51  75
BRANCH  63  86
ATOM     86  C   UNL A   1      45.265  30.450  28.508  1.00  0.00     0.064 A 
ATOM     87  C   UNL A   1      44.320  31.100  27.693  1.00  0.00     0.173 A 
ATOM     88  C   UNL A   1      46.606  30.822  28.351  1.00  0.00     0.173 A 
ATOM     89  F   UNL A   1      43.008  30.883  27.852  1.00  0.00    -0.203 F 
ATOM     90  C   UNL A   1      44.710  32.045  26.742  1.00  0.00     0.198 A 
ATOM     91  C   UNL A   1      46.989  31.791  27.430  1.00  0.00     0.198 A 
ATOM     92  F   UNL A   1      47.547  30.281  29.142  1.00  0.00    -0.203 F 
ATOM     93  F   UNL A   1      43.789  32.649  25.975  1.00  0.00    -0.200 F 
ATOM     94  C   UNL A   1      46.044  32.394  26.617  1.00  0.00     0.200 A 
ATOM     95  F   UNL A   1      48.274  32.163  27.354  1.00  0.00    -0.200 F 
ATOM     96  F   UNL A   1      46.417  33.331  25.735  1.00  0.00    -0.200 F 
ENDBRANCH  63  86
ENDBRANCH  37  38
ENDBRANCH  30  32
ENDBRANCH  29  30
ENDBRANCH  28  29
ENDBRANCH  27  28
ENDBRANCH   1  27
TORSDOF 17
ENDMDL
