MODEL 1
REMARK VINA RESULT:     -12.2      0.000      0.000
REMARK SMILES CC1(C)C(NC(=O)N[C@]2(C(=O)OCCOCCOC(=O)c3ccc(-c4c5nc(c(-c6c(F)c(F)c(F)c(F)c6F)c6ccc([nH]6)c(-c6c(F)c(F)c(F)c(F)c6F)c6nc(c(-c7c(F)c(F)c(F)c(F)c7F)c7ccc4[nH]7)C=C6)C=C5)cc3)CC[C@@H](C)CC2)C1(C)C
REMARK SMILES IDX 15 1 14 2 13 3 12 4 10 5 11 6 9 7 87 8 86 9 88 10 85 11
REMARK SMILES IDX 89 12 84 13 8 14 6 15 7 17 5 18 4 20 2 21 90 22 1 23 3 24
REMARK SMILES IDX 91 25 92 26 16 27 17 28 18 29 19 30 20 31 21 32 22 33 83 34
REMARK SMILES IDX 23 35 82 36 24 37 25 38 26 39 76 40 27 41 81 42 75 43 77 44
REMARK SMILES IDX 28 45 80 46 74 47 73 48 29 50 61 51 41 52 60 53 42 54 45 55
REMARK SMILES IDX 59 56 78 57 43 58 44 59 58 61 79 62 46 63 30 64 31 65 39 66
REMARK SMILES IDX 32 67 33 68 37 69 40 70 34 71 35 72 38 73 36 74 62 75 63 76
REMARK SMILES IDX 71 77 64 78 65 79 69 80 72 81 66 82 67 83 70 84 68 85 47 86
REMARK SMILES IDX 48 87 56 88 49 89 50 90 54 91 57 92 51 93 52 94 55 95 53 96
REMARK H PARENT 8 16 5 19 77 49 45 60
REMARK Flexibility Score: inf
ROOT
ATOM      1  O   UNL A   1      33.159  31.206  27.508  1.00  0.00    -0.374 OA
ENDROOT
BRANCH   1   2
ATOM      2  C   UNL A   1      33.058  29.863  27.052  1.00  0.00     0.202 C 
BRANCH   2   3
ATOM      3  C   UNL A   1      31.928  28.862  27.362  1.00  0.00     0.261 C 
BRANCH   3   4
ATOM      4  O   UNL A   1      32.046  27.500  26.895  1.00  0.00    -0.461 OA
BRANCH   4   5
ATOM      5  C   UNL A   1      31.352  27.134  25.779  1.00  0.00     0.331 C 
ATOM      6  O   UNL A   1      30.789  27.940  25.049  1.00  0.00    -0.249 OA
BRANCH   5   7
ATOM      7  C   UNL A   1      31.580  25.639  25.406  1.00  0.00     0.139 C 
ATOM      8  C   UNL A   1      33.614  27.707  22.326  1.00  0.00     0.007 C 
ATOM      9  C   UNL A   1      33.323  26.378  23.042  1.00  0.00    -0.014 C 
ATOM     10  C   UNL A   1      31.828  26.042  22.878  1.00  0.00     0.006 C 
ATOM     11  C   UNL A   1      33.856  26.427  24.486  1.00  0.00     0.006 C 
ATOM     12  C   UNL A   1      31.215  25.185  23.982  1.00  0.00     0.041 C 
ATOM     13  C   UNL A   1      33.136  25.488  25.466  1.00  0.00     0.041 C 
BRANCH   7  14
ATOM     14  N   UNL A   1      30.975  24.726  26.402  1.00  0.00    -0.322 N 
ATOM     15  C   UNL A   1      30.885  23.397  26.568  1.00  0.00     0.315 C 
ATOM     16  H   UNL A   1      30.526  25.218  27.127  1.00  0.00     0.166 HD
ATOM     17  O   UNL A   1      30.367  23.012  27.623  1.00  0.00    -0.249 OA
ATOM     18  N   UNL A   1      31.272  22.452  25.684  1.00  0.00    -0.334 N 
ATOM     19  H   UNL A   1      31.059  21.540  25.989  1.00  0.00     0.165 HD
BRANCH  18  20
ATOM     20  C   UNL A   1      31.918  22.469  24.411  1.00  0.00     0.096 C 
ATOM     21  C   UNL A   1      33.419  22.164  24.178  1.00  0.00    -0.007 C 
ATOM     22  C   UNL A   1      32.346  21.190  23.728  1.00  0.00    -0.007 C 
ATOM     23  C   UNL A   1      34.127  22.955  23.086  1.00  0.00     0.014 C 
ATOM     24  C   UNL A   1      34.389  21.596  25.181  1.00  0.00     0.014 C 
ATOM     25  C   UNL A   1      32.153  19.882  24.484  1.00  0.00     0.014 C 
ATOM     26  C   UNL A   1      32.154  21.080  22.245  1.00  0.00     0.014 C 
ENDBRANCH  18  20
ENDBRANCH   7  14
ENDBRANCH   5   7
ENDBRANCH   4   5
ENDBRANCH   3   4
ENDBRANCH   2   3
ENDBRANCH   1   2
BRANCH   1  27
ATOM     27  C   UNL A   1      32.253  32.271  27.256  1.00  0.00     0.202 C 
BRANCH  27  28
ATOM     28  C   UNL A   1      32.779  33.686  27.510  1.00  0.00     0.261 C 
BRANCH  28  29
ATOM     29  O   UNL A   1      32.561  34.125  28.855  1.00  0.00    -0.460 OA
BRANCH  29  30
ATOM     30  C   UNL A   1      33.529  34.926  29.356  1.00  0.00     0.338 C 
ATOM     31  O   UNL A   1      33.401  36.068  29.763  1.00  0.00    -0.246 OA
BRANCH  30  32
ATOM     32  C   UNL A   1      34.696  34.053  29.611  1.00  0.00     0.060 A 
ATOM     33  C   UNL A   1      34.463  32.835  30.264  1.00  0.00     0.016 A 
ATOM     34  C   UNL A   1      35.957  34.334  29.062  1.00  0.00     0.016 A 
ATOM     35  C   UNL A   1      35.486  31.895  30.368  1.00  0.00     0.010 A 
ATOM     36  C   UNL A   1      36.997  33.413  29.208  1.00  0.00     0.010 A 
ATOM     37  C   UNL A   1      36.769  32.205  29.889  1.00  0.00    -0.014 A 
BRANCH  37  38
ATOM     38  C   UNL A   1      37.910  31.442  30.442  1.00  0.00     0.031 A 
ATOM     39  C   UNL A   1      38.273  31.751  31.868  1.00  0.00     0.074 A 
ATOM     40  C   UNL A   1      38.555  30.481  29.759  1.00  0.00     0.049 A 
ATOM     41  N   UNL A   1      39.174  31.205  32.639  1.00  0.00    -0.248 NA
ATOM     42  C   UNL A   1      37.487  32.815  32.523  1.00  0.00     0.031 C 
ATOM     43  C   UNL A   1      38.258  30.052  28.396  1.00  0.00     0.029 A 
ATOM     44  N   UNL A   1      39.607  29.685  30.143  1.00  0.00    -0.354 N 
ATOM     45  C   UNL A   1      39.040  31.837  33.867  1.00  0.00     0.074 A 
ATOM     46  C   UNL A   1      37.995  32.824  33.741  1.00  0.00     0.031 C 
ATOM     47  C   UNL A   1      39.118  29.074  28.052  1.00  0.00     0.029 A 
ATOM     48  C   UNL A   1      40.040  28.828  29.161  1.00  0.00     0.049 A 
ATOM     49  H   UNL A   1      40.012  29.724  31.038  1.00  0.00     0.167 HD
ATOM     50  C   UNL A   1      39.730  31.616  35.007  1.00  0.00     0.037 A 
ATOM     51  C   UNL A   1      41.075  27.964  29.164  1.00  0.00     0.037 A 
ATOM     52  C   UNL A   1      40.806  30.677  35.120  1.00  0.00     0.049 A 
ATOM     53  C   UNL A   1      41.917  27.830  30.414  1.00  0.00     0.074 A 
ATOM     54  C   UNL A   1      41.588  30.393  36.222  1.00  0.00     0.029 A 
ATOM     55  N   UNL A   1      41.267  29.886  34.079  1.00  0.00    -0.354 N 
ATOM     56  N   UNL A   1      41.768  28.406  31.583  1.00  0.00    -0.248 NA
ATOM     57  C   UNL A   1      43.073  26.923  30.342  1.00  0.00     0.031 C 
ATOM     58  C   UNL A   1      42.569  29.478  35.830  1.00  0.00     0.029 A 
ATOM     59  C   UNL A   1      42.354  29.141  34.502  1.00  0.00     0.049 A 
ATOM     60  H   UNL A   1      40.880  29.858  33.174  1.00  0.00     0.167 HD
ATOM     61  C   UNL A   1      42.791  27.917  32.387  1.00  0.00     0.074 A 
ATOM     62  C   UNL A   1      43.543  26.980  31.580  1.00  0.00     0.031 C 
ATOM     63  C   UNL A   1      43.085  28.214  33.678  1.00  0.00     0.037 A 
BRANCH  50  64
ATOM     64  C   UNL A   1      39.371  32.459  36.193  1.00  0.00     0.064 A 
ATOM     65  C   UNL A   1      38.417  32.043  37.133  1.00  0.00     0.173 A 
ATOM     66  C   UNL A   1      39.988  33.703  36.384  1.00  0.00     0.173 A 
ATOM     67  F   UNL A   1      37.774  30.875  36.974  1.00  0.00    -0.203 F 
ATOM     68  C   UNL A   1      38.080  32.853  38.213  1.00  0.00     0.198 A 
ATOM     69  C   UNL A   1      39.670  34.497  37.481  1.00  0.00     0.198 A 
ATOM     70  F   UNL A   1      40.894  34.151  35.501  1.00  0.00    -0.203 F 
ATOM     71  F   UNL A   1      37.129  32.461  39.073  1.00  0.00    -0.200 F 
ATOM     72  C   UNL A   1      38.713  34.074  38.391  1.00  0.00     0.200 A 
ATOM     73  F   UNL A   1      40.285  35.675  37.652  1.00  0.00    -0.200 F 
ATOM     74  F   UNL A   1      38.393  34.850  39.435  1.00  0.00    -0.200 F 
ENDBRANCH  50  64
BRANCH  51  75
ATOM     75  C   UNL A   1      41.414  27.185  27.940  1.00  0.00     0.064 A 
ATOM     76  C   UNL A   1      40.918  25.888  27.736  1.00  0.00     0.173 A 
ATOM     77  C   UNL A   1      42.291  27.701  26.975  1.00  0.00     0.173 A 
ATOM     78  F   UNL A   1      40.104  25.331  28.645  1.00  0.00    -0.203 F 
ATOM     79  C   UNL A   1      41.305  25.134  26.628  1.00  0.00     0.198 A 
ATOM     80  C   UNL A   1      42.652  26.958  25.852  1.00  0.00     0.198 A 
ATOM     81  F   UNL A   1      42.808  28.929  27.126  1.00  0.00    -0.203 F 
ATOM     82  F   UNL A   1      40.864  23.875  26.490  1.00  0.00    -0.200 F 
ATOM     83  C   UNL A   1      42.166  25.670  25.685  1.00  0.00     0.200 A 
ATOM     84  F   UNL A   1      43.482  27.485  24.942  1.00  0.00    -0.200 F 
ATOM     85  F   UNL A   1      42.543  24.944  24.624  1.00  0.00    -0.200 F 
ENDBRANCH  51  75
BRANCH  63  86
ATOM     86  C   UNL A   1      44.252  27.507  34.308  1.00  0.00     0.064 A 
ATOM     87  C   UNL A   1      44.115  26.246  34.905  1.00  0.00     0.173 A 
ATOM     88  C   UNL A   1      45.537  28.072  34.254  1.00  0.00     0.173 A 
ATOM     89  F   UNL A   1      42.908  25.667  34.989  1.00  0.00    -0.203 F 
ATOM     90  C   UNL A   1      45.215  25.588  35.448  1.00  0.00     0.198 A 
ATOM     91  C   UNL A   1      46.640  27.396  34.767  1.00  0.00     0.198 A 
ATOM     92  F   UNL A   1      45.725  29.270  33.681  1.00  0.00    -0.203 F 
ATOM     93  F   UNL A   1      45.053  24.404  36.055  1.00  0.00    -0.200 F 
ATOM     94  C   UNL A   1      46.477  26.159  35.370  1.00  0.00     0.200 A 
ATOM     95  F   UNL A   1      47.861  27.940  34.671  1.00  0.00    -0.200 F 
ATOM     96  F   UNL A   1      47.537  25.517  35.881  1.00  0.00    -0.200 F 
ENDBRANCH  63  86
ENDBRANCH  37  38
ENDBRANCH  30  32
ENDBRANCH  29  30
ENDBRANCH  28  29
ENDBRANCH  27  28
ENDBRANCH   1  27
TORSDOF 16
ENDMDL
MODEL 2
REMARK VINA RESULT:     -12.1      5.022     10.524
REMARK SMILES CC1(C)C(NC(=O)N[C@]2(C(=O)OCCOCCOC(=O)c3ccc(-c4c5nc(c(-c6c(F)c(F)c(F)c(F)c6F)c6ccc([nH]6)c(-c6c(F)c(F)c(F)c(F)c6F)c6nc(c(-c7c(F)c(F)c(F)c(F)c7F)c7ccc4[nH]7)C=C6)C=C5)cc3)CC[C@@H](C)CC2)C1(C)C
REMARK SMILES IDX 15 1 14 2 13 3 12 4 10 5 11 6 9 7 87 8 86 9 88 10 85 11
REMARK SMILES IDX 89 12 84 13 8 14 6 15 7 17 5 18 4 20 2 21 90 22 1 23 3 24
REMARK SMILES IDX 91 25 92 26 16 27 17 28 18 29 19 30 20 31 21 32 22 33 83 34
REMARK SMILES IDX 23 35 82 36 24 37 25 38 26 39 76 40 27 41 81 42 75 43 77 44
REMARK SMILES IDX 28 45 80 46 74 47 73 48 29 50 61 51 41 52 60 53 42 54 45 55
REMARK SMILES IDX 59 56 78 57 43 58 44 59 58 61 79 62 46 63 30 64 31 65 39 66
REMARK SMILES IDX 32 67 33 68 37 69 40 70 34 71 35 72 38 73 36 74 62 75 63 76
REMARK SMILES IDX 71 77 64 78 65 79 69 80 72 81 66 82 67 83 70 84 68 85 47 86
REMARK SMILES IDX 48 87 56 88 49 89 50 90 54 91 57 92 51 93 52 94 55 95 53 96
REMARK H PARENT 8 16 5 19 77 49 45 60
REMARK Flexibility Score: inf
ROOT
ATOM      1  O   UNL A   1      37.399  21.029  25.608  1.00  0.00    -0.374 OA
ENDROOT
BRANCH   1   2
ATOM      2  C   UNL A   1      36.620  20.018  24.981  1.00  0.00     0.202 C 
BRANCH   2   3
ATOM      3  C   UNL A   1      35.082  19.925  24.939  1.00  0.00     0.261 C 
BRANCH   3   4
ATOM      4  O   UNL A   1      34.298  20.906  25.654  1.00  0.00    -0.461 OA
BRANCH   4   5
ATOM      5  C   UNL A   1      33.122  21.323  25.103  1.00  0.00     0.331 C 
ATOM      6  O   UNL A   1      32.312  20.557  24.598  1.00  0.00    -0.249 OA
BRANCH   5   7
ATOM      7  C   UNL A   1      32.818  22.817  25.425  1.00  0.00     0.139 C 
ATOM      8  C   UNL A   1      36.324  23.047  23.069  1.00  0.00     0.007 C 
ATOM      9  C   UNL A   1      35.142  23.771  23.732  1.00  0.00    -0.014 C 
ATOM     10  C   UNL A   1      35.258  23.615  25.261  1.00  0.00     0.006 C 
ATOM     11  C   UNL A   1      33.816  23.310  23.099  1.00  0.00     0.006 C 
ATOM     12  C   UNL A   1      33.944  23.669  26.036  1.00  0.00     0.041 C 
ATOM     13  C   UNL A   1      32.588  23.449  24.012  1.00  0.00     0.041 C 
BRANCH   7  14
ATOM     14  N   UNL A   1      31.578  22.966  26.220  1.00  0.00    -0.322 N 
ATOM     15  C   UNL A   1      30.857  23.989  26.707  1.00  0.00     0.315 C 
ATOM     16  H   UNL A   1      31.181  22.095  26.448  1.00  0.00     0.166 HD
ATOM     17  O   UNL A   1      29.788  23.692  27.251  1.00  0.00    -0.249 OA
ATOM     18  N   UNL A   1      31.205  25.294  26.688  1.00  0.00    -0.334 N 
ATOM     19  H   UNL A   1      30.553  25.865  27.153  1.00  0.00     0.165 HD
BRANCH  18  20
ATOM     20  C   UNL A   1      32.299  26.035  26.149  1.00  0.00     0.096 C 
ATOM     21  C   UNL A   1      32.173  27.135  25.065  1.00  0.00    -0.007 C 
ATOM     22  C   UNL A   1      32.514  27.490  26.500  1.00  0.00    -0.007 C 
ATOM     23  C   UNL A   1      33.300  27.241  24.047  1.00  0.00     0.014 C 
ATOM     24  C   UNL A   1      30.898  27.760  24.561  1.00  0.00     0.014 C 
ATOM     25  C   UNL A   1      31.470  28.171  27.375  1.00  0.00     0.014 C 
ATOM     26  C   UNL A   1      33.918  27.964  26.733  1.00  0.00     0.014 C 
ENDBRANCH  18  20
ENDBRANCH   7  14
ENDBRANCH   5   7
ENDBRANCH   4   5
ENDBRANCH   3   4
ENDBRANCH   2   3
ENDBRANCH   1   2
BRANCH   1  27
ATOM     27  C   UNL A   1      38.809  21.050  25.777  1.00  0.00     0.202 C 
BRANCH  27  28
ATOM     28  C   UNL A   1      39.557  19.763  25.419  1.00  0.00     0.261 C 
BRANCH  28  29
ATOM     29  O   UNL A   1      40.365  19.274  26.494  1.00  0.00    -0.460 OA
BRANCH  29  30
ATOM     30  C   UNL A   1      41.694  19.254  26.244  1.00  0.00     0.338 C 
ATOM     31  O   UNL A   1      42.319  18.386  25.658  1.00  0.00    -0.246 OA
BRANCH  30  32
ATOM     32  C   UNL A   1      42.188  20.619  26.529  1.00  0.00     0.060 A 
ATOM     33  C   UNL A   1      42.201  21.037  27.867  1.00  0.00     0.016 A 
ATOM     34  C   UNL A   1      42.797  21.402  25.536  1.00  0.00     0.016 A 
ATOM     35  C   UNL A   1      42.821  22.234  28.215  1.00  0.00     0.010 A 
ATOM     36  C   UNL A   1      43.377  22.626  25.877  1.00  0.00     0.010 A 
ATOM     37  C   UNL A   1      43.362  23.057  27.214  1.00  0.00    -0.014 A 
BRANCH  37  38
ATOM     38  C   UNL A   1      43.547  24.490  27.531  1.00  0.00     0.031 A 
ATOM     39  C   UNL A   1      44.941  25.025  27.342  1.00  0.00     0.074 A 
ATOM     40  C   UNL A   1      42.542  25.301  27.901  1.00  0.00     0.049 A 
ATOM     41  N   UNL A   1      45.393  26.243  27.475  1.00  0.00    -0.248 NA
ATOM     42  C   UNL A   1      45.961  24.047  26.920  1.00  0.00     0.031 C 
ATOM     43  C   UNL A   1      41.143  24.913  28.061  1.00  0.00     0.029 A 
ATOM     44  N   UNL A   1      42.558  26.640  28.206  1.00  0.00    -0.354 N 
ATOM     45  C   UNL A   1      46.735  26.176  27.125  1.00  0.00     0.074 A 
ATOM     46  C   UNL A   1      47.036  24.803  26.800  1.00  0.00     0.031 C 
ATOM     47  C   UNL A   1      40.435  25.992  28.446  1.00  0.00     0.029 A 
ATOM     48  C   UNL A   1      41.336  27.137  28.585  1.00  0.00     0.049 A 
ATOM     49  H   UNL A   1      43.371  27.193  28.158  1.00  0.00     0.167 HD
ATOM     50  C   UNL A   1      47.643  27.175  27.079  1.00  0.00     0.037 A 
ATOM     51  C   UNL A   1      41.000  28.372  29.009  1.00  0.00     0.037 A 
ATOM     52  C   UNL A   1      47.361  28.529  27.456  1.00  0.00     0.049 A 
ATOM     53  C   UNL A   1      42.067  29.443  29.074  1.00  0.00     0.074 A 
ATOM     54  C   UNL A   1      48.216  29.613  27.470  1.00  0.00     0.029 A 
ATOM     55  N   UNL A   1      46.130  28.975  27.911  1.00  0.00    -0.354 N 
ATOM     56  N   UNL A   1      43.327  29.385  28.714  1.00  0.00    -0.248 NA
ATOM     57  C   UNL A   1      41.662  30.753  29.608  1.00  0.00     0.031 C 
ATOM     58  C   UNL A   1      47.519  30.704  27.999  1.00  0.00     0.029 A 
ATOM     59  C   UNL A   1      46.212  30.314  28.250  1.00  0.00     0.049 A 
ATOM     60  H   UNL A   1      45.318  28.421  27.983  1.00  0.00     0.167 HD
ATOM     61  C   UNL A   1      43.855  30.648  28.953  1.00  0.00     0.074 A 
ATOM     62  C   UNL A   1      42.774  31.459  29.471  1.00  0.00     0.031 C 
ATOM     63  C   UNL A   1      45.120  31.100  28.763  1.00  0.00     0.037 A 
BRANCH  50  64
ATOM     64  C   UNL A   1      49.036  26.809  26.666  1.00  0.00     0.064 A 
ATOM     65  C   UNL A   1      49.996  26.387  27.597  1.00  0.00     0.173 A 
ATOM     66  C   UNL A   1      49.414  26.892  25.319  1.00  0.00     0.173 A 
ATOM     67  F   UNL A   1      49.691  26.325  28.903  1.00  0.00    -0.203 F 
ATOM     68  C   UNL A   1      51.291  26.077  27.195  1.00  0.00     0.198 A 
ATOM     69  C   UNL A   1      50.701  26.554  24.916  1.00  0.00     0.198 A 
ATOM     70  F   UNL A   1      48.535  27.308  24.394  1.00  0.00    -0.203 F 
ATOM     71  F   UNL A   1      52.209  25.725  28.107  1.00  0.00    -0.200 F 
ATOM     72  C   UNL A   1      51.641  26.152  25.855  1.00  0.00     0.200 A 
ATOM     73  F   UNL A   1      51.036  26.624  23.620  1.00  0.00    -0.200 F 
ATOM     74  F   UNL A   1      52.886  25.849  25.468  1.00  0.00    -0.200 F 
ENDBRANCH  50  64
BRANCH  51  75
ATOM     75  C   UNL A   1      39.608  28.667  29.452  1.00  0.00     0.064 A 
ATOM     76  C   UNL A   1      38.668  29.242  28.583  1.00  0.00     0.173 A 
ATOM     77  C   UNL A   1      39.206  28.434  30.776  1.00  0.00     0.173 A 
ATOM     78  F   UNL A   1      39.010  29.520  27.316  1.00  0.00    -0.203 F 
ATOM     79  C   UNL A   1      37.393  29.591  29.027  1.00  0.00     0.198 A 
ATOM     80  C   UNL A   1      37.921  28.754  31.210  1.00  0.00     0.198 A 
ATOM     81  F   UNL A   1      40.068  27.900  31.655  1.00  0.00    -0.203 F 
ATOM     82  F   UNL A   1      36.536  30.195  28.192  1.00  0.00    -0.200 F 
ATOM     83  C   UNL A   1      37.018  29.342  30.338  1.00  0.00     0.200 A 
ATOM     84  F   UNL A   1      37.564  28.506  32.478  1.00  0.00    -0.200 F 
ATOM     85  F   UNL A   1      35.796  29.682  30.766  1.00  0.00    -0.200 F 
ENDBRANCH  51  75
BRANCH  63  86
ATOM     86  C   UNL A   1      45.404  32.537  29.093  1.00  0.00     0.064 A 
ATOM     87  C   UNL A   1      45.165  33.566  28.171  1.00  0.00     0.173 A 
ATOM     88  C   UNL A   1      45.860  32.896  30.372  1.00  0.00     0.173 A 
ATOM     89  F   UNL A   1      44.738  33.278  26.933  1.00  0.00    -0.203 F 
ATOM     90  C   UNL A   1      45.397  34.898  28.508  1.00  0.00     0.198 A 
ATOM     91  C   UNL A   1      46.056  34.229  30.717  1.00  0.00     0.198 A 
ATOM     92  F   UNL A   1      46.090  31.951  31.297  1.00  0.00    -0.203 F 
ATOM     93  F   UNL A   1      45.206  35.861  27.595  1.00  0.00    -0.200 F 
ATOM     94  C   UNL A   1      45.832  35.228  29.783  1.00  0.00     0.200 A 
ATOM     95  F   UNL A   1      46.456  34.547  31.956  1.00  0.00    -0.200 F 
ATOM     96  F   UNL A   1      46.041  36.511  30.109  1.00  0.00    -0.200 F 
ENDBRANCH  63  86
ENDBRANCH  37  38
ENDBRANCH  30  32
ENDBRANCH  29  30
ENDBRANCH  28  29
ENDBRANCH  27  28
ENDBRANCH   1  27
TORSDOF 16
ENDMDL
MODEL 3
REMARK VINA RESULT:     -12.1      4.881     10.510
REMARK SMILES CC1(C)C(NC(=O)N[C@]2(C(=O)OCCOCCOC(=O)c3ccc(-c4c5nc(c(-c6c(F)c(F)c(F)c(F)c6F)c6ccc([nH]6)c(-c6c(F)c(F)c(F)c(F)c6F)c6nc(c(-c7c(F)c(F)c(F)c(F)c7F)c7ccc4[nH]7)C=C6)C=C5)cc3)CC[C@@H](C)CC2)C1(C)C
REMARK SMILES IDX 15 1 14 2 13 3 12 4 10 5 11 6 9 7 87 8 86 9 88 10 85 11
REMARK SMILES IDX 89 12 84 13 8 14 6 15 7 17 5 18 4 20 2 21 90 22 1 23 3 24
REMARK SMILES IDX 91 25 92 26 16 27 17 28 18 29 19 30 20 31 21 32 22 33 83 34
REMARK SMILES IDX 23 35 82 36 24 37 25 38 26 39 76 40 27 41 81 42 75 43 77 44
REMARK SMILES IDX 28 45 80 46 74 47 73 48 29 50 61 51 41 52 60 53 42 54 45 55
REMARK SMILES IDX 59 56 78 57 43 58 44 59 58 61 79 62 46 63 30 64 31 65 39 66
REMARK SMILES IDX 32 67 33 68 37 69 40 70 34 71 35 72 38 73 36 74 62 75 63 76
REMARK SMILES IDX 71 77 64 78 65 79 69 80 72 81 66 82 67 83 70 84 68 85 47 86
REMARK SMILES IDX 48 87 56 88 49 89 50 90 54 91 57 92 51 93 52 94 55 95 53 96
REMARK H PARENT 8 16 5 19 77 49 45 60
REMARK Flexibility Score: inf
ROOT
ATOM      1  O   UNL A   1      38.631  21.192  25.516  1.00  0.00    -0.374 OA
ENDROOT
BRANCH   1   2
ATOM      2  C   UNL A   1      37.459  21.965  25.288  1.00  0.00     0.202 C 
BRANCH   2   3
ATOM      3  C   UNL A   1      36.787  22.249  23.930  1.00  0.00     0.261 C 
BRANCH   3   4
ATOM      4  O   UNL A   1      35.681  23.176  23.872  1.00  0.00    -0.461 OA
BRANCH   4   5
ATOM      5  C   UNL A   1      34.412  22.676  23.902  1.00  0.00     0.331 C 
ATOM      6  O   UNL A   1      34.163  21.500  24.136  1.00  0.00    -0.249 OA
BRANCH   5   7
ATOM      7  C   UNL A   1      33.334  23.800  23.867  1.00  0.00     0.139 C 
ATOM      8  C   UNL A   1      33.021  22.305  27.812  1.00  0.00     0.007 C 
ATOM      9  C   UNL A   1      32.654  23.393  26.790  1.00  0.00    -0.014 C 
ATOM     10  C   UNL A   1      31.818  22.755  25.663  1.00  0.00     0.006 C 
ATOM     11  C   UNL A   1      33.918  24.157  26.353  1.00  0.00     0.006 C 
ATOM     12  C   UNL A   1      31.902  23.443  24.303  1.00  0.00     0.041 C 
ATOM     13  C   UNL A   1      33.827  24.803  24.962  1.00  0.00     0.041 C 
BRANCH   7  14
ATOM     14  N   UNL A   1      33.309  24.497  22.561  1.00  0.00    -0.322 N 
ATOM     15  C   UNL A   1      32.992  25.727  22.125  1.00  0.00     0.315 C 
ATOM     16  H   UNL A   1      33.599  23.910  21.825  1.00  0.00     0.166 HD
ATOM     17  O   UNL A   1      33.211  25.956  20.930  1.00  0.00    -0.249 OA
ATOM     18  N   UNL A   1      32.431  26.714  22.855  1.00  0.00    -0.334 N 
ATOM     19  H   UNL A   1      32.231  27.515  22.318  1.00  0.00     0.165 HD
BRANCH  18  20
ATOM     20  C   UNL A   1      32.060  26.866  24.226  1.00  0.00     0.096 C 
ATOM     21  C   UNL A   1      31.382  28.123  24.824  1.00  0.00    -0.007 C 
ATOM     22  C   UNL A   1      30.612  26.827  24.659  1.00  0.00    -0.007 C 
ATOM     23  C   UNL A   1      31.769  28.514  26.244  1.00  0.00     0.014 C 
ATOM     24  C   UNL A   1      30.805  29.286  24.058  1.00  0.00     0.014 C 
ATOM     25  C   UNL A   1      29.549  26.716  23.574  1.00  0.00     0.014 C 
ATOM     26  C   UNL A   1      30.271  26.110  25.931  1.00  0.00     0.014 C 
ENDBRANCH  18  20
ENDBRANCH   7  14
ENDBRANCH   5   7
ENDBRANCH   4   5
ENDBRANCH   3   4
ENDBRANCH   2   3
ENDBRANCH   1   2
BRANCH   1  27
ATOM     27  C   UNL A   1      38.791  19.793  25.329  1.00  0.00     0.202 C 
BRANCH  27  28
ATOM     28  C   UNL A   1      40.107  19.186  25.823  1.00  0.00     0.261 C 
BRANCH  28  29
ATOM     29  O   UNL A   1      40.687  19.925  26.903  1.00  0.00    -0.460 OA
BRANCH  29  30
ATOM     30  C   UNL A   1      41.974  20.296  26.711  1.00  0.00     0.338 C 
ATOM     31  O   UNL A   1      42.830  19.686  26.093  1.00  0.00    -0.246 OA
BRANCH  30  32
ATOM     32  C   UNL A   1      42.058  21.717  27.115  1.00  0.00     0.060 A 
ATOM     33  C   UNL A   1      41.582  22.676  26.211  1.00  0.00     0.016 A 
ATOM     34  C   UNL A   1      42.421  22.089  28.418  1.00  0.00     0.016 A 
ATOM     35  C   UNL A   1      41.467  24.007  26.606  1.00  0.00     0.010 A 
ATOM     36  C   UNL A   1      42.352  23.430  28.801  1.00  0.00     0.010 A 
ATOM     37  C   UNL A   1      41.903  24.395  27.883  1.00  0.00    -0.014 A 
BRANCH  37  38
ATOM     38  C   UNL A   1      42.236  25.822  28.089  1.00  0.00     0.031 A 
ATOM     39  C   UNL A   1      43.561  26.270  27.536  1.00  0.00     0.074 A 
ATOM     40  C   UNL A   1      41.400  26.699  28.670  1.00  0.00     0.049 A 
ATOM     41  N   UNL A   1      44.094  27.461  27.504  1.00  0.00    -0.248 NA
ATOM     42  C   UNL A   1      44.390  25.223  26.908  1.00  0.00     0.031 C 
ATOM     43  C   UNL A   1      40.070  26.398  29.191  1.00  0.00     0.029 A 
ATOM     44  N   UNL A   1      41.561  28.042  28.910  1.00  0.00    -0.354 N 
ATOM     45  C   UNL A   1      45.298  27.308  26.831  1.00  0.00     0.074 A 
ATOM     46  C   UNL A   1      45.437  25.912  26.492  1.00  0.00     0.031 C 
ATOM     47  C   UNL A   1      39.538  27.526  29.701  1.00  0.00     0.029 A 
ATOM     48  C   UNL A   1      40.502  28.619  29.565  1.00  0.00     0.049 A 
ATOM     49  H   UNL A   1      42.362  28.544  28.638  1.00  0.00     0.167 HD
ATOM     50  C   UNL A   1      46.214  28.250  26.520  1.00  0.00     0.037 A 
ATOM     51  C   UNL A   1      40.347  29.881  30.014  1.00  0.00     0.037 A 
ATOM     52  C   UNL A   1      46.107  29.627  26.904  1.00  0.00     0.049 A 
ATOM     53  C   UNL A   1      41.449  30.889  29.767  1.00  0.00     0.074 A 
ATOM     54  C   UNL A   1      46.991  30.659  26.661  1.00  0.00     0.029 A 
ATOM     55  N   UNL A   1      45.055  30.155  27.637  1.00  0.00    -0.354 N 
ATOM     56  N   UNL A   1      42.572  30.748  29.104  1.00  0.00    -0.248 NA
ATOM     57  C   UNL A   1      41.260  32.232  30.336  1.00  0.00     0.031 C 
ATOM     58  C   UNL A   1      46.508  31.801  27.307  1.00  0.00     0.029 A 
ATOM     59  C   UNL A   1      45.289  31.494  27.893  1.00  0.00     0.049 A 
ATOM     60  H   UNL A   1      44.262  29.652  27.932  1.00  0.00     0.167 HD
ATOM     61  C   UNL A   1      43.207  31.983  29.154  1.00  0.00     0.074 A 
ATOM     62  C   UNL A   1      42.336  32.869  29.896  1.00  0.00     0.031 C 
ATOM     63  C   UNL A   1      44.404  32.355  28.635  1.00  0.00     0.037 A 
BRANCH  50  64
ATOM     64  C   UNL A   1      47.436  27.793  25.783  1.00  0.00     0.064 A 
ATOM     65  C   UNL A   1      48.611  27.426  26.457  1.00  0.00     0.173 A 
ATOM     66  C   UNL A   1      47.432  27.732  24.383  1.00  0.00     0.173 A 
ATOM     67  F   UNL A   1      48.675  27.501  27.795  1.00  0.00    -0.203 F 
ATOM     68  C   UNL A   1      49.743  27.030  25.752  1.00  0.00     0.198 A 
ATOM     69  C   UNL A   1      48.556  27.308  23.683  1.00  0.00     0.198 A 
ATOM     70  F   UNL A   1      46.337  28.091  23.694  1.00  0.00    -0.203 F 
ATOM     71  F   UNL A   1      50.872  26.731  26.411  1.00  0.00    -0.200 F 
ATOM     72  C   UNL A   1      49.712  26.963  24.366  1.00  0.00     0.200 A 
ATOM     73  F   UNL A   1      48.523  27.241  22.344  1.00  0.00    -0.200 F 
ATOM     74  F   UNL A   1      50.801  26.576  23.689  1.00  0.00    -0.200 F 
ENDBRANCH  50  64
BRANCH  51  75
ATOM     75  C   UNL A   1      39.130  30.268  30.781  1.00  0.00     0.064 A 
ATOM     76  C   UNL A   1      38.053  30.923  30.166  1.00  0.00     0.173 A 
ATOM     77  C   UNL A   1      39.045  30.042  32.163  1.00  0.00     0.173 A 
ATOM     78  F   UNL A   1      38.096  31.197  28.854  1.00  0.00    -0.203 F 
ATOM     79  C   UNL A   1      36.953  31.355  30.906  1.00  0.00     0.198 A 
ATOM     80  C   UNL A   1      37.931  30.446  32.897  1.00  0.00     0.198 A 
ATOM     81  F   UNL A   1      40.053  29.434  32.807  1.00  0.00    -0.203 F 
ATOM     82  F   UNL A   1      35.966  32.033  30.303  1.00  0.00    -0.200 F 
ATOM     83  C   UNL A   1      36.890  31.112  32.269  1.00  0.00     0.200 A 
ATOM     84  F   UNL A   1      37.875  30.204  34.213  1.00  0.00    -0.200 F 
ATOM     85  F   UNL A   1      35.836  31.532  32.981  1.00  0.00    -0.200 F 
ENDBRANCH  51  75
BRANCH  63  86
ATOM     86  C   UNL A   1      44.835  33.781  28.828  1.00  0.00     0.064 A 
ATOM     87  C   UNL A   1      44.458  34.793  27.934  1.00  0.00     0.173 A 
ATOM     88  C   UNL A   1      45.581  34.150  29.960  1.00  0.00     0.173 A 
ATOM     89  F   UNL A   1      43.753  34.492  26.833  1.00  0.00    -0.203 F 
ATOM     90  C   UNL A   1      44.834  36.117  28.150  1.00  0.00     0.198 A 
ATOM     91  C   UNL A   1      45.924  35.478  30.191  1.00  0.00     0.198 A 
ATOM     92  F   UNL A   1      45.955  33.223  30.854  1.00  0.00    -0.203 F 
ATOM     93  F   UNL A   1      44.502  37.060  27.258  1.00  0.00    -0.200 F 
ATOM     94  C   UNL A   1      45.557  36.459  29.283  1.00  0.00     0.200 A 
ATOM     95  F   UNL A   1      46.605  35.810  31.297  1.00  0.00    -0.200 F 
ATOM     96  F   UNL A   1      45.906  37.735  29.496  1.00  0.00    -0.200 F 
ENDBRANCH  63  86
ENDBRANCH  37  38
ENDBRANCH  30  32
ENDBRANCH  29  30
ENDBRANCH  28  29
ENDBRANCH  27  28
ENDBRANCH   1  27
TORSDOF 16
ENDMDL
