MODEL 1
REMARK VINA RESULT:      -8.8      0.000      0.000
REMARK SMILES CC[C@@H](Oc1ccc(/C=C2\SC(=S)N(NC(=O)c3ccccc3O)C2=O)cc1)C(=O)OCCOCCOC(=O)c1ccc(-c2c3nc(c(-c4c(F)c(F)c(F)c(F)c4F)c4ccc([nH]4)c(-c4c(F)c(F)c(F)c(F)c4F)c4nc(c(-c5c(F)c(F)c(F)c(F)c5F)c5ccc2[nH]5)C=C4)C=C3)cc1
REMARK SMILES IDX 32 1 31 2 29 3 30 4 3 5 2 6 1 7 4 8 5 9 6 10 28 11 7 12
REMARK SMILES IDX 27 13 8 14 9 15 10 16 11 17 25 18 12 19 14 20 26 21 13 22
REMARK SMILES IDX 15 23 16 24 17 26 18 27 19 28 23 29 20 30 22 31 21 32 24 33
REMARK SMILES IDX 33 35 34 36 35 37 36 38 37 39 38 40 39 41 40 42 41 43 102 44
REMARK SMILES IDX 42 45 101 46 43 47 44 48 45 49 95 50 46 51 100 52 94 53
REMARK SMILES IDX 96 54 47 55 99 56 93 57 92 58 48 60 80 61 60 62 79 63 61 64
REMARK SMILES IDX 64 65 78 66 97 67 62 68 63 69 77 71 98 72 65 73 49 74 50 75
REMARK SMILES IDX 58 76 51 77 52 78 56 79 59 80 53 81 54 82 57 83 55 84 81 85
REMARK SMILES IDX 82 86 90 87 83 88 84 89 88 90 91 91 85 92 86 93 89 94 87 95
REMARK SMILES IDX 66 96 67 97 75 98 68 99 69 100 73 101 76 102 70 103 71 104
REMARK SMILES IDX 74 105 72 106
REMARK H PARENT 15 25 24 34 96 59 64 70
REMARK Flexibility Score: inf
ROOT
ATOM      1  C   UNL A   1      44.054  22.513  25.133  1.00  0.00     0.261 C 
ENDROOT
BRANCH   1   2
ATOM      2  O   UNL A   1      42.805  23.046  25.608  1.00  0.00    -0.461 OA
BRANCH   2   3
ATOM      3  C   UNL A   1      41.923  22.145  26.127  1.00  0.00     0.347 C 
ATOM      4  O   UNL A   1      42.160  20.953  26.297  1.00  0.00    -0.248 OA
BRANCH   3   5
ATOM      5  C   UNL A   1      40.579  22.779  26.473  1.00  0.00     0.282 C 
BRANCH   5   6
ATOM      6  C   UNL A   1      39.380  21.836  26.254  1.00  0.00     0.054 C 
ATOM      7  C   UNL A   1      38.152  22.588  25.751  1.00  0.00     0.008 C 
ENDBRANCH   5   6
BRANCH   5   8
ATOM      8  O   UNL A   1      40.692  23.157  27.856  1.00  0.00    -0.479 OA
BRANCH   8   9
ATOM      9  C   UNL A   1      40.693  24.515  27.999  1.00  0.00     0.120 A 
ATOM     10  C   UNL A   1      41.860  25.170  28.378  1.00  0.00     0.047 A 
ATOM     11  C   UNL A   1      39.511  25.222  27.834  1.00  0.00     0.047 A 
ATOM     12  C   UNL A   1      41.825  26.546  28.625  1.00  0.00     0.012 A 
ATOM     13  C   UNL A   1      39.497  26.600  28.019  1.00  0.00     0.012 A 
ATOM     14  C   UNL A   1      40.629  27.270  28.495  1.00  0.00    -0.024 A 
BRANCH  14  15
ATOM     15  C   UNL A   1      40.616  28.691  28.882  1.00  0.00     0.029 C 
ATOM     16  C   UNL A   1      40.473  29.218  30.109  1.00  0.00     0.082 C 
ATOM     17  S   UNL A   1      40.165  28.430  31.612  1.00  0.00    -0.052 SA
ATOM     18  C   UNL A   1      40.521  30.690  30.331  1.00  0.00     0.285 C 
ATOM     19  C   UNL A   1      39.631  29.909  32.379  1.00  0.00     0.168 C 
ATOM     20  N   UNL A   1      39.884  30.971  31.532  1.00  0.00    -0.198 N 
ATOM     21  O   UNL A   1      41.086  31.472  29.580  1.00  0.00    -0.266 OA
ATOM     22  S   UNL A   1      38.956  29.961  33.904  1.00  0.00    -0.050 S 
BRANCH  20  23
ATOM     23  N   UNL A   1      39.646  32.282  31.963  1.00  0.00    -0.254 N 
ATOM     24  C   UNL A   1      38.562  33.068  31.639  1.00  0.00     0.274 C 
ATOM     25  H   UNL A   1      40.321  32.684  32.556  1.00  0.00     0.192 HD
ATOM     26  O   UNL A   1      38.379  34.134  32.222  1.00  0.00    -0.267 OA
BRANCH  24  27
ATOM     27  C   UNL A   1      37.633  32.684  30.560  1.00  0.00     0.083 A 
ATOM     28  C   UNL A   1      36.901  31.507  30.764  1.00  0.00     0.018 A 
ATOM     29  C   UNL A   1      37.423  33.444  29.406  1.00  0.00     0.128 A 
ATOM     30  C   UNL A   1      35.927  31.122  29.844  1.00  0.00     0.001 A 
ATOM     31  C   UNL A   1      36.439  33.064  28.495  1.00  0.00     0.047 A 
ATOM     32  C   UNL A   1      35.689  31.905  28.716  1.00  0.00     0.004 A 
BRANCH  29  33
ATOM     33  O   UNL A   1      38.128  34.579  29.117  1.00  0.00    -0.507 OA
ATOM     34  H   UNL A   1      37.829  35.157  28.444  1.00  0.00     0.293 HD
ENDBRANCH  29  33
ENDBRANCH  24  27
ENDBRANCH  20  23
ENDBRANCH  14  15
ENDBRANCH   8   9
ENDBRANCH   5   8
ENDBRANCH   3   5
ENDBRANCH   2   3
ENDBRANCH   1   2
BRANCH   1  35
ATOM     35  C   UNL A   1      45.173  22.674  26.165  1.00  0.00     0.202 C 
BRANCH  35  36
ATOM     36  O   UNL A   1      46.448  23.075  25.666  1.00  0.00    -0.374 OA
BRANCH  36  37
ATOM     37  C   UNL A   1      46.919  24.373  26.015  1.00  0.00     0.202 C 
BRANCH  37  38
ATOM     38  C   UNL A   1      47.533  25.203  24.878  1.00  0.00     0.261 C 
BRANCH  38  39
ATOM     39  O   UNL A   1      46.579  26.082  24.251  1.00  0.00    -0.460 OA
BRANCH  39  40
ATOM     40  C   UNL A   1      46.793  27.401  24.488  1.00  0.00     0.338 C 
ATOM     41  O   UNL A   1      47.213  28.236  23.705  1.00  0.00    -0.246 OA
BRANCH  40  42
ATOM     42  C   UNL A   1      46.305  27.778  25.828  1.00  0.00     0.060 A 
ATOM     43  C   UNL A   1      44.918  27.807  26.022  1.00  0.00     0.016 A 
ATOM     44  C   UNL A   1      47.170  28.228  26.826  1.00  0.00     0.016 A 
ATOM     45  C   UNL A   1      44.388  28.335  27.197  1.00  0.00     0.010 A 
ATOM     46  C   UNL A   1      46.635  28.767  28.004  1.00  0.00     0.010 A 
ATOM     47  C   UNL A   1      45.242  28.858  28.178  1.00  0.00    -0.014 A 
BRANCH  47  48
ATOM     48  C   UNL A   1      44.662  29.630  29.306  1.00  0.00     0.031 A 
ATOM     49  C   UNL A   1      44.355  28.924  30.598  1.00  0.00     0.074 A 
ATOM     50  C   UNL A   1      44.454  30.954  29.201  1.00  0.00     0.049 A 
ATOM     51  N   UNL A   1      43.851  29.402  31.708  1.00  0.00    -0.248 NA
ATOM     52  C   UNL A   1      44.660  27.485  30.646  1.00  0.00     0.031 C 
ATOM     53  C   UNL A   1      44.744  31.761  28.018  1.00  0.00     0.029 A 
ATOM     54  N   UNL A   1      43.949  31.852  30.108  1.00  0.00    -0.354 N 
ATOM     55  C   UNL A   1      43.782  28.327  32.586  1.00  0.00     0.074 A 
ATOM     56  C   UNL A   1      44.265  27.165  31.870  1.00  0.00     0.031 C 
ATOM     57  C   UNL A   1      44.403  33.036  28.268  1.00  0.00     0.029 A 
ATOM     58  C   UNL A   1      43.850  33.130  29.619  1.00  0.00     0.049 A 
ATOM     59  H   UNL A   1      43.684  31.602  31.022  1.00  0.00     0.167 HD
ATOM     60  C   UNL A   1      43.364  28.311  33.874  1.00  0.00     0.037 A 
ATOM     61  C   UNL A   1      43.352  34.244  30.191  1.00  0.00     0.037 A 
ATOM     62  C   UNL A   1      42.883  29.463  34.589  1.00  0.00     0.049 A 
ATOM     63  C   UNL A   1      42.833  34.188  31.603  1.00  0.00     0.074 A 
ATOM     64  C   UNL A   1      42.449  29.547  35.901  1.00  0.00     0.029 A 
ATOM     65  N   UNL A   1      42.765  30.734  34.048  1.00  0.00    -0.354 N 
ATOM     66  N   UNL A   1      42.792  33.172  32.431  1.00  0.00    -0.248 NA
ATOM     67  C   UNL A   1      42.293  35.436  32.162  1.00  0.00     0.031 C 
ATOM     68  C   UNL A   1      42.029  30.860  36.141  1.00  0.00     0.029 A 
ATOM     69  C   UNL A   1      42.244  31.604  34.992  1.00  0.00     0.049 A 
ATOM     70  H   UNL A   1      43.014  30.982  33.129  1.00  0.00     0.167 HD
ATOM     71  C   UNL A   1      42.247  33.662  33.611  1.00  0.00     0.074 A 
ATOM     72  C   UNL A   1      41.982  35.069  33.398  1.00  0.00     0.031 C 
ATOM     73  C   UNL A   1      41.989  33.004  34.767  1.00  0.00     0.037 A 
BRANCH  60  74
ATOM     74  C   UNL A   1      43.394  26.995  34.593  1.00  0.00     0.064 A 
ATOM     75  C   UNL A   1      42.239  26.212  34.737  1.00  0.00     0.173 A 
ATOM     76  C   UNL A   1      44.597  26.497  35.115  1.00  0.00     0.173 A 
ATOM     77  F   UNL A   1      41.062  26.652  34.267  1.00  0.00    -0.203 F 
ATOM     78  C   UNL A   1      42.283  24.987  35.397  1.00  0.00     0.198 A 
ATOM     79  C   UNL A   1      44.642  25.260  35.752  1.00  0.00     0.198 A 
ATOM     80  F   UNL A   1      45.729  27.207  34.998  1.00  0.00    -0.203 F 
ATOM     81  F   UNL A   1      41.161  24.273  35.558  1.00  0.00    -0.200 F 
ATOM     82  C   UNL A   1      43.486  24.509  35.899  1.00  0.00     0.200 A 
ATOM     83  F   UNL A   1      45.806  24.796  36.228  1.00  0.00    -0.200 F 
ATOM     84  F   UNL A   1      43.528  23.328  36.529  1.00  0.00    -0.200 F 
ENDBRANCH  60  74
BRANCH  61  85
ATOM     85  C   UNL A   1      43.311  35.513  29.420  1.00  0.00     0.064 A 
ATOM     86  C   UNL A   1      42.222  35.825  28.595  1.00  0.00     0.173 A 
ATOM     87  C   UNL A   1      44.367  36.433  29.485  1.00  0.00     0.173 A 
ATOM     88  F   UNL A   1      41.201  34.963  28.480  1.00  0.00    -0.203 F 
ATOM     89  C   UNL A   1      42.198  37.004  27.853  1.00  0.00     0.198 A 
ATOM     90  C   UNL A   1      44.331  37.622  28.762  1.00  0.00     0.198 A 
ATOM     91  F   UNL A   1      45.434  36.177  30.257  1.00  0.00    -0.203 F 
ATOM     92  F   UNL A   1      41.164  37.260  27.040  1.00  0.00    -0.200 F 
ATOM     93  C   UNL A   1      43.249  37.904  27.942  1.00  0.00     0.200 A 
ATOM     94  F   UNL A   1      45.345  38.493  28.857  1.00  0.00    -0.200 F 
ATOM     95  F   UNL A   1      43.225  39.040  27.230  1.00  0.00    -0.200 F 
ENDBRANCH  61  85
BRANCH  73  96
ATOM     96  C   UNL A   1      41.413  33.800  35.902  1.00  0.00     0.064 A 
ATOM     97  C   UNL A   1      42.223  34.592  36.728  1.00  0.00     0.173 A 
ATOM     98  C   UNL A   1      40.030  33.802  36.138  1.00  0.00     0.173 A 
ATOM     99  F   UNL A   1      43.553  34.611  36.551  1.00  0.00    -0.203 F 
ATOM    100  C   UNL A   1      41.671  35.344  37.762  1.00  0.00     0.198 A 
ATOM    101  C   UNL A   1      39.479  34.575  37.158  1.00  0.00     0.198 A 
ATOM    102  F   UNL A   1      39.212  33.066  35.373  1.00  0.00    -0.203 F 
ATOM    103  F   UNL A   1      42.469  36.063  38.564  1.00  0.00    -0.200 F 
ATOM    104  C   UNL A   1      40.300  35.339  37.972  1.00  0.00     0.200 A 
ATOM    105  F   UNL A   1      38.153  34.578  37.352  1.00  0.00    -0.200 F 
ATOM    106  F   UNL A   1      39.771  36.068  38.964  1.00  0.00    -0.200 F 
ENDBRANCH  73  96
ENDBRANCH  47  48
ENDBRANCH  40  42
ENDBRANCH  39  40
ENDBRANCH  38  39
ENDBRANCH  37  38
ENDBRANCH  36  37
ENDBRANCH  35  36
ENDBRANCH   1  35
TORSDOF 21
ENDMDL
MODEL 2
REMARK VINA RESULT:      -8.7      0.500      1.968
REMARK SMILES CC[C@@H](Oc1ccc(/C=C2\SC(=S)N(NC(=O)c3ccccc3O)C2=O)cc1)C(=O)OCCOCCOC(=O)c1ccc(-c2c3nc(c(-c4c(F)c(F)c(F)c(F)c4F)c4ccc([nH]4)c(-c4c(F)c(F)c(F)c(F)c4F)c4nc(c(-c5c(F)c(F)c(F)c(F)c5F)c5ccc2[nH]5)C=C4)C=C3)cc1
REMARK SMILES IDX 32 1 31 2 29 3 30 4 3 5 2 6 1 7 4 8 5 9 6 10 28 11 7 12
REMARK SMILES IDX 27 13 8 14 9 15 10 16 11 17 25 18 12 19 14 20 26 21 13 22
REMARK SMILES IDX 15 23 16 24 17 26 18 27 19 28 23 29 20 30 22 31 21 32 24 33
REMARK SMILES IDX 33 35 34 36 35 37 36 38 37 39 38 40 39 41 40 42 41 43 102 44
REMARK SMILES IDX 42 45 101 46 43 47 44 48 45 49 95 50 46 51 100 52 94 53
REMARK SMILES IDX 96 54 47 55 99 56 93 57 92 58 48 60 80 61 60 62 79 63 61 64
REMARK SMILES IDX 64 65 78 66 97 67 62 68 63 69 77 71 98 72 65 73 49 74 50 75
REMARK SMILES IDX 58 76 51 77 52 78 56 79 59 80 53 81 54 82 57 83 55 84 81 85
REMARK SMILES IDX 82 86 90 87 83 88 84 89 88 90 91 91 85 92 86 93 89 94 87 95
REMARK SMILES IDX 66 96 67 97 75 98 68 99 69 100 73 101 76 102 70 103 71 104
REMARK SMILES IDX 74 105 72 106
REMARK H PARENT 15 25 24 34 96 59 64 70
REMARK Flexibility Score: inf
ROOT
ATOM      1  C   UNL A   1      44.061  22.545  25.181  1.00  0.00     0.261 C 
ENDROOT
BRANCH   1   2
ATOM      2  O   UNL A   1      42.797  23.066  25.630  1.00  0.00    -0.461 OA
BRANCH   2   3
ATOM      3  C   UNL A   1      41.917  22.156  26.138  1.00  0.00     0.347 C 
ATOM      4  O   UNL A   1      42.158  20.965  26.302  1.00  0.00    -0.248 OA
BRANCH   3   5
ATOM      5  C   UNL A   1      40.567  22.782  26.480  1.00  0.00     0.282 C 
BRANCH   5   6
ATOM      6  C   UNL A   1      39.376  21.829  26.260  1.00  0.00     0.054 C 
ATOM      7  C   UNL A   1      38.139  22.573  25.766  1.00  0.00     0.008 C 
ENDBRANCH   5   6
BRANCH   5   8
ATOM      8  O   UNL A   1      40.674  23.163  27.862  1.00  0.00    -0.479 OA
BRANCH   8   9
ATOM      9  C   UNL A   1      40.733  24.521  27.997  1.00  0.00     0.120 A 
ATOM     10  C   UNL A   1      41.924  25.127  28.380  1.00  0.00     0.047 A 
ATOM     11  C   UNL A   1      39.584  25.277  27.820  1.00  0.00     0.047 A 
ATOM     12  C   UNL A   1      41.947  26.505  28.619  1.00  0.00     0.012 A 
ATOM     13  C   UNL A   1      39.628  26.655  27.998  1.00  0.00     0.012 A 
ATOM     14  C   UNL A   1      40.784  27.279  28.477  1.00  0.00    -0.024 A 
BRANCH  14  15
ATOM     15  C   UNL A   1      40.830  28.701  28.856  1.00  0.00     0.029 C 
ATOM     16  C   UNL A   1      40.707  29.241  30.080  1.00  0.00     0.082 C 
ATOM     17  S   UNL A   1      40.366  28.476  31.586  1.00  0.00    -0.052 SA
ATOM     18  C   UNL A   1      40.817  30.711  30.293  1.00  0.00     0.285 C 
ATOM     19  C   UNL A   1      39.892  29.980  32.344  1.00  0.00     0.168 C 
ATOM     20  N   UNL A   1      40.190  31.025  31.491  1.00  0.00    -0.198 N 
ATOM     21  O   UNL A   1      41.414  31.464  29.538  1.00  0.00    -0.266 OA
ATOM     22  S   UNL A   1      39.219  30.069  33.868  1.00  0.00    -0.050 S 
BRANCH  20  23
ATOM     23  N   UNL A   1      40.006  32.348  31.914  1.00  0.00    -0.254 N 
ATOM     24  C   UNL A   1      38.851  33.091  31.805  1.00  0.00     0.274 C 
ATOM     25  H   UNL A   1      40.780  32.793  32.331  1.00  0.00     0.192 HD
ATOM     26  O   UNL A   1      38.763  34.177  32.373  1.00  0.00    -0.267 OA
BRANCH  24  27
ATOM     27  C   UNL A   1      37.725  32.637  30.969  1.00  0.00     0.083 A 
ATOM     28  C   UNL A   1      37.905  32.735  29.583  1.00  0.00     0.018 A 
ATOM     29  C   UNL A   1      36.548  32.085  31.481  1.00  0.00     0.128 A 
ATOM     30  C   UNL A   1      36.935  32.235  28.715  1.00  0.00     0.001 A 
ATOM     31  C   UNL A   1      35.586  31.574  30.612  1.00  0.00     0.047 A 
ATOM     32  C   UNL A   1      35.781  31.646  29.230  1.00  0.00     0.004 A 
BRANCH  29  33
ATOM     33  O   UNL A   1      36.282  31.995  32.819  1.00  0.00    -0.507 OA
ATOM     34  H   UNL A   1      36.928  32.259  33.444  1.00  0.00     0.293 HD
ENDBRANCH  29  33
ENDBRANCH  24  27
ENDBRANCH  20  23
ENDBRANCH  14  15
ENDBRANCH   8   9
ENDBRANCH   5   8
ENDBRANCH   3   5
ENDBRANCH   2   3
ENDBRANCH   1   2
BRANCH   1  35
ATOM     35  C   UNL A   1      45.160  22.731  26.230  1.00  0.00     0.202 C 
BRANCH  35  36
ATOM     36  O   UNL A   1      46.450  23.100  25.743  1.00  0.00    -0.374 OA
BRANCH  36  37
ATOM     37  C   UNL A   1      46.924  24.408  26.049  1.00  0.00     0.202 C 
BRANCH  37  38
ATOM     38  C   UNL A   1      47.517  25.208  24.879  1.00  0.00     0.261 C 
BRANCH  38  39
ATOM     39  O   UNL A   1      46.555  26.079  24.254  1.00  0.00    -0.460 OA
BRANCH  39  40
ATOM     40  C   UNL A   1      46.789  27.401  24.444  1.00  0.00     0.338 C 
ATOM     41  O   UNL A   1      47.194  28.208  23.624  1.00  0.00    -0.246 OA
BRANCH  40  42
ATOM     42  C   UNL A   1      46.346  27.824  25.786  1.00  0.00     0.060 A 
ATOM     43  C   UNL A   1      44.967  27.839  26.032  1.00  0.00     0.016 A 
ATOM     44  C   UNL A   1      47.240  28.328  26.731  1.00  0.00     0.016 A 
ATOM     45  C   UNL A   1      44.472  28.405  27.205  1.00  0.00     0.010 A 
ATOM     46  C   UNL A   1      46.740  28.905  27.907  1.00  0.00     0.010 A 
ATOM     47  C   UNL A   1      45.354  28.981  28.131  1.00  0.00    -0.014 A 
BRANCH  47  48
ATOM     48  C   UNL A   1      44.803  29.788  29.248  1.00  0.00     0.031 A 
ATOM     49  C   UNL A   1      44.480  29.113  30.553  1.00  0.00     0.074 A 
ATOM     50  C   UNL A   1      44.638  31.117  29.124  1.00  0.00     0.049 A 
ATOM     51  N   UNL A   1      43.996  29.623  31.658  1.00  0.00    -0.248 NA
ATOM     52  C   UNL A   1      44.739  27.666  30.622  1.00  0.00     0.031 C 
ATOM     53  C   UNL A   1      44.947  31.896  27.928  1.00  0.00     0.029 A 
ATOM     54  N   UNL A   1      44.165  32.044  30.019  1.00  0.00    -0.354 N 
ATOM     55  C   UNL A   1      43.897  28.564  32.551  1.00  0.00     0.074 A 
ATOM     56  C   UNL A   1      44.340  27.377  31.853  1.00  0.00     0.031 C 
ATOM     57  C   UNL A   1      44.648  33.185  28.159  1.00  0.00     0.029 A 
ATOM     58  C   UNL A   1      44.104  33.317  29.510  1.00  0.00     0.049 A 
ATOM     59  H   UNL A   1      43.896  31.817  30.938  1.00  0.00     0.167 HD
ATOM     60  C   UNL A   1      43.485  28.582  33.841  1.00  0.00     0.037 A 
ATOM     61  C   UNL A   1      43.645  34.455  30.067  1.00  0.00     0.037 A 
ATOM     62  C   UNL A   1      43.043  29.760  34.541  1.00  0.00     0.049 A 
ATOM     63  C   UNL A   1      43.130  34.437  31.482  1.00  0.00     0.074 A 
ATOM     64  C   UNL A   1      42.618  29.877  35.853  1.00  0.00     0.029 A 
ATOM     65  N   UNL A   1      42.963  31.025  33.980  1.00  0.00    -0.354 N 
ATOM     66  N   UNL A   1      43.061  33.436  32.326  1.00  0.00    -0.248 NA
ATOM     67  C   UNL A   1      42.632  35.710  32.023  1.00  0.00     0.031 C 
ATOM     68  C   UNL A   1      42.241  31.207  36.074  1.00  0.00     0.029 A 
ATOM     69  C   UNL A   1      42.474  31.926  34.913  1.00  0.00     0.049 A 
ATOM     70  H   UNL A   1      43.216  31.251  33.056  1.00  0.00     0.167 HD
ATOM     71  C   UNL A   1      42.537  33.961  33.500  1.00  0.00     0.074 A 
ATOM     72  C   UNL A   1      42.316  35.372  33.266  1.00  0.00     0.031 C 
ATOM     73  C   UNL A   1      42.263  33.329  34.667  1.00  0.00     0.037 A 
BRANCH  60  74
ATOM     74  C   UNL A   1      43.476  27.277  34.581  1.00  0.00     0.064 A 
ATOM     75  C   UNL A   1      44.645  26.746  35.147  1.00  0.00     0.173 A 
ATOM     76  C   UNL A   1      42.279  26.566  34.753  1.00  0.00     0.173 A 
ATOM     77  F   UNL A   1      45.816  27.383  34.997  1.00  0.00    -0.203 F 
ATOM     78  C   UNL A   1      44.619  25.540  35.841  1.00  0.00     0.198 A 
ATOM     79  C   UNL A   1      42.253  25.372  35.469  1.00  0.00     0.198 A 
ATOM     80  F   UNL A   1      41.135  27.034  34.234  1.00  0.00    -0.203 F 
ATOM     81  F   UNL A   1      45.754  25.031  36.340  1.00  0.00    -0.200 F 
ATOM     82  C   UNL A   1      43.423  24.857  36.006  1.00  0.00     0.200 A 
ATOM     83  F   UNL A   1      41.095  24.717  35.635  1.00  0.00    -0.200 F 
ATOM     84  F   UNL A   1      43.399  23.698  36.678  1.00  0.00    -0.200 F 
ENDBRANCH  60  74
BRANCH  61  85
ATOM     85  C   UNL A   1      43.640  35.713  29.276  1.00  0.00     0.064 A 
ATOM     86  C   UNL A   1      44.702  36.623  29.356  1.00  0.00     0.173 A 
ATOM     87  C   UNL A   1      42.565  36.032  28.435  1.00  0.00     0.173 A 
ATOM     88  F   UNL A   1      45.739  36.372  30.168  1.00  0.00    -0.203 F 
ATOM     89  C   UNL A   1      44.682  37.814  28.633  1.00  0.00     0.198 A 
ATOM     90  C   UNL A   1      42.557  37.211  27.694  1.00  0.00     0.198 A 
ATOM     91  F   UNL A   1      41.522  35.194  28.329  1.00  0.00    -0.203 F 
ATOM     92  F   UNL A   1      45.691  38.687  28.757  1.00  0.00    -0.200 F 
ATOM     93  C   UNL A   1      43.613  38.104  27.798  1.00  0.00     0.200 A 
ATOM     94  F   UNL A   1      41.527  37.484  26.882  1.00  0.00    -0.200 F 
ATOM     95  F   UNL A   1      43.596  39.248  27.100  1.00  0.00    -0.200 F 
ENDBRANCH  61  85
BRANCH  73  96
ATOM     96  C   UNL A   1      41.718  34.161  35.791  1.00  0.00     0.064 A 
ATOM     97  C   UNL A   1      40.348  34.181  36.092  1.00  0.00     0.173 A 
ATOM     98  C   UNL A   1      42.582  34.912  36.603  1.00  0.00     0.173 A 
ATOM     99  F   UNL A   1      39.481  33.491  35.336  1.00  0.00    -0.203 F 
ATOM    100  C   UNL A   1      39.860  34.939  37.154  1.00  0.00     0.198 A 
ATOM    101  C   UNL A   1      42.093  35.649  37.679  1.00  0.00     0.198 A 
ATOM    102  F   UNL A   1      43.900  34.921  36.361  1.00  0.00    -0.203 F 
ATOM    103  F   UNL A   1      38.543  34.976  37.398  1.00  0.00    -0.200 F 
ATOM    104  C   UNL A   1      40.733  35.667  37.949  1.00  0.00     0.200 A 
ATOM    105  F   UNL A   1      42.938  36.343  38.453  1.00  0.00    -0.200 F 
ATOM    106  F   UNL A   1      40.262  36.391  38.974  1.00  0.00    -0.200 F 
ENDBRANCH  73  96
ENDBRANCH  47  48
ENDBRANCH  40  42
ENDBRANCH  39  40
ENDBRANCH  38  39
ENDBRANCH  37  38
ENDBRANCH  36  37
ENDBRANCH  35  36
ENDBRANCH   1  35
TORSDOF 21
ENDMDL
MODEL 3
REMARK VINA RESULT:      -8.6      1.134      6.953
REMARK SMILES CC[C@@H](Oc1ccc(/C=C2\SC(=S)N(NC(=O)c3ccccc3O)C2=O)cc1)C(=O)OCCOCCOC(=O)c1ccc(-c2c3nc(c(-c4c(F)c(F)c(F)c(F)c4F)c4ccc([nH]4)c(-c4c(F)c(F)c(F)c(F)c4F)c4nc(c(-c5c(F)c(F)c(F)c(F)c5F)c5ccc2[nH]5)C=C4)C=C3)cc1
REMARK SMILES IDX 32 1 31 2 29 3 30 4 3 5 2 6 1 7 4 8 5 9 6 10 28 11 7 12
REMARK SMILES IDX 27 13 8 14 9 15 10 16 11 17 25 18 12 19 14 20 26 21 13 22
REMARK SMILES IDX 15 23 16 24 17 26 18 27 19 28 23 29 20 30 22 31 21 32 24 33
REMARK SMILES IDX 33 35 34 36 35 37 36 38 37 39 38 40 39 41 40 42 41 43 102 44
REMARK SMILES IDX 42 45 101 46 43 47 44 48 45 49 95 50 46 51 100 52 94 53
REMARK SMILES IDX 96 54 47 55 99 56 93 57 92 58 48 60 80 61 60 62 79 63 61 64
REMARK SMILES IDX 64 65 78 66 97 67 62 68 63 69 77 71 98 72 65 73 49 74 50 75
REMARK SMILES IDX 58 76 51 77 52 78 56 79 59 80 53 81 54 82 57 83 55 84 81 85
REMARK SMILES IDX 82 86 90 87 83 88 84 89 88 90 91 91 85 92 86 93 89 94 87 95
REMARK SMILES IDX 66 96 67 97 75 98 68 99 69 100 73 101 76 102 70 103 71 104
REMARK SMILES IDX 74 105 72 106
REMARK H PARENT 15 25 24 34 96 59 64 70
REMARK Flexibility Score: inf
ROOT
ATOM      1  C   UNL A   1      43.803  23.658  28.948  1.00  0.00     0.261 C 
ENDROOT
BRANCH   1   2
ATOM      2  O   UNL A   1      43.029  22.449  28.850  1.00  0.00    -0.461 OA
BRANCH   2   3
ATOM      3  C   UNL A   1      41.810  22.563  28.248  1.00  0.00     0.347 C 
ATOM      4  O   UNL A   1      40.946  21.692  28.247  1.00  0.00    -0.248 OA
BRANCH   3   5
ATOM      5  C   UNL A   1      41.629  23.909  27.552  1.00  0.00     0.282 C 
BRANCH   5   6
ATOM      6  C   UNL A   1      41.715  23.822  26.016  1.00  0.00     0.054 C 
ATOM      7  C   UNL A   1      42.715  24.823  25.446  1.00  0.00     0.008 C 
ENDBRANCH   5   6
BRANCH   5   8
ATOM      8  O   UNL A   1      40.333  24.372  27.970  1.00  0.00    -0.479 OA
BRANCH   8   9
ATOM      9  C   UNL A   1      40.340  25.718  28.202  1.00  0.00     0.120 A 
ATOM     10  C   UNL A   1      41.489  26.329  28.693  1.00  0.00     0.047 A 
ATOM     11  C   UNL A   1      39.178  26.451  28.014  1.00  0.00     0.047 A 
ATOM     12  C   UNL A   1      41.454  27.686  29.029  1.00  0.00     0.012 A 
ATOM     13  C   UNL A   1      39.168  27.814  28.289  1.00  0.00     0.012 A 
ATOM     14  C   UNL A   1      40.276  28.435  28.876  1.00  0.00    -0.024 A 
BRANCH  14  15
ATOM     15  C   UNL A   1      40.255  29.827  29.354  1.00  0.00     0.029 C 
ATOM     16  C   UNL A   1      40.138  30.272  30.616  1.00  0.00     0.082 C 
ATOM     17  S   UNL A   1      39.881  29.384  32.072  1.00  0.00    -0.052 SA
ATOM     18  C   UNL A   1      40.173  31.727  30.932  1.00  0.00     0.285 C 
ATOM     19  C   UNL A   1      39.348  30.802  32.947  1.00  0.00     0.168 C 
ATOM     20  N   UNL A   1      39.565  31.920  32.165  1.00  0.00    -0.198 N 
ATOM     21  O   UNL A   1      40.707  32.564  30.219  1.00  0.00    -0.266 OA
ATOM     22  S   UNL A   1      38.715  30.745  34.490  1.00  0.00    -0.050 S 
BRANCH  20  23
ATOM     23  N   UNL A   1      39.321  33.197  32.686  1.00  0.00    -0.254 N 
ATOM     24  C   UNL A   1      38.140  33.901  32.612  1.00  0.00     0.274 C 
ATOM     25  H   UNL A   1      40.069  33.636  33.152  1.00  0.00     0.192 HD
ATOM     26  O   UNL A   1      37.998  34.935  33.261  1.00  0.00    -0.267 OA
BRANCH  24  27
ATOM     27  C   UNL A   1      37.047  33.472  31.720  1.00  0.00     0.083 A 
ATOM     28  C   UNL A   1      35.955  32.847  32.337  1.00  0.00     0.018 A 
ATOM     29  C   UNL A   1      37.033  33.699  30.341  1.00  0.00     0.128 A 
ATOM     30  C   UNL A   1      34.832  32.501  31.586  1.00  0.00     0.001 A 
ATOM     31  C   UNL A   1      35.904  33.364  29.595  1.00  0.00     0.047 A 
ATOM     32  C   UNL A   1      34.804  32.768  30.218  1.00  0.00     0.004 A 
BRANCH  29  33
ATOM     33  O   UNL A   1      38.077  34.263  29.663  1.00  0.00    -0.507 OA
ATOM     34  H   UNL A   1      37.929  34.676  28.835  1.00  0.00     0.293 HD
ENDBRANCH  29  33
ENDBRANCH  24  27
ENDBRANCH  20  23
ENDBRANCH  14  15
ENDBRANCH   8   9
ENDBRANCH   5   8
ENDBRANCH   3   5
ENDBRANCH   2   3
ENDBRANCH   1   2
BRANCH   1  35
ATOM     35  C   UNL A   1      45.158  23.525  28.247  1.00  0.00     0.202 C 
BRANCH  35  36
ATOM     36  O   UNL A   1      45.678  24.706  27.638  1.00  0.00    -0.374 OA
BRANCH  36  37
ATOM     37  C   UNL A   1      46.934  24.610  26.973  1.00  0.00     0.202 C 
BRANCH  37  38
ATOM     38  C   UNL A   1      46.890  24.575  25.438  1.00  0.00     0.261 C 
BRANCH  38  39
ATOM     39  O   UNL A   1      45.974  25.539  24.884  1.00  0.00    -0.460 OA
BRANCH  39  40
ATOM     40  C   UNL A   1      46.514  26.763  24.663  1.00  0.00     0.338 C 
ATOM     41  O   UNL A   1      47.253  27.094  23.752  1.00  0.00    -0.246 OA
BRANCH  40  42
ATOM     42  C   UNL A   1      45.974  27.752  25.615  1.00  0.00     0.060 A 
ATOM     43  C   UNL A   1      46.894  28.452  26.406  1.00  0.00     0.016 A 
ATOM     44  C   UNL A   1      44.602  27.893  25.831  1.00  0.00     0.016 A 
ATOM     45  C   UNL A   1      46.447  29.256  27.452  1.00  0.00     0.010 A 
ATOM     46  C   UNL A   1      44.155  28.695  26.890  1.00  0.00     0.010 A 
ATOM     47  C   UNL A   1      45.076  29.349  27.728  1.00  0.00    -0.014 A 
BRANCH  47  48
ATOM     48  C   UNL A   1      44.633  30.009  28.981  1.00  0.00     0.031 A 
ATOM     49  C   UNL A   1      44.401  31.496  28.988  1.00  0.00     0.074 A 
ATOM     50  C   UNL A   1      44.392  29.290  30.092  1.00  0.00     0.049 A 
ATOM     51  N   UNL A   1      44.011  32.273  29.966  1.00  0.00    -0.248 NA
ATOM     52  C   UNL A   1      44.638  32.199  27.717  1.00  0.00     0.031 C 
ATOM     53  C   UNL A   1      44.542  27.842  30.206  1.00  0.00     0.029 A 
ATOM     54  N   UNL A   1      43.970  29.686  31.336  1.00  0.00    -0.354 N 
ATOM     55  C   UNL A   1      43.953  33.554  29.430  1.00  0.00     0.074 A 
ATOM     56  C   UNL A   1      44.378  33.456  28.050  1.00  0.00     0.031 C 
ATOM     57  C   UNL A   1      44.226  27.469  31.458  1.00  0.00     0.029 A 
ATOM     58  C   UNL A   1      43.874  28.655  32.237  1.00  0.00     0.049 A 
ATOM     59  H   UNL A   1      43.757  30.620  31.561  1.00  0.00     0.167 HD
ATOM     60  C   UNL A   1      43.570  34.705  30.031  1.00  0.00     0.037 A 
ATOM     61  C   UNL A   1      43.555  28.672  33.546  1.00  0.00     0.037 A 
ATOM     62  C   UNL A   1      43.147  34.809  31.403  1.00  0.00     0.049 A 
ATOM     63  C   UNL A   1      43.195  29.975  34.209  1.00  0.00     0.074 A 
ATOM     64  C   UNL A   1      42.729  35.931  32.097  1.00  0.00     0.029 A 
ATOM     65  N   UNL A   1      43.096  33.747  32.293  1.00  0.00    -0.354 N 
ATOM     66  N   UNL A   1      43.122  31.176  33.689  1.00  0.00    -0.248 NA
ATOM     67  C   UNL A   1      42.870  29.923  35.642  1.00  0.00     0.031 C 
ATOM     68  C   UNL A   1      42.464  35.557  33.419  1.00  0.00     0.029 A 
ATOM     69  C   UNL A   1      42.675  34.192  33.536  1.00  0.00     0.049 A 
ATOM     70  H   UNL A   1      43.325  32.815  32.075  1.00  0.00     0.167 HD
ATOM     71  C   UNL A   1      42.721  32.016  34.721  1.00  0.00     0.074 A 
ATOM     72  C   UNL A   1      42.555  31.186  35.896  1.00  0.00     0.031 C 
ATOM     73  C   UNL A   1      42.510  33.354  34.696  1.00  0.00     0.037 A 
BRANCH  60  74
ATOM     74  C   UNL A   1      43.606  35.959  29.208  1.00  0.00     0.064 A 
ATOM     75  C   UNL A   1      44.767  36.741  29.113  1.00  0.00     0.173 A 
ATOM     76  C   UNL A   1      42.478  36.364  28.479  1.00  0.00     0.173 A 
ATOM     77  F   UNL A   1      45.867  36.402  29.803  1.00  0.00    -0.203 F 
ATOM     78  C   UNL A   1      44.790  37.895  28.336  1.00  0.00     0.198 A 
ATOM     79  C   UNL A   1      42.512  37.506  27.683  1.00  0.00     0.198 A 
ATOM     80  F   UNL A   1      41.346  35.647  28.534  1.00  0.00    -0.203 F 
ATOM     81  F   UNL A   1      45.897  38.650  28.290  1.00  0.00    -0.200 F 
ATOM     82  C   UNL A   1      43.665  38.274  27.617  1.00  0.00     0.200 A 
ATOM     83  F   UNL A   1      41.428  37.865  26.983  1.00  0.00    -0.200 F 
ATOM     84  F   UNL A   1      43.690  39.382  26.865  1.00  0.00    -0.200 F 
ENDBRANCH  60  74
BRANCH  61  85
ATOM     85  C   UNL A   1      43.572  27.407  34.325  1.00  0.00     0.064 A 
ATOM     86  C   UNL A   1      42.399  26.672  34.542  1.00  0.00     0.173 A 
ATOM     87  C   UNL A   1      44.764  26.916  34.878  1.00  0.00     0.173 A 
ATOM     88  F   UNL A   1      41.232  27.118  34.056  1.00  0.00    -0.203 F 
ATOM     89  C   UNL A   1      42.415  25.500  35.295  1.00  0.00     0.198 A 
ATOM     90  C   UNL A   1      44.783  25.731  35.609  1.00  0.00     0.198 A 
ATOM     91  F   UNL A   1      45.913  27.586  34.702  1.00  0.00    -0.203 F 
ATOM     92  F   UNL A   1      41.273  24.838  35.522  1.00  0.00    -0.200 F 
ATOM     93  C   UNL A   1      43.607  25.027  35.822  1.00  0.00     0.200 A 
ATOM     94  F   UNL A   1      45.938  25.273  36.111  1.00  0.00    -0.200 F 
ATOM     95  F   UNL A   1      43.622  23.898  36.544  1.00  0.00    -0.200 F 
ENDBRANCH  61  85
BRANCH  73  96
ATOM     96  C   UNL A   1      42.052  34.005  35.968  1.00  0.00     0.064 A 
ATOM     97  C   UNL A   1      42.961  34.586  36.864  1.00  0.00     0.173 A 
ATOM     98  C   UNL A   1      40.684  34.085  36.273  1.00  0.00     0.173 A 
ATOM     99  F   UNL A   1      44.279  34.523  36.624  1.00  0.00    -0.203 F 
ATOM    100  C   UNL A   1      42.518  35.208  38.029  1.00  0.00     0.198 A 
ATOM    101  C   UNL A   1      40.244  34.729  37.427  1.00  0.00     0.198 A 
ATOM    102  F   UNL A   1      39.775  33.550  35.446  1.00  0.00    -0.203 F 
ATOM    103  F   UNL A   1      43.407  35.722  38.891  1.00  0.00    -0.200 F 
ATOM    104  C   UNL A   1      41.161  35.283  38.306  1.00  0.00     0.200 A 
ATOM    105  F   UNL A   1      38.932  34.811  37.688  1.00  0.00    -0.200 F 
ATOM    106  F   UNL A   1      40.737  35.887  39.426  1.00  0.00    -0.200 F 
ENDBRANCH  73  96
ENDBRANCH  47  48
ENDBRANCH  40  42
ENDBRANCH  39  40
ENDBRANCH  38  39
ENDBRANCH  37  38
ENDBRANCH  36  37
ENDBRANCH  35  36
ENDBRANCH   1  35
TORSDOF 21
ENDMDL
