MODEL 1
REMARK VINA RESULT:     -12.3      0.000      0.000
REMARK SMILES O=C(NC(=S)Nc1cc(C(=O)OCCOCCOC(=O)c2ccc(-c3c4nc(c(-c5c(F)c(F)c(F)c(F)c5F)c5ccc([nH]5)c(-c5c(F)c(F)c(F)c(F)c5F)c5nc(c(-c6c(F)c(F)c(F)c(F)c6F)c6ccc3[nH]6)C=C5)C=C4)cc2)ccc1Br)c1ccc(F)cc1
REMARK SMILES IDX 14 1 13 2 12 3 10 4 11 5 9 6 7 7 8 8 86 9 85 10 87 11 84 12
REMARK SMILES IDX 6 13 4 15 5 16 3 17 1 18 2 19 88 21 89 22 94 23 90 24 93 25
REMARK SMILES IDX 91 26 92 27 15 28 16 29 17 30 18 31 19 32 20 33 21 34 22 35
REMARK SMILES IDX 83 36 23 37 82 38 24 39 25 40 26 41 76 42 27 43 81 44 75 45
REMARK SMILES IDX 77 46 28 47 80 48 74 49 73 50 29 52 61 53 41 54 60 55 42 56
REMARK SMILES IDX 45 57 59 58 78 59 43 60 44 61 58 63 79 64 46 65 30 66 31 67
REMARK SMILES IDX 39 68 32 69 33 70 37 71 40 72 34 73 35 74 38 75 36 76 62 77
REMARK SMILES IDX 63 78 71 79 64 80 65 81 69 82 72 83 66 84 67 85 70 86 68 87
REMARK SMILES IDX 47 88 48 89 56 90 49 91 50 92 54 93 57 94 51 95 52 96 55 97
REMARK SMILES IDX 53 98
REMARK H PARENT 6 14 3 20 77 51 45 62
REMARK Flexibility Score: inf
ROOT
ATOM      1  C   UNL A   1      36.290  21.586  24.830  1.00  0.00     0.202 C 
ENDROOT
BRANCH   1   2
ATOM      2  C   UNL A   1      35.142  20.591  24.635  1.00  0.00     0.261 C 
BRANCH   2   3
ATOM      3  O   UNL A   1      34.123  20.831  25.623  1.00  0.00    -0.460 OA
BRANCH   3   4
ATOM      4  C   UNL A   1      32.935  21.254  25.150  1.00  0.00     0.338 C 
ATOM      5  O   UNL A   1      31.856  20.693  25.163  1.00  0.00    -0.246 OA
BRANCH   4   6
ATOM      6  C   UNL A   1      33.091  22.647  24.722  1.00  0.00     0.062 A 
ATOM      7  C   UNL A   1      33.702  25.874  25.329  1.00  0.00     0.055 A 
ATOM      8  C   UNL A   1      33.446  24.067  26.087  1.00  0.00     0.043 A 
ATOM      9  C   UNL A   1      33.671  26.426  23.431  1.00  0.00     0.041 A 
ATOM     10  C   UNL A   1      33.309  24.997  22.079  1.00  0.00     0.019 A 
ATOM     11  Br  UNL A   1      33.865  28.223  22.889  1.00  0.00    -0.049 Br
ATOM     12  C   UNL A   1      33.049  23.204  22.841  1.00  0.00     0.017 A 
BRANCH   7  13
ATOM     13  N   UNL A   1      33.441  26.872  26.270  1.00  0.00    -0.331 N 
ATOM     14  H   UNL A   1      34.199  27.256  26.765  1.00  0.00     0.169 HD
BRANCH  13  15
ATOM     15  C   UNL A   1      32.200  27.332  26.538  1.00  0.00     0.177 C 
ATOM     16  S   UNL A   1      31.957  28.979  26.687  1.00  0.00    -0.040 S 
BRANCH  15  17
ATOM     17  N   UNL A   1      31.137  26.478  26.778  1.00  0.00    -0.299 N 
ATOM     18  O   UNL A   1      29.409  24.995  26.743  1.00  0.00    -0.269 OA
ATOM     19  C   UNL A   1      30.132  25.759  26.102  1.00  0.00     0.257 C 
ATOM     20  H   UNL A   1      31.058  26.319  27.747  1.00  0.00     0.172 HD
BRANCH  19  21
ATOM     21  C   UNL A   1      29.910  25.770  24.637  1.00  0.00     0.040 A 
ATOM     22  C   UNL A   1      30.161  26.466  23.584  1.00  0.00     0.017 A 
ATOM     23  C   UNL A   1      29.406  26.900  24.211  1.00  0.00     0.017 A 
ATOM     24  C   UNL A   1      30.284  28.174  22.463  1.00  0.00     0.040 A 
ATOM     25  C   UNL A   1      29.500  28.621  23.098  1.00  0.00     0.040 A 
ATOM     26  C   UNL A   1      30.145  29.439  22.343  1.00  0.00     0.123 A 
ATOM     27  F   UNL A   1      29.656  30.058  21.269  1.00  0.00    -0.207 F 
ENDBRANCH  19  21
ENDBRANCH  15  17
ENDBRANCH  13  15
ENDBRANCH   7  13
ENDBRANCH   4   6
ENDBRANCH   3   4
ENDBRANCH   2   3
ENDBRANCH   1   2
BRANCH   1  28
ATOM     28  O   UNL A   1      37.561  20.986  24.568  1.00  0.00    -0.374 OA
BRANCH  28  29
ATOM     29  C   UNL A   1      37.690  19.631  25.003  1.00  0.00     0.202 C 
BRANCH  29  30
ATOM     30  C   UNL A   1      39.053  19.363  25.639  1.00  0.00     0.261 C 
BRANCH  30  31
ATOM     31  O   UNL A   1      39.683  20.620  25.938  1.00  0.00    -0.460 OA
BRANCH  31  32
ATOM     32  C   UNL A   1      40.611  20.594  26.922  1.00  0.00     0.338 C 
ATOM     33  O   UNL A   1      41.198  19.618  27.355  1.00  0.00    -0.246 OA
BRANCH  32  34
ATOM     34  C   UNL A   1      40.921  21.981  27.341  1.00  0.00     0.060 A 
ATOM     35  C   UNL A   1      40.297  23.025  26.646  1.00  0.00     0.016 A 
ATOM     36  C   UNL A   1      41.799  22.269  28.396  1.00  0.00     0.016 A 
ATOM     37  C   UNL A   1      40.578  24.350  26.974  1.00  0.00     0.010 A 
ATOM     38  C   UNL A   1      42.083  23.597  28.722  1.00  0.00     0.010 A 
ATOM     39  C   UNL A   1      41.494  24.641  27.993  1.00  0.00    -0.014 A 
BRANCH  39  40
ATOM     40  C   UNL A   1      41.948  26.034  28.184  1.00  0.00     0.031 A 
ATOM     41  C   UNL A   1      43.290  26.432  27.643  1.00  0.00     0.074 A 
ATOM     42  C   UNL A   1      41.167  26.934  28.803  1.00  0.00     0.049 A 
ATOM     43  N   UNL A   1      43.860  27.609  27.627  1.00  0.00    -0.248 NA
ATOM     44  C   UNL A   1      44.095  25.361  27.035  1.00  0.00     0.031 C 
ATOM     45  C   UNL A   1      39.846  26.665  29.365  1.00  0.00     0.029 A 
ATOM     46  N   UNL A   1      41.380  28.265  29.055  1.00  0.00    -0.354 N 
ATOM     47  C   UNL A   1      45.077  27.425  26.987  1.00  0.00     0.074 A 
ATOM     48  C   UNL A   1      45.181  26.020  26.657  1.00  0.00     0.031 C 
ATOM     49  C   UNL A   1      39.363  27.802  29.899  1.00  0.00     0.029 A 
ATOM     50  C   UNL A   1      40.342  28.871  29.717  1.00  0.00     0.049 A 
ATOM     51  H   UNL A   1      42.201  28.740  28.788  1.00  0.00     0.167 HD
ATOM     52  C   UNL A   1      46.020  28.347  26.688  1.00  0.00     0.037 A 
ATOM     53  C   UNL A   1      40.204  30.148  30.118  1.00  0.00     0.037 A 
ATOM     54  C   UNL A   1      45.934  29.739  27.028  1.00  0.00     0.049 A 
ATOM     55  C   UNL A   1      41.290  31.145  29.821  1.00  0.00     0.074 A 
ATOM     56  C   UNL A   1      46.834  30.754  26.759  1.00  0.00     0.029 A 
ATOM     57  N   UNL A   1      44.880  30.309  27.724  1.00  0.00    -0.354 N 
ATOM     58  N   UNL A   1      42.415  30.971  29.174  1.00  0.00    -0.248 NA
ATOM     59  C   UNL A   1      41.082  32.517  30.309  1.00  0.00     0.031 C 
ATOM     60  C   UNL A   1      46.333  31.938  27.313  1.00  0.00     0.029 A 
ATOM     61  C   UNL A   1      45.114  31.659  27.912  1.00  0.00     0.049 A 
ATOM     62  H   UNL A   1      44.082  29.825  28.038  1.00  0.00     0.167 HD
ATOM     63  C   UNL A   1      43.042  32.208  29.159  1.00  0.00     0.074 A 
ATOM     64  C   UNL A   1      42.172  33.129  29.862  1.00  0.00     0.031 C 
ATOM     65  C   UNL A   1      44.231  32.553  28.610  1.00  0.00     0.037 A 
BRANCH  52  66
ATOM     66  C   UNL A   1      47.227  27.864  25.953  1.00  0.00     0.064 A 
ATOM     67  C   UNL A   1      47.243  27.812  24.552  1.00  0.00     0.173 A 
ATOM     68  C   UNL A   1      48.369  27.449  26.649  1.00  0.00     0.173 A 
ATOM     69  F   UNL A   1      46.161  28.180  23.850  1.00  0.00    -0.203 F 
ATOM     70  C   UNL A   1      48.364  27.349  23.871  1.00  0.00     0.198 A 
ATOM     71  C   UNL A   1      49.492  26.995  25.962  1.00  0.00     0.198 A 
ATOM     72  F   UNL A   1      48.390  27.472  27.989  1.00  0.00    -0.203 F 
ATOM     73  F   UNL A   1      48.352  27.280  22.532  1.00  0.00    -0.200 F 
ATOM     74  C   UNL A   1      49.488  26.942  24.576  1.00  0.00     0.200 A 
ATOM     75  F   UNL A   1      50.576  26.595  26.643  1.00  0.00    -0.200 F 
ATOM     76  F   UNL A   1      50.564  26.490  23.919  1.00  0.00    -0.200 F 
ENDBRANCH  52  66
BRANCH  53  77
ATOM     77  C   UNL A   1      38.977  30.563  30.837  1.00  0.00     0.064 A 
ATOM     78  C   UNL A   1      38.915  30.526  32.236  1.00  0.00     0.173 A 
ATOM     79  C   UNL A   1      37.842  30.997  30.137  1.00  0.00     0.173 A 
ATOM     80  F   UNL A   1      39.972  30.097  32.940  1.00  0.00    -0.203 F 
ATOM     81  C   UNL A   1      37.758  30.904  32.911  1.00  0.00     0.198 A 
ATOM     82  C   UNL A   1      36.689  31.385  30.815  1.00  0.00     0.198 A 
ATOM     83  F   UNL A   1      37.856  31.042  28.797  1.00  0.00    -0.203 F 
ATOM     84  F   UNL A   1      37.713  30.839  34.249  1.00  0.00    -0.200 F 
ATOM     85  C   UNL A   1      36.647  31.335  32.201  1.00  0.00     0.200 A 
ATOM     86  F   UNL A   1      35.617  31.803  30.126  1.00  0.00    -0.200 F 
ATOM     87  F   UNL A   1      35.532  31.697  32.852  1.00  0.00    -0.200 F 
ENDBRANCH  53  77
BRANCH  65  88
ATOM     88  C   UNL A   1      44.654  33.982  28.736  1.00  0.00     0.064 A 
ATOM     89  C   UNL A   1      45.457  34.406  29.802  1.00  0.00     0.173 A 
ATOM     90  C   UNL A   1      44.303  34.918  27.752  1.00  0.00     0.173 A 
ATOM     91  F   UNL A   1      45.805  33.544  30.769  1.00  0.00    -0.203 F 
ATOM     92  C   UNL A   1      45.892  35.725  29.883  1.00  0.00     0.198 A 
ATOM     93  C   UNL A   1      44.749  36.233  27.831  1.00  0.00     0.198 A 
ATOM     94  F   UNL A   1      43.535  34.552  26.716  1.00  0.00    -0.203 F 
ATOM     95  F   UNL A   1      46.648  36.118  30.918  1.00  0.00    -0.200 F 
ATOM     96  C   UNL A   1      45.542  36.636  28.896  1.00  0.00     0.200 A 
ATOM     97  F   UNL A   1      44.412  37.113  26.878  1.00  0.00    -0.200 F 
ATOM     98  F   UNL A   1      45.967  37.904  28.973  1.00  0.00    -0.200 F 
ENDBRANCH  65  88
ENDBRANCH  39  40
ENDBRANCH  32  34
ENDBRANCH  31  32
ENDBRANCH  30  31
ENDBRANCH  29  30
ENDBRANCH  28  29
ENDBRANCH   1  28
TORSDOF 18
ENDMDL
MODEL 2
REMARK VINA RESULT:     -12.0      4.938     10.478
REMARK SMILES O=C(NC(=S)Nc1cc(C(=O)OCCOCCOC(=O)c2ccc(-c3c4nc(c(-c5c(F)c(F)c(F)c(F)c5F)c5ccc([nH]5)c(-c5c(F)c(F)c(F)c(F)c5F)c5nc(c(-c6c(F)c(F)c(F)c(F)c6F)c6ccc3[nH]6)C=C5)C=C4)cc2)ccc1Br)c1ccc(F)cc1
REMARK SMILES IDX 14 1 13 2 12 3 10 4 11 5 9 6 7 7 8 8 86 9 85 10 87 11 84 12
REMARK SMILES IDX 6 13 4 15 5 16 3 17 1 18 2 19 88 21 89 22 94 23 90 24 93 25
REMARK SMILES IDX 91 26 92 27 15 28 16 29 17 30 18 31 19 32 20 33 21 34 22 35
REMARK SMILES IDX 83 36 23 37 82 38 24 39 25 40 26 41 76 42 27 43 81 44 75 45
REMARK SMILES IDX 77 46 28 47 80 48 74 49 73 50 29 52 61 53 41 54 60 55 42 56
REMARK SMILES IDX 45 57 59 58 78 59 43 60 44 61 58 63 79 64 46 65 30 66 31 67
REMARK SMILES IDX 39 68 32 69 33 70 37 71 40 72 34 73 35 74 38 75 36 76 62 77
REMARK SMILES IDX 63 78 71 79 64 80 65 81 69 82 72 83 66 84 67 85 70 86 68 87
REMARK SMILES IDX 47 88 48 89 56 90 49 91 50 92 54 93 57 94 51 95 52 96 55 97
REMARK SMILES IDX 53 98
REMARK H PARENT 6 14 3 20 77 51 45 62
REMARK Flexibility Score: inf
ROOT
ATOM      1  C   UNL A   1      32.712  30.449  26.461  1.00  0.00     0.202 C 
ENDROOT
BRANCH   1   2
ATOM      2  C   UNL A   1      32.857  29.468  25.294  1.00  0.00     0.261 C 
BRANCH   2   3
ATOM      3  O   UNL A   1      31.554  29.031  24.867  1.00  0.00    -0.460 OA
BRANCH   3   4
ATOM      4  C   UNL A   1      31.536  28.022  23.974  1.00  0.00     0.338 C 
ATOM      5  O   UNL A   1      31.307  28.053  22.780  1.00  0.00    -0.246 OA
BRANCH   4   6
ATOM      6  C   UNL A   1      32.015  26.814  24.651  1.00  0.00     0.062 A 
ATOM      7  C   UNL A   1      34.440  24.720  25.596  1.00  0.00     0.055 A 
ATOM      8  C   UNL A   1      33.958  26.339  24.569  1.00  0.00     0.043 A 
ATOM      9  C   UNL A   1      33.267  23.560  26.683  1.00  0.00     0.041 A 
ATOM     10  C   UNL A   1      31.327  24.044  26.751  1.00  0.00     0.019 A 
ATOM     11  Br  UNL A   1      33.889  22.001  27.545  1.00  0.00    -0.049 Br
ATOM     12  C   UNL A   1      30.854  25.650  25.722  1.00  0.00     0.017 A 
BRANCH   7  13
ATOM     13  N   UNL A   1      35.622  24.144  25.127  1.00  0.00    -0.331 N 
ATOM     14  H   UNL A   1      36.474  24.437  25.524  1.00  0.00     0.169 HD
BRANCH  13  15
ATOM     15  C   UNL A   1      35.656  23.207  24.155  1.00  0.00     0.177 C 
ATOM     16  S   UNL A   1      36.656  21.881  24.337  1.00  0.00    -0.040 S 
BRANCH  15  17
ATOM     17  N   UNL A   1      34.954  23.354  22.972  1.00  0.00    -0.299 N 
ATOM     18  O   UNL A   1      33.444  23.528  21.274  1.00  0.00    -0.269 OA
ATOM     19  C   UNL A   1      33.677  23.135  22.419  1.00  0.00     0.257 C 
ATOM     20  H   UNL A   1      35.544  23.744  22.286  1.00  0.00     0.172 HD
BRANCH  19  21
ATOM     21  C   UNL A   1      32.526  22.534  23.134  1.00  0.00     0.040 A 
ATOM     22  C   UNL A   1      32.240  21.633  24.007  1.00  0.00     0.017 A 
ATOM     23  C   UNL A   1      32.505  21.229  23.049  1.00  0.00     0.017 A 
ATOM     24  C   UNL A   1      32.325  19.780  24.871  1.00  0.00     0.040 A 
ATOM     25  C   UNL A   1      32.587  19.357  23.886  1.00  0.00     0.040 A 
ATOM     26  C   UNL A   1      32.775  18.584  24.897  1.00  0.00     0.123 A 
ATOM     27  F   UNL A   1      32.055  17.501  25.193  1.00  0.00    -0.207 F 
ENDBRANCH  19  21
ENDBRANCH  15  17
ENDBRANCH  13  15
ENDBRANCH   7  13
ENDBRANCH   4   6
ENDBRANCH   3   4
ENDBRANCH   2   3
ENDBRANCH   1   2
BRANCH   1  28
ATOM     28  O   UNL A   1      31.411  31.042  26.494  1.00  0.00    -0.374 OA
BRANCH  28  29
ATOM     29  C   UNL A   1      31.399  32.463  26.647  1.00  0.00     0.202 C 
BRANCH  29  30
ATOM     30  C   UNL A   1      32.717  32.988  27.213  1.00  0.00     0.261 C 
BRANCH  30  31
ATOM     31  O   UNL A   1      32.434  33.851  28.328  1.00  0.00    -0.460 OA
BRANCH  31  32
ATOM     32  C   UNL A   1      33.435  34.683  28.697  1.00  0.00     0.338 C 
ATOM     33  O   UNL A   1      33.379  35.894  28.818  1.00  0.00    -0.246 OA
BRANCH  32  34
ATOM     34  C   UNL A   1      34.627  33.883  29.066  1.00  0.00     0.060 A 
ATOM     35  C   UNL A   1      34.425  32.732  29.837  1.00  0.00     0.016 A 
ATOM     36  C   UNL A   1      35.923  34.239  28.667  1.00  0.00     0.016 A 
ATOM     37  C   UNL A   1      35.512  31.961  30.244  1.00  0.00     0.010 A 
ATOM     38  C   UNL A   1      37.014  33.468  29.076  1.00  0.00     0.010 A 
ATOM     39  C   UNL A   1      36.813  32.343  29.889  1.00  0.00    -0.014 A 
BRANCH  39  40
ATOM     40  C   UNL A   1      37.964  31.650  30.503  1.00  0.00     0.031 A 
ATOM     41  C   UNL A   1      38.332  31.985  31.918  1.00  0.00     0.074 A 
ATOM     42  C   UNL A   1      38.651  30.718  29.821  1.00  0.00     0.049 A 
ATOM     43  N   UNL A   1      39.251  31.454  32.683  1.00  0.00    -0.248 NA
ATOM     44  C   UNL A   1      37.558  33.060  32.560  1.00  0.00     0.031 C 
ATOM     45  C   UNL A   1      38.384  30.307  28.445  1.00  0.00     0.029 A 
ATOM     46  N   UNL A   1      39.716  29.947  30.207  1.00  0.00    -0.354 N 
ATOM     47  C   UNL A   1      39.150  32.112  33.900  1.00  0.00     0.074 A 
ATOM     48  C   UNL A   1      38.104  33.103  33.767  1.00  0.00     0.031 C 
ATOM     49  C   UNL A   1      39.267  29.352  28.099  1.00  0.00     0.029 A 
ATOM     50  C   UNL A   1      40.157  29.092  29.228  1.00  0.00     0.049 A 
ATOM     51  H   UNL A   1      40.127  30.001  31.101  1.00  0.00     0.167 HD
ATOM     52  C   UNL A   1      39.856  31.900  35.034  1.00  0.00     0.037 A 
ATOM     53  C   UNL A   1      41.163  28.198  29.253  1.00  0.00     0.037 A 
ATOM     54  C   UNL A   1      40.907  30.933  35.169  1.00  0.00     0.049 A 
ATOM     55  C   UNL A   1      41.969  28.017  30.509  1.00  0.00     0.074 A 
ATOM     56  C   UNL A   1      41.675  30.638  36.281  1.00  0.00     0.029 A 
ATOM     57  N   UNL A   1      41.344  30.107  34.146  1.00  0.00    -0.354 N 
ATOM     58  N   UNL A   1      41.834  28.611  31.669  1.00  0.00    -0.248 NA
ATOM     59  C   UNL A   1      43.067  27.040  30.458  1.00  0.00     0.031 C 
ATOM     60  C   UNL A   1      42.594  29.644  35.924  1.00  0.00     0.029 A 
ATOM     61  C   UNL A   1      42.385  29.313  34.594  1.00  0.00     0.049 A 
ATOM     62  H   UNL A   1      40.970  30.087  33.236  1.00  0.00     0.167 HD
ATOM     63  C   UNL A   1      42.812  28.070  32.490  1.00  0.00     0.074 A 
ATOM     64  C   UNL A   1      43.536  27.098  31.698  1.00  0.00     0.031 C 
ATOM     65  C   UNL A   1      43.085  28.350  33.787  1.00  0.00     0.037 A 
BRANCH  52  66
ATOM     66  C   UNL A   1      39.501  32.742  36.215  1.00  0.00     0.064 A 
ATOM     67  C   UNL A   1      40.167  33.950  36.463  1.00  0.00     0.173 A 
ATOM     68  C   UNL A   1      38.496  32.341  37.104  1.00  0.00     0.173 A 
ATOM     69  F   UNL A   1      41.151  34.359  35.648  1.00  0.00    -0.203 F 
ATOM     70  C   UNL A   1      39.844  34.727  37.572  1.00  0.00     0.198 A 
ATOM     71  C   UNL A   1      38.168  33.125  38.206  1.00  0.00     0.198 A 
ATOM     72  F   UNL A   1      37.842  31.186  36.908  1.00  0.00    -0.203 F 
ATOM     73  F   UNL A   1      40.510  35.865  37.809  1.00  0.00    -0.200 F 
ATOM     74  C   UNL A   1      38.844  34.314  38.441  1.00  0.00     0.200 A 
ATOM     75  F   UNL A   1      37.207  32.724  39.051  1.00  0.00    -0.200 F 
ATOM     76  F   UNL A   1      38.539  35.058  39.513  1.00  0.00    -0.200 F 
ENDBRANCH  52  66
BRANCH  53  77
ATOM     77  C   UNL A   1      41.456  27.389  28.047  1.00  0.00     0.064 A 
ATOM     78  C   UNL A   1      40.865  26.133  27.863  1.00  0.00     0.173 A 
ATOM     79  C   UNL A   1      42.336  27.856  27.061  1.00  0.00     0.173 A 
ATOM     80  F   UNL A   1      40.034  25.642  28.793  1.00  0.00    -0.203 F 
ATOM     81  C   UNL A   1      41.150  25.367  26.735  1.00  0.00     0.198 A 
ATOM     82  C   UNL A   1      42.611  27.093  25.928  1.00  0.00     0.198 A 
ATOM     83  F   UNL A   1      42.927  29.051  27.200  1.00  0.00    -0.203 F 
ATOM     84  F   UNL A   1      40.592  24.157  26.591  1.00  0.00    -0.200 F 
ATOM     85  C   UNL A   1      42.020  25.848  25.768  1.00  0.00     0.200 A 
ATOM     86  F   UNL A   1      43.451  27.562  24.995  1.00  0.00    -0.200 F 
ATOM     87  F   UNL A   1      42.296  25.109  24.684  1.00  0.00    -0.200 F 
ENDBRANCH  53  77
BRANCH  65  88
ATOM     88  C   UNL A   1      44.201  27.592  34.431  1.00  0.00     0.064 A 
ATOM     89  C   UNL A   1      43.982  26.334  35.007  1.00  0.00     0.173 A 
ATOM     90  C   UNL A   1      45.507  28.100  34.418  1.00  0.00     0.173 A 
ATOM     91  F   UNL A   1      42.744  25.818  35.049  1.00  0.00    -0.203 F 
ATOM     92  C   UNL A   1      45.036  25.609  35.555  1.00  0.00     0.198 A 
ATOM     93  C   UNL A   1      46.560  27.368  34.958  1.00  0.00     0.198 A 
ATOM     94  F   UNL A   1      45.760  29.301  33.877  1.00  0.00    -0.203 F 
ATOM     95  F   UNL A   1      44.805  24.414  36.115  1.00  0.00    -0.200 F 
ATOM     96  C   UNL A   1      46.324  26.125  35.526  1.00  0.00     0.200 A 
ATOM     97  F   UNL A   1      47.805  27.865  34.929  1.00  0.00    -0.200 F 
ATOM     98  F   UNL A   1      47.338  25.423  36.050  1.00  0.00    -0.200 F 
ENDBRANCH  65  88
ENDBRANCH  39  40
ENDBRANCH  32  34
ENDBRANCH  31  32
ENDBRANCH  30  31
ENDBRANCH  29  30
ENDBRANCH  28  29
ENDBRANCH   1  28
TORSDOF 18
ENDMDL
MODEL 3
REMARK VINA RESULT:     -11.9      1.580      2.097
REMARK SMILES O=C(NC(=S)Nc1cc(C(=O)OCCOCCOC(=O)c2ccc(-c3c4nc(c(-c5c(F)c(F)c(F)c(F)c5F)c5ccc([nH]5)c(-c5c(F)c(F)c(F)c(F)c5F)c5nc(c(-c6c(F)c(F)c(F)c(F)c6F)c6ccc3[nH]6)C=C5)C=C4)cc2)ccc1Br)c1ccc(F)cc1
REMARK SMILES IDX 14 1 13 2 12 3 10 4 11 5 9 6 7 7 8 8 86 9 85 10 87 11 84 12
REMARK SMILES IDX 6 13 4 15 5 16 3 17 1 18 2 19 88 21 89 22 94 23 90 24 93 25
REMARK SMILES IDX 91 26 92 27 15 28 16 29 17 30 18 31 19 32 20 33 21 34 22 35
REMARK SMILES IDX 83 36 23 37 82 38 24 39 25 40 26 41 76 42 27 43 81 44 75 45
REMARK SMILES IDX 77 46 28 47 80 48 74 49 73 50 29 52 61 53 41 54 60 55 42 56
REMARK SMILES IDX 45 57 59 58 78 59 43 60 44 61 58 63 79 64 46 65 30 66 31 67
REMARK SMILES IDX 39 68 32 69 33 70 37 71 40 72 34 73 35 74 38 75 36 76 62 77
REMARK SMILES IDX 63 78 71 79 64 80 65 81 69 82 72 83 66 84 67 85 70 86 68 87
REMARK SMILES IDX 47 88 48 89 56 90 49 91 50 92 54 93 57 94 51 95 52 96 55 97
REMARK SMILES IDX 53 98
REMARK H PARENT 6 14 3 20 77 51 45 62
REMARK Flexibility Score: inf
ROOT
ATOM      1  C   UNL A   1      36.087  21.271  25.452  1.00  0.00     0.202 C 
ENDROOT
BRANCH   1   2
ATOM      2  C   UNL A   1      35.001  20.324  24.933  1.00  0.00     0.261 C 
BRANCH   2   3
ATOM      3  O   UNL A   1      33.900  20.300  25.860  1.00  0.00    -0.460 OA
BRANCH   3   4
ATOM      4  C   UNL A   1      32.682  20.103  25.319  1.00  0.00     0.338 C 
ATOM      5  O   UNL A   1      32.070  19.065  25.153  1.00  0.00    -0.246 OA
BRANCH   4   6
ATOM      6  C   UNL A   1      32.079  21.417  25.077  1.00  0.00     0.062 A 
ATOM      7  C   UNL A   1      31.475  24.083  23.159  1.00  0.00     0.055 A 
ATOM      8  C   UNL A   1      32.422  22.358  23.345  1.00  0.00     0.043 A 
ATOM      9  C   UNL A   1      30.245  24.953  24.437  1.00  0.00     0.041 A 
ATOM     10  C   UNL A   1      29.916  24.004  26.166  1.00  0.00     0.019 A 
ATOM     11  Br  UNL A   1      29.480  26.649  24.122  1.00  0.00    -0.049 Br
ATOM     12  C   UNL A   1      30.867  22.293  26.347  1.00  0.00     0.017 A 
BRANCH   7  13
ATOM     13  N   UNL A   1      32.100  24.918  22.230  1.00  0.00    -0.331 N 
ATOM     14  H   UNL A   1      31.766  24.920  21.304  1.00  0.00     0.169 HD
BRANCH  13  15
ATOM     15  C   UNL A   1      33.142  25.721  22.538  1.00  0.00     0.177 C 
ATOM     16  S   UNL A   1      33.267  27.213  21.795  1.00  0.00    -0.040 S 
BRANCH  15  17
ATOM     17  N   UNL A   1      34.156  25.312  23.385  1.00  0.00    -0.299 N 
ATOM     18  O   UNL A   1      35.522  24.671  25.092  1.00  0.00    -0.269 OA
ATOM     19  C   UNL A   1      34.480  25.235  24.754  1.00  0.00     0.257 C 
ATOM     20  H   UNL A   1      34.903  24.952  22.852  1.00  0.00     0.172 HD
BRANCH  19  21
ATOM     21  C   UNL A   1      33.619  25.706  25.865  1.00  0.00     0.040 A 
ATOM     22  C   UNL A   1      32.741  26.603  26.149  1.00  0.00     0.017 A 
ATOM     23  C   UNL A   1      33.740  26.990  26.086  1.00  0.00     0.017 A 
ATOM     24  C   UNL A   1      31.957  28.492  26.211  1.00  0.00     0.040 A 
ATOM     25  C   UNL A   1      32.982  28.896  26.157  1.00  0.00     0.040 A 
ATOM     26  C   UNL A   1      32.035  29.739  25.940  1.00  0.00     0.123 A 
ATOM     27  F   UNL A   1      31.668  30.725  26.759  1.00  0.00    -0.207 F 
ENDBRANCH  19  21
ENDBRANCH  15  17
ENDBRANCH  13  15
ENDBRANCH   7  13
ENDBRANCH   4   6
ENDBRANCH   3   4
ENDBRANCH   2   3
ENDBRANCH   1   2
BRANCH   1  28
ATOM     28  O   UNL A   1      37.362  20.984  24.871  1.00  0.00    -0.374 OA
BRANCH  28  29
ATOM     29  C   UNL A   1      37.763  19.614  24.942  1.00  0.00     0.202 C 
BRANCH  29  30
ATOM     30  C   UNL A   1      39.178  19.461  25.497  1.00  0.00     0.261 C 
BRANCH  30  31
ATOM     31  O   UNL A   1      39.627  20.736  25.988  1.00  0.00    -0.460 OA
BRANCH  31  32
ATOM     32  C   UNL A   1      40.592  20.696  26.934  1.00  0.00     0.338 C 
ATOM     33  O   UNL A   1      41.194  19.714  27.331  1.00  0.00    -0.246 OA
BRANCH  32  34
ATOM     34  C   UNL A   1      40.919  22.078  27.360  1.00  0.00     0.060 A 
ATOM     35  C   UNL A   1      40.311  23.133  26.668  1.00  0.00     0.016 A 
ATOM     36  C   UNL A   1      41.799  22.350  28.417  1.00  0.00     0.016 A 
ATOM     37  C   UNL A   1      40.609  24.453  27.001  1.00  0.00     0.010 A 
ATOM     38  C   UNL A   1      42.099  23.673  28.750  1.00  0.00     0.010 A 
ATOM     39  C   UNL A   1      41.527  24.727  28.023  1.00  0.00    -0.014 A 
BRANCH  39  40
ATOM     40  C   UNL A   1      41.999  26.113  28.221  1.00  0.00     0.031 A 
ATOM     41  C   UNL A   1      43.340  26.499  27.672  1.00  0.00     0.074 A 
ATOM     42  C   UNL A   1      41.234  27.018  28.853  1.00  0.00     0.049 A 
ATOM     43  N   UNL A   1      43.925  27.669  27.659  1.00  0.00    -0.248 NA
ATOM     44  C   UNL A   1      44.128  25.423  27.049  1.00  0.00     0.031 C 
ATOM     45  C   UNL A   1      39.914  26.760  29.424  1.00  0.00     0.029 A 
ATOM     46  N   UNL A   1      41.465  28.344  29.113  1.00  0.00    -0.354 N 
ATOM     47  C   UNL A   1      45.134  27.476  27.009  1.00  0.00     0.074 A 
ATOM     48  C   UNL A   1      45.219  26.072  26.667  1.00  0.00     0.031 C 
ATOM     49  C   UNL A   1      39.449  27.899  29.971  1.00  0.00     0.029 A 
ATOM     50  C   UNL A   1      40.440  28.957  29.788  1.00  0.00     0.049 A 
ATOM     51  H   UNL A   1      42.289  28.812  28.843  1.00  0.00     0.167 HD
ATOM     52  C   UNL A   1      46.085  28.389  26.708  1.00  0.00     0.037 A 
ATOM     53  C   UNL A   1      40.320  30.232  30.200  1.00  0.00     0.037 A 
ATOM     54  C   UNL A   1      46.019  29.779  27.059  1.00  0.00     0.049 A 
ATOM     55  C   UNL A   1      41.415  31.219  29.902  1.00  0.00     0.074 A 
ATOM     56  C   UNL A   1      46.929  30.785  26.791  1.00  0.00     0.029 A 
ATOM     57  N   UNL A   1      44.977  30.356  27.768  1.00  0.00    -0.354 N 
ATOM     58  N   UNL A   1      42.533  31.036  29.243  1.00  0.00    -0.248 NA
ATOM     59  C   UNL A   1      41.228  32.589  30.401  1.00  0.00     0.031 C 
ATOM     60  C   UNL A   1      46.447  31.971  27.357  1.00  0.00     0.029 A 
ATOM     61  C   UNL A   1      45.230  31.702  27.964  1.00  0.00     0.049 A 
ATOM     62  H   UNL A   1      44.176  29.879  28.085  1.00  0.00     0.167 HD
ATOM     63  C   UNL A   1      43.174  32.266  29.233  1.00  0.00     0.074 A 
ATOM     64  C   UNL A   1      42.321  33.191  29.950  1.00  0.00     0.031 C 
ATOM     65  C   UNL A   1      44.363  32.601  28.676  1.00  0.00     0.037 A 
BRANCH  52  66
ATOM     66  C   UNL A   1      47.280  27.896  25.960  1.00  0.00     0.064 A 
ATOM     67  C   UNL A   1      47.260  27.790  24.562  1.00  0.00     0.173 A 
ATOM     68  C   UNL A   1      48.448  27.528  26.639  1.00  0.00     0.173 A 
ATOM     69  F   UNL A   1      46.153  28.113  23.876  1.00  0.00    -0.203 F 
ATOM     70  C   UNL A   1      48.370  27.319  23.868  1.00  0.00     0.198 A 
ATOM     71  C   UNL A   1      49.560  27.066  25.940  1.00  0.00     0.198 A 
ATOM     72  F   UNL A   1      48.505  27.604  27.977  1.00  0.00    -0.203 F 
ATOM     73  F   UNL A   1      48.323  27.197  22.534  1.00  0.00    -0.200 F 
ATOM     74  C   UNL A   1      49.519  26.959  24.557  1.00  0.00     0.200 A 
ATOM     75  F   UNL A   1      50.668  26.711  26.606  1.00  0.00    -0.200 F 
ATOM     76  F   UNL A   1      50.585  26.498  23.889  1.00  0.00    -0.200 F 
ENDBRANCH  52  66
BRANCH  53  77
ATOM     77  C   UNL A   1      39.104  30.656  30.932  1.00  0.00     0.064 A 
ATOM     78  C   UNL A   1      39.016  30.518  32.323  1.00  0.00     0.173 A 
ATOM     79  C   UNL A   1      38.005  31.202  30.253  1.00  0.00     0.173 A 
ATOM     80  F   UNL A   1      40.038  29.981  33.006  1.00  0.00    -0.203 F 
ATOM     81  C   UNL A   1      37.869  30.905  33.010  1.00  0.00     0.198 A 
ATOM     82  C   UNL A   1      36.862  31.599  30.943  1.00  0.00     0.198 A 
ATOM     83  F   UNL A   1      38.045  31.347  28.921  1.00  0.00    -0.203 F 
ATOM     84  F   UNL A   1      37.798  30.741  34.339  1.00  0.00    -0.200 F 
ATOM     85  C   UNL A   1      36.794  31.447  32.320  1.00  0.00     0.200 A 
ATOM     86  F   UNL A   1      35.826  32.123  30.274  1.00  0.00    -0.200 F 
ATOM     87  F   UNL A   1      35.689  31.817  32.982  1.00  0.00    -0.200 F 
ENDBRANCH  53  77
BRANCH  65  88
ATOM     88  C   UNL A   1      44.804  34.024  28.809  1.00  0.00     0.064 A 
ATOM     89  C   UNL A   1      45.622  34.430  29.871  1.00  0.00     0.173 A 
ATOM     90  C   UNL A   1      44.455  34.971  27.837  1.00  0.00     0.173 A 
ATOM     91  F   UNL A   1      45.968  33.556  30.828  1.00  0.00    -0.203 F 
ATOM     92  C   UNL A   1      46.074  35.743  29.958  1.00  0.00     0.198 A 
ATOM     93  C   UNL A   1      44.917  36.281  27.922  1.00  0.00     0.198 A 
ATOM     94  F   UNL A   1      43.673  34.623  26.804  1.00  0.00    -0.203 F 
ATOM     95  F   UNL A   1      46.843  36.119  30.989  1.00  0.00    -0.200 F 
ATOM     96  C   UNL A   1      45.725  36.665  28.981  1.00  0.00     0.200 A 
ATOM     97  F   UNL A   1      44.582  37.172  26.978  1.00  0.00    -0.200 F 
ATOM     98  F   UNL A   1      46.166  37.928  29.065  1.00  0.00    -0.200 F 
ENDBRANCH  65  88
ENDBRANCH  39  40
ENDBRANCH  32  34
ENDBRANCH  31  32
ENDBRANCH  30  31
ENDBRANCH  29  30
ENDBRANCH  28  29
ENDBRANCH   1  28
TORSDOF 18
ENDMDL
