MODEL 1
REMARK VINA RESULT:     -11.9      0.000      0.000
REMARK SMILES O=C(Cc1sc(N2N=C(c3cccs3)C[C@@H]2c2ccco2)nc1-c1ccccc1)OCCOCCOC(=O)c1ccc(-c2c3nc(c(-c4c(F)c(F)c(F)c(F)c4F)c4ccc([nH]4)c(-c4c(F)c(F)c(F)c(F)c4F)c4nc(c(-c5c(F)c(F)c(F)c(F)c5F)c5ccc2[nH]5)C=C4)C=C3)cc1
REMARK SMILES IDX 32 1 31 2 30 3 2 4 1 5 3 6 4 7 5 8 23 9 6 10 22 11 24 12
REMARK SMILES IDX 25 13 29 14 26 15 28 16 27 17 7 18 8 19 16 20 9 21 15 22
REMARK SMILES IDX 17 23 18 24 21 25 19 26 20 27 10 28 11 29 14 30 12 31 13 32
REMARK SMILES IDX 33 33 34 34 35 35 36 36 37 37 38 38 39 39 40 40 101 41 41 42
REMARK SMILES IDX 100 43 42 44 43 45 44 46 94 47 45 48 99 49 93 50 95 51 46 52
REMARK SMILES IDX 98 53 92 54 91 55 47 57 79 58 59 59 78 60 60 61 63 62 77 63
REMARK SMILES IDX 96 64 61 65 62 66 76 68 97 69 64 70 48 71 49 72 57 73 50 74
REMARK SMILES IDX 51 75 55 76 58 77 52 78 53 79 56 80 54 81 80 82 81 83 89 84
REMARK SMILES IDX 82 85 83 86 87 87 90 88 84 89 85 90 88 91 86 92 65 93 66 94
REMARK SMILES IDX 74 95 67 96 68 97 72 98 75 99 69 100 70 101 73 102 71 103
REMARK H PARENT 95 56 63 67
REMARK Flexibility Score: inf
ROOT
ATOM      1  C   UNL A   1      37.431  22.206  24.749  1.00  0.00     0.202 C 
ENDROOT
BRANCH   1   2
ATOM      2  C   UNL A   1      36.462  22.862  23.759  1.00  0.00     0.261 C 
BRANCH   2   3
ATOM      3  O   UNL A   1      35.261  22.175  23.410  1.00  0.00    -0.463 OA
BRANCH   3   4
ATOM      4  C   UNL A   1      34.154  22.919  23.160  1.00  0.00     0.311 C 
ATOM      5  O   UNL A   1      33.096  22.402  22.822  1.00  0.00    -0.252 OA
BRANCH   4   6
ATOM      6  C   UNL A   1      34.415  24.389  23.077  1.00  0.00     0.171 C 
BRANCH   6   7
ATOM      7  C   UNL A   1      33.692  25.284  24.032  1.00  0.00     0.046 A 
ATOM      8  S   UNL A   1      33.248  26.801  23.346  1.00  0.00    -0.099 S 
ATOM      9  C   UNL A   1      33.297  25.282  25.368  1.00  0.00     0.087 A 
ATOM     10  C   UNL A   1      32.703  27.356  24.871  1.00  0.00     0.207 A 
ATOM     11  N   UNL A   1      32.865  26.506  25.860  1.00  0.00    -0.218 NA
BRANCH   9  12
ATOM     12  C   UNL A   1      33.355  24.151  26.280  1.00  0.00     0.001 A 
ATOM     13  C   UNL A   1      34.595  23.614  26.662  1.00  0.00     0.010 A 
ATOM     14  C   UNL A   1      32.177  23.545  26.731  1.00  0.00     0.010 A 
ATOM     15  C   UNL A   1      34.646  22.397  27.354  1.00  0.00     0.001 A 
ATOM     16  C   UNL A   1      32.231  22.348  27.447  1.00  0.00     0.001 A 
ATOM     17  C   UNL A   1      33.462  21.756  27.724  1.00  0.00     0.000 A 
ENDBRANCH   9  12
BRANCH  10  18
ATOM     18  N   UNL A   1      32.109  28.569  24.945  1.00  0.00    -0.228 N 
ATOM     19  N   UNL A   1      31.316  29.036  23.938  1.00  0.00    -0.173 NA
ATOM     20  C   UNL A   1      31.969  29.300  26.198  1.00  0.00     0.183 C 
ATOM     21  C   UNL A   1      30.675  30.051  24.407  1.00  0.00     0.081 C 
ATOM     22  C   UNL A   1      31.016  30.444  25.807  1.00  0.00     0.095 C 
BRANCH  20  23
ATOM     23  C   UNL A   1      33.226  29.870  26.808  1.00  0.00     0.128 A 
ATOM     24  C   UNL A   1      33.674  31.163  27.007  1.00  0.00     0.048 A 
ATOM     25  O   UNL A   1      34.168  28.991  27.265  1.00  0.00    -0.467 OA
ATOM     26  C   UNL A   1      34.958  31.063  27.597  1.00  0.00     0.042 A 
ATOM     27  C   UNL A   1      35.208  29.720  27.741  1.00  0.00     0.195 A 
ENDBRANCH  20  23
BRANCH  21  28
ATOM     28  C   UNL A   1      29.710  30.749  23.615  1.00  0.00     0.050 A 
ATOM     29  C   UNL A   1      29.035  31.915  23.903  1.00  0.00     0.022 A 
ATOM     30  S   UNL A   1      29.328  30.148  22.062  1.00  0.00    -0.142 S 
ATOM     31  C   UNL A   1      28.204  32.326  22.820  1.00  0.00     0.012 A 
ATOM     32  C   UNL A   1      28.261  31.448  21.760  1.00  0.00     0.065 A 
ENDBRANCH  21  28
ENDBRANCH  10  18
ENDBRANCH   6   7
ENDBRANCH   4   6
ENDBRANCH   3   4
ENDBRANCH   2   3
ENDBRANCH   1   2
BRANCH   1  33
ATOM     33  O   UNL A   1      37.187  20.908  25.265  1.00  0.00    -0.374 OA
BRANCH  33  34
ATOM     34  C   UNL A   1      37.996  19.822  24.852  1.00  0.00     0.202 C 
BRANCH  34  35
ATOM     35  C   UNL A   1      39.158  19.417  25.765  1.00  0.00     0.261 C 
BRANCH  35  36
ATOM     36  O   UNL A   1      40.248  20.350  25.830  1.00  0.00    -0.460 OA
BRANCH  36  37
ATOM     37  C   UNL A   1      40.881  20.433  27.028  1.00  0.00     0.338 C 
ATOM     38  O   UNL A   1      41.374  19.521  27.664  1.00  0.00    -0.246 OA
BRANCH  37  39
ATOM     39  C   UNL A   1      40.994  21.852  27.445  1.00  0.00     0.060 A 
ATOM     40  C   UNL A   1      40.226  22.815  26.777  1.00  0.00     0.016 A 
ATOM     41  C   UNL A   1      41.916  22.241  28.419  1.00  0.00     0.016 A 
ATOM     42  C   UNL A   1      40.418  24.175  27.042  1.00  0.00     0.010 A 
ATOM     43  C   UNL A   1      42.114  23.602  28.677  1.00  0.00     0.010 A 
ATOM     44  C   UNL A   1      41.396  24.578  27.963  1.00  0.00    -0.014 A 
BRANCH  44  45
ATOM     45  C   UNL A   1      41.817  26.001  28.050  1.00  0.00     0.031 A 
ATOM     46  C   UNL A   1      43.160  26.387  27.495  1.00  0.00     0.074 A 
ATOM     47  C   UNL A   1      41.045  26.931  28.638  1.00  0.00     0.049 A 
ATOM     48  N   UNL A   1      43.776  27.541  27.532  1.00  0.00    -0.248 NA
ATOM     49  C   UNL A   1      43.910  25.323  26.810  1.00  0.00     0.031 C 
ATOM     50  C   UNL A   1      39.715  26.695  29.181  1.00  0.00     0.029 A 
ATOM     51  N   UNL A   1      41.282  28.260  28.894  1.00  0.00    -0.354 N 
ATOM     52  C   UNL A   1      44.984  27.342  26.878  1.00  0.00     0.074 A 
ATOM     53  C   UNL A   1      45.032  25.949  26.488  1.00  0.00     0.031 C 
ATOM     54  C   UNL A   1      39.256  27.832  29.735  1.00  0.00     0.029 A 
ATOM     55  C   UNL A   1      40.277  28.871  29.607  1.00  0.00     0.049 A 
ATOM     56  H   UNL A   1      42.094  28.731  28.595  1.00  0.00     0.167 HD
ATOM     57  C   UNL A   1      45.963  28.241  26.618  1.00  0.00     0.037 A 
ATOM     58  C   UNL A   1      40.204  30.116  30.115  1.00  0.00     0.037 A 
ATOM     59  C   UNL A   1      45.924  29.622  27.023  1.00  0.00     0.049 A 
ATOM     60  C   UNL A   1      41.346  31.077  29.888  1.00  0.00     0.074 A 
ATOM     61  C   UNL A   1      46.859  30.616  26.792  1.00  0.00     0.029 A 
ATOM     62  N   UNL A   1      44.901  30.200  27.761  1.00  0.00    -0.354 N 
ATOM     63  N   UNL A   1      42.465  30.895  29.229  1.00  0.00    -0.248 NA
ATOM     64  C   UNL A   1      41.210  32.420  30.472  1.00  0.00     0.031 C 
ATOM     65  C   UNL A   1      46.433  31.777  27.444  1.00  0.00     0.029 A 
ATOM     66  C   UNL A   1      45.198  31.529  28.022  1.00  0.00     0.049 A 
ATOM     67  H   UNL A   1      44.084  29.735  28.056  1.00  0.00     0.167 HD
ATOM     68  C   UNL A   1      43.145  32.107  29.285  1.00  0.00     0.074 A 
ATOM     69  C   UNL A   1      42.309  33.019  30.035  1.00  0.00     0.031 C 
ATOM     70  C   UNL A   1      44.352  32.434  28.759  1.00  0.00     0.037 A 
BRANCH  57  71
ATOM     71  C   UNL A   1      47.176  27.747  25.883  1.00  0.00     0.064 A 
ATOM     72  C   UNL A   1      48.301  27.256  26.564  1.00  0.00     0.173 A 
ATOM     73  C   UNL A   1      47.207  27.746  24.481  1.00  0.00     0.173 A 
ATOM     74  F   UNL A   1      48.329  27.247  27.905  1.00  0.00    -0.203 F 
ATOM     75  C   UNL A   1      49.423  26.814  25.867  1.00  0.00     0.198 A 
ATOM     76  C   UNL A   1      48.316  27.272  23.788  1.00  0.00     0.198 A 
ATOM     77  F   UNL A   1      46.156  28.202  23.781  1.00  0.00    -0.203 F 
ATOM     78  F   UNL A   1      50.508  26.403  26.539  1.00  0.00    -0.200 F 
ATOM     79  C   UNL A   1      49.428  26.817  24.480  1.00  0.00     0.200 A 
ATOM     80  F   UNL A   1      48.313  27.263  22.448  1.00  0.00    -0.200 F 
ATOM     81  F   UNL A   1      50.506  26.388  23.811  1.00  0.00    -0.200 F 
ENDBRANCH  57  71
BRANCH  58  82
ATOM     82  C   UNL A   1      39.009  30.538  30.895  1.00  0.00     0.064 A 
ATOM     83  C   UNL A   1      37.945  31.214  30.281  1.00  0.00     0.173 A 
ATOM     84  C   UNL A   1      38.921  30.309  32.277  1.00  0.00     0.173 A 
ATOM     85  F   UNL A   1      37.992  31.483  28.967  1.00  0.00    -0.203 F 
ATOM     86  C   UNL A   1      36.853  31.665  31.020  1.00  0.00     0.198 A 
ATOM     87  C   UNL A   1      37.815  30.733  33.010  1.00  0.00     0.198 A 
ATOM     88  F   UNL A   1      39.913  29.670  32.916  1.00  0.00    -0.203 F 
ATOM     89  F   UNL A   1      35.879  32.359  30.416  1.00  0.00    -0.200 F 
ATOM     90  C   UNL A   1      36.786  31.420  32.383  1.00  0.00     0.200 A 
ATOM     91  F   UNL A   1      37.750  30.485  34.325  1.00  0.00    -0.200 F 
ATOM     92  F   UNL A   1      35.738  31.857  33.095  1.00  0.00    -0.200 F 
ENDBRANCH  58  82
BRANCH  70  93
ATOM     93  C   UNL A   1      44.825  33.851  28.927  1.00  0.00     0.064 A 
ATOM     94  C   UNL A   1      44.489  34.860  28.012  1.00  0.00     0.173 A 
ATOM     95  C   UNL A   1      45.586  34.213  30.049  1.00  0.00     0.173 A 
ATOM     96  F   UNL A   1      43.774  34.567  26.915  1.00  0.00    -0.203 F 
ATOM     97  C   UNL A   1      44.921  36.171  28.201  1.00  0.00     0.198 A 
ATOM     98  C   UNL A   1      45.985  35.531  30.253  1.00  0.00     0.198 A 
ATOM     99  F   UNL A   1      45.930  33.290  30.962  1.00  0.00    -0.203 F 
ATOM    100  F   UNL A   1      44.631  37.108  27.287  1.00  0.00    -0.200 F 
ATOM    101  C   UNL A   1      45.660  36.507  29.326  1.00  0.00     0.200 A 
ATOM    102  F   UNL A   1      46.684  35.857  31.351  1.00  0.00    -0.200 F 
ATOM    103  F   UNL A   1      46.063  37.772  29.511  1.00  0.00    -0.200 F 
ENDBRANCH  70  93
ENDBRANCH  44  45
ENDBRANCH  37  39
ENDBRANCH  36  37
ENDBRANCH  35  36
ENDBRANCH  34  35
ENDBRANCH  33  34
ENDBRANCH   1  33
TORSDOF 19
ENDMDL
MODEL 2
REMARK VINA RESULT:     -11.3      5.041      9.804
REMARK SMILES O=C(Cc1sc(N2N=C(c3cccs3)C[C@@H]2c2ccco2)nc1-c1ccccc1)OCCOCCOC(=O)c1ccc(-c2c3nc(c(-c4c(F)c(F)c(F)c(F)c4F)c4ccc([nH]4)c(-c4c(F)c(F)c(F)c(F)c4F)c4nc(c(-c5c(F)c(F)c(F)c(F)c5F)c5ccc2[nH]5)C=C4)C=C3)cc1
REMARK SMILES IDX 32 1 31 2 30 3 2 4 1 5 3 6 4 7 5 8 23 9 6 10 22 11 24 12
REMARK SMILES IDX 25 13 29 14 26 15 28 16 27 17 7 18 8 19 16 20 9 21 15 22
REMARK SMILES IDX 17 23 18 24 21 25 19 26 20 27 10 28 11 29 14 30 12 31 13 32
REMARK SMILES IDX 33 33 34 34 35 35 36 36 37 37 38 38 39 39 40 40 101 41 41 42
REMARK SMILES IDX 100 43 42 44 43 45 44 46 94 47 45 48 99 49 93 50 95 51 46 52
REMARK SMILES IDX 98 53 92 54 91 55 47 57 79 58 59 59 78 60 60 61 63 62 77 63
REMARK SMILES IDX 96 64 61 65 62 66 76 68 97 69 64 70 48 71 49 72 57 73 50 74
REMARK SMILES IDX 51 75 55 76 58 77 52 78 53 79 56 80 54 81 80 82 81 83 89 84
REMARK SMILES IDX 82 85 83 86 87 87 90 88 84 89 85 90 88 91 86 92 65 93 66 94
REMARK SMILES IDX 74 95 67 96 68 97 72 98 75 99 69 100 70 101 73 102 71 103
REMARK H PARENT 95 56 63 67
REMARK Flexibility Score: inf
ROOT
ATOM      1  C   UNL A   1      44.513  20.003  25.177  1.00  0.00     0.202 C 
ENDROOT
BRANCH   1   2
ATOM      2  C   UNL A   1      45.637  21.047  25.165  1.00  0.00     0.261 C 
BRANCH   2   3
ATOM      3  O   UNL A   1      45.548  22.166  26.046  1.00  0.00    -0.463 OA
BRANCH   3   4
ATOM      4  C   UNL A   1      45.077  23.334  25.542  1.00  0.00     0.311 C 
ATOM      5  O   UNL A   1      44.682  23.420  24.384  1.00  0.00    -0.252 OA
BRANCH   4   6
ATOM      6  C   UNL A   1      45.328  24.520  26.416  1.00  0.00     0.171 C 
BRANCH   6   7
ATOM      7  C   UNL A   1      46.072  25.677  25.830  1.00  0.00     0.046 A 
ATOM      8  S   UNL A   1      47.611  25.246  25.186  1.00  0.00    -0.099 S 
ATOM      9  C   UNL A   1      45.913  27.054  25.686  1.00  0.00     0.087 A 
ATOM     10  C   UNL A   1      47.977  26.894  24.898  1.00  0.00     0.207 A 
ATOM     11  N   UNL A   1      47.050  27.742  25.284  1.00  0.00    -0.218 NA
BRANCH   9  12
ATOM     12  C   UNL A   1      44.708  27.815  25.972  1.00  0.00     0.001 A 
ATOM     13  C   UNL A   1      43.504  27.505  25.319  1.00  0.00     0.010 A 
ATOM     14  C   UNL A   1      44.752  28.905  26.848  1.00  0.00     0.010 A 
ATOM     15  C   UNL A   1      42.409  28.371  25.424  1.00  0.00     0.001 A 
ATOM     16  C   UNL A   1      43.648  29.751  26.975  1.00  0.00     0.001 A 
ATOM     17  C   UNL A   1      42.493  29.505  26.235  1.00  0.00     0.000 A 
ENDBRANCH   9  12
BRANCH  10  18
ATOM     18  N   UNL A   1      49.130  27.201  24.262  1.00  0.00    -0.228 N 
ATOM     19  N   UNL A   1      49.219  27.179  22.901  1.00  0.00    -0.173 NA
ATOM     20  C   UNL A   1      50.227  27.902  24.916  1.00  0.00     0.183 C 
ATOM     21  C   UNL A   1      50.313  27.784  22.587  1.00  0.00     0.081 C 
ATOM     22  C   UNL A   1      51.153  28.242  23.735  1.00  0.00     0.095 C 
BRANCH  20  23
ATOM     23  C   UNL A   1      50.999  27.144  25.968  1.00  0.00     0.128 A 
ATOM     24  C   UNL A   1      51.281  25.801  26.144  1.00  0.00     0.048 A 
ATOM     25  O   UNL A   1      51.547  27.858  26.996  1.00  0.00    -0.467 OA
ATOM     26  C   UNL A   1      52.022  25.696  27.347  1.00  0.00     0.042 A 
ATOM     27  C   UNL A   1      52.164  26.977  27.821  1.00  0.00     0.195 A 
ENDBRANCH  20  23
BRANCH  21  28
ATOM     28  C   UNL A   1      50.687  27.982  21.221  1.00  0.00     0.050 A 
ATOM     29  C   UNL A   1      51.302  29.070  20.642  1.00  0.00     0.022 A 
ATOM     30  S   UNL A   1      50.414  26.720  20.101  1.00  0.00    -0.142 S 
ATOM     31  C   UNL A   1      51.567  28.851  19.258  1.00  0.00     0.012 A 
ATOM     32  C   UNL A   1      51.125  27.618  18.833  1.00  0.00     0.065 A 
ENDBRANCH  21  28
ENDBRANCH  10  18
ENDBRANCH   6   7
ENDBRANCH   4   6
ENDBRANCH   3   4
ENDBRANCH   2   3
ENDBRANCH   1   2
BRANCH   1  33
ATOM     33  O   UNL A   1      43.151  20.391  25.232  1.00  0.00    -0.374 OA
BRANCH  33  34
ATOM     34  C   UNL A   1      42.283  19.787  26.174  1.00  0.00     0.202 C 
BRANCH  34  35
ATOM     35  C   UNL A   1      41.140  20.640  26.732  1.00  0.00     0.261 C 
BRANCH  35  36
ATOM     36  O   UNL A   1      40.911  21.887  26.057  1.00  0.00    -0.460 OA
BRANCH  36  37
ATOM     37  C   UNL A   1      39.656  22.394  26.167  1.00  0.00     0.338 C 
ATOM     38  O   UNL A   1      38.610  21.828  25.914  1.00  0.00    -0.246 OA
BRANCH  37  39
ATOM     39  C   UNL A   1      39.709  23.753  26.757  1.00  0.00     0.060 A 
ATOM     40  C   UNL A   1      40.358  24.773  26.047  1.00  0.00     0.016 A 
ATOM     41  C   UNL A   1      39.207  23.999  28.037  1.00  0.00     0.016 A 
ATOM     42  C   UNL A   1      40.556  26.025  26.638  1.00  0.00     0.010 A 
ATOM     43  C   UNL A   1      39.414  25.249  28.631  1.00  0.00     0.010 A 
ATOM     44  C   UNL A   1      40.124  26.256  27.952  1.00  0.00    -0.014 A 
BRANCH  44  45
ATOM     45  C   UNL A   1      40.571  27.461  28.698  1.00  0.00     0.031 A 
ATOM     46  C   UNL A   1      41.964  27.481  29.262  1.00  0.00     0.074 A 
ATOM     47  C   UNL A   1      39.752  28.508  28.905  1.00  0.00     0.049 A 
ATOM     48  N   UNL A   1      42.545  28.378  30.017  1.00  0.00    -0.248 NA
ATOM     49  C   UNL A   1      42.814  26.326  28.933  1.00  0.00     0.031 C 
ATOM     50  C   UNL A   1      38.397  28.628  28.385  1.00  0.00     0.029 A 
ATOM     51  N   UNL A   1      39.939  29.661  29.628  1.00  0.00    -0.354 N 
ATOM     52  C   UNL A   1      43.826  27.896  30.253  1.00  0.00     0.074 A 
ATOM     53  C   UNL A   1      43.925  26.612  29.595  1.00  0.00     0.031 C 
ATOM     54  C   UNL A   1      37.856  29.777  28.825  1.00  0.00     0.029 A 
ATOM     55  C   UNL A   1      38.822  30.462  29.684  1.00  0.00     0.049 A 
ATOM     56  H   UNL A   1      40.790  29.893  30.065  1.00  0.00     0.167 HD
ATOM     57  C   UNL A   1      44.832  28.478  30.949  1.00  0.00     0.037 A 
ATOM     58  C   UNL A   1      38.602  31.602  30.367  1.00  0.00     0.037 A 
ATOM     59  C   UNL A   1      44.727  29.747  31.620  1.00  0.00     0.049 A 
ATOM     60  C   UNL A   1      39.710  32.186  31.208  1.00  0.00     0.074 A 
ATOM     61  C   UNL A   1      45.695  30.427  32.337  1.00  0.00     0.029 A 
ATOM     62  N   UNL A   1      43.575  30.519  31.673  1.00  0.00    -0.354 N 
ATOM     63  N   UNL A   1      40.933  31.750  31.390  1.00  0.00    -0.248 NA
ATOM     64  C   UNL A   1      39.408  33.429  31.935  1.00  0.00     0.031 C 
ATOM     65  C   UNL A   1      45.113  31.578  32.876  1.00  0.00     0.029 A 
ATOM     66  C   UNL A   1      43.801  31.654  32.437  1.00  0.00     0.049 A 
ATOM     67  H   UNL A   1      42.724  30.295  31.231  1.00  0.00     0.167 HD
ATOM     68  C   UNL A   1      41.555  32.680  32.216  1.00  0.00     0.074 A 
ATOM     69  C   UNL A   1      40.578  33.710  32.492  1.00  0.00     0.031 C 
ATOM     70  C   UNL A   1      42.824  32.681  32.697  1.00  0.00     0.037 A 
BRANCH  57  71
ATOM     71  C   UNL A   1      46.129  27.726  31.043  1.00  0.00     0.064 A 
ATOM     72  C   UNL A   1      46.358  26.776  32.051  1.00  0.00     0.173 A 
ATOM     73  C   UNL A   1      47.147  27.943  30.104  1.00  0.00     0.173 A 
ATOM     74  F   UNL A   1      45.423  26.540  32.984  1.00  0.00    -0.203 F 
ATOM     75  C   UNL A   1      47.572  26.098  32.133  1.00  0.00     0.198 A 
ATOM     76  C   UNL A   1      48.345  27.238  30.168  1.00  0.00     0.198 A 
ATOM     77  F   UNL A   1      46.978  28.837  29.117  1.00  0.00    -0.203 F 
ATOM     78  F   UNL A   1      47.791  25.238  33.138  1.00  0.00    -0.200 F 
ATOM     79  C   UNL A   1      48.562  26.325  31.188  1.00  0.00     0.200 A 
ATOM     80  F   UNL A   1      49.294  27.448  29.246  1.00  0.00    -0.200 F 
ATOM     81  F   UNL A   1      49.727  25.668  31.265  1.00  0.00    -0.200 F 
ENDBRANCH  57  71
BRANCH  58  82
ATOM     82  C   UNL A   1      37.276  32.274  30.295  1.00  0.00     0.064 A 
ATOM     83  C   UNL A   1      36.994  33.211  29.292  1.00  0.00     0.173 A 
ATOM     84  C   UNL A   1      36.278  32.023  31.249  1.00  0.00     0.173 A 
ATOM     85  F   UNL A   1      37.925  33.509  28.373  1.00  0.00    -0.203 F 
ATOM     86  C   UNL A   1      35.776  33.889  29.258  1.00  0.00     0.198 A 
ATOM     87  C   UNL A   1      35.049  32.677  31.197  1.00  0.00     0.198 A 
ATOM     88  F   UNL A   1      36.496  31.138  32.233  1.00  0.00    -0.203 F 
ATOM     89  F   UNL A   1      35.557  34.822  28.322  1.00  0.00    -0.200 F 
ATOM     90  C   UNL A   1      34.803  33.618  30.208  1.00  0.00     0.200 A 
ATOM     91  F   UNL A   1      34.107  32.405  32.110  1.00  0.00    -0.200 F 
ATOM     92  F   UNL A   1      33.633  34.272  30.178  1.00  0.00    -0.200 F 
ENDBRANCH  58  82
BRANCH  70  93
ATOM     93  C   UNL A   1      43.251  33.856  33.532  1.00  0.00     0.064 A 
ATOM     94  C   UNL A   1      43.753  35.034  32.957  1.00  0.00     0.173 A 
ATOM     95  C   UNL A   1      43.109  33.819  34.928  1.00  0.00     0.173 A 
ATOM     96  F   UNL A   1      43.921  35.118  31.629  1.00  0.00    -0.203 F 
ATOM     97  C   UNL A   1      44.122  36.117  33.751  1.00  0.00     0.198 A 
ATOM     98  C   UNL A   1      43.445  34.917  35.715  1.00  0.00     0.198 A 
ATOM     99  F   UNL A   1      42.627  32.721  35.531  1.00  0.00    -0.203 F 
ATOM    100  F   UNL A   1      44.646  37.212  33.184  1.00  0.00    -0.200 F 
ATOM    101  C   UNL A   1      43.958  36.062  35.127  1.00  0.00     0.200 A 
ATOM    102  F   UNL A   1      43.269  34.868  37.043  1.00  0.00    -0.200 F 
ATOM    103  F   UNL A   1      44.302  37.111  35.887  1.00  0.00    -0.200 F 
ENDBRANCH  70  93
ENDBRANCH  44  45
ENDBRANCH  37  39
ENDBRANCH  36  37
ENDBRANCH  35  36
ENDBRANCH  34  35
ENDBRANCH  33  34
ENDBRANCH   1  33
TORSDOF 19
ENDMDL
MODEL 3
REMARK VINA RESULT:     -11.1      5.019     10.133
REMARK SMILES O=C(Cc1sc(N2N=C(c3cccs3)C[C@@H]2c2ccco2)nc1-c1ccccc1)OCCOCCOC(=O)c1ccc(-c2c3nc(c(-c4c(F)c(F)c(F)c(F)c4F)c4ccc([nH]4)c(-c4c(F)c(F)c(F)c(F)c4F)c4nc(c(-c5c(F)c(F)c(F)c(F)c5F)c5ccc2[nH]5)C=C4)C=C3)cc1
REMARK SMILES IDX 32 1 31 2 30 3 2 4 1 5 3 6 4 7 5 8 23 9 6 10 22 11 24 12
REMARK SMILES IDX 25 13 29 14 26 15 28 16 27 17 7 18 8 19 16 20 9 21 15 22
REMARK SMILES IDX 17 23 18 24 21 25 19 26 20 27 10 28 11 29 14 30 12 31 13 32
REMARK SMILES IDX 33 33 34 34 35 35 36 36 37 37 38 38 39 39 40 40 101 41 41 42
REMARK SMILES IDX 100 43 42 44 43 45 44 46 94 47 45 48 99 49 93 50 95 51 46 52
REMARK SMILES IDX 98 53 92 54 91 55 47 57 79 58 59 59 78 60 60 61 63 62 77 63
REMARK SMILES IDX 96 64 61 65 62 66 76 68 97 69 64 70 48 71 49 72 57 73 50 74
REMARK SMILES IDX 51 75 55 76 58 77 52 78 53 79 56 80 54 81 80 82 81 83 89 84
REMARK SMILES IDX 82 85 83 86 87 87 90 88 84 89 85 90 88 91 86 92 65 93 66 94
REMARK SMILES IDX 74 95 67 96 68 97 72 98 75 99 69 100 70 101 73 102 71 103
REMARK H PARENT 95 56 63 67
REMARK Flexibility Score: inf
ROOT
ATOM      1  C   UNL A   1      43.955  20.078  25.345  1.00  0.00     0.202 C 
ENDROOT
BRANCH   1   2
ATOM      2  C   UNL A   1      44.694  21.407  25.540  1.00  0.00     0.261 C 
BRANCH   2   3
ATOM      3  O   UNL A   1      43.956  22.552  25.965  1.00  0.00    -0.463 OA
BRANCH   3   4
ATOM      4  C   UNL A   1      44.408  23.774  25.586  1.00  0.00     0.311 C 
ATOM      5  O   UNL A   1      44.539  24.071  24.403  1.00  0.00    -0.252 OA
BRANCH   4   6
ATOM      6  C   UNL A   1      44.963  24.592  26.706  1.00  0.00     0.171 C 
BRANCH   6   7
ATOM      7  C   UNL A   1      45.914  25.694  26.365  1.00  0.00     0.046 A 
ATOM      8  S   UNL A   1      47.544  25.161  26.189  1.00  0.00    -0.099 S 
ATOM      9  C   UNL A   1      45.890  27.076  26.186  1.00  0.00     0.087 A 
ATOM     10  C   UNL A   1      48.079  26.780  26.026  1.00  0.00     0.207 A 
ATOM     11  N   UNL A   1      47.135  27.688  26.132  1.00  0.00    -0.218 NA
BRANCH   9  12
ATOM     12  C   UNL A   1      44.703  27.913  26.116  1.00  0.00     0.001 A 
ATOM     13  C   UNL A   1      44.622  29.091  26.876  1.00  0.00     0.010 A 
ATOM     14  C   UNL A   1      43.605  27.518  25.343  1.00  0.00     0.010 A 
ATOM     15  C   UNL A   1      43.403  29.772  26.982  1.00  0.00     0.001 A 
ATOM     16  C   UNL A   1      42.399  28.217  25.426  1.00  0.00     0.001 A 
ATOM     17  C   UNL A   1      42.289  29.318  26.273  1.00  0.00     0.000 A 
ENDBRANCH   9  12
BRANCH  10  18
ATOM     18  N   UNL A   1      49.383  27.007  25.750  1.00  0.00    -0.228 N 
ATOM     19  N   UNL A   1      50.248  27.442  26.710  1.00  0.00    -0.173 NA
ATOM     20  C   UNL A   1      50.036  26.488  24.555  1.00  0.00     0.183 C 
ATOM     21  C   UNL A   1      51.438  27.287  26.240  1.00  0.00     0.081 C 
ATOM     22  C   UNL A   1      51.521  26.776  24.839  1.00  0.00     0.095 C 
BRANCH  20  23
ATOM     23  C   UNL A   1      49.641  27.099  23.233  1.00  0.00     0.128 A 
ATOM     24  C   UNL A   1      48.451  27.130  22.527  1.00  0.00     0.048 A 
ATOM     25  O   UNL A   1      50.604  27.759  22.522  1.00  0.00    -0.467 OA
ATOM     26  C   UNL A   1      48.712  27.828  21.322  1.00  0.00     0.042 A 
ATOM     27  C   UNL A   1      50.034  28.197  21.372  1.00  0.00     0.195 A 
ENDBRANCH  20  23
BRANCH  21  28
ATOM     28  C   UNL A   1      52.593  27.602  27.023  1.00  0.00     0.050 A 
ATOM     29  C   UNL A   1      53.052  28.837  27.428  1.00  0.00     0.022 A 
ATOM     30  S   UNL A   1      53.557  26.325  27.623  1.00  0.00    -0.142 S 
ATOM     31  C   UNL A   1      54.205  28.725  28.259  1.00  0.00     0.012 A 
ATOM     32  C   UNL A   1      54.592  27.415  28.435  1.00  0.00     0.065 A 
ENDBRANCH  21  28
ENDBRANCH  10  18
ENDBRANCH   6   7
ENDBRANCH   4   6
ENDBRANCH   3   4
ENDBRANCH   2   3
ENDBRANCH   1   2
BRANCH   1  33
ATOM     33  O   UNL A   1      42.539  20.027  25.290  1.00  0.00    -0.374 OA
BRANCH  33  34
ATOM     34  C   UNL A   1      41.799  19.688  26.449  1.00  0.00     0.202 C 
BRANCH  34  35
ATOM     35  C   UNL A   1      40.704  20.660  26.898  1.00  0.00     0.261 C 
BRANCH  35  36
ATOM     36  O   UNL A   1      40.618  21.884  26.152  1.00  0.00    -0.460 OA
BRANCH  36  37
ATOM     37  C   UNL A   1      39.395  22.473  26.126  1.00  0.00     0.338 C 
ATOM     38  O   UNL A   1      38.349  21.978  25.753  1.00  0.00    -0.246 OA
BRANCH  37  39
ATOM     39  C   UNL A   1      39.471  23.826  26.729  1.00  0.00     0.060 A 
ATOM     40  C   UNL A   1      40.181  24.827  26.055  1.00  0.00     0.016 A 
ATOM     41  C   UNL A   1      38.927  24.079  27.990  1.00  0.00     0.016 A 
ATOM     42  C   UNL A   1      40.399  26.068  26.664  1.00  0.00     0.010 A 
ATOM     43  C   UNL A   1      39.152  25.316  28.604  1.00  0.00     0.010 A 
ATOM     44  C   UNL A   1      39.922  26.303  27.962  1.00  0.00    -0.014 A 
BRANCH  44  45
ATOM     45  C   UNL A   1      40.380  27.487  28.736  1.00  0.00     0.031 A 
ATOM     46  C   UNL A   1      41.765  27.471  29.319  1.00  0.00     0.074 A 
ATOM     47  C   UNL A   1      39.578  28.544  28.950  1.00  0.00     0.049 A 
ATOM     48  N   UNL A   1      42.352  28.344  30.098  1.00  0.00    -0.248 NA
ATOM     49  C   UNL A   1      42.599  26.307  28.982  1.00  0.00     0.031 C 
ATOM     50  C   UNL A   1      38.233  28.699  28.413  1.00  0.00     0.029 A 
ATOM     51  N   UNL A   1      39.775  29.681  29.696  1.00  0.00    -0.354 N 
ATOM     52  C   UNL A   1      43.620  27.835  30.344  1.00  0.00     0.074 A 
ATOM     53  C   UNL A   1      43.705  26.561  29.664  1.00  0.00     0.031 C 
ATOM     54  C   UNL A   1      37.706  29.849  28.866  1.00  0.00     0.029 A 
ATOM     55  C   UNL A   1      38.672  30.501  29.750  1.00  0.00     0.049 A 
ATOM     56  H   UNL A   1      40.623  29.890  30.149  1.00  0.00     0.167 HD
ATOM     57  C   UNL A   1      44.626  28.386  31.064  1.00  0.00     0.037 A 
ATOM     58  C   UNL A   1      38.462  31.632  30.451  1.00  0.00     0.037 A 
ATOM     59  C   UNL A   1      44.534  29.645  31.756  1.00  0.00     0.049 A 
ATOM     60  C   UNL A   1      39.568  32.182  31.318  1.00  0.00     0.074 A 
ATOM     61  C   UNL A   1      45.504  30.295  32.499  1.00  0.00     0.029 A 
ATOM     62  N   UNL A   1      43.396  30.437  31.807  1.00  0.00    -0.354 N 
ATOM     63  N   UNL A   1      40.781  31.720  31.509  1.00  0.00    -0.248 NA
ATOM     64  C   UNL A   1      39.278  33.416  32.063  1.00  0.00     0.031 C 
ATOM     65  C   UNL A   1      44.935  31.446  33.050  1.00  0.00     0.029 A 
ATOM     66  C   UNL A   1      43.631  31.553  32.594  1.00  0.00     0.049 A 
ATOM     67  H   UNL A   1      42.547  30.236  31.349  1.00  0.00     0.167 HD
ATOM     68  C   UNL A   1      41.408  32.624  32.360  1.00  0.00     0.074 A 
ATOM     69  C   UNL A   1      40.444  33.666  32.641  1.00  0.00     0.031 C 
ATOM     70  C   UNL A   1      42.669  32.593  32.859  1.00  0.00     0.037 A 
BRANCH  57  71
ATOM     71  C   UNL A   1      45.908  27.609  31.163  1.00  0.00     0.064 A 
ATOM     72  C   UNL A   1      46.961  27.806  30.257  1.00  0.00     0.173 A 
ATOM     73  C   UNL A   1      46.092  26.670  32.189  1.00  0.00     0.173 A 
ATOM     74  F   UNL A   1      46.832  28.682  29.249  1.00  0.00    -0.203 F 
ATOM     75  C   UNL A   1      48.138  27.067  30.355  1.00  0.00     0.198 A 
ATOM     76  C   UNL A   1      47.282  25.958  32.305  1.00  0.00     0.198 A 
ATOM     77  F   UNL A   1      45.118  26.446  33.084  1.00  0.00    -0.203 F 
ATOM     78  F   UNL A   1      49.108  27.231  29.445  1.00  0.00    -0.200 F 
ATOM     79  C   UNL A   1      48.300  26.149  31.382  1.00  0.00     0.200 A 
ATOM     80  F   UNL A   1      47.443  25.082  33.306  1.00  0.00    -0.200 F 
ATOM     81  F   UNL A   1      49.434  25.442  31.478  1.00  0.00    -0.200 F 
ENDBRANCH  57  71
BRANCH  58  82
ATOM     82  C   UNL A   1      37.150  32.330  30.373  1.00  0.00     0.064 A 
ATOM     83  C   UNL A   1      36.866  33.222  29.329  1.00  0.00     0.173 A 
ATOM     84  C   UNL A   1      36.167  32.149  31.358  1.00  0.00     0.173 A 
ATOM     85  F   UNL A   1      37.783  33.453  28.378  1.00  0.00    -0.203 F 
ATOM     86  C   UNL A   1      35.663  33.924  29.287  1.00  0.00     0.198 A 
ATOM     87  C   UNL A   1      34.952  32.827  31.298  1.00  0.00     0.198 A 
ATOM     88  F   UNL A   1      36.388  31.309  32.380  1.00  0.00    -0.203 F 
ATOM     89  F   UNL A   1      35.443  34.815  28.309  1.00  0.00    -0.200 F 
ATOM     90  C   UNL A   1      34.704  33.722  30.269  1.00  0.00     0.200 A 
ATOM     91  F   UNL A   1      34.025  32.622  32.243  1.00  0.00    -0.200 F 
ATOM     92  F   UNL A   1      33.548  34.401  30.230  1.00  0.00    -0.200 F 
ENDBRANCH  58  82
BRANCH  70  93
ATOM     93  C   UNL A   1      43.105  33.746  33.721  1.00  0.00     0.064 A 
ATOM     94  C   UNL A   1      43.610  34.935  33.173  1.00  0.00     0.173 A 
ATOM     95  C   UNL A   1      42.970  33.674  35.116  1.00  0.00     0.173 A 
ATOM     96  F   UNL A   1      43.772  35.052  31.847  1.00  0.00    -0.203 F 
ATOM     97  C   UNL A   1      43.986  35.997  33.992  1.00  0.00     0.198 A 
ATOM     98  C   UNL A   1      43.313  34.751  35.928  1.00  0.00     0.198 A 
ATOM     99  F   UNL A   1      42.485  32.564  35.694  1.00  0.00    -0.203 F 
ATOM    100  F   UNL A   1      44.513  37.104  33.449  1.00  0.00    -0.200 F 
ATOM    101  C   UNL A   1      43.829  35.908  35.367  1.00  0.00     0.200 A 
ATOM    102  F   UNL A   1      43.143  34.670  37.256  1.00  0.00    -0.200 F 
ATOM    103  F   UNL A   1      44.181  36.936  36.151  1.00  0.00    -0.200 F 
ENDBRANCH  70  93
ENDBRANCH  44  45
ENDBRANCH  37  39
ENDBRANCH  36  37
ENDBRANCH  35  36
ENDBRANCH  34  35
ENDBRANCH  33  34
ENDBRANCH   1  33
TORSDOF 19
ENDMDL
