MODEL 1
REMARK VINA RESULT:     -11.1      0.000      0.000
REMARK SMILES Cc1nc([C@]2(C)CCCO2)nc(C)c1C(=O)OCCOCCOC(=O)c1ccc(-c2c3nc(c(-c4c(F)c(F)c(F)c(F)c4F)c4ccc([nH]4)c(-c4c(F)c(F)c(F)c(F)c4F)c4nc(c(-c5c(F)c(F)c(F)c(F)c5F)c5ccc2[nH]5)C=C4)C=C3)cc1
REMARK SMILES IDX 21 1 20 2 19 3 18 4 17 5 15 6 16 7 14 8 1 9 2 10 3 11 4 12
REMARK SMILES IDX 12 13 11 14 13 15 5 16 7 17 10 18 6 19 8 20 9 21 22 22 23 23
REMARK SMILES IDX 24 24 25 25 26 26 27 27 88 28 28 29 87 30 29 31 30 32 31 33
REMARK SMILES IDX 81 34 32 35 86 36 80 37 82 38 33 39 85 40 79 41 78 42 34 44
REMARK SMILES IDX 66 45 46 46 65 47 47 48 50 49 64 50 83 51 48 52 49 53 63 55
REMARK SMILES IDX 84 56 51 57 35 58 36 59 44 60 37 61 38 62 42 63 45 64 39 65
REMARK SMILES IDX 40 66 43 67 41 68 67 69 68 70 76 71 69 72 70 73 74 74 77 75
REMARK SMILES IDX 71 76 72 77 75 78 73 79 52 80 53 81 61 82 54 83 55 84 59 85
REMARK SMILES IDX 62 86 56 87 57 88 60 89 58 90
REMARK H PARENT 82 43 50 54
REMARK Flexibility Score: inf
ROOT
ATOM      1  C   UNL A   1      31.544  31.275  26.375  1.00  0.00     0.202 C 
ENDROOT
BRANCH   1   2
ATOM      2  O   UNL A   1      32.638  30.358  26.431  1.00  0.00    -0.374 OA
BRANCH   2   3
ATOM      3  C   UNL A   1      32.378  29.043  26.924  1.00  0.00     0.202 C 
BRANCH   3   4
ATOM      4  C   UNL A   1      32.982  27.895  26.115  1.00  0.00     0.261 C 
BRANCH   4   5
ATOM      5  O   UNL A   1      31.946  26.994  25.689  1.00  0.00    -0.460 OA
BRANCH   5   6
ATOM      6  C   UNL A   1      31.944  26.706  24.370  1.00  0.00     0.341 C 
ATOM      7  O   UNL A   1      32.541  25.786  23.828  1.00  0.00    -0.246 OA
BRANCH   6   8
ATOM      8  C   UNL A   1      31.026  27.592  23.641  1.00  0.00     0.102 A 
ATOM      9  C   UNL A   1      28.963  26.206  24.166  1.00  0.00     0.068 C 
ATOM     10  C   UNL A   1      29.650  27.426  23.626  1.00  0.00     0.056 A 
ATOM     11  N   UNL A   1      28.825  28.353  23.080  1.00  0.00    -0.234 NA
ATOM     12  C   UNL A   1      29.374  29.456  22.528  1.00  0.00     0.160 A 
ATOM     13  C   UNL A   1      31.520  28.703  22.967  1.00  0.00     0.056 A 
ATOM     14  N   UNL A   1      30.705  29.637  22.425  1.00  0.00    -0.234 NA
ATOM     15  C   UNL A   1      32.981  28.895  22.673  1.00  0.00     0.068 C 
BRANCH  12  16
ATOM     16  C   UNL A   1      28.441  30.585  22.058  1.00  0.00     0.125 C 
ATOM     17  C   UNL A   1      29.085  31.960  22.258  1.00  0.00     0.046 C 
ATOM     18  O   UNL A   1      27.239  30.614  22.861  1.00  0.00    -0.367 OA
ATOM     19  C   UNL A   1      28.018  30.400  20.597  1.00  0.00     0.051 C 
ATOM     20  C   UNL A   1      28.702  32.329  23.672  1.00  0.00     0.032 C 
ATOM     21  C   UNL A   1      27.388  31.605  23.887  1.00  0.00     0.161 C 
ENDBRANCH  12  16
ENDBRANCH   6   8
ENDBRANCH   5   6
ENDBRANCH   4   5
ENDBRANCH   3   4
ENDBRANCH   2   3
ENDBRANCH   1   2
BRANCH   1  22
ATOM     22  C   UNL A   1      31.748  32.644  27.033  1.00  0.00     0.261 C 
BRANCH  22  23
ATOM     23  O   UNL A   1      33.091  33.134  26.879  1.00  0.00    -0.460 OA
BRANCH  23  24
ATOM     24  C   UNL A   1      33.630  33.662  28.002  1.00  0.00     0.338 C 
ATOM     25  O   UNL A   1      33.147  34.517  28.729  1.00  0.00    -0.246 OA
BRANCH  24  26
ATOM     26  C   UNL A   1      34.853  32.926  28.366  1.00  0.00     0.060 A 
ATOM     27  C   UNL A   1      34.707  31.601  28.798  1.00  0.00     0.016 A 
ATOM     28  C   UNL A   1      36.108  33.537  28.359  1.00  0.00     0.016 A 
ATOM     29  C   UNL A   1      35.809  30.896  29.272  1.00  0.00     0.010 A 
ATOM     30  C   UNL A   1      37.213  32.832  28.846  1.00  0.00     0.010 A 
ATOM     31  C   UNL A   1      37.061  31.522  29.337  1.00  0.00    -0.014 A 
BRANCH  31  32
ATOM     32  C   UNL A   1      38.172  30.855  30.055  1.00  0.00     0.031 A 
ATOM     33  C   UNL A   1      38.416  31.199  31.498  1.00  0.00     0.074 A 
ATOM     34  C   UNL A   1      38.931  29.932  29.439  1.00  0.00     0.049 A 
ATOM     35  N   UNL A   1      39.347  30.768  32.310  1.00  0.00    -0.248 NA
ATOM     36  C   UNL A   1      37.481  32.158  32.109  1.00  0.00     0.031 C 
ATOM     37  C   UNL A   1      38.764  29.487  28.058  1.00  0.00     0.029 A 
ATOM     38  N   UNL A   1      40.003  29.208  29.901  1.00  0.00    -0.354 N 
ATOM     39  C   UNL A   1      39.113  31.404  33.522  1.00  0.00     0.074 A 
ATOM     40  C   UNL A   1      37.972  32.272  33.333  1.00  0.00     0.031 C 
ATOM     41  C   UNL A   1      39.710  28.575  27.777  1.00  0.00     0.029 A 
ATOM     42  C   UNL A   1      40.567  28.396  28.948  1.00  0.00     0.049 A 
ATOM     43  H   UNL A   1      40.334  29.266  30.826  1.00  0.00     0.167 HD
ATOM     44  C   UNL A   1      39.784  31.265  34.690  1.00  0.00     0.037 A 
ATOM     45  C   UNL A   1      41.664  27.618  29.012  1.00  0.00     0.037 A 
ATOM     46  C   UNL A   1      40.920  30.400  34.874  1.00  0.00     0.049 A 
ATOM     47  C   UNL A   1      42.436  27.535  30.304  1.00  0.00     0.074 A 
ATOM     48  C   UNL A   1      41.664  30.184  36.020  1.00  0.00     0.029 A 
ATOM     49  N   UNL A   1      41.478  29.612  33.878  1.00  0.00    -0.354 N 
ATOM     50  N   UNL A   1      42.196  28.124  31.451  1.00  0.00    -0.248 NA
ATOM     51  C   UNL A   1      43.629  26.676  30.311  1.00  0.00     0.031 C 
ATOM     52  C   UNL A   1      42.702  29.300  35.706  1.00  0.00     0.029 A 
ATOM     53  C   UNL A   1      42.573  28.925  34.380  1.00  0.00     0.049 A 
ATOM     54  H   UNL A   1      41.147  29.550  32.954  1.00  0.00     0.167 HD
ATOM     55  C   UNL A   1      43.187  27.685  32.320  1.00  0.00     0.074 A 
ATOM     56  C   UNL A   1      44.023  26.771  31.572  1.00  0.00     0.031 C 
ATOM     57  C   UNL A   1      43.387  28.010  33.622  1.00  0.00     0.037 A 
BRANCH  44  58
ATOM     58  C   UNL A   1      39.318  32.082  35.859  1.00  0.00     0.064 A 
ATOM     59  C   UNL A   1      38.365  31.594  36.765  1.00  0.00     0.173 A 
ATOM     60  C   UNL A   1      39.862  33.353  36.099  1.00  0.00     0.173 A 
ATOM     61  F   UNL A   1      37.804  30.391  36.572  1.00  0.00    -0.203 F 
ATOM     62  C   UNL A   1      37.960  32.356  37.858  1.00  0.00     0.198 A 
ATOM     63  C   UNL A   1      39.475  34.101  37.208  1.00  0.00     0.198 A 
ATOM     64  F   UNL A   1      40.779  33.865  35.264  1.00  0.00    -0.203 F 
ATOM     65  F   UNL A   1      37.019  31.887  38.688  1.00  0.00    -0.200 F 
ATOM     66  C   UNL A   1      38.520  33.605  38.083  1.00  0.00     0.200 A 
ATOM     67  F   UNL A   1      40.026  35.302  37.429  1.00  0.00    -0.200 F 
ATOM     68  F   UNL A   1      38.136  34.333  39.140  1.00  0.00    -0.200 F 
ENDBRANCH  44  58
BRANCH  45  69
ATOM     69  C   UNL A   1      42.113  26.867  27.811  1.00  0.00     0.064 A 
ATOM     70  C   UNL A   1      41.646  25.571  27.548  1.00  0.00     0.173 A 
ATOM     71  C   UNL A   1      43.041  27.420  26.915  1.00  0.00     0.173 A 
ATOM     72  F   UNL A   1      40.779  24.990  28.389  1.00  0.00    -0.203 F 
ATOM     73  C   UNL A   1      42.106  24.850  26.447  1.00  0.00     0.198 A 
ATOM     74  C   UNL A   1      43.477  26.710  25.799  1.00  0.00     0.198 A 
ATOM     75  F   UNL A   1      43.520  28.655  27.121  1.00  0.00    -0.203 F 
ATOM     76  F   UNL A   1      41.682  23.595  26.248  1.00  0.00    -0.200 F 
ATOM     77  C   UNL A   1      43.017  25.421  25.571  1.00  0.00     0.200 A 
ATOM     78  F   UNL A   1      44.348  27.270  24.949  1.00  0.00    -0.200 F 
ATOM     79  F   UNL A   1      43.458  24.728  24.513  1.00  0.00    -0.200 F 
ENDBRANCH  45  69
BRANCH  57  80
ATOM     80  C   UNL A   1      44.531  27.344  34.332  1.00  0.00     0.064 A 
ATOM     81  C   UNL A   1      45.799  27.939  34.402  1.00  0.00     0.173 A 
ATOM     82  C   UNL A   1      44.342  26.117  34.985  1.00  0.00     0.173 A 
ATOM     83  F   UNL A   1      46.034  29.105  33.782  1.00  0.00    -0.203 F 
ATOM     84  C   UNL A   1      46.844  27.316  35.081  1.00  0.00     0.198 A 
ATOM     85  C   UNL A   1      45.381  25.512  35.688  1.00  0.00     0.198 A 
ATOM     86  F   UNL A   1      43.145  25.512  34.954  1.00  0.00    -0.203 F 
ATOM     87  F   UNL A   1      48.059  27.878  35.096  1.00  0.00    -0.200 F 
ATOM     88  C   UNL A   1      46.632  26.108  35.729  1.00  0.00     0.200 A 
ATOM     89  F   UNL A   1      45.170  24.352  36.325  1.00  0.00    -0.200 F 
ATOM     90  F   UNL A   1      47.637  25.514  36.387  1.00  0.00    -0.200 F 
ENDBRANCH  57  80
ENDBRANCH  31  32
ENDBRANCH  24  26
ENDBRANCH  23  24
ENDBRANCH  22  23
ENDBRANCH   1  22
TORSDOF 15
ENDMDL
MODEL 2
REMARK VINA RESULT:     -11.1      1.961      3.526
REMARK SMILES Cc1nc([C@]2(C)CCCO2)nc(C)c1C(=O)OCCOCCOC(=O)c1ccc(-c2c3nc(c(-c4c(F)c(F)c(F)c(F)c4F)c4ccc([nH]4)c(-c4c(F)c(F)c(F)c(F)c4F)c4nc(c(-c5c(F)c(F)c(F)c(F)c5F)c5ccc2[nH]5)C=C4)C=C3)cc1
REMARK SMILES IDX 21 1 20 2 19 3 18 4 17 5 15 6 16 7 14 8 1 9 2 10 3 11 4 12
REMARK SMILES IDX 12 13 11 14 13 15 5 16 7 17 10 18 6 19 8 20 9 21 22 22 23 23
REMARK SMILES IDX 24 24 25 25 26 26 27 27 88 28 28 29 87 30 29 31 30 32 31 33
REMARK SMILES IDX 81 34 32 35 86 36 80 37 82 38 33 39 85 40 79 41 78 42 34 44
REMARK SMILES IDX 66 45 46 46 65 47 47 48 50 49 64 50 83 51 48 52 49 53 63 55
REMARK SMILES IDX 84 56 51 57 35 58 36 59 44 60 37 61 38 62 42 63 45 64 39 65
REMARK SMILES IDX 40 66 43 67 41 68 67 69 68 70 76 71 69 72 70 73 74 74 77 75
REMARK SMILES IDX 71 76 72 77 75 78 73 79 52 80 53 81 61 82 54 83 55 84 59 85
REMARK SMILES IDX 62 86 56 87 57 88 60 89 58 90
REMARK H PARENT 82 43 50 54
REMARK Flexibility Score: inf
ROOT
ATOM      1  C   UNL A   1      31.209  31.758  26.210  1.00  0.00     0.202 C 
ENDROOT
BRANCH   1   2
ATOM      2  O   UNL A   1      32.036  30.593  26.245  1.00  0.00    -0.374 OA
BRANCH   2   3
ATOM      3  C   UNL A   1      31.505  29.385  25.701  1.00  0.00     0.202 C 
BRANCH   3   4
ATOM      4  C   UNL A   1      31.234  29.392  24.197  1.00  0.00     0.261 C 
BRANCH   4   5
ATOM      5  O   UNL A   1      31.627  28.135  23.619  1.00  0.00    -0.460 OA
BRANCH   5   6
ATOM      6  C   UNL A   1      32.941  28.022  23.332  1.00  0.00     0.341 C 
ATOM      7  O   UNL A   1      33.692  28.930  23.005  1.00  0.00    -0.246 OA
BRANCH   6   8
ATOM      8  C   UNL A   1      33.412  26.650  23.566  1.00  0.00     0.102 A 
ATOM      9  C   UNL A   1      32.661  25.798  21.294  1.00  0.00     0.068 C 
ATOM     10  C   UNL A   1      33.378  25.652  22.603  1.00  0.00     0.056 A 
ATOM     11  N   UNL A   1      33.967  24.448  22.802  1.00  0.00    -0.234 NA
ATOM     12  C   UNL A   1      34.589  24.224  23.980  1.00  0.00     0.160 A 
ATOM     13  C   UNL A   1      33.983  26.309  24.786  1.00  0.00     0.056 A 
ATOM     14  N   UNL A   1      34.580  25.112  24.992  1.00  0.00    -0.234 NA
ATOM     15  C   UNL A   1      33.876  27.177  26.008  1.00  0.00     0.068 C 
BRANCH  12  16
ATOM     16  C   UNL A   1      35.400  22.928  24.148  1.00  0.00     0.125 C 
ATOM     17  C   UNL A   1      34.562  21.695  23.798  1.00  0.00     0.046 C 
ATOM     18  O   UNL A   1      35.779  22.744  25.531  1.00  0.00    -0.367 OA
ATOM     19  C   UNL A   1      36.688  22.954  23.315  1.00  0.00     0.051 C 
ATOM     20  C   UNL A   1      33.879  21.350  25.100  1.00  0.00     0.032 C 
ATOM     21  C   UNL A   1      34.843  21.853  26.155  1.00  0.00     0.161 C 
ENDBRANCH  12  16
ENDBRANCH   6   8
ENDBRANCH   5   6
ENDBRANCH   4   5
ENDBRANCH   3   4
ENDBRANCH   2   3
ENDBRANCH   1   2
BRANCH   1  22
ATOM     22  C   UNL A   1      31.872  33.093  26.566  1.00  0.00     0.261 C 
BRANCH  22  23
ATOM     23  O   UNL A   1      32.383  33.113  27.910  1.00  0.00    -0.460 OA
BRANCH  23  24
ATOM     24  C   UNL A   1      33.422  33.957  28.104  1.00  0.00     0.338 C 
ATOM     25  O   UNL A   1      33.391  35.178  28.152  1.00  0.00    -0.246 OA
BRANCH  24  26
ATOM     26  C   UNL A   1      34.634  33.192  28.444  1.00  0.00     0.060 A 
ATOM     27  C   UNL A   1      34.463  31.881  28.908  1.00  0.00     0.016 A 
ATOM     28  C   UNL A   1      35.906  33.766  28.386  1.00  0.00     0.016 A 
ATOM     29  C   UNL A   1      35.559  31.153  29.362  1.00  0.00     0.010 A 
ATOM     30  C   UNL A   1      37.004  33.037  28.852  1.00  0.00     0.010 A 
ATOM     31  C   UNL A   1      36.829  31.742  29.374  1.00  0.00    -0.014 A 
BRANCH  31  32
ATOM     32  C   UNL A   1      37.944  31.056  30.070  1.00  0.00     0.031 A 
ATOM     33  C   UNL A   1      38.219  31.393  31.509  1.00  0.00     0.074 A 
ATOM     34  C   UNL A   1      38.677  30.123  29.439  1.00  0.00     0.049 A 
ATOM     35  N   UNL A   1      39.158  30.945  32.304  1.00  0.00    -0.248 NA
ATOM     36  C   UNL A   1      37.310  32.364  32.139  1.00  0.00     0.031 C 
ATOM     37  C   UNL A   1      38.478  29.684  28.060  1.00  0.00     0.029 A 
ATOM     38  N   UNL A   1      39.745  29.381  29.879  1.00  0.00    -0.354 N 
ATOM     39  C   UNL A   1      38.956  31.582  33.521  1.00  0.00     0.074 A 
ATOM     40  C   UNL A   1      37.825  32.468  33.355  1.00  0.00     0.031 C 
ATOM     41  C   UNL A   1      39.404  28.758  27.760  1.00  0.00     0.029 A 
ATOM     42  C   UNL A   1      40.279  28.563  28.915  1.00  0.00     0.049 A 
ATOM     43  H   UNL A   1      40.094  29.432  30.799  1.00  0.00     0.167 HD
ATOM     44  C   UNL A   1      39.645  31.429  34.676  1.00  0.00     0.037 A 
ATOM     45  C   UNL A   1      41.365  27.768  28.957  1.00  0.00     0.037 A 
ATOM     46  C   UNL A   1      40.771  30.547  34.838  1.00  0.00     0.049 A 
ATOM     47  C   UNL A   1      42.158  27.670  30.235  1.00  0.00     0.074 A 
ATOM     48  C   UNL A   1      41.532  30.316  35.970  1.00  0.00     0.029 A 
ATOM     49  N   UNL A   1      41.299  29.752  33.830  1.00  0.00    -0.354 N 
ATOM     50  N   UNL A   1      41.949  28.259  31.387  1.00  0.00    -0.248 NA
ATOM     51  C   UNL A   1      43.338  26.792  30.218  1.00  0.00     0.031 C 
ATOM     52  C   UNL A   1      42.550  29.417  35.635  1.00  0.00     0.029 A 
ATOM     53  C   UNL A   1      42.391  29.047  34.310  1.00  0.00     0.049 A 
ATOM     54  H   UNL A   1      40.949  29.698  32.912  1.00  0.00     0.167 HD
ATOM     55  C   UNL A   1      42.948  27.803  32.237  1.00  0.00     0.074 A 
ATOM     56  C   UNL A   1      43.756  26.878  31.472  1.00  0.00     0.031 C 
ATOM     57  C   UNL A   1      43.177  28.121  33.535  1.00  0.00     0.037 A 
BRANCH  44  58
ATOM     58  C   UNL A   1      39.213  32.251  35.855  1.00  0.00     0.064 A 
ATOM     59  C   UNL A   1      38.342  31.741  36.828  1.00  0.00     0.173 A 
ATOM     60  C   UNL A   1      39.711  33.550  36.036  1.00  0.00     0.173 A 
ATOM     61  F   UNL A   1      37.827  30.509  36.694  1.00  0.00    -0.203 F 
ATOM     62  C   UNL A   1      37.968  32.508  37.929  1.00  0.00     0.198 A 
ATOM     63  C   UNL A   1      39.357  34.305  37.152  1.00  0.00     0.198 A 
ATOM     64  F   UNL A   1      40.550  34.084  35.136  1.00  0.00    -0.203 F 
ATOM     65  F   UNL A   1      37.102  32.016  38.824  1.00  0.00    -0.200 F 
ATOM     66  C   UNL A   1      38.482  33.786  38.093  1.00  0.00     0.200 A 
ATOM     67  F   UNL A   1      39.864  35.535  37.315  1.00  0.00    -0.200 F 
ATOM     68  F   UNL A   1      38.129  34.520  39.157  1.00  0.00    -0.200 F 
ENDBRANCH  44  58
BRANCH  45  69
ATOM     69  C   UNL A   1      41.781  27.013  27.746  1.00  0.00     0.064 A 
ATOM     70  C   UNL A   1      41.320  25.710  27.509  1.00  0.00     0.173 A 
ATOM     71  C   UNL A   1      42.669  27.570  26.814  1.00  0.00     0.173 A 
ATOM     72  F   UNL A   1      40.490  25.125  28.385  1.00  0.00    -0.203 F 
ATOM     73  C   UNL A   1      41.750  24.986  26.399  1.00  0.00     0.198 A 
ATOM     74  C   UNL A   1      43.074  26.856  25.689  1.00  0.00     0.198 A 
ATOM     75  F   UNL A   1      43.141  28.812  26.994  1.00  0.00    -0.203 F 
ATOM     76  F   UNL A   1      41.334  23.724  26.224  1.00  0.00    -0.200 F 
ATOM     77  C   UNL A   1      42.622  25.561  25.487  1.00  0.00     0.200 A 
ATOM     78  F   UNL A   1      43.908  27.420  24.804  1.00  0.00    -0.200 F 
ATOM     79  F   UNL A   1      43.033  24.865  24.418  1.00  0.00    -0.200 F 
ENDBRANCH  45  69
BRANCH  57  80
ATOM     80  C   UNL A   1      44.323  27.437  34.223  1.00  0.00     0.064 A 
ATOM     81  C   UNL A   1      45.599  28.017  34.283  1.00  0.00     0.173 A 
ATOM     82  C   UNL A   1      44.130  26.205  34.867  1.00  0.00     0.173 A 
ATOM     83  F   UNL A   1      45.838  29.186  33.671  1.00  0.00    -0.203 F 
ATOM     84  C   UNL A   1      46.646  27.376  34.940  1.00  0.00     0.198 A 
ATOM     85  C   UNL A   1      45.171  25.582  35.549  1.00  0.00     0.198 A 
ATOM     86  F   UNL A   1      42.927  25.612  34.845  1.00  0.00    -0.203 F 
ATOM     87  F   UNL A   1      47.867  27.925  34.945  1.00  0.00    -0.200 F 
ATOM     88  C   UNL A   1      46.430  26.163  35.579  1.00  0.00     0.200 A 
ATOM     89  F   UNL A   1      44.957  24.418  36.177  1.00  0.00    -0.200 F 
ATOM     90  F   UNL A   1      47.437  25.552  36.218  1.00  0.00    -0.200 F 
ENDBRANCH  57  80
ENDBRANCH  31  32
ENDBRANCH  24  26
ENDBRANCH  23  24
ENDBRANCH  22  23
ENDBRANCH   1  22
TORSDOF 15
ENDMDL
MODEL 3
REMARK VINA RESULT:     -11.1      4.970     10.423
REMARK SMILES Cc1nc([C@]2(C)CCCO2)nc(C)c1C(=O)OCCOCCOC(=O)c1ccc(-c2c3nc(c(-c4c(F)c(F)c(F)c(F)c4F)c4ccc([nH]4)c(-c4c(F)c(F)c(F)c(F)c4F)c4nc(c(-c5c(F)c(F)c(F)c(F)c5F)c5ccc2[nH]5)C=C4)C=C3)cc1
REMARK SMILES IDX 21 1 20 2 19 3 18 4 17 5 15 6 16 7 14 8 1 9 2 10 3 11 4 12
REMARK SMILES IDX 12 13 11 14 13 15 5 16 7 17 10 18 6 19 8 20 9 21 22 22 23 23
REMARK SMILES IDX 24 24 25 25 26 26 27 27 88 28 28 29 87 30 29 31 30 32 31 33
REMARK SMILES IDX 81 34 32 35 86 36 80 37 82 38 33 39 85 40 79 41 78 42 34 44
REMARK SMILES IDX 66 45 46 46 65 47 47 48 50 49 64 50 83 51 48 52 49 53 63 55
REMARK SMILES IDX 84 56 51 57 35 58 36 59 44 60 37 61 38 62 42 63 45 64 39 65
REMARK SMILES IDX 40 66 43 67 41 68 67 69 68 70 76 71 69 72 70 73 74 74 77 75
REMARK SMILES IDX 71 76 72 77 75 78 73 79 52 80 53 81 61 82 54 83 55 84 59 85
REMARK SMILES IDX 62 86 56 87 57 88 60 89 58 90
REMARK H PARENT 82 43 50 54
REMARK Flexibility Score: inf
ROOT
ATOM      1  C   UNL A   1      38.011  19.649  25.000  1.00  0.00     0.202 C 
ENDROOT
BRANCH   1   2
ATOM      2  O   UNL A   1      37.703  21.032  24.818  1.00  0.00    -0.374 OA
BRANCH   2   3
ATOM      3  C   UNL A   1      36.497  21.527  25.401  1.00  0.00     0.202 C 
BRANCH   3   4
ATOM      4  C   UNL A   1      35.198  21.072  24.738  1.00  0.00     0.261 C 
BRANCH   4   5
ATOM      5  O   UNL A   1      34.229  20.721  25.739  1.00  0.00    -0.460 OA
BRANCH   5   6
ATOM      6  C   UNL A   1      32.940  20.874  25.369  1.00  0.00     0.341 C 
ATOM      7  O   UNL A   1      32.132  19.978  25.168  1.00  0.00    -0.246 OA
BRANCH   6   8
ATOM      8  C   UNL A   1      32.570  22.296  25.334  1.00  0.00     0.102 A 
ATOM      9  C   UNL A   1      32.517  22.419  22.798  1.00  0.00     0.068 C 
ATOM     10  C   UNL A   1      32.278  22.984  24.167  1.00  0.00     0.056 A 
ATOM     11  N   UNL A   1      31.785  24.247  24.186  1.00  0.00    -0.234 NA
ATOM     12  C   UNL A   1      31.592  24.842  25.383  1.00  0.00     0.160 A 
ATOM     13  C   UNL A   1      32.439  23.010  26.519  1.00  0.00     0.056 A 
ATOM     14  N   UNL A   1      31.941  24.268  26.550  1.00  0.00    -0.234 NA
ATOM     15  C   UNL A   1      32.949  22.503  27.838  1.00  0.00     0.068 C 
BRANCH  12  16
ATOM     16  C   UNL A   1      30.880  26.205  25.419  1.00  0.00     0.125 C 
ATOM     17  C   UNL A   1      31.723  27.294  24.751  1.00  0.00     0.046 C 
ATOM     18  O   UNL A   1      30.707  26.649  26.785  1.00  0.00    -0.367 OA
ATOM     19  C   UNL A   1      29.489  26.135  24.776  1.00  0.00     0.051 C 
ATOM     20  C   UNL A   1      32.598  27.803  25.873  1.00  0.00     0.032 C 
ATOM     21  C   UNL A   1      31.765  27.560  27.115  1.00  0.00     0.161 C 
ENDBRANCH  12  16
ENDBRANCH   6   8
ENDBRANCH   5   6
ENDBRANCH   4   5
ENDBRANCH   3   4
ENDBRANCH   2   3
ENDBRANCH   1   2
BRANCH   1  22
ATOM     22  C   UNL A   1      39.319  19.316  25.725  1.00  0.00     0.261 C 
BRANCH  22  23
ATOM     23  O   UNL A   1      40.144  20.475  25.931  1.00  0.00    -0.460 OA
BRANCH  23  24
ATOM     24  C   UNL A   1      40.791  20.503  27.119  1.00  0.00     0.338 C 
ATOM     25  O   UNL A   1      41.272  19.558  27.727  1.00  0.00    -0.246 OA
BRANCH  24  26
ATOM     26  C   UNL A   1      41.013  21.898  27.537  1.00  0.00     0.060 A 
ATOM     27  C   UNL A   1      40.315  22.900  26.850  1.00  0.00     0.016 A 
ATOM     28  C   UNL A   1      41.941  22.229  28.526  1.00  0.00     0.016 A 
ATOM     29  C   UNL A   1      40.576  24.240  27.115  1.00  0.00     0.010 A 
ATOM     30  C   UNL A   1      42.212  23.576  28.784  1.00  0.00     0.010 A 
ATOM     31  C   UNL A   1      41.556  24.585  28.055  1.00  0.00    -0.014 A 
BRANCH  31  32
ATOM     32  C   UNL A   1      41.995  25.997  28.165  1.00  0.00     0.031 A 
ATOM     33  C   UNL A   1      43.317  26.395  27.570  1.00  0.00     0.074 A 
ATOM     34  C   UNL A   1      41.212  26.916  28.754  1.00  0.00     0.049 A 
ATOM     35  N   UNL A   1      43.916  27.558  27.577  1.00  0.00    -0.248 NA
ATOM     36  C   UNL A   1      44.065  25.337  26.871  1.00  0.00     0.031 C 
ATOM     37  C   UNL A   1      39.894  26.658  29.329  1.00  0.00     0.029 A 
ATOM     38  N   UNL A   1      41.420  28.255  28.973  1.00  0.00    -0.354 N 
ATOM     39  C   UNL A   1      45.108  27.372  26.889  1.00  0.00     0.074 A 
ATOM     40  C   UNL A   1      45.164  25.978  26.505  1.00  0.00     0.031 C 
ATOM     41  C   UNL A   1      39.414  27.800  29.850  1.00  0.00     0.029 A 
ATOM     42  C   UNL A   1      40.405  28.860  29.672  1.00  0.00     0.049 A 
ATOM     43  H   UNL A   1      42.219  28.735  28.658  1.00  0.00     0.167 HD
ATOM     44  C   UNL A   1      46.063  28.285  26.596  1.00  0.00     0.037 A 
ATOM     45  C   UNL A   1      40.303  30.121  30.134  1.00  0.00     0.037 A 
ATOM     46  C   UNL A   1      46.005  29.672  26.981  1.00  0.00     0.049 A 
ATOM     47  C   UNL A   1      41.413  31.102  29.855  1.00  0.00     0.074 A 
ATOM     48  C   UNL A   1      46.919  30.679  26.726  1.00  0.00     0.029 A 
ATOM     49  N   UNL A   1      44.972  30.243  27.711  1.00  0.00    -0.354 N 
ATOM     50  N   UNL A   1      42.527  30.923  29.187  1.00  0.00    -0.248 NA
ATOM     51  C   UNL A   1      41.248  32.461  30.391  1.00  0.00     0.031 C 
ATOM     52  C   UNL A   1      46.462  31.848  27.341  1.00  0.00     0.029 A 
ATOM     53  C   UNL A   1      45.239  31.584  27.934  1.00  0.00     0.049 A 
ATOM     54  H   UNL A   1      44.170  29.765  28.024  1.00  0.00     0.167 HD
ATOM     55  C   UNL A   1      43.180  32.149  29.198  1.00  0.00     0.074 A 
ATOM     56  C   UNL A   1      42.332  33.067  29.927  1.00  0.00     0.031 C 
ATOM     57  C   UNL A   1      44.375  32.486  28.653  1.00  0.00     0.037 A 
BRANCH  44  58
ATOM     58  C   UNL A   1      47.267  27.811  25.835  1.00  0.00     0.064 A 
ATOM     59  C   UNL A   1      47.285  27.779  24.434  1.00  0.00     0.173 A 
ATOM     60  C   UNL A   1      48.430  27.424  26.517  1.00  0.00     0.173 A 
ATOM     61  F   UNL A   1      46.194  28.125  23.736  1.00  0.00    -0.203 F 
ATOM     62  C   UNL A   1      48.418  27.357  23.742  1.00  0.00     0.198 A 
ATOM     63  C   UNL A   1      49.570  27.029  25.822  1.00  0.00     0.198 A 
ATOM     64  F   UNL A   1      48.466  27.440  27.858  1.00  0.00    -0.203 F 
ATOM     65  F   UNL A   1      48.400  27.295  22.404  1.00  0.00    -0.200 F 
ATOM     66  C   UNL A   1      49.562  26.990  24.436  1.00  0.00     0.200 A 
ATOM     67  F   UNL A   1      50.678  26.686  26.494  1.00  0.00    -0.200 F 
ATOM     68  F   UNL A   1      50.654  26.594  23.769  1.00  0.00    -0.200 F 
ENDBRANCH  44  58
BRANCH  45  69
ATOM     69  C   UNL A   1      39.113  30.528  30.926  1.00  0.00     0.064 A 
ATOM     70  C   UNL A   1      37.992  31.104  30.310  1.00  0.00     0.173 A 
ATOM     71  C   UNL A   1      39.082  30.375  32.320  1.00  0.00     0.173 A 
ATOM     72  F   UNL A   1      37.984  31.296  28.983  1.00  0.00    -0.203 F 
ATOM     73  C   UNL A   1      36.898  31.530  31.060  1.00  0.00     0.198 A 
ATOM     74  C   UNL A   1      37.975  30.773  33.065  1.00  0.00     0.198 A 
ATOM     75  F   UNL A   1      40.128  29.831  32.959  1.00  0.00    -0.203 F 
ATOM     76  F   UNL A   1      35.862  32.124  30.451  1.00  0.00    -0.200 F 
ATOM     77  C   UNL A   1      36.887  31.359  32.436  1.00  0.00     0.200 A 
ATOM     78  F   UNL A   1      37.965  30.595  34.393  1.00  0.00    -0.200 F 
ATOM     79  F   UNL A   1      35.834  31.767  33.156  1.00  0.00    -0.200 F 
ENDBRANCH  45  69
BRANCH  57  80
ATOM     80  C   UNL A   1      44.820  33.913  28.790  1.00  0.00     0.064 A 
ATOM     81  C   UNL A   1      45.642  34.330  29.848  1.00  0.00     0.173 A 
ATOM     82  C   UNL A   1      44.453  34.866  27.828  1.00  0.00     0.173 A 
ATOM     83  F   UNL A   1      46.009  33.460  30.801  1.00  0.00    -0.203 F 
ATOM     84  C   UNL A   1      46.060  35.655  29.950  1.00  0.00     0.198 A 
ATOM     85  C   UNL A   1      44.897  36.182  27.917  1.00  0.00     0.198 A 
ATOM     86  F   UNL A   1      43.674  34.516  26.793  1.00  0.00    -0.203 F 
ATOM     87  F   UNL A   1      46.806  36.041  30.992  1.00  0.00    -0.200 F 
ATOM     88  C   UNL A   1      45.694  36.577  28.981  1.00  0.00     0.200 A 
ATOM     89  F   UNL A   1      44.554  37.068  26.972  1.00  0.00    -0.200 F 
ATOM     90  F   UNL A   1      46.103  37.850  29.076  1.00  0.00    -0.200 F 
ENDBRANCH  57  80
ENDBRANCH  31  32
ENDBRANCH  24  26
ENDBRANCH  23  24
ENDBRANCH  22  23
ENDBRANCH   1  22
TORSDOF 15
ENDMDL
