MODEL 1
REMARK VINA RESULT:     -12.5      0.000      0.000
REMARK SMILES Cc1cccc(-c2cccc(C(=O)OCCOCCOC(=O)c3ccc(-c4c5nc(c(-c6c(F)c(F)c(F)c(F)c6F)c6ccc([nH]6)c(-c6c(F)c(F)c(F)c(F)c6F)c6nc(c(-c7c(F)c(F)c(F)c(F)c7F)c7ccc4[nH]7)C=C6)C=C5)cc3)c2)c1
REMARK SMILES IDX 18 1 17 2 16 3 15 4 14 5 12 6 13 7 11 8 7 9 8 10 86 11 9 12
REMARK SMILES IDX 10 13 6 14 1 15 2 16 3 17 87 18 4 19 5 20 19 21 20 22 21 23
REMARK SMILES IDX 22 24 23 25 24 26 85 27 25 28 84 29 26 30 27 31 28 32 78 33
REMARK SMILES IDX 29 34 83 35 77 36 79 37 30 38 82 39 76 40 75 41 31 43 63 44
REMARK SMILES IDX 43 45 62 46 44 47 47 48 61 49 80 50 45 51 46 52 60 54 81 55
REMARK SMILES IDX 48 56 32 57 33 58 41 59 34 60 35 61 39 62 42 63 36 64 37 65
REMARK SMILES IDX 40 66 38 67 64 68 65 69 73 70 66 71 67 72 71 73 74 74 68 75
REMARK SMILES IDX 69 76 72 77 70 78 49 79 50 80 58 81 51 82 52 83 56 84 59 85
REMARK SMILES IDX 53 86 54 87 57 88 55 89
REMARK H PARENT 79 42 47 53
REMARK Flexibility Score: inf
ROOT
ATOM      1  C   UNL A   1      32.974  36.016  29.092  1.00  0.00     0.202 C 
ENDROOT
BRANCH   1   2
ATOM      2  O   UNL A   1      32.789  34.616  29.106  1.00  0.00    -0.374 OA
BRANCH   2   3
ATOM      3  C   UNL A   1      33.257  33.906  27.974  1.00  0.00     0.202 C 
BRANCH   3   4
ATOM      4  C   UNL A   1      33.663  32.539  28.461  1.00  0.00     0.261 C 
BRANCH   4   5
ATOM      5  O   UNL A   1      33.392  31.524  27.474  1.00  0.00    -0.460 OA
BRANCH   5   6
ATOM      6  C   UNL A   1      34.300  30.532  27.239  1.00  0.00     0.338 C 
ATOM      7  O   UNL A   1      35.441  30.450  27.622  1.00  0.00    -0.246 OA
BRANCH   6   8
ATOM      8  C   UNL A   1      33.603  29.451  26.519  1.00  0.00     0.060 A 
ATOM      9  C   UNL A   1      31.889  28.833  24.934  1.00  0.00    -0.018 A 
ATOM     10  C   UNL A   1      32.449  27.545  24.879  1.00  0.00     0.009 A 
ATOM     11  C   UNL A   1      32.481  29.791  25.759  1.00  0.00     0.024 A 
ATOM     12  C   UNL A   1      33.545  27.199  25.668  1.00  0.00     0.002 A 
ATOM     13  C   UNL A   1      34.111  28.148  26.504  1.00  0.00     0.016 A 
BRANCH   9  14
ATOM     14  C   UNL A   1      30.670  29.137  24.189  1.00  0.00    -0.018 A 
ATOM     15  C   UNL A   1      28.567  32.229  23.484  1.00  0.00     0.044 C 
ATOM     16  C   UNL A   1      29.039  30.808  23.481  1.00  0.00    -0.051 A 
ATOM     17  C   UNL A   1      28.312  29.807  22.831  1.00  0.00     0.003 A 
ATOM     18  C   UNL A   1      30.211  30.462  24.156  1.00  0.00     0.012 A 
ATOM     19  C   UNL A   1      28.762  28.485  22.841  1.00  0.00     0.001 A 
ATOM     20  C   UNL A   1      29.939  28.150  23.513  1.00  0.00     0.009 A 
ENDBRANCH   9  14
ENDBRANCH   6   8
ENDBRANCH   5   6
ENDBRANCH   4   5
ENDBRANCH   3   4
ENDBRANCH   2   3
ENDBRANCH   1   2
BRANCH   1  21
ATOM     21  C   UNL A   1      32.884  36.626  30.495  1.00  0.00     0.261 C 
BRANCH  21  22
ATOM     22  O   UNL A   1      32.800  35.587  31.499  1.00  0.00    -0.460 OA
BRANCH  22  23
ATOM     23  C   UNL A   1      33.849  35.503  32.367  1.00  0.00     0.338 C 
ATOM     24  O   UNL A   1      34.269  36.422  33.050  1.00  0.00    -0.246 OA
BRANCH  23  25
ATOM     25  C   UNL A   1      34.577  34.214  32.164  1.00  0.00     0.060 A 
ATOM     26  C   UNL A   1      34.587  33.229  33.173  1.00  0.00     0.016 A 
ATOM     27  C   UNL A   1      35.523  34.170  31.150  1.00  0.00     0.016 A 
ATOM     28  C   UNL A   1      35.647  32.309  33.257  1.00  0.00     0.010 A 
ATOM     29  C   UNL A   1      36.638  33.389  31.343  1.00  0.00     0.010 A 
ATOM     30  C   UNL A   1      36.722  32.452  32.387  1.00  0.00    -0.014 A 
BRANCH  30  31
ATOM     31  C   UNL A   1      37.999  31.730  32.419  1.00  0.00     0.031 A 
ATOM     32  C   UNL A   1      38.121  30.531  31.544  1.00  0.00     0.074 A 
ATOM     33  C   UNL A   1      39.129  32.278  32.939  1.00  0.00     0.049 A 
ATOM     34  N   UNL A   1      39.097  29.693  31.605  1.00  0.00    -0.248 NA
ATOM     35  C   UNL A   1      37.120  30.130  30.555  1.00  0.00     0.031 C 
ATOM     36  C   UNL A   1      40.495  32.064  32.447  1.00  0.00     0.029 A 
ATOM     37  N   UNL A   1      39.313  33.230  33.954  1.00  0.00    -0.354 N 
ATOM     38  C   UNL A   1      39.052  28.914  30.469  1.00  0.00     0.074 A 
ATOM     39  C   UNL A   1      37.730  29.114  29.942  1.00  0.00     0.031 C 
ATOM     40  C   UNL A   1      41.379  32.639  33.279  1.00  0.00     0.029 A 
ATOM     41  C   UNL A   1      40.638  33.131  34.422  1.00  0.00     0.049 A 
ATOM     42  H   UNL A   1      38.631  33.860  34.283  1.00  0.00     0.167 HD
ATOM     43  C   UNL A   1      40.206  28.327  30.043  1.00  0.00     0.037 A 
ATOM     44  C   UNL A   1      40.928  32.919  35.736  1.00  0.00     0.037 A 
ATOM     45  C   UNL A   1      41.303  28.659  30.959  1.00  0.00     0.049 A 
ATOM     46  C   UNL A   1      41.612  31.597  35.886  1.00  0.00     0.074 A 
ATOM     47  C   UNL A   1      42.373  29.534  30.862  1.00  0.00     0.029 A 
ATOM     48  N   UNL A   1      41.218  28.289  32.298  1.00  0.00    -0.354 N 
ATOM     49  N   UNL A   1      41.494  30.666  34.981  1.00  0.00    -0.248 NA
ATOM     50  C   UNL A   1      42.505  31.213  36.971  1.00  0.00     0.031 C 
ATOM     51  C   UNL A   1      42.940  29.675  32.157  1.00  0.00     0.029 A 
ATOM     52  C   UNL A   1      42.223  28.877  33.036  1.00  0.00     0.049 A 
ATOM     53  H   UNL A   1      40.532  27.690  32.669  1.00  0.00     0.167 HD
ATOM     54  C   UNL A   1      42.303  29.621  35.291  1.00  0.00     0.074 A 
ATOM     55  C   UNL A   1      42.887  29.985  36.568  1.00  0.00     0.031 C 
ATOM     56  C   UNL A   1      42.411  28.559  34.446  1.00  0.00     0.037 A 
BRANCH  43  57
ATOM     57  C   UNL A   1      40.461  27.657  28.700  1.00  0.00     0.064 A 
ATOM     58  C   UNL A   1      39.975  26.348  28.465  1.00  0.00     0.173 A 
ATOM     59  C   UNL A   1      41.184  28.198  27.617  1.00  0.00     0.173 A 
ATOM     60  F   UNL A   1      39.199  25.716  29.355  1.00  0.00    -0.203 F 
ATOM     61  C   UNL A   1      40.251  25.630  27.298  1.00  0.00     0.198 A 
ATOM     62  C   UNL A   1      41.466  27.477  26.451  1.00  0.00     0.198 A 
ATOM     63  F   UNL A   1      41.625  29.454  27.602  1.00  0.00    -0.203 F 
ATOM     64  F   UNL A   1      39.774  24.385  27.155  1.00  0.00    -0.200 F 
ATOM     65  C   UNL A   1      41.009  26.189  26.294  1.00  0.00     0.200 A 
ATOM     66  F   UNL A   1      42.183  28.054  25.475  1.00  0.00    -0.200 F 
ATOM     67  F   UNL A   1      41.276  25.504  25.175  1.00  0.00    -0.200 F 
ENDBRANCH  43  57
BRANCH  44  68
ATOM     68  C   UNL A   1      39.932  33.556  36.638  1.00  0.00     0.064 A 
ATOM     69  C   UNL A   1      39.019  32.687  37.270  1.00  0.00     0.173 A 
ATOM     70  C   UNL A   1      40.239  34.760  37.292  1.00  0.00     0.173 A 
ATOM     71  F   UNL A   1      38.694  31.519  36.690  1.00  0.00    -0.203 F 
ATOM     72  C   UNL A   1      38.576  32.926  38.569  1.00  0.00     0.198 A 
ATOM     73  C   UNL A   1      39.813  34.982  38.604  1.00  0.00     0.198 A 
ATOM     74  F   UNL A   1      41.099  35.627  36.739  1.00  0.00    -0.203 F 
ATOM     75  F   UNL A   1      37.840  32.003  39.207  1.00  0.00    -0.200 F 
ATOM     76  C   UNL A   1      39.017  34.049  39.251  1.00  0.00     0.200 A 
ATOM     77  F   UNL A   1      40.273  36.041  39.286  1.00  0.00    -0.200 F 
ATOM     78  F   UNL A   1      38.741  34.186  40.557  1.00  0.00    -0.200 F 
ENDBRANCH  44  68
BRANCH  56  79
ATOM     79  C   UNL A   1      42.809  27.168  34.851  1.00  0.00     0.064 A 
ATOM     80  C   UNL A   1      41.894  26.114  34.995  1.00  0.00     0.173 A 
ATOM     81  C   UNL A   1      44.175  26.803  34.936  1.00  0.00     0.173 A 
ATOM     82  F   UNL A   1      40.581  26.286  34.790  1.00  0.00    -0.203 F 
ATOM     83  C   UNL A   1      42.305  24.816  35.296  1.00  0.00     0.198 A 
ATOM     84  C   UNL A   1      44.584  25.493  35.159  1.00  0.00     0.198 A 
ATOM     85  F   UNL A   1      45.163  27.692  34.768  1.00  0.00    -0.203 F 
ATOM     86  F   UNL A   1      41.385  23.860  35.485  1.00  0.00    -0.200 F 
ATOM     87  C   UNL A   1      43.648  24.504  35.369  1.00  0.00     0.200 A 
ATOM     88  F   UNL A   1      45.890  25.195  35.149  1.00  0.00    -0.200 F 
ATOM     89  F   UNL A   1      44.039  23.248  35.617  1.00  0.00    -0.200 F 
ENDBRANCH  56  79
ENDBRANCH  30  31
ENDBRANCH  23  25
ENDBRANCH  22  23
ENDBRANCH  21  22
ENDBRANCH   1  21
TORSDOF 15
ENDMDL
MODEL 2
REMARK VINA RESULT:     -12.3      1.460      2.347
REMARK SMILES Cc1cccc(-c2cccc(C(=O)OCCOCCOC(=O)c3ccc(-c4c5nc(c(-c6c(F)c(F)c(F)c(F)c6F)c6ccc([nH]6)c(-c6c(F)c(F)c(F)c(F)c6F)c6nc(c(-c7c(F)c(F)c(F)c(F)c7F)c7ccc4[nH]7)C=C6)C=C5)cc3)c2)c1
REMARK SMILES IDX 18 1 17 2 16 3 15 4 14 5 12 6 13 7 11 8 7 9 8 10 86 11 9 12
REMARK SMILES IDX 10 13 6 14 1 15 2 16 3 17 87 18 4 19 5 20 19 21 20 22 21 23
REMARK SMILES IDX 22 24 23 25 24 26 85 27 25 28 84 29 26 30 27 31 28 32 78 33
REMARK SMILES IDX 29 34 83 35 77 36 79 37 30 38 82 39 76 40 75 41 31 43 63 44
REMARK SMILES IDX 43 45 62 46 44 47 47 48 61 49 80 50 45 51 46 52 60 54 81 55
REMARK SMILES IDX 48 56 32 57 33 58 41 59 34 60 35 61 39 62 42 63 36 64 37 65
REMARK SMILES IDX 40 66 38 67 64 68 65 69 73 70 66 71 67 72 71 73 74 74 68 75
REMARK SMILES IDX 69 76 72 77 70 78 49 79 50 80 58 81 51 82 52 83 56 84 59 85
REMARK SMILES IDX 53 86 54 87 57 88 55 89
REMARK H PARENT 79 42 47 53
REMARK Flexibility Score: inf
ROOT
ATOM      1  C   UNL A   1      33.165  35.861  28.915  1.00  0.00     0.202 C 
ENDROOT
BRANCH   1   2
ATOM      2  O   UNL A   1      32.722  34.521  28.920  1.00  0.00    -0.374 OA
BRANCH   2   3
ATOM      3  C   UNL A   1      32.882  33.798  27.714  1.00  0.00     0.202 C 
BRANCH   3   4
ATOM      4  C   UNL A   1      33.833  32.667  28.013  1.00  0.00     0.261 C 
BRANCH   4   5
ATOM      5  O   UNL A   1      33.719  31.609  27.040  1.00  0.00    -0.460 OA
BRANCH   5   6
ATOM      6  C   UNL A   1      34.418  30.448  27.200  1.00  0.00     0.338 C 
ATOM      7  O   UNL A   1      35.550  30.298  27.588  1.00  0.00    -0.246 OA
BRANCH   6   8
ATOM      8  C   UNL A   1      33.491  29.331  26.945  1.00  0.00     0.060 A 
ATOM      9  C   UNL A   1      33.195  27.068  26.154  1.00  0.00    -0.018 A 
ATOM     10  C   UNL A   1      31.912  27.069  26.727  1.00  0.00     0.009 A 
ATOM     11  C   UNL A   1      33.988  28.211  26.273  1.00  0.00     0.024 A 
ATOM     12  C   UNL A   1      31.405  28.201  27.363  1.00  0.00     0.002 A 
ATOM     13  C   UNL A   1      32.188  29.341  27.455  1.00  0.00     0.016 A 
BRANCH   9  14
ATOM     14  C   UNL A   1      33.658  25.913  25.390  1.00  0.00    -0.018 A 
ATOM     15  C   UNL A   1      35.005  22.443  26.183  1.00  0.00     0.044 C 
ATOM     16  C   UNL A   1      34.548  23.641  25.409  1.00  0.00    -0.051 A 
ATOM     17  C   UNL A   1      34.611  23.665  24.013  1.00  0.00     0.003 A 
ATOM     18  C   UNL A   1      34.074  24.767  26.084  1.00  0.00     0.012 A 
ATOM     19  C   UNL A   1      34.186  24.792  23.305  1.00  0.00     0.001 A 
ATOM     20  C   UNL A   1      33.707  25.911  23.990  1.00  0.00     0.009 A 
ENDBRANCH   9  14
ENDBRANCH   6   8
ENDBRANCH   5   6
ENDBRANCH   4   5
ENDBRANCH   3   4
ENDBRANCH   2   3
ENDBRANCH   1   2
BRANCH   1  21
ATOM     21  C   UNL A   1      32.911  36.561  30.255  1.00  0.00     0.261 C 
BRANCH  21  22
ATOM     22  O   UNL A   1      32.691  35.589  31.304  1.00  0.00    -0.460 OA
BRANCH  22  23
ATOM     23  C   UNL A   1      33.642  35.533  32.281  1.00  0.00     0.338 C 
ATOM     24  O   UNL A   1      34.017  36.481  32.950  1.00  0.00    -0.246 OA
BRANCH  23  25
ATOM     25  C   UNL A   1      34.347  34.216  32.231  1.00  0.00     0.060 A 
ATOM     26  C   UNL A   1      34.470  33.424  33.391  1.00  0.00     0.016 A 
ATOM     27  C   UNL A   1      35.177  33.980  31.144  1.00  0.00     0.016 A 
ATOM     28  C   UNL A   1      35.536  32.515  33.521  1.00  0.00     0.010 A 
ATOM     29  C   UNL A   1      36.309  33.227  31.351  1.00  0.00     0.010 A 
ATOM     30  C   UNL A   1      36.509  32.485  32.529  1.00  0.00    -0.014 A 
BRANCH  30  31
ATOM     31  C   UNL A   1      37.784  31.760  32.549  1.00  0.00     0.031 A 
ATOM     32  C   UNL A   1      37.883  30.541  31.699  1.00  0.00     0.074 A 
ATOM     33  C   UNL A   1      38.926  32.315  33.032  1.00  0.00     0.049 A 
ATOM     34  N   UNL A   1      38.857  29.701  31.757  1.00  0.00    -0.248 NA
ATOM     35  C   UNL A   1      36.859  30.122  30.740  1.00  0.00     0.031 C 
ATOM     36  C   UNL A   1      40.281  32.085  32.516  1.00  0.00     0.029 A 
ATOM     37  N   UNL A   1      39.136  33.289  34.021  1.00  0.00    -0.354 N 
ATOM     38  C   UNL A   1      38.785  28.897  30.640  1.00  0.00     0.074 A 
ATOM     39  C   UNL A   1      37.453  29.090  30.138  1.00  0.00     0.031 C 
ATOM     40  C   UNL A   1      41.184  32.675  33.316  1.00  0.00     0.029 A 
ATOM     41  C   UNL A   1      40.471  33.195  34.463  1.00  0.00     0.049 A 
ATOM     42  H   UNL A   1      38.464  33.928  34.350  1.00  0.00     0.167 HD
ATOM     43  C   UNL A   1      39.927  28.296  30.203  1.00  0.00     0.037 A 
ATOM     44  C   UNL A   1      40.788  33.012  35.775  1.00  0.00     0.037 A 
ATOM     45  C   UNL A   1      41.045  28.645  31.088  1.00  0.00     0.049 A 
ATOM     46  C   UNL A   1      41.471  31.691  35.939  1.00  0.00     0.074 A 
ATOM     47  C   UNL A   1      42.116  29.513  30.948  1.00  0.00     0.029 A 
ATOM     48  N   UNL A   1      40.988  28.305  32.436  1.00  0.00    -0.354 N 
ATOM     49  N   UNL A   1      41.330  30.740  35.058  1.00  0.00    -0.248 NA
ATOM     50  C   UNL A   1      42.385  31.327  37.013  1.00  0.00     0.031 C 
ATOM     51  C   UNL A   1      42.711  29.681  32.226  1.00  0.00     0.029 A 
ATOM     52  C   UNL A   1      42.011  28.905  33.139  1.00  0.00     0.049 A 
ATOM     53  H   UNL A   1      40.308  27.716  32.834  1.00  0.00     0.167 HD
ATOM     54  C   UNL A   1      42.142  29.700  35.374  1.00  0.00     0.074 A 
ATOM     55  C   UNL A   1      42.754  30.089  36.630  1.00  0.00     0.031 C 
ATOM     56  C   UNL A   1      42.228  28.618  34.551  1.00  0.00     0.037 A 
BRANCH  43  57
ATOM     57  C   UNL A   1      40.152  27.595  28.870  1.00  0.00     0.064 A 
ATOM     58  C   UNL A   1      39.660  26.281  28.677  1.00  0.00     0.173 A 
ATOM     59  C   UNL A   1      40.849  28.111  27.758  1.00  0.00     0.173 A 
ATOM     60  F   UNL A   1      38.906  25.670  29.599  1.00  0.00    -0.203 F 
ATOM     61  C   UNL A   1      39.910  25.536  27.520  1.00  0.00     0.198 A 
ATOM     62  C   UNL A   1      41.103  27.364  26.602  1.00  0.00     0.198 A 
ATOM     63  F   UNL A   1      41.288  29.367  27.704  1.00  0.00    -0.203 F 
ATOM     64  F   UNL A   1      39.430  24.288  27.418  1.00  0.00    -0.200 F 
ATOM     65  C   UNL A   1      40.643  26.073  26.486  1.00  0.00     0.200 A 
ATOM     66  F   UNL A   1      41.797  27.918  25.597  1.00  0.00    -0.200 F 
ATOM     67  F   UNL A   1      40.884  25.362  25.377  1.00  0.00    -0.200 F 
ENDBRANCH  43  57
BRANCH  44  68
ATOM     68  C   UNL A   1      39.814  33.672  36.683  1.00  0.00     0.064 A 
ATOM     69  C   UNL A   1      38.878  32.827  37.313  1.00  0.00     0.173 A 
ATOM     70  C   UNL A   1      40.158  34.863  37.343  1.00  0.00     0.173 A 
ATOM     71  F   UNL A   1      38.517  31.673  36.727  1.00  0.00    -0.203 F 
ATOM     72  C   UNL A   1      38.445  33.071  38.615  1.00  0.00     0.198 A 
ATOM     73  C   UNL A   1      39.743  35.090  38.657  1.00  0.00     0.198 A 
ATOM     74  F   UNL A   1      41.042  35.707  36.792  1.00  0.00    -0.203 F 
ATOM     75  F   UNL A   1      37.685  32.167  39.250  1.00  0.00    -0.200 F 
ATOM     76  C   UNL A   1      38.921  34.176  39.302  1.00  0.00     0.200 A 
ATOM     77  F   UNL A   1      40.235  36.130  39.344  1.00  0.00    -0.200 F 
ATOM     78  F   UNL A   1      38.654  34.314  40.610  1.00  0.00    -0.200 F 
ENDBRANCH  44  68
BRANCH  56  79
ATOM     79  C   UNL A   1      42.630  27.235  34.978  1.00  0.00     0.064 A 
ATOM     80  C   UNL A   1      41.726  26.166  35.084  1.00  0.00     0.173 A 
ATOM     81  C   UNL A   1      43.996  26.892  35.126  1.00  0.00     0.173 A 
ATOM     82  F   UNL A   1      40.422  26.316  34.820  1.00  0.00    -0.203 F 
ATOM     83  C   UNL A   1      42.145  24.876  35.408  1.00  0.00     0.198 A 
ATOM     84  C   UNL A   1      44.416  25.590  35.372  1.00  0.00     0.198 A 
ATOM     85  F   UNL A   1      44.977  27.798  35.000  1.00  0.00    -0.203 F 
ATOM     86  F   UNL A   1      41.233  23.906  35.559  1.00  0.00    -0.200 F 
ATOM     87  C   UNL A   1      43.488  24.586  35.543  1.00  0.00     0.200 A 
ATOM     88  F   UNL A   1      45.726  25.313  35.422  1.00  0.00    -0.200 F 
ATOM     89  F   UNL A   1      43.888  23.338  35.813  1.00  0.00    -0.200 F 
ENDBRANCH  56  79
ENDBRANCH  30  31
ENDBRANCH  23  25
ENDBRANCH  22  23
ENDBRANCH  21  22
ENDBRANCH   1  21
TORSDOF 15
ENDMDL
MODEL 3
REMARK VINA RESULT:     -12.1      3.229      5.737
REMARK SMILES Cc1cccc(-c2cccc(C(=O)OCCOCCOC(=O)c3ccc(-c4c5nc(c(-c6c(F)c(F)c(F)c(F)c6F)c6ccc([nH]6)c(-c6c(F)c(F)c(F)c(F)c6F)c6nc(c(-c7c(F)c(F)c(F)c(F)c7F)c7ccc4[nH]7)C=C6)C=C5)cc3)c2)c1
REMARK SMILES IDX 18 1 17 2 16 3 15 4 14 5 12 6 13 7 11 8 7 9 8 10 86 11 9 12
REMARK SMILES IDX 10 13 6 14 1 15 2 16 3 17 87 18 4 19 5 20 19 21 20 22 21 23
REMARK SMILES IDX 22 24 23 25 24 26 85 27 25 28 84 29 26 30 27 31 28 32 78 33
REMARK SMILES IDX 29 34 83 35 77 36 79 37 30 38 82 39 76 40 75 41 31 43 63 44
REMARK SMILES IDX 43 45 62 46 44 47 47 48 61 49 80 50 45 51 46 52 60 54 81 55
REMARK SMILES IDX 48 56 32 57 33 58 41 59 34 60 35 61 39 62 42 63 36 64 37 65
REMARK SMILES IDX 40 66 38 67 64 68 65 69 73 70 66 71 67 72 71 73 74 74 68 75
REMARK SMILES IDX 69 76 72 77 70 78 49 79 50 80 58 81 51 82 52 83 56 84 59 85
REMARK SMILES IDX 53 86 54 87 57 88 55 89
REMARK H PARENT 79 42 47 53
REMARK Flexibility Score: inf
ROOT
ATOM      1  C   UNL A   1      33.096  28.952  26.884  1.00  0.00     0.202 C 
ENDROOT
BRANCH   1   2
ATOM      2  O   UNL A   1      33.463  28.325  25.674  1.00  0.00    -0.374 OA
BRANCH   2   3
ATOM      3  C   UNL A   1      33.248  29.067  24.487  1.00  0.00     0.202 C 
BRANCH   3   4
ATOM      4  C   UNL A   1      33.793  28.235  23.355  1.00  0.00     0.261 C 
BRANCH   4   5
ATOM      5  O   UNL A   1      32.843  27.240  22.925  1.00  0.00    -0.460 OA
BRANCH   5   6
ATOM      6  C   UNL A   1      33.268  25.998  22.550  1.00  0.00     0.338 C 
ATOM      7  O   UNL A   1      33.558  25.603  21.447  1.00  0.00    -0.246 OA
BRANCH   6   8
ATOM      8  C   UNL A   1      33.459  25.203  23.775  1.00  0.00     0.060 A 
ATOM      9  C   UNL A   1      34.978  23.956  25.179  1.00  0.00    -0.018 A 
ATOM     10  C   UNL A   1      34.007  23.979  26.196  1.00  0.00     0.009 A 
ATOM     11  C   UNL A   1      34.696  24.581  23.963  1.00  0.00     0.024 A 
ATOM     12  C   UNL A   1      32.760  24.567  25.991  1.00  0.00     0.002 A 
ATOM     13  C   UNL A   1      32.478  25.163  24.772  1.00  0.00     0.016 A 
BRANCH   9  14
ATOM     14  C   UNL A   1      36.230  23.230  25.375  1.00  0.00    -0.018 A 
ATOM     15  C   UNL A   1      37.492  19.692  24.764  1.00  0.00     0.044 C 
ATOM     16  C   UNL A   1      37.461  21.133  25.171  1.00  0.00    -0.051 A 
ATOM     17  C   UNL A   1      38.573  21.741  25.761  1.00  0.00     0.003 A 
ATOM     18  C   UNL A   1      36.299  21.884  24.986  1.00  0.00     0.012 A 
ATOM     19  C   UNL A   1      38.527  23.084  26.140  1.00  0.00     0.001 A 
ATOM     20  C   UNL A   1      37.362  23.829  25.944  1.00  0.00     0.009 A 
ENDBRANCH   9  14
ENDBRANCH   6   8
ENDBRANCH   5   6
ENDBRANCH   4   5
ENDBRANCH   3   4
ENDBRANCH   2   3
ENDBRANCH   1   2
BRANCH   1  21
ATOM     21  C   UNL A   1      33.223  30.478  26.807  1.00  0.00     0.261 C 
BRANCH  21  22
ATOM     22  O   UNL A   1      33.729  31.011  28.054  1.00  0.00    -0.460 OA
BRANCH  22  23
ATOM     23  C   UNL A   1      35.010  31.480  28.032  1.00  0.00     0.338 C 
ATOM     24  O   UNL A   1      35.345  32.587  27.646  1.00  0.00    -0.246 OA
BRANCH  23  25
ATOM     25  C   UNL A   1      35.967  30.361  28.289  1.00  0.00     0.060 A 
ATOM     26  C   UNL A   1      36.158  29.867  29.596  1.00  0.00     0.016 A 
ATOM     27  C   UNL A   1      36.906  30.089  27.305  1.00  0.00     0.016 A 
ATOM     28  C   UNL A   1      37.372  29.251  29.952  1.00  0.00     0.010 A 
ATOM     29  C   UNL A   1      38.147  29.651  27.704  1.00  0.00     0.010 A 
ATOM     30  C   UNL A   1      38.403  29.226  29.020  1.00  0.00    -0.014 A 
BRANCH  30  31
ATOM     31  C   UNL A   1      39.793  28.807  29.236  1.00  0.00     0.031 A 
ATOM     32  C   UNL A   1      40.143  27.408  28.863  1.00  0.00     0.074 A 
ATOM     33  C   UNL A   1      40.795  29.701  29.441  1.00  0.00     0.049 A 
ATOM     34  N   UNL A   1      41.259  26.842  29.168  1.00  0.00    -0.248 NA
ATOM     35  C   UNL A   1      39.242  26.494  28.160  1.00  0.00     0.031 C 
ATOM     36  C   UNL A   1      42.182  29.561  28.977  1.00  0.00     0.029 A 
ATOM     37  N   UNL A   1      40.791  30.981  30.014  1.00  0.00    -0.354 N 
ATOM     38  C   UNL A   1      41.368  25.697  28.409  1.00  0.00     0.074 A 
ATOM     39  C   UNL A   1      40.036  25.447  27.931  1.00  0.00     0.031 C 
ATOM     40  C   UNL A   1      42.935  30.554  29.477  1.00  0.00     0.029 A 
ATOM     41  C   UNL A   1      42.108  31.302  30.400  1.00  0.00     0.049 A 
ATOM     42  H   UNL A   1      40.001  31.558  30.129  1.00  0.00     0.167 HD
ATOM     43  C   UNL A   1      42.615  25.206  28.158  1.00  0.00     0.037 A 
ATOM     44  C   UNL A   1      42.422  31.656  31.677  1.00  0.00     0.037 A 
ATOM     45  C   UNL A   1      43.624  26.047  28.813  1.00  0.00     0.049 A 
ATOM     46  C   UNL A   1      43.341  30.631  32.263  1.00  0.00     0.074 A 
ATOM     47  C   UNL A   1      44.511  26.995  28.329  1.00  0.00     0.029 A 
ATOM     48  N   UNL A   1      43.600  26.201  30.196  1.00  0.00    -0.354 N 
ATOM     49  N   UNL A   1      43.406  29.423  31.778  1.00  0.00    -0.248 NA
ATOM     50  C   UNL A   1      44.283  30.848  33.354  1.00  0.00     0.031 C 
ATOM     51  C   UNL A   1      45.032  27.711  29.439  1.00  0.00     0.029 A 
ATOM     52  C   UNL A   1      44.472  27.191  30.596  1.00  0.00     0.049 A 
ATOM     53  H   UNL A   1      43.036  25.674  30.806  1.00  0.00     0.167 HD
ATOM     54  C   UNL A   1      44.395  28.733  32.403  1.00  0.00     0.074 A 
ATOM     55  C   UNL A   1      44.891  29.648  33.412  1.00  0.00     0.031 C 
ATOM     56  C   UNL A   1      44.706  27.467  32.008  1.00  0.00     0.037 A 
BRANCH  43  57
ATOM     57  C   UNL A   1      43.001  24.135  27.147  1.00  0.00     0.064 A 
ATOM     58  C   UNL A   1      42.663  22.782  27.395  1.00  0.00     0.173 A 
ATOM     59  C   UNL A   1      43.715  24.333  25.948  1.00  0.00     0.173 A 
ATOM     60  F   UNL A   1      41.916  22.425  28.447  1.00  0.00    -0.203 F 
ATOM     61  C   UNL A   1      43.067  21.732  26.565  1.00  0.00     0.198 A 
ATOM     62  C   UNL A   1      44.124  23.281  25.120  1.00  0.00     0.198 A 
ATOM     63  F   UNL A   1      44.024  25.543  25.486  1.00  0.00    -0.203 F 
ATOM     64  F   UNL A   1      42.728  20.472  26.876  1.00  0.00    -0.200 F 
ATOM     65  C   UNL A   1      43.810  21.979  25.432  1.00  0.00     0.200 A 
ATOM     66  F   UNL A   1      44.823  23.550  24.007  1.00  0.00    -0.200 F 
ATOM     67  F   UNL A   1      44.199  20.975  24.636  1.00  0.00    -0.200 F 
ENDBRANCH  43  57
BRANCH  44  68
ATOM     68  C   UNL A   1      41.318  32.400  32.339  1.00  0.00     0.064 A 
ATOM     69  C   UNL A   1      40.540  31.668  33.259  1.00  0.00     0.173 A 
ATOM     70  C   UNL A   1      41.418  33.787  32.533  1.00  0.00     0.173 A 
ATOM     71  F   UNL A   1      40.416  30.337  33.123  1.00  0.00    -0.203 F 
ATOM     72  C   UNL A   1      40.035  32.265  34.412  1.00  0.00     0.198 A 
ATOM     73  C   UNL A   1      40.932  34.375  33.703  1.00  0.00     0.198 A 
ATOM     74  F   UNL A   1      42.143  34.535  31.689  1.00  0.00    -0.203 F 
ATOM     75  F   UNL A   1      39.439  31.514  35.351  1.00  0.00    -0.200 F 
ATOM     76  C   UNL A   1      40.278  33.607  34.656  1.00  0.00     0.200 A 
ATOM     77  F   UNL A   1      41.204  35.661  33.968  1.00  0.00    -0.200 F 
ATOM     78  F   UNL A   1      39.954  34.139  35.845  1.00  0.00    -0.200 F 
ENDBRANCH  44  68
BRANCH  56  79
ATOM     79  C   UNL A   1      45.355  26.425  32.874  1.00  0.00     0.064 A 
ATOM     80  C   UNL A   1      44.641  25.602  33.759  1.00  0.00     0.173 A 
ATOM     81  C   UNL A   1      46.722  26.096  32.708  1.00  0.00     0.173 A 
ATOM     82  F   UNL A   1      43.313  25.703  33.900  1.00  0.00    -0.203 F 
ATOM     83  C   UNL A   1      45.263  24.592  34.491  1.00  0.00     0.198 A 
ATOM     84  C   UNL A   1      47.322  25.038  33.382  1.00  0.00     0.198 A 
ATOM     85  F   UNL A   1      47.518  26.760  31.858  1.00  0.00    -0.203 F 
ATOM     86  F   UNL A   1      44.546  23.877  35.369  1.00  0.00    -0.200 F 
ATOM     87  C   UNL A   1      46.600  24.304  34.297  1.00  0.00     0.200 A 
ATOM     88  F   UNL A   1      48.599  24.724  33.122  1.00  0.00    -0.200 F 
ATOM     89  F   UNL A   1      47.183  23.307  34.972  1.00  0.00    -0.200 F 
ENDBRANCH  56  79
ENDBRANCH  30  31
ENDBRANCH  23  25
ENDBRANCH  22  23
ENDBRANCH  21  22
ENDBRANCH   1  21
TORSDOF 15
ENDMDL
