MODEL 1
REMARK VINA RESULT:     -12.3      0.000      0.000
REMARK SMILES C[C@@H](C(=O)OCCOCCOC(=O)c1ccc(-c2c3nc(c(-c4c(F)c(F)c(F)c(F)c4F)c4ccc([nH]4)c(-c4c(F)c(F)c(F)c(F)c4F)c4nc(c(-c5c(F)c(F)c(F)c(F)c5F)c5ccc2[nH]5)C=C4)C=C3)cc1)c1ccc2c3cc(Cl)ccc3n(C(=O)c3cocn3)c2c1
REMARK SMILES IDX 7 1 6 2 5 3 3 4 4 5 2 6 1 7 77 8 78 9 97 10 79 11 96 12
REMARK SMILES IDX 80 13 88 14 81 15 87 16 82 17 86 18 83 19 85 20 84 21 89 22
REMARK SMILES IDX 90 23 91 24 92 25 95 26 93 27 94 28 8 29 9 30 10 31 11 32
REMARK SMILES IDX 12 33 13 34 14 35 15 36 76 37 16 38 75 39 17 40 18 41 19 42
REMARK SMILES IDX 69 43 20 44 74 45 68 46 70 47 21 48 73 49 67 50 66 51 22 53
REMARK SMILES IDX 54 54 34 55 53 56 35 57 38 58 52 59 71 60 36 61 37 62 51 64
REMARK SMILES IDX 72 65 39 66 23 67 24 68 32 69 25 70 26 71 30 72 33 73 27 74
REMARK SMILES IDX 28 75 31 76 29 77 55 78 56 79 64 80 57 81 58 82 62 83 65 84
REMARK SMILES IDX 59 85 60 86 63 87 61 88 40 89 41 90 49 91 42 92 43 93 47 94
REMARK SMILES IDX 50 95 44 96 45 97 48 98 46 99
REMARK H PARENT 70 52 38 63
REMARK Flexibility Score: inf
ROOT
ATOM      1  C   UNL A   1      31.857  29.726  25.202  1.00  0.00     0.202 C 
ENDROOT
BRANCH   1   2
ATOM      2  C   UNL A   1      30.953  28.871  24.307  1.00  0.00     0.261 C 
BRANCH   2   3
ATOM      3  O   UNL A   1      30.726  27.583  24.894  1.00  0.00    -0.463 OA
BRANCH   3   4
ATOM      4  C   UNL A   1      31.541  26.586  24.450  1.00  0.00     0.313 C 
ATOM      5  O   UNL A   1      31.746  26.339  23.267  1.00  0.00    -0.252 OA
BRANCH   4   6
ATOM      6  C   UNL A   1      32.273  25.889  25.594  1.00  0.00     0.126 C 
ATOM      7  C   UNL A   1      33.628  26.534  25.930  1.00  0.00     0.025 C 
BRANCH   6   8
ATOM      8  C   UNL A   1      32.411  24.373  25.416  1.00  0.00    -0.032 A 
ATOM      9  C   UNL A   1      31.371  23.468  25.650  1.00  0.00     0.005 A 
ATOM     10  C   UNL A   1      33.655  23.867  25.003  1.00  0.00     0.032 A 
ATOM     11  C   UNL A   1      31.545  22.092  25.446  1.00  0.00     0.011 A 
ATOM     12  C   UNL A   1      33.851  22.478  24.852  1.00  0.00     0.058 A 
ATOM     13  C   UNL A   1      32.800  21.589  25.049  1.00  0.00     0.008 A 
ATOM     14  N   UNL A   1      34.996  21.741  24.495  1.00  0.00    -0.274 N 
ATOM     15  C   UNL A   1      33.302  20.275  24.838  1.00  0.00     0.009 A 
ATOM     16  C   UNL A   1      34.680  20.375  24.600  1.00  0.00     0.057 A 
ATOM     17  C   UNL A   1      32.693  19.003  24.920  1.00  0.00     0.031 A 
ATOM     18  C   UNL A   1      35.478  19.213  24.581  1.00  0.00     0.029 A 
ATOM     19  C   UNL A   1      33.483  17.858  24.839  1.00  0.00     0.041 A 
ATOM     20  C   UNL A   1      34.858  17.961  24.696  1.00  0.00     0.023 A 
ATOM     21  Cl  UNL A   1      32.747  16.308  24.974  1.00  0.00    -0.084 Cl
BRANCH  14  22
ATOM     22  C   UNL A   1      36.247  22.337  24.154  1.00  0.00     0.284 C 
ATOM     23  O   UNL A   1      36.364  22.711  22.987  1.00  0.00    -0.266 OA
BRANCH  22  24
ATOM     24  C   UNL A   1      37.394  22.502  25.042  1.00  0.00     0.167 A 
ATOM     25  C   UNL A   1      37.744  23.562  25.852  1.00  0.00     0.231 A 
ATOM     26  N   UNL A   1      38.268  21.452  25.300  1.00  0.00    -0.211 NA
ATOM     27  O   UNL A   1      38.831  23.198  26.594  1.00  0.00    -0.451 OA
ATOM     28  C   UNL A   1      39.076  21.915  26.220  1.00  0.00     0.308 A 
ENDBRANCH  22  24
ENDBRANCH  14  22
ENDBRANCH   6   8
ENDBRANCH   4   6
ENDBRANCH   3   4
ENDBRANCH   2   3
ENDBRANCH   1   2
BRANCH   1  29
ATOM     29  O   UNL A   1      31.353  31.004  25.586  1.00  0.00    -0.374 OA
BRANCH  29  30
ATOM     30  C   UNL A   1      31.752  31.526  26.855  1.00  0.00     0.202 C 
BRANCH  30  31
ATOM     31  C   UNL A   1      32.133  33.008  26.929  1.00  0.00     0.261 C 
BRANCH  31  32
ATOM     32  O   UNL A   1      32.695  33.367  28.205  1.00  0.00    -0.460 OA
BRANCH  32  33
ATOM     33  C   UNL A   1      33.829  34.101  28.138  1.00  0.00     0.338 C 
ATOM     34  O   UNL A   1      33.923  35.312  27.985  1.00  0.00    -0.246 OA
BRANCH  33  35
ATOM     35  C   UNL A   1      34.998  33.268  28.458  1.00  0.00     0.060 A 
ATOM     36  C   UNL A   1      34.759  31.996  28.994  1.00  0.00     0.016 A 
ATOM     37  C   UNL A   1      36.299  33.761  28.347  1.00  0.00     0.016 A 
ATOM     38  C   UNL A   1      35.819  31.229  29.469  1.00  0.00     0.010 A 
ATOM     39  C   UNL A   1      37.362  32.994  28.834  1.00  0.00     0.010 A 
ATOM     40  C   UNL A   1      37.123  31.742  29.430  1.00  0.00    -0.014 A 
BRANCH  40  41
ATOM     41  C   UNL A   1      38.205  31.026  30.149  1.00  0.00     0.031 A 
ATOM     42  C   UNL A   1      38.423  31.308  31.610  1.00  0.00     0.074 A 
ATOM     43  C   UNL A   1      38.955  30.107  29.519  1.00  0.00     0.049 A 
ATOM     44  N   UNL A   1      39.325  30.822  32.426  1.00  0.00    -0.248 NA
ATOM     45  C   UNL A   1      37.502  32.269  32.236  1.00  0.00     0.031 C 
ATOM     46  C   UNL A   1      38.808  29.715  28.119  1.00  0.00     0.029 A 
ATOM     47  N   UNL A   1      39.996  29.339  29.978  1.00  0.00    -0.354 N 
ATOM     48  C   UNL A   1      39.081  31.418  33.656  1.00  0.00     0.074 A 
ATOM     49  C   UNL A   1      37.967  32.325  33.475  1.00  0.00     0.031 C 
ATOM     50  C   UNL A   1      39.735  28.786  27.827  1.00  0.00     0.029 A 
ATOM     51  C   UNL A   1      40.559  28.543  29.010  1.00  0.00     0.049 A 
ATOM     52  H   UNL A   1      40.309  29.355  30.911  1.00  0.00     0.167 HD
ATOM     53  C   UNL A   1      39.720  31.217  34.833  1.00  0.00     0.037 A 
ATOM     54  C   UNL A   1      41.632  27.731  29.070  1.00  0.00     0.037 A 
ATOM     55  C   UNL A   1      40.826  30.313  35.011  1.00  0.00     0.049 A 
ATOM     56  C   UNL A   1      42.373  27.581  30.374  1.00  0.00     0.074 A 
ATOM     57  C   UNL A   1      41.534  30.031  36.165  1.00  0.00     0.029 A 
ATOM     58  N   UNL A   1      41.390  29.548  33.999  1.00  0.00    -0.354 N 
ATOM     59  N   UNL A   1      42.124  28.132  31.537  1.00  0.00    -0.248 NA
ATOM     60  C   UNL A   1      43.543  26.691  30.372  1.00  0.00     0.031 C 
ATOM     61  C   UNL A   1      42.558  29.134  35.843  1.00  0.00     0.029 A 
ATOM     62  C   UNL A   1      42.453  28.813  34.500  1.00  0.00     0.049 A 
ATOM     63  H   UNL A   1      41.079  29.530  33.066  1.00  0.00     0.167 HD
ATOM     64  C   UNL A   1      43.084  27.636  32.410  1.00  0.00     0.074 A 
ATOM     65  C   UNL A   1      43.913  26.728  31.644  1.00  0.00     0.031 C 
ATOM     66  C   UNL A   1      43.263  27.907  33.727  1.00  0.00     0.037 A 
BRANCH  53  67
ATOM     67  C   UNL A   1      39.255  32.010  36.020  1.00  0.00     0.064 A 
ATOM     68  C   UNL A   1      39.728  33.307  36.272  1.00  0.00     0.173 A 
ATOM     69  C   UNL A   1      38.292  31.481  36.893  1.00  0.00     0.173 A 
ATOM     70  F   UNL A   1      40.658  33.853  35.473  1.00  0.00    -0.203 F 
ATOM     71  C   UNL A   1      39.273  34.035  37.368  1.00  0.00     0.198 A 
ATOM     72  C   UNL A   1      37.818  32.224  37.972  1.00  0.00     0.198 A 
ATOM     73  F   UNL A   1      37.804  30.248  36.696  1.00  0.00    -0.203 F 
ATOM     74  F   UNL A   1      39.770  35.255  37.614  1.00  0.00    -0.200 F 
ATOM     75  C   UNL A   1      38.313  33.497  38.212  1.00  0.00     0.200 A 
ATOM     76  F   UNL A   1      36.883  31.706  38.780  1.00  0.00    -0.200 F 
ATOM     77  F   UNL A   1      37.870  34.202  39.262  1.00  0.00    -0.200 F 
ENDBRANCH  53  67
BRANCH  54  78
ATOM     78  C   UNL A   1      42.084  27.009  27.853  1.00  0.00     0.064 A 
ATOM     79  C   UNL A   1      41.667  25.697  27.589  1.00  0.00     0.173 A 
ATOM     80  C   UNL A   1      42.961  27.611  26.936  1.00  0.00     0.173 A 
ATOM     81  F   UNL A   1      40.850  25.069  28.448  1.00  0.00    -0.203 F 
ATOM     82  C   UNL A   1      42.125  25.008  26.467  1.00  0.00     0.198 A 
ATOM     83  C   UNL A   1      43.394  26.932  25.800  1.00  0.00     0.198 A 
ATOM     84  F   UNL A   1      43.392  28.864  27.144  1.00  0.00    -0.203 F 
ATOM     85  F   UNL A   1      41.751  23.738  26.266  1.00  0.00    -0.200 F 
ATOM     86  C   UNL A   1      42.984  25.628  25.571  1.00  0.00     0.200 A 
ATOM     87  F   UNL A   1      44.214  27.539  24.932  1.00  0.00    -0.200 F 
ATOM     88  F   UNL A   1      43.421  24.965  24.493  1.00  0.00    -0.200 F 
ENDBRANCH  54  78
BRANCH  66  89
ATOM     89  C   UNL A   1      44.374  27.186  34.435  1.00  0.00     0.064 A 
ATOM     90  C   UNL A   1      44.180  25.926  35.021  1.00  0.00     0.173 A 
ATOM     91  C   UNL A   1      45.660  27.744  34.490  1.00  0.00     0.173 A 
ATOM     92  F   UNL A   1      42.966  25.355  35.007  1.00  0.00    -0.203 F 
ATOM     93  C   UNL A   1      45.227  25.265  35.658  1.00  0.00     0.198 A 
ATOM     94  C   UNL A   1      46.712  27.067  35.101  1.00  0.00     0.198 A 
ATOM     95  F   UNL A   1      45.901  28.943  33.937  1.00  0.00    -0.203 F 
ATOM     96  F   UNL A   1      45.008  24.085  36.254  1.00  0.00    -0.200 F 
ATOM     97  C   UNL A   1      46.493  25.832  35.691  1.00  0.00     0.200 A 
ATOM     98  F   UNL A   1      47.937  27.610  35.118  1.00  0.00    -0.200 F 
ATOM     99  F   UNL A   1      47.501  25.191  36.298  1.00  0.00    -0.200 F 
ENDBRANCH  66  89
ENDBRANCH  40  41
ENDBRANCH  33  35
ENDBRANCH  32  33
ENDBRANCH  31  32
ENDBRANCH  30  31
ENDBRANCH  29  30
ENDBRANCH   1  29
TORSDOF 17
ENDMDL
MODEL 2
REMARK VINA RESULT:     -12.1      4.386     10.382
REMARK SMILES C[C@@H](C(=O)OCCOCCOC(=O)c1ccc(-c2c3nc(c(-c4c(F)c(F)c(F)c(F)c4F)c4ccc([nH]4)c(-c4c(F)c(F)c(F)c(F)c4F)c4nc(c(-c5c(F)c(F)c(F)c(F)c5F)c5ccc2[nH]5)C=C4)C=C3)cc1)c1ccc2c3cc(Cl)ccc3n(C(=O)c3cocn3)c2c1
REMARK SMILES IDX 7 1 6 2 5 3 3 4 4 5 2 6 1 7 77 8 78 9 97 10 79 11 96 12
REMARK SMILES IDX 80 13 88 14 81 15 87 16 82 17 86 18 83 19 85 20 84 21 89 22
REMARK SMILES IDX 90 23 91 24 92 25 95 26 93 27 94 28 8 29 9 30 10 31 11 32
REMARK SMILES IDX 12 33 13 34 14 35 15 36 76 37 16 38 75 39 17 40 18 41 19 42
REMARK SMILES IDX 69 43 20 44 74 45 68 46 70 47 21 48 73 49 67 50 66 51 22 53
REMARK SMILES IDX 54 54 34 55 53 56 35 57 38 58 52 59 71 60 36 61 37 62 51 64
REMARK SMILES IDX 72 65 39 66 23 67 24 68 32 69 25 70 26 71 30 72 33 73 27 74
REMARK SMILES IDX 28 75 31 76 29 77 55 78 56 79 64 80 57 81 58 82 62 83 65 84
REMARK SMILES IDX 59 85 60 86 63 87 61 88 40 89 41 90 49 91 42 92 43 93 47 94
REMARK SMILES IDX 50 95 44 96 45 97 48 98 46 99
REMARK H PARENT 70 52 38 63
REMARK Flexibility Score: inf
ROOT
ATOM      1  C   UNL A   1      36.959  23.021  24.189  1.00  0.00     0.202 C 
ENDROOT
BRANCH   1   2
ATOM      2  C   UNL A   1      35.577  23.518  24.629  1.00  0.00     0.261 C 
BRANCH   2   3
ATOM      3  O   UNL A   1      34.558  23.038  23.742  1.00  0.00    -0.463 OA
BRANCH   3   4
ATOM      4  C   UNL A   1      33.605  22.253  24.316  1.00  0.00     0.313 C 
ATOM      5  O   UNL A   1      33.475  21.054  24.094  1.00  0.00    -0.252 OA
BRANCH   4   6
ATOM      6  C   UNL A   1      32.793  23.006  25.367  1.00  0.00     0.126 C 
ATOM      7  C   UNL A   1      31.870  22.092  26.190  1.00  0.00     0.025 C 
BRANCH   6   8
ATOM      8  C   UNL A   1      32.028  24.214  24.817  1.00  0.00    -0.032 A 
ATOM      9  C   UNL A   1      31.293  24.191  23.628  1.00  0.00     0.005 A 
ATOM     10  C   UNL A   1      32.078  25.414  25.547  1.00  0.00     0.032 A 
ATOM     11  C   UNL A   1      30.591  25.320  23.185  1.00  0.00     0.011 A 
ATOM     12  C   UNL A   1      31.420  26.570  25.074  1.00  0.00     0.058 A 
ATOM     13  C   UNL A   1      30.659  26.526  23.911  1.00  0.00     0.008 A 
ATOM     14  N   UNL A   1      31.358  27.875  25.597  1.00  0.00    -0.274 N 
ATOM     15  C   UNL A   1      30.136  27.829  23.689  1.00  0.00     0.009 A 
ATOM     16  C   UNL A   1      30.660  28.676  24.676  1.00  0.00     0.057 A 
ATOM     17  C   UNL A   1      29.324  28.363  22.663  1.00  0.00     0.031 A 
ATOM     18  C   UNL A   1      30.491  30.072  24.570  1.00  0.00     0.029 A 
ATOM     19  C   UNL A   1      29.113  29.739  22.601  1.00  0.00     0.041 A 
ATOM     20  C   UNL A   1      29.707  30.584  23.526  1.00  0.00     0.023 A 
ATOM     21  Cl  UNL A   1      28.152  30.394  21.332  1.00  0.00    -0.084 Cl
BRANCH  14  22
ATOM     22  C   UNL A   1      31.971  28.267  26.824  1.00  0.00     0.284 C 
ATOM     23  O   UNL A   1      31.433  27.853  27.851  1.00  0.00    -0.266 OA
BRANCH  22  24
ATOM     24  C   UNL A   1      33.137  29.134  26.968  1.00  0.00     0.167 A 
ATOM     25  C   UNL A   1      33.212  30.484  27.239  1.00  0.00     0.231 A 
ATOM     26  N   UNL A   1      34.427  28.615  26.990  1.00  0.00    -0.211 NA
ATOM     27  O   UNL A   1      34.525  30.819  27.408  1.00  0.00    -0.451 OA
ATOM     28  C   UNL A   1      35.190  29.643  27.261  1.00  0.00     0.308 A 
ENDBRANCH  22  24
ENDBRANCH  14  22
ENDBRANCH   6   8
ENDBRANCH   4   6
ENDBRANCH   3   4
ENDBRANCH   2   3
ENDBRANCH   1   2
BRANCH   1  29
ATOM     29  O   UNL A   1      37.085  21.624  23.929  1.00  0.00    -0.374 OA
BRANCH  29  30
ATOM     30  C   UNL A   1      37.070  20.732  25.046  1.00  0.00     0.202 C 
BRANCH  30  31
ATOM     31  C   UNL A   1      38.346  19.939  25.343  1.00  0.00     0.261 C 
BRANCH  31  32
ATOM     32  O   UNL A   1      39.509  20.784  25.430  1.00  0.00    -0.460 OA
BRANCH  32  33
ATOM     33  C   UNL A   1      40.189  20.690  26.595  1.00  0.00     0.338 C 
ATOM     34  O   UNL A   1      40.662  19.680  27.102  1.00  0.00    -0.246 OA
BRANCH  33  35
ATOM     35  C   UNL A   1      40.468  22.030  27.135  1.00  0.00     0.060 A 
ATOM     36  C   UNL A   1      39.799  23.114  26.552  1.00  0.00     0.016 A 
ATOM     37  C   UNL A   1      41.446  22.236  28.108  1.00  0.00     0.016 A 
ATOM     38  C   UNL A   1      40.142  24.416  26.906  1.00  0.00     0.010 A 
ATOM     39  C   UNL A   1      41.796  23.546  28.455  1.00  0.00     0.010 A 
ATOM     40  C   UNL A   1      41.172  24.640  27.829  1.00  0.00    -0.014 A 
BRANCH  40  41
ATOM     41  C   UNL A   1      41.688  26.017  28.019  1.00  0.00     0.031 A 
ATOM     42  C   UNL A   1      43.060  26.361  27.507  1.00  0.00     0.074 A 
ATOM     43  C   UNL A   1      40.929  26.960  28.602  1.00  0.00     0.049 A 
ATOM     44  N   UNL A   1      43.720  27.489  27.588  1.00  0.00    -0.248 NA
ATOM     45  C   UNL A   1      43.785  25.289  26.808  1.00  0.00     0.031 C 
ATOM     46  C   UNL A   1      39.569  26.758  29.098  1.00  0.00     0.029 A 
ATOM     47  N   UNL A   1      41.199  28.276  28.881  1.00  0.00    -0.354 N 
ATOM     48  C   UNL A   1      44.935  27.261  26.956  1.00  0.00     0.074 A 
ATOM     49  C   UNL A   1      44.936  25.880  26.524  1.00  0.00     0.031 C 
ATOM     50  C   UNL A   1      39.126  27.910  29.632  1.00  0.00     0.029 A 
ATOM     51  C   UNL A   1      40.182  28.916  29.546  1.00  0.00     0.049 A 
ATOM     52  H   UNL A   1      42.041  28.719  28.628  1.00  0.00     0.167 HD
ATOM     53  C   UNL A   1      45.953  28.130  26.746  1.00  0.00     0.037 A 
ATOM     54  C   UNL A   1      40.123  30.165  30.046  1.00  0.00     0.037 A 
ATOM     55  C   UNL A   1      45.949  29.504  27.176  1.00  0.00     0.049 A 
ATOM     56  C   UNL A   1      41.300  31.090  29.864  1.00  0.00     0.074 A 
ATOM     57  C   UNL A   1      46.927  30.467  27.002  1.00  0.00     0.029 A 
ATOM     58  N   UNL A   1      44.914  30.107  27.876  1.00  0.00    -0.354 N 
ATOM     59  N   UNL A   1      42.436  30.874  29.249  1.00  0.00    -0.248 NA
ATOM     60  C   UNL A   1      41.180  32.436  30.444  1.00  0.00     0.031 C 
ATOM     61  C   UNL A   1      46.506  31.639  27.638  1.00  0.00     0.029 A 
ATOM     62  C   UNL A   1      45.241  31.423  28.161  1.00  0.00     0.049 A 
ATOM     63  H   UNL A   1      44.071  29.666  28.130  1.00  0.00     0.167 HD
ATOM     64  C   UNL A   1      43.154  32.060  29.342  1.00  0.00     0.074 A 
ATOM     65  C   UNL A   1      42.318  32.997  30.061  1.00  0.00     0.031 C 
ATOM     66  C   UNL A   1      44.394  32.347  28.872  1.00  0.00     0.037 A 
BRANCH  53  67
ATOM     67  C   UNL A   1      47.172  27.612  26.039  1.00  0.00     0.064 A 
ATOM     68  C   UNL A   1      47.301  27.683  24.644  1.00  0.00     0.173 A 
ATOM     69  C   UNL A   1      48.242  27.075  26.770  1.00  0.00     0.173 A 
ATOM     70  F   UNL A   1      46.300  28.176  23.897  1.00  0.00    -0.203 F 
ATOM     71  C   UNL A   1      48.445  27.213  24.004  1.00  0.00     0.198 A 
ATOM     72  C   UNL A   1      49.397  26.632  26.130  1.00  0.00     0.198 A 
ATOM     73  F   UNL A   1      48.172  26.987  28.106  1.00  0.00    -0.203 F 
ATOM     74  F   UNL A   1      48.529  27.251  22.667  1.00  0.00    -0.200 F 
ATOM     75  C   UNL A   1      49.495  26.695  24.749  1.00  0.00     0.200 A 
ATOM     76  F   UNL A   1      50.415  26.143  26.852  1.00  0.00    -0.200 F 
ATOM     77  F   UNL A   1      50.600  26.251  24.133  1.00  0.00    -0.200 F 
ENDBRANCH  53  67
BRANCH  54  78
ATOM     78  C   UNL A   1      38.914  30.612  30.785  1.00  0.00     0.064 A 
ATOM     79  C   UNL A   1      38.835  30.505  32.180  1.00  0.00     0.173 A 
ATOM     80  C   UNL A   1      37.804  31.139  30.108  1.00  0.00     0.173 A 
ATOM     81  F   UNL A   1      39.860  29.983  32.871  1.00  0.00    -0.203 F 
ATOM     82  C   UNL A   1      37.685  30.888  32.868  1.00  0.00     0.198 A 
ATOM     83  C   UNL A   1      36.666  31.549  30.799  1.00  0.00     0.198 A 
ATOM     84  F   UNL A   1      37.827  31.261  28.773  1.00  0.00    -0.203 F 
ATOM     85  F   UNL A   1      37.617  30.727  34.196  1.00  0.00    -0.200 F 
ATOM     86  C   UNL A   1      36.604  31.415  32.177  1.00  0.00     0.200 A 
ATOM     87  F   UNL A   1      35.629  32.068  30.129  1.00  0.00    -0.200 F 
ATOM     88  F   UNL A   1      35.500  31.784  32.840  1.00  0.00    -0.200 F 
ENDBRANCH  54  78
BRANCH  66  89
ATOM     89  C   UNL A   1      44.908  33.741  29.087  1.00  0.00     0.064 A 
ATOM     90  C   UNL A   1      44.640  34.776  28.179  1.00  0.00     0.173 A 
ATOM     91  C   UNL A   1      45.642  34.056  30.242  1.00  0.00     0.173 A 
ATOM     92  F   UNL A   1      43.954  34.524  27.053  1.00  0.00    -0.203 F 
ATOM     93  C   UNL A   1      45.110  36.067  28.405  1.00  0.00     0.198 A 
ATOM     94  C   UNL A   1      46.084  35.354  30.480  1.00  0.00     0.198 A 
ATOM     95  F   UNL A   1      45.918  33.106  31.147  1.00  0.00    -0.203 F 
ATOM     96  F   UNL A   1      44.884  37.029  27.500  1.00  0.00    -0.200 F 
ATOM     97  C   UNL A   1      45.825  36.357  29.558  1.00  0.00     0.200 A 
ATOM     98  F   UNL A   1      46.761  35.635  31.601  1.00  0.00    -0.200 F 
ATOM     99  F   UNL A   1      46.270  37.601  29.777  1.00  0.00    -0.200 F 
ENDBRANCH  66  89
ENDBRANCH  40  41
ENDBRANCH  33  35
ENDBRANCH  32  33
ENDBRANCH  31  32
ENDBRANCH  30  31
ENDBRANCH  29  30
ENDBRANCH   1  29
TORSDOF 17
ENDMDL
MODEL 3
REMARK VINA RESULT:     -12.0      1.528      2.633
REMARK SMILES C[C@@H](C(=O)OCCOCCOC(=O)c1ccc(-c2c3nc(c(-c4c(F)c(F)c(F)c(F)c4F)c4ccc([nH]4)c(-c4c(F)c(F)c(F)c(F)c4F)c4nc(c(-c5c(F)c(F)c(F)c(F)c5F)c5ccc2[nH]5)C=C4)C=C3)cc1)c1ccc2c3cc(Cl)ccc3n(C(=O)c3cocn3)c2c1
REMARK SMILES IDX 7 1 6 2 5 3 3 4 4 5 2 6 1 7 77 8 78 9 97 10 79 11 96 12
REMARK SMILES IDX 80 13 88 14 81 15 87 16 82 17 86 18 83 19 85 20 84 21 89 22
REMARK SMILES IDX 90 23 91 24 92 25 95 26 93 27 94 28 8 29 9 30 10 31 11 32
REMARK SMILES IDX 12 33 13 34 14 35 15 36 76 37 16 38 75 39 17 40 18 41 19 42
REMARK SMILES IDX 69 43 20 44 74 45 68 46 70 47 21 48 73 49 67 50 66 51 22 53
REMARK SMILES IDX 54 54 34 55 53 56 35 57 38 58 52 59 71 60 36 61 37 62 51 64
REMARK SMILES IDX 72 65 39 66 23 67 24 68 32 69 25 70 26 71 30 72 33 73 27 74
REMARK SMILES IDX 28 75 31 76 29 77 55 78 56 79 64 80 57 81 58 82 62 83 65 84
REMARK SMILES IDX 59 85 60 86 63 87 61 88 40 89 41 90 49 91 42 92 43 93 47 94
REMARK SMILES IDX 50 95 44 96 45 97 48 98 46 99
REMARK H PARENT 70 52 38 63
REMARK Flexibility Score: inf
ROOT
ATOM      1  C   UNL A   1      31.676  28.889  25.248  1.00  0.00     0.202 C 
ENDROOT
BRANCH   1   2
ATOM      2  C   UNL A   1      30.784  28.251  24.177  1.00  0.00     0.261 C 
BRANCH   2   3
ATOM      3  O   UNL A   1      29.944  27.240  24.749  1.00  0.00    -0.463 OA
BRANCH   3   4
ATOM      4  C   UNL A   1      30.585  26.115  25.172  1.00  0.00     0.313 C 
ATOM      5  O   UNL A   1      30.548  25.693  26.322  1.00  0.00    -0.252 OA
BRANCH   4   6
ATOM      6  C   UNL A   1      31.253  25.366  24.022  1.00  0.00     0.126 C 
ATOM      7  C   UNL A   1      30.308  24.390  23.303  1.00  0.00     0.025 C 
BRANCH   6   8
ATOM      8  C   UNL A   1      32.570  24.681  24.404  1.00  0.00    -0.032 A 
ATOM      9  C   UNL A   1      33.695  25.369  24.869  1.00  0.00     0.005 A 
ATOM     10  C   UNL A   1      32.650  23.285  24.271  1.00  0.00     0.032 A 
ATOM     11  C   UNL A   1      34.866  24.689  25.229  1.00  0.00     0.011 A 
ATOM     12  C   UNL A   1      33.847  22.602  24.577  1.00  0.00     0.058 A 
ATOM     13  C   UNL A   1      34.947  23.290  25.076  1.00  0.00     0.008 A 
ATOM     14  N   UNL A   1      34.179  21.237  24.488  1.00  0.00    -0.274 N 
ATOM     15  C   UNL A   1      35.992  22.346  25.275  1.00  0.00     0.009 A 
ATOM     16  C   UNL A   1      35.541  21.103  24.810  1.00  0.00     0.057 A 
ATOM     17  C   UNL A   1      37.320  22.484  25.738  1.00  0.00     0.031 A 
ATOM     18  C   UNL A   1      36.446  20.030  24.676  1.00  0.00     0.029 A 
ATOM     19  C   UNL A   1      38.191  21.400  25.657  1.00  0.00     0.041 A 
ATOM     20  C   UNL A   1      37.768  20.197  25.112  1.00  0.00     0.023 A 
ATOM     21  Cl  UNL A   1      39.818  21.578  26.188  1.00  0.00    -0.084 Cl
BRANCH  14  22
ATOM     22  C   UNL A   1      33.263  20.224  24.076  1.00  0.00     0.284 C 
ATOM     23  O   UNL A   1      32.417  20.567  23.250  1.00  0.00    -0.266 OA
BRANCH  22  24
ATOM     24  C   UNL A   1      33.217  18.850  24.568  1.00  0.00     0.167 A 
ATOM     25  C   UNL A   1      33.963  17.750  24.201  1.00  0.00     0.231 A 
ATOM     26  N   UNL A   1      32.437  18.499  25.665  1.00  0.00    -0.211 NA
ATOM     27  O   UNL A   1      33.649  16.716  25.036  1.00  0.00    -0.451 OA
ATOM     28  C   UNL A   1      32.741  17.247  25.896  1.00  0.00     0.308 A 
ENDBRANCH  22  24
ENDBRANCH  14  22
ENDBRANCH   6   8
ENDBRANCH   4   6
ENDBRANCH   3   4
ENDBRANCH   2   3
ENDBRANCH   1   2
BRANCH   1  29
ATOM     29  O   UNL A   1      31.527  30.293  25.453  1.00  0.00    -0.374 OA
BRANCH  29  30
ATOM     30  C   UNL A   1      31.909  30.828  26.721  1.00  0.00     0.202 C 
BRANCH  30  31
ATOM     31  C   UNL A   1      32.131  32.341  26.819  1.00  0.00     0.261 C 
BRANCH  31  32
ATOM     32  O   UNL A   1      32.773  32.723  28.050  1.00  0.00    -0.460 OA
BRANCH  32  33
ATOM     33  C   UNL A   1      33.852  33.523  27.900  1.00  0.00     0.338 C 
ATOM     34  O   UNL A   1      33.861  34.724  27.662  1.00  0.00    -0.246 OA
BRANCH  33  35
ATOM     35  C   UNL A   1      35.082  32.793  28.244  1.00  0.00     0.060 A 
ATOM     36  C   UNL A   1      34.951  31.460  28.653  1.00  0.00     0.016 A 
ATOM     37  C   UNL A   1      36.324  33.430  28.279  1.00  0.00     0.016 A 
ATOM     38  C   UNL A   1      36.055  30.771  29.147  1.00  0.00     0.010 A 
ATOM     39  C   UNL A   1      37.430  32.739  28.785  1.00  0.00     0.010 A 
ATOM     40  C   UNL A   1      37.292  31.420  29.255  1.00  0.00    -0.014 A 
BRANCH  40  41
ATOM     41  C   UNL A   1      38.394  30.761  29.998  1.00  0.00     0.031 A 
ATOM     42  C   UNL A   1      38.595  31.090  31.452  1.00  0.00     0.074 A 
ATOM     43  C   UNL A   1      39.178  29.851  29.396  1.00  0.00     0.049 A 
ATOM     44  N   UNL A   1      39.508  30.657  32.284  1.00  0.00    -0.248 NA
ATOM     45  C   UNL A   1      37.638  32.035  32.047  1.00  0.00     0.031 C 
ATOM     46  C   UNL A   1      39.051  29.418  28.006  1.00  0.00     0.029 A 
ATOM     47  N   UNL A   1      40.242  29.132  29.880  1.00  0.00    -0.354 N 
ATOM     48  C   UNL A   1      39.238  31.277  33.497  1.00  0.00     0.074 A 
ATOM     49  C   UNL A   1      38.095  32.141  33.286  1.00  0.00     0.031 C 
ATOM     50  C   UNL A   1      40.011  28.513  27.744  1.00  0.00     0.029 A 
ATOM     51  C   UNL A   1      40.836  28.331  28.936  1.00  0.00     0.049 A 
ATOM     52  H   UNL A   1      40.549  29.185  30.814  1.00  0.00     0.167 HD
ATOM     53  C   UNL A   1      39.878  31.130  34.682  1.00  0.00     0.037 A 
ATOM     54  C   UNL A   1      41.936  27.557  29.023  1.00  0.00     0.037 A 
ATOM     55  C   UNL A   1      41.013  30.269  34.888  1.00  0.00     0.049 A 
ATOM     56  C   UNL A   1      42.675  27.468  30.334  1.00  0.00     0.074 A 
ATOM     57  C   UNL A   1      41.725  30.042  36.053  1.00  0.00     0.029 A 
ATOM     58  N   UNL A   1      41.607  29.497  33.900  1.00  0.00    -0.354 N 
ATOM     59  N   UNL A   1      42.402  28.041  31.480  1.00  0.00    -0.248 NA
ATOM     60  C   UNL A   1      43.875  26.619  30.361  1.00  0.00     0.031 C 
ATOM     61  C   UNL A   1      42.780  29.173  35.760  1.00  0.00     0.029 A 
ATOM     62  C   UNL A   1      42.693  28.813  34.425  1.00  0.00     0.049 A 
ATOM     63  H   UNL A   1      41.303  29.443  32.966  1.00  0.00     0.167 HD
ATOM     64  C   UNL A   1      43.374  27.602  32.370  1.00  0.00     0.074 A 
ATOM     65  C   UNL A   1      44.237  26.703  31.633  1.00  0.00     0.031 C 
ATOM     66  C   UNL A   1      43.537  27.914  33.680  1.00  0.00     0.037 A 
BRANCH  53  67
ATOM     67  C   UNL A   1      39.380  31.939  35.844  1.00  0.00     0.064 A 
ATOM     68  C   UNL A   1      38.382  31.457  36.704  1.00  0.00     0.173 A 
ATOM     69  C   UNL A   1      39.937  33.195  36.125  1.00  0.00     0.173 A 
ATOM     70  F   UNL A   1      37.807  30.266  36.472  1.00  0.00    -0.203 F 
ATOM     71  C   UNL A   1      37.943  32.213  37.788  1.00  0.00     0.198 A 
ATOM     72  C   UNL A   1      39.516  33.936  37.226  1.00  0.00     0.198 A 
ATOM     73  F   UNL A   1      40.897  33.701  35.337  1.00  0.00    -0.203 F 
ATOM     74  F   UNL A   1      36.957  31.752  38.571  1.00  0.00    -0.200 F 
ATOM     75  C   UNL A   1      38.515  33.448  38.053  1.00  0.00     0.200 A 
ATOM     76  F   UNL A   1      40.079  35.124  37.487  1.00  0.00    -0.200 F 
ATOM     77  F   UNL A   1      38.098  34.172  39.101  1.00  0.00    -0.200 F 
ENDBRANCH  53  67
BRANCH  54  78
ATOM     78  C   UNL A   1      42.419  26.819  27.827  1.00  0.00     0.064 A 
ATOM     79  C   UNL A   1      42.033  25.493  27.587  1.00  0.00     0.173 A 
ATOM     80  C   UNL A   1      43.294  27.419  26.909  1.00  0.00     0.173 A 
ATOM     81  F   UNL A   1      41.218  24.867  28.450  1.00  0.00    -0.203 F 
ATOM     82  C   UNL A   1      42.519  24.790  26.487  1.00  0.00     0.198 A 
ATOM     83  C   UNL A   1      43.757  26.725  25.794  1.00  0.00     0.198 A 
ATOM     84  F   UNL A   1      43.697  28.685  27.094  1.00  0.00    -0.203 F 
ATOM     85  F   UNL A   1      42.174  23.508  26.309  1.00  0.00    -0.200 F 
ATOM     86  C   UNL A   1      43.376  25.408  25.588  1.00  0.00     0.200 A 
ATOM     87  F   UNL A   1      44.574  27.330  24.922  1.00  0.00    -0.200 F 
ATOM     88  F   UNL A   1      43.841  24.731  24.530  1.00  0.00    -0.200 F 
ENDBRANCH  54  78
BRANCH  66  89
ATOM     89  C   UNL A   1      44.668  27.251  34.412  1.00  0.00     0.064 A 
ATOM     90  C   UNL A   1      44.551  25.952  34.930  1.00  0.00     0.173 A 
ATOM     91  C   UNL A   1      45.900  27.908  34.559  1.00  0.00     0.173 A 
ATOM     92  F   UNL A   1      43.391  25.287  34.827  1.00  0.00    -0.203 F 
ATOM     93  C   UNL A   1      45.617  25.347  35.591  1.00  0.00     0.198 A 
ATOM     94  C   UNL A   1      46.972  27.287  35.193  1.00  0.00     0.198 A 
ATOM     95  F   UNL A   1      46.067  29.147  34.074  1.00  0.00    -0.203 F 
ATOM     96  F   UNL A   1      45.468  24.125  36.120  1.00  0.00    -0.200 F 
ATOM     97  C   UNL A   1      46.828  26.011  35.715  1.00  0.00     0.200 A 
ATOM     98  F   UNL A   1      48.146  27.926  35.299  1.00  0.00    -0.200 F 
ATOM     99  F   UNL A   1      47.855  25.424  36.344  1.00  0.00    -0.200 F 
ENDBRANCH  66  89
ENDBRANCH  40  41
ENDBRANCH  33  35
ENDBRANCH  32  33
ENDBRANCH  31  32
ENDBRANCH  30  31
ENDBRANCH  29  30
ENDBRANCH   1  29
TORSDOF 17
ENDMDL
