MODEL 1
REMARK VINA RESULT:      -9.9      0.000      0.000
REMARK SMILES C/C(=C(/F)C(=O)OCCOCCOC(=O)c1ccc(-c2c3nc(c(-c4c(F)c(F)c(F)c(F)c4F)c4ccc([nH]4)c(-c4c(F)c(F)c(F)c(F)c4F)c4nc(c(-c5c(F)c(F)c(F)c(F)c5F)c5ccc2[nH]5)C=C4)C=C3)cc1)c1ccccc1F
REMARK SMILES IDX 11 1 10 2 9 3 8 4 7 5 5 6 6 7 3 8 1 9 2 10 4 11 79 12 80 13
REMARK SMILES IDX 84 14 81 15 83 16 85 17 82 18 12 19 13 20 14 21 15 22 16 23
REMARK SMILES IDX 17 24 78 25 18 26 77 27 19 28 20 29 21 30 71 31 22 32 76 33
REMARK SMILES IDX 70 34 72 35 23 36 75 37 69 38 68 39 24 41 56 42 36 43 55 44
REMARK SMILES IDX 37 45 40 46 54 47 73 48 38 49 39 50 53 52 74 53 41 54 25 55
REMARK SMILES IDX 26 56 34 57 27 58 28 59 32 60 35 61 29 62 30 63 33 64 31 65
REMARK SMILES IDX 57 66 58 67 66 68 59 69 60 70 64 71 67 72 61 73 62 74 65 75
REMARK SMILES IDX 63 76 42 77 43 78 51 79 44 80 45 81 49 82 52 83 46 84 47 85
REMARK SMILES IDX 50 86 48 87
REMARK H PARENT 72 40 40 51
REMARK Flexibility Score: inf
ROOT
ATOM      1  C   UNL A   1      33.868  34.601  29.137  1.00  0.00     0.202 C 
ENDROOT
BRANCH   1   2
ATOM      2  O   UNL A   1      32.657  34.799  29.870  1.00  0.00    -0.374 OA
BRANCH   2   3
ATOM      3  C   UNL A   1      32.586  35.958  30.701  1.00  0.00     0.202 C 
BRANCH   3   4
ATOM      4  C   UNL A   1      32.418  35.683  32.197  1.00  0.00     0.261 C 
BRANCH   4   5
ATOM      5  O   UNL A   1      33.399  34.734  32.642  1.00  0.00    -0.458 OA
BRANCH   5   6
ATOM      6  C   UNL A   1      34.556  35.274  33.103  1.00  0.00     0.367 C 
ATOM      7  O   UNL A   1      34.820  36.464  33.180  1.00  0.00    -0.243 OA
BRANCH   6   8
ATOM      8  C   UNL A   1      35.440  34.186  33.582  1.00  0.00     0.211 C 
ATOM      9  C   UNL A   1      36.820  34.141  31.482  1.00  0.00     0.048 C 
ATOM     10  C   UNL A   1      36.429  33.632  32.852  1.00  0.00     0.002 C 
ATOM     11  F   UNL A   1      35.216  33.821  34.866  1.00  0.00    -0.199 F 
BRANCH  10  12
ATOM     12  C   UNL A   1      37.209  32.466  33.370  1.00  0.00     0.016 A 
ATOM     13  C   UNL A   1      36.906  31.163  32.935  1.00  0.00     0.011 A 
ATOM     14  C   UNL A   1      38.316  32.606  34.225  1.00  0.00     0.130 A 
ATOM     15  C   UNL A   1      37.667  30.059  33.342  1.00  0.00     0.001 A 
ATOM     16  C   UNL A   1      39.087  31.511  34.622  1.00  0.00     0.040 A 
ATOM     17  F   UNL A   1      38.673  33.806  34.706  1.00  0.00    -0.206 F 
ATOM     18  C   UNL A   1      38.762  30.234  34.180  1.00  0.00     0.003 A 
ENDBRANCH  10  12
ENDBRANCH   6   8
ENDBRANCH   5   6
ENDBRANCH   4   5
ENDBRANCH   3   4
ENDBRANCH   2   3
ENDBRANCH   1   2
BRANCH   1  19
ATOM     19  C   UNL A   1      33.917  33.360  28.240  1.00  0.00     0.261 C 
BRANCH  19  20
ATOM     20  O   UNL A   1      34.485  32.230  28.929  1.00  0.00    -0.460 OA
BRANCH  20  21
ATOM     21  C   UNL A   1      34.507  31.079  28.219  1.00  0.00     0.338 C 
ATOM     22  O   UNL A   1      33.663  30.676  27.430  1.00  0.00    -0.246 OA
BRANCH  21  23
ATOM     23  C   UNL A   1      35.811  30.412  28.384  1.00  0.00     0.060 A 
ATOM     24  C   UNL A   1      36.039  29.732  29.588  1.00  0.00     0.016 A 
ATOM     25  C   UNL A   1      36.814  30.498  27.417  1.00  0.00     0.016 A 
ATOM     26  C   UNL A   1      37.291  29.179  29.851  1.00  0.00     0.010 A 
ATOM     27  C   UNL A   1      38.072  29.949  27.684  1.00  0.00     0.010 A 
ATOM     28  C   UNL A   1      38.326  29.318  28.917  1.00  0.00    -0.014 A 
BRANCH  28  29
ATOM     29  C   UNL A   1      39.705  28.928  29.293  1.00  0.00     0.031 A 
ATOM     30  C   UNL A   1      40.509  29.845  30.173  1.00  0.00     0.074 A 
ATOM     31  C   UNL A   1      40.226  27.759  28.879  1.00  0.00     0.049 A 
ATOM     32  N   UNL A   1      41.738  29.719  30.602  1.00  0.00    -0.248 NA
ATOM     33  C   UNL A   1      39.835  31.072  30.626  1.00  0.00     0.031 C 
ATOM     34  C   UNL A   1      39.533  26.774  28.053  1.00  0.00     0.029 A 
ATOM     35  N   UNL A   1      41.464  27.209  29.096  1.00  0.00    -0.354 N 
ATOM     36  C   UNL A   1      41.987  30.848  31.371  1.00  0.00     0.074 A 
ATOM     37  C   UNL A   1      40.793  31.663  31.326  1.00  0.00     0.031 C 
ATOM     38  C   UNL A   1      40.362  25.741  27.820  1.00  0.00     0.029 A 
ATOM     39  C   UNL A   1      41.651  26.009  28.457  1.00  0.00     0.049 A 
ATOM     40  H   UNL A   1      42.154  27.635  29.655  1.00  0.00     0.167 HD
ATOM     41  C   UNL A   1      43.107  31.171  32.059  1.00  0.00     0.037 A 
ATOM     42  C   UNL A   1      42.745  25.227  28.380  1.00  0.00     0.037 A 
ATOM     43  C   UNL A   1      44.293  30.356  32.106  1.00  0.00     0.049 A 
ATOM     44  C   UNL A   1      44.000  25.638  29.106  1.00  0.00     0.074 A 
ATOM     45  C   UNL A   1      45.470  30.583  32.798  1.00  0.00     0.029 A 
ATOM     46  N   UNL A   1      44.453  29.158  31.427  1.00  0.00    -0.354 N 
ATOM     47  N   UNL A   1      44.216  26.691  29.857  1.00  0.00    -0.248 NA
ATOM     48  C   UNL A   1      45.163  24.748  28.976  1.00  0.00     0.031 C 
ATOM     49  C   UNL A   1      46.360  29.548  32.497  1.00  0.00     0.029 A 
ATOM     50  C   UNL A   1      45.720  28.648  31.661  1.00  0.00     0.049 A 
ATOM     51  H   UNL A   1      43.768  28.732  30.862  1.00  0.00     0.167 HD
ATOM     52  C   UNL A   1      45.524  26.577  30.309  1.00  0.00     0.074 A 
ATOM     53  C   UNL A   1      46.050  25.346  29.759  1.00  0.00     0.031 C 
ATOM     54  C   UNL A   1      46.226  27.416  31.110  1.00  0.00     0.037 A 
BRANCH  41  55
ATOM     55  C   UNL A   1      43.114  32.476  32.800  1.00  0.00     0.064 A 
ATOM     56  C   UNL A   1      43.516  33.671  32.185  1.00  0.00     0.173 A 
ATOM     57  C   UNL A   1      42.677  32.537  34.132  1.00  0.00     0.173 A 
ATOM     58  F   UNL A   1      43.956  33.664  30.918  1.00  0.00    -0.203 F 
ATOM     59  C   UNL A   1      43.502  34.875  32.884  1.00  0.00     0.198 A 
ATOM     60  C   UNL A   1      42.639  33.746  34.819  1.00  0.00     0.198 A 
ATOM     61  F   UNL A   1      42.278  31.423  34.764  1.00  0.00    -0.203 F 
ATOM     62  F   UNL A   1      43.931  35.998  32.291  1.00  0.00    -0.200 F 
ATOM     63  C   UNL A   1      43.057  34.914  34.197  1.00  0.00     0.200 A 
ATOM     64  F   UNL A   1      42.197  33.783  36.085  1.00  0.00    -0.200 F 
ATOM     65  F   UNL A   1      43.037  36.075  34.867  1.00  0.00    -0.200 F 
ENDBRANCH  41  55
BRANCH  42  66
ATOM     66  C   UNL A   1      42.709  23.978  27.576  1.00  0.00     0.064 A 
ATOM     67  C   UNL A   1      42.377  22.749  28.161  1.00  0.00     0.173 A 
ATOM     68  C   UNL A   1      43.022  23.987  26.209  1.00  0.00     0.173 A 
ATOM     69  F   UNL A   1      42.095  22.685  29.471  1.00  0.00    -0.203 F 
ATOM     70  C   UNL A   1      42.376  21.573  27.413  1.00  0.00     0.198 A 
ATOM     71  C   UNL A   1      42.994  22.816  25.456  1.00  0.00     0.198 A 
ATOM     72  F   UNL A   1      43.350  25.137  25.602  1.00  0.00    -0.203 F 
ATOM     73  F   UNL A   1      42.099  20.404  28.006  1.00  0.00    -0.200 F 
ATOM     74  C   UNL A   1      42.679  21.608  26.060  1.00  0.00     0.200 A 
ATOM     75  F   UNL A   1      43.278  22.856  24.146  1.00  0.00    -0.200 F 
ATOM     76  F   UNL A   1      42.676  20.478  25.341  1.00  0.00    -0.200 F 
ENDBRANCH  42  66
BRANCH  54  77
ATOM     77  C   UNL A   1      47.628  27.016  31.470  1.00  0.00     0.064 A 
ATOM     78  C   UNL A   1      47.897  26.178  32.562  1.00  0.00     0.173 A 
ATOM     79  C   UNL A   1      48.711  27.442  30.685  1.00  0.00     0.173 A 
ATOM     80  F   UNL A   1      46.899  25.755  33.351  1.00  0.00    -0.203 F 
ATOM     81  C   UNL A   1      49.202  25.800  32.868  1.00  0.00     0.198 A 
ATOM     82  C   UNL A   1      50.010  27.039  30.977  1.00  0.00     0.198 A 
ATOM     83  F   UNL A   1      48.505  28.239  29.625  1.00  0.00    -0.203 F 
ATOM     84  F   UNL A   1      49.441  25.035  33.942  1.00  0.00    -0.200 F 
ATOM     85  C   UNL A   1      50.256  26.224  32.072  1.00  0.00     0.200 A 
ATOM     86  F   UNL A   1      51.025  27.439  30.199  1.00  0.00    -0.200 F 
ATOM     87  F   UNL A   1      51.510  25.853  32.364  1.00  0.00    -0.200 F 
ENDBRANCH  54  77
ENDBRANCH  28  29
ENDBRANCH  21  23
ENDBRANCH  20  21
ENDBRANCH  19  20
ENDBRANCH   1  19
TORSDOF 15
ENDMDL
MODEL 2
REMARK VINA RESULT:      -9.7      4.333      7.213
REMARK SMILES C/C(=C(/F)C(=O)OCCOCCOC(=O)c1ccc(-c2c3nc(c(-c4c(F)c(F)c(F)c(F)c4F)c4ccc([nH]4)c(-c4c(F)c(F)c(F)c(F)c4F)c4nc(c(-c5c(F)c(F)c(F)c(F)c5F)c5ccc2[nH]5)C=C4)C=C3)cc1)c1ccccc1F
REMARK SMILES IDX 11 1 10 2 9 3 8 4 7 5 5 6 6 7 3 8 1 9 2 10 4 11 79 12 80 13
REMARK SMILES IDX 84 14 81 15 83 16 85 17 82 18 12 19 13 20 14 21 15 22 16 23
REMARK SMILES IDX 17 24 78 25 18 26 77 27 19 28 20 29 21 30 71 31 22 32 76 33
REMARK SMILES IDX 70 34 72 35 23 36 75 37 69 38 68 39 24 41 56 42 36 43 55 44
REMARK SMILES IDX 37 45 40 46 54 47 73 48 38 49 39 50 53 52 74 53 41 54 25 55
REMARK SMILES IDX 26 56 34 57 27 58 28 59 32 60 35 61 29 62 30 63 33 64 31 65
REMARK SMILES IDX 57 66 58 67 66 68 59 69 60 70 64 71 67 72 61 73 62 74 65 75
REMARK SMILES IDX 63 76 42 77 43 78 51 79 44 80 45 81 49 82 52 83 46 84 47 85
REMARK SMILES IDX 50 86 48 87
REMARK H PARENT 72 40 40 51
REMARK Flexibility Score: inf
ROOT
ATOM      1  C   UNL A   1      32.371  30.074  25.822  1.00  0.00     0.202 C 
ENDROOT
BRANCH   1   2
ATOM      2  O   UNL A   1      31.880  28.905  26.483  1.00  0.00    -0.374 OA
BRANCH   2   3
ATOM      3  C   UNL A   1      32.563  27.679  26.220  1.00  0.00     0.202 C 
BRANCH   3   4
ATOM      4  C   UNL A   1      31.695  26.556  25.646  1.00  0.00     0.261 C 
BRANCH   4   5
ATOM      5  O   UNL A   1      30.506  27.099  25.052  1.00  0.00    -0.458 OA
BRANCH   5   6
ATOM      6  C   UNL A   1      30.494  27.112  23.695  1.00  0.00     0.367 C 
ATOM      7  O   UNL A   1      30.657  26.152  22.959  1.00  0.00    -0.243 OA
BRANCH   6   8
ATOM      8  C   UNL A   1      30.171  28.481  23.228  1.00  0.00     0.211 C 
ATOM      9  C   UNL A   1      27.687  28.155  23.430  1.00  0.00     0.048 C 
ATOM     10  C   UNL A   1      28.918  28.951  23.058  1.00  0.00     0.002 C 
ATOM     11  F   UNL A   1      31.255  29.268  23.041  1.00  0.00    -0.199 F 
BRANCH  10  12
ATOM     12  C   UNL A   1      28.676  30.310  22.483  1.00  0.00     0.016 A 
ATOM     13  C   UNL A   1      28.219  30.448  21.159  1.00  0.00     0.011 A 
ATOM     14  C   UNL A   1      28.799  31.491  23.236  1.00  0.00     0.130 A 
ATOM     15  C   UNL A   1      27.911  31.702  20.617  1.00  0.00     0.001 A 
ATOM     16  C   UNL A   1      28.478  32.743  22.705  1.00  0.00     0.040 A 
ATOM     17  F   UNL A   1      29.242  31.463  24.501  1.00  0.00    -0.206 F 
ATOM     18  C   UNL A   1      28.033  32.849  21.393  1.00  0.00     0.003 A 
ENDBRANCH  10  12
ENDBRANCH   6   8
ENDBRANCH   5   6
ENDBRANCH   4   5
ENDBRANCH   3   4
ENDBRANCH   2   3
ENDBRANCH   1   2
BRANCH   1  19
ATOM     19  C   UNL A   1      31.963  31.417  26.438  1.00  0.00     0.261 C 
BRANCH  19  20
ATOM     20  O   UNL A   1      32.631  31.649  27.693  1.00  0.00    -0.460 OA
BRANCH  20  21
ATOM     21  C   UNL A   1      33.611  32.580  27.654  1.00  0.00     0.338 C 
ATOM     22  O   UNL A   1      33.489  33.779  27.443  1.00  0.00    -0.246 OA
BRANCH  21  23
ATOM     23  C   UNL A   1      34.888  31.985  28.089  1.00  0.00     0.060 A 
ATOM     24  C   UNL A   1      34.885  30.622  28.415  1.00  0.00     0.016 A 
ATOM     25  C   UNL A   1      36.048  32.748  28.237  1.00  0.00     0.016 A 
ATOM     26  C   UNL A   1      36.031  30.028  28.940  1.00  0.00     0.010 A 
ATOM     27  C   UNL A   1      37.195  32.152  28.770  1.00  0.00     0.010 A 
ATOM     28  C   UNL A   1      37.180  30.799  29.157  1.00  0.00    -0.014 A 
BRANCH  28  29
ATOM     29  C   UNL A   1      38.314  30.220  29.917  1.00  0.00     0.031 A 
ATOM     30  C   UNL A   1      38.523  30.639  31.346  1.00  0.00     0.074 A 
ATOM     31  C   UNL A   1      39.130  29.313  29.352  1.00  0.00     0.049 A 
ATOM     32  N   UNL A   1      39.460  30.285  32.188  1.00  0.00    -0.248 NA
ATOM     33  C   UNL A   1      37.545  31.589  31.898  1.00  0.00     0.031 C 
ATOM     34  C   UNL A   1      39.006  28.805  27.987  1.00  0.00     0.029 A 
ATOM     35  N   UNL A   1      40.228  28.665  29.858  1.00  0.00    -0.354 N 
ATOM     36  C   UNL A   1      39.189  30.969  33.365  1.00  0.00     0.074 A 
ATOM     37  C   UNL A   1      38.017  31.783  33.122  1.00  0.00     0.031 C 
ATOM     38  C   UNL A   1      40.001  27.930  27.759  1.00  0.00     0.029 A 
ATOM     39  C   UNL A   1      40.845  27.841  28.950  1.00  0.00     0.049 A 
ATOM     40  H   UNL A   1      40.545  28.781  30.783  1.00  0.00     0.167 HD
ATOM     41  C   UNL A   1      39.851  30.916  34.544  1.00  0.00     0.037 A 
ATOM     42  C   UNL A   1      41.973  27.113  29.064  1.00  0.00     0.037 A 
ATOM     43  C   UNL A   1      41.014  30.102  34.785  1.00  0.00     0.049 A 
ATOM     44  C   UNL A   1      42.727  27.119  30.368  1.00  0.00     0.074 A 
ATOM     45  C   UNL A   1      41.741  29.959  35.954  1.00  0.00     0.029 A 
ATOM     46  N   UNL A   1      41.624  29.299  33.835  1.00  0.00    -0.354 N 
ATOM     47  N   UNL A   1      42.445  27.743  31.487  1.00  0.00    -0.248 NA
ATOM     48  C   UNL A   1      43.955  26.313  30.427  1.00  0.00     0.031 C 
ATOM     49  C   UNL A   1      42.820  29.107  35.697  1.00  0.00     0.029 A 
ATOM     50  C   UNL A   1      42.735  28.678  34.382  1.00  0.00     0.049 A 
ATOM     51  H   UNL A   1      41.314  29.186  32.907  1.00  0.00     0.167 HD
ATOM     52  C   UNL A   1      43.441  27.386  32.386  1.00  0.00     0.074 A 
ATOM     53  C   UNL A   1      44.328  26.480  31.689  1.00  0.00     0.031 C 
ATOM     54  C   UNL A   1      43.605  27.772  33.675  1.00  0.00     0.037 A 
BRANCH  41  55
ATOM     55  C   UNL A   1      39.349  31.783  35.662  1.00  0.00     0.064 A 
ATOM     56  C   UNL A   1      38.404  31.317  36.588  1.00  0.00     0.173 A 
ATOM     57  C   UNL A   1      39.848  33.083  35.829  1.00  0.00     0.173 A 
ATOM     58  F   UNL A   1      37.885  30.086  36.463  1.00  0.00    -0.203 F 
ATOM     59  C   UNL A   1      37.960  32.131  37.628  1.00  0.00     0.198 A 
ATOM     60  C   UNL A   1      39.423  33.883  36.885  1.00  0.00     0.198 A 
ATOM     61  F   UNL A   1      40.757  33.574  34.973  1.00  0.00    -0.203 F 
ATOM     62  F   UNL A   1      37.025  31.681  38.476  1.00  0.00    -0.200 F 
ATOM     63  C   UNL A   1      38.475  33.410  37.780  1.00  0.00     0.200 A 
ATOM     64  F   UNL A   1      39.930  35.115  37.038  1.00  0.00    -0.200 F 
ATOM     65  F   UNL A   1      38.052  34.189  38.786  1.00  0.00    -0.200 F 
ENDBRANCH  41  55
BRANCH  42  66
ATOM     66  C   UNL A   1      42.467  26.326  27.905  1.00  0.00     0.064 A 
ATOM     67  C   UNL A   1      43.374  26.875  26.990  1.00  0.00     0.173 A 
ATOM     68  C   UNL A   1      42.028  25.013  27.680  1.00  0.00     0.173 A 
ATOM     69  F   UNL A   1      43.804  28.136  27.147  1.00  0.00    -0.203 F 
ATOM     70  C   UNL A   1      43.811  26.148  25.884  1.00  0.00     0.198 A 
ATOM     71  C   UNL A   1      42.485  24.277  26.590  1.00  0.00     0.198 A 
ATOM     72  F   UNL A   1      41.156  24.442  28.525  1.00  0.00    -0.203 F 
ATOM     73  F   UNL A   1      44.643  26.712  24.999  1.00  0.00    -0.200 F 
ATOM     74  C   UNL A   1      43.371  24.847  25.688  1.00  0.00     0.200 A 
ATOM     75  F   UNL A   1      42.065  23.017  26.411  1.00  0.00    -0.200 F 
ATOM     76  F   UNL A   1      43.792  24.148  24.627  1.00  0.00    -0.200 F 
ENDBRANCH  42  66
BRANCH  54  77
ATOM     77  C   UNL A   1      44.766  27.191  34.428  1.00  0.00     0.064 A 
ATOM     78  C   UNL A   1      46.006  27.844  34.489  1.00  0.00     0.173 A 
ATOM     79  C   UNL A   1      44.622  25.987  35.135  1.00  0.00     0.173 A 
ATOM     80  F   UNL A   1      46.198  28.990  33.819  1.00  0.00    -0.203 F 
ATOM     81  C   UNL A   1      47.066  27.301  35.211  1.00  0.00     0.198 A 
ATOM     82  C   UNL A   1      45.675  25.462  35.879  1.00  0.00     0.198 A 
ATOM     83  F   UNL A   1      43.454  25.327  35.116  1.00  0.00    -0.203 F 
ATOM     84  F   UNL A   1      48.254  27.919  35.218  1.00  0.00    -0.200 F 
ATOM     85  C   UNL A   1      46.898  26.115  35.911  1.00  0.00     0.200 A 
ATOM     86  F   UNL A   1      45.506  24.323  36.565  1.00  0.00    -0.200 F 
ATOM     87  F   UNL A   1      47.917  25.598  36.611  1.00  0.00    -0.200 F 
ENDBRANCH  54  77
ENDBRANCH  28  29
ENDBRANCH  21  23
ENDBRANCH  20  21
ENDBRANCH  19  20
ENDBRANCH   1  19
TORSDOF 15
ENDMDL
MODEL 3
REMARK VINA RESULT:      -9.6      3.743      6.876
REMARK SMILES C/C(=C(/F)C(=O)OCCOCCOC(=O)c1ccc(-c2c3nc(c(-c4c(F)c(F)c(F)c(F)c4F)c4ccc([nH]4)c(-c4c(F)c(F)c(F)c(F)c4F)c4nc(c(-c5c(F)c(F)c(F)c(F)c5F)c5ccc2[nH]5)C=C4)C=C3)cc1)c1ccccc1F
REMARK SMILES IDX 11 1 10 2 9 3 8 4 7 5 5 6 6 7 3 8 1 9 2 10 4 11 79 12 80 13
REMARK SMILES IDX 84 14 81 15 83 16 85 17 82 18 12 19 13 20 14 21 15 22 16 23
REMARK SMILES IDX 17 24 78 25 18 26 77 27 19 28 20 29 21 30 71 31 22 32 76 33
REMARK SMILES IDX 70 34 72 35 23 36 75 37 69 38 68 39 24 41 56 42 36 43 55 44
REMARK SMILES IDX 37 45 40 46 54 47 73 48 38 49 39 50 53 52 74 53 41 54 25 55
REMARK SMILES IDX 26 56 34 57 27 58 28 59 32 60 35 61 29 62 30 63 33 64 31 65
REMARK SMILES IDX 57 66 58 67 66 68 59 69 60 70 64 71 67 72 61 73 62 74 65 75
REMARK SMILES IDX 63 76 42 77 43 78 51 79 44 80 45 81 49 82 52 83 46 84 47 85
REMARK SMILES IDX 50 86 48 87
REMARK H PARENT 72 40 40 51
REMARK Flexibility Score: inf
ROOT
ATOM      1  C   UNL A   1      31.986  29.475  25.280  1.00  0.00     0.202 C 
ENDROOT
BRANCH   1   2
ATOM      2  O   UNL A   1      32.420  28.343  26.038  1.00  0.00    -0.374 OA
BRANCH   2   3
ATOM      3  C   UNL A   1      31.405  27.476  26.545  1.00  0.00     0.202 C 
BRANCH   3   4
ATOM      4  C   UNL A   1      31.333  26.096  25.887  1.00  0.00     0.261 C 
BRANCH   4   5
ATOM      5  O   UNL A   1      31.480  25.065  26.875  1.00  0.00    -0.458 OA
BRANCH   5   6
ATOM      6  C   UNL A   1      31.396  23.796  26.401  1.00  0.00     0.367 C 
ATOM      7  O   UNL A   1      30.391  23.104  26.358  1.00  0.00    -0.243 OA
BRANCH   6   8
ATOM      8  C   UNL A   1      32.716  23.394  25.860  1.00  0.00     0.211 C 
ATOM      9  C   UNL A   1      33.420  22.219  27.968  1.00  0.00     0.048 C 
ATOM     10  C   UNL A   1      33.655  22.728  26.563  1.00  0.00     0.002 C 
ATOM     11  F   UNL A   1      32.888  23.697  24.553  1.00  0.00    -0.199 F 
BRANCH  10  12
ATOM     12  C   UNL A   1      35.002  22.451  25.977  1.00  0.00     0.016 A 
ATOM     13  C   UNL A   1      36.025  23.414  26.066  1.00  0.00     0.011 A 
ATOM     14  C   UNL A   1      35.346  21.216  25.401  1.00  0.00     0.130 A 
ATOM     15  C   UNL A   1      37.318  23.155  25.596  1.00  0.00     0.001 A 
ATOM     16  C   UNL A   1      36.638  20.946  24.944  1.00  0.00     0.040 A 
ATOM     17  F   UNL A   1      34.436  20.242  25.257  1.00  0.00    -0.206 F 
ATOM     18  C   UNL A   1      37.628  21.918  25.041  1.00  0.00     0.003 A 
ENDBRANCH  10  12
ENDBRANCH   6   8
ENDBRANCH   5   6
ENDBRANCH   4   5
ENDBRANCH   3   4
ENDBRANCH   2   3
ENDBRANCH   1   2
BRANCH   1  19
ATOM     19  C   UNL A   1      31.782  30.774  26.069  1.00  0.00     0.261 C 
BRANCH  19  20
ATOM     20  O   UNL A   1      32.537  30.772  27.295  1.00  0.00    -0.460 OA
BRANCH  20  21
ATOM     21  C   UNL A   1      33.351  31.838  27.467  1.00  0.00     0.338 C 
ATOM     22  O   UNL A   1      33.044  33.021  27.435  1.00  0.00    -0.246 OA
BRANCH  21  23
ATOM     23  C   UNL A   1      34.689  31.385  27.889  1.00  0.00     0.060 A 
ATOM     24  C   UNL A   1      34.854  30.018  28.149  1.00  0.00     0.016 A 
ATOM     25  C   UNL A   1      35.744  32.278  28.090  1.00  0.00     0.016 A 
ATOM     26  C   UNL A   1      36.061  29.545  28.659  1.00  0.00     0.010 A 
ATOM     27  C   UNL A   1      36.953  31.803  28.609  1.00  0.00     0.010 A 
ATOM     28  C   UNL A   1      37.104  30.441  28.930  1.00  0.00    -0.014 A 
BRANCH  28  29
ATOM     29  C   UNL A   1      38.295  29.971  29.676  1.00  0.00     0.031 A 
ATOM     30  C   UNL A   1      38.526  30.474  31.073  1.00  0.00     0.074 A 
ATOM     31  C   UNL A   1      39.145  29.085  29.126  1.00  0.00     0.049 A 
ATOM     32  N   UNL A   1      39.510  30.220  31.897  1.00  0.00    -0.248 NA
ATOM     33  C   UNL A   1      37.511  31.392  31.613  1.00  0.00     0.031 C 
ATOM     34  C   UNL A   1      39.008  28.501  27.795  1.00  0.00     0.029 A 
ATOM     35  N   UNL A   1      40.298  28.530  29.624  1.00  0.00    -0.354 N 
ATOM     36  C   UNL A   1      39.237  30.947  33.048  1.00  0.00     0.074 A 
ATOM     37  C   UNL A   1      38.011  31.677  32.807  1.00  0.00     0.031 C 
ATOM     38  C   UNL A   1      40.046  27.675  27.574  1.00  0.00     0.029 A 
ATOM     39  C   UNL A   1      40.933  27.698  28.737  1.00  0.00     0.049 A 
ATOM     40  H   UNL A   1      40.637  28.712  30.530  1.00  0.00     0.167 HD
ATOM     41  C   UNL A   1      39.940  30.995  34.203  1.00  0.00     0.037 A 
ATOM     42  C   UNL A   1      42.107  27.045  28.845  1.00  0.00     0.037 A 
ATOM     43  C   UNL A   1      41.158  30.264  34.442  1.00  0.00     0.049 A 
ATOM     44  C   UNL A   1      42.902  27.163  30.120  1.00  0.00     0.074 A 
ATOM     45  C   UNL A   1      41.930  30.225  35.590  1.00  0.00     0.029 A 
ATOM     46  N   UNL A   1      41.784  29.450  33.511  1.00  0.00    -0.354 N 
ATOM     47  N   UNL A   1      42.620  27.826  31.215  1.00  0.00    -0.248 NA
ATOM     48  C   UNL A   1      44.178  26.435  30.174  1.00  0.00     0.031 C 
ATOM     49  C   UNL A   1      43.050  29.427  35.336  1.00  0.00     0.029 A 
ATOM     50  C   UNL A   1      42.948  28.925  34.049  1.00  0.00     0.049 A 
ATOM     51  H   UNL A   1      41.451  29.271  32.602  1.00  0.00     0.167 HD
ATOM     52  C   UNL A   1      43.664  27.576  32.095  1.00  0.00     0.074 A 
ATOM     53  C   UNL A   1      44.582  26.689  31.411  1.00  0.00     0.031 C 
ATOM     54  C   UNL A   1      43.847  28.037  33.356  1.00  0.00     0.037 A 
BRANCH  41  55
ATOM     55  C   UNL A   1      39.423  31.887  35.294  1.00  0.00     0.064 A 
ATOM     56  C   UNL A   1      38.548  31.412  36.282  1.00  0.00     0.173 A 
ATOM     57  C   UNL A   1      39.840  33.224  35.372  1.00  0.00     0.173 A 
ATOM     58  F   UNL A   1      38.110  30.144  36.244  1.00  0.00    -0.203 F 
ATOM     59  C   UNL A   1      38.090  32.250  37.295  1.00  0.00     0.198 A 
ATOM     60  C   UNL A   1      39.402  34.052  36.402  1.00  0.00     0.198 A 
ATOM     61  F   UNL A   1      40.680  33.726  34.455  1.00  0.00    -0.203 F 
ATOM     62  F   UNL A   1      37.221  31.788  38.205  1.00  0.00    -0.200 F 
ATOM     63  C   UNL A   1      38.523  33.567  37.359  1.00  0.00     0.200 A 
ATOM     64  F   UNL A   1      39.830  35.321  36.469  1.00  0.00    -0.200 F 
ATOM     65  F   UNL A   1      38.088  34.371  38.339  1.00  0.00    -0.200 F 
ENDBRANCH  41  55
BRANCH  42  66
ATOM     66  C   UNL A   1      42.609  26.230  27.710  1.00  0.00     0.064 A 
ATOM     67  C   UNL A   1      43.546  26.746  26.805  1.00  0.00     0.173 A 
ATOM     68  C   UNL A   1      42.148  24.922  27.497  1.00  0.00     0.173 A 
ATOM     69  F   UNL A   1      43.997  28.001  26.952  1.00  0.00    -0.203 F 
ATOM     70  C   UNL A   1      43.991  25.993  25.721  1.00  0.00     0.198 A 
ATOM     71  C   UNL A   1      42.614  24.159  26.429  1.00  0.00     0.198 A 
ATOM     72  F   UNL A   1      41.248  24.382  28.332  1.00  0.00    -0.203 F 
ATOM     73  F   UNL A   1      44.852  26.526  24.845  1.00  0.00    -0.200 F 
ATOM     74  C   UNL A   1      43.529  24.697  25.537  1.00  0.00     0.200 A 
ATOM     75  F   UNL A   1      42.172  22.905  26.261  1.00  0.00    -0.200 F 
ATOM     76  F   UNL A   1      43.958  23.973  24.496  1.00  0.00    -0.200 F 
ENDBRANCH  42  66
BRANCH  54  77
ATOM     77  C   UNL A   1      45.066  27.566  34.095  1.00  0.00     0.064 A 
ATOM     78  C   UNL A   1      46.268  28.287  34.069  1.00  0.00     0.173 A 
ATOM     79  C   UNL A   1      45.017  26.399  34.874  1.00  0.00     0.173 A 
ATOM     80  F   UNL A   1      46.371  29.401  33.328  1.00  0.00    -0.203 F 
ATOM     81  C   UNL A   1      47.383  27.846  34.778  1.00  0.00     0.198 A 
ATOM     82  C   UNL A   1      46.123  25.977  35.605  1.00  0.00     0.198 A 
ATOM     83  F   UNL A   1      43.888  25.676  34.938  1.00  0.00    -0.203 F 
ATOM     84  F   UNL A   1      48.534  28.528  34.704  1.00  0.00    -0.200 F 
ATOM     85  C   UNL A   1      47.308  26.696  35.550  1.00  0.00     0.200 A 
ATOM     86  F   UNL A   1      46.045  24.873  36.360  1.00  0.00    -0.200 F 
ATOM     87  F   UNL A   1      48.379  26.278  36.238  1.00  0.00    -0.200 F 
ENDBRANCH  54  77
ENDBRANCH  28  29
ENDBRANCH  21  23
ENDBRANCH  20  21
ENDBRANCH  19  20
ENDBRANCH   1  19
TORSDOF 15
ENDMDL
