MODEL 1
REMARK VINA RESULT:     -12.0      0.000      0.000
REMARK SMILES C[C@]12C[C@@H](O)[C@H]3[C@@H](CCC4=CC(=O)C=C[C@]43C)[C@H]1CC[C@@]2(O)C(=O)COC(=O)CCC(=O)OCCOCCOC(=O)c1ccc(-c2c3nc(c(-c4c(F)c(F)c(F)c(F)c4F)c4ccc([nH]4)c(-c4c(F)c(F)c(F)c(F)c4F)c4nc(c(-c5c(F)c(F)c(F)c(F)c5F)c5ccc2[nH]5)C=C4)C=C3)cc1
REMARK SMILES IDX 34 1 33 2 31 3 32 4 30 5 29 6 27 7 28 8 26 9 25 10 23 11
REMARK SMILES IDX 24 12 21 13 17 14 16 15 15 16 10 17 6 18 14 19 11 20 9 21
REMARK SMILES IDX 7 22 4 23 12 24 8 25 18 26 3 27 13 28 2 29 19 30 1 31 20 32
REMARK SMILES IDX 5 33 22 35 35 37 36 38 37 39 38 40 39 41 40 42 41 43 42 44
REMARK SMILES IDX 43 45 104 46 44 47 103 48 45 49 46 50 47 51 97 52 48 53
REMARK SMILES IDX 102 54 96 55 98 56 49 57 101 58 95 59 94 60 50 62 82 63
REMARK SMILES IDX 62 64 81 65 63 66 66 67 80 68 99 69 64 70 65 71 79 73 100 74
REMARK SMILES IDX 67 75 51 76 52 77 60 78 53 79 54 80 58 81 61 82 55 83 56 84
REMARK SMILES IDX 59 85 57 86 83 87 84 88 92 89 85 90 86 91 90 92 93 93 87 94
REMARK SMILES IDX 88 95 91 96 89 97 68 98 69 99 77 100 70 101 71 102 75 103
REMARK SMILES IDX 78 104 72 105 73 106 76 107 74 108
REMARK H PARENT 5 34 22 36 98 61 66 72
REMARK Flexibility Score: inf
ROOT
ATOM      1  C   UNL A   1      33.704  34.442  29.472  1.00  0.00     0.261 C 
ENDROOT
BRANCH   1   2
ATOM      2  O   UNL A   1      33.928  33.016  29.516  1.00  0.00    -0.463 OA
BRANCH   2   3
ATOM      3  C   UNL A   1      34.661  32.510  28.490  1.00  0.00     0.306 C 
ATOM      4  O   UNL A   1      35.203  33.193  27.626  1.00  0.00    -0.252 OA
BRANCH   3   5
ATOM      5  C   UNL A   1      34.724  30.998  28.451  1.00  0.00     0.134 C 
BRANCH   5   6
ATOM      6  C   UNL A   1      34.408  30.311  27.131  1.00  0.00     0.134 C 
BRANCH   6   7
ATOM      7  C   UNL A   1      33.163  29.453  27.145  1.00  0.00     0.306 C 
ATOM      8  O   UNL A   1      32.037  29.920  27.247  1.00  0.00    -0.252 OA
BRANCH   7   9
ATOM      9  O   UNL A   1      33.445  28.149  26.911  1.00  0.00    -0.458 OA
BRANCH   9  10
ATOM     10  C   UNL A   1      33.062  27.616  25.642  1.00  0.00     0.311 C 
BRANCH  10  11
ATOM     11  C   UNL A   1      33.693  26.253  25.353  1.00  0.00     0.202 C 
ATOM     12  O   UNL A   1      34.562  25.798  26.103  1.00  0.00    -0.293 OA
BRANCH  11  13
ATOM     13  C   UNL A   1      33.228  25.480  24.086  1.00  0.00     0.132 C 
ATOM     14  C   UNL A   1      32.152  18.862  25.405  1.00  0.00     0.021 C 
ATOM     15  C   UNL A   1      33.061  19.529  24.330  1.00  0.00     0.013 C 
ATOM     16  C   UNL A   1      34.479  19.048  24.665  1.00  0.00    -0.012 C 
ATOM     17  C   UNL A   1      32.670  18.933  22.958  1.00  0.00    -0.056 C 
ATOM     18  C   UNL A   1      32.830  21.107  24.434  1.00  0.00     0.035 C 
ATOM     19  C   UNL A   1      34.971  17.867  24.253  1.00  0.00     0.048 C 
ATOM     20  C   UNL A   1      33.130  17.724  22.571  1.00  0.00     0.052 C 
ATOM     21  C   UNL A   1      31.899  19.716  21.929  1.00  0.00     0.032 C 
ATOM     22  C   UNL A   1      32.811  21.795  23.053  1.00  0.00    -0.000 C 
ATOM     23  C   UNL A   1      33.752  21.832  25.440  1.00  0.00     0.119 C 
ATOM     24  C   UNL A   1      34.166  17.017  23.353  1.00  0.00     0.178 C 
ATOM     25  C   UNL A   1      31.676  21.191  22.223  1.00  0.00     0.009 C 
ATOM     26  C   UNL A   1      32.679  23.335  23.103  1.00  0.00     0.002 C 
ATOM     27  C   UNL A   1      33.607  23.351  25.442  1.00  0.00     0.042 C 
ATOM     28  O   UNL A   1      34.403  15.828  23.193  1.00  0.00    -0.290 OA
ATOM     29  C   UNL A   1      33.705  24.000  24.043  1.00  0.00     0.009 C 
ATOM     30  C   UNL A   1      31.350  23.932  23.568  1.00  0.00     0.008 C 
ATOM     31  C   UNL A   1      35.089  23.834  23.406  1.00  0.00     0.015 C 
ATOM     32  C   UNL A   1      31.684  25.384  23.953  1.00  0.00     0.044 C 
BRANCH  23  33
ATOM     33  O   UNL A   1      33.496  21.378  26.768  1.00  0.00    -0.393 OA
ATOM     34  H   UNL A   1      32.594  21.624  27.026  1.00  0.00     0.210 HD
ENDBRANCH  23  33
BRANCH  13  35
ATOM     35  O   UNL A   1      33.692  26.178  22.928  1.00  0.00    -0.381 OA
ATOM     36  H   UNL A   1      34.636  26.377  23.027  1.00  0.00     0.212 HD
ENDBRANCH  13  35
ENDBRANCH  11  13
ENDBRANCH  10  11
ENDBRANCH   9  10
ENDBRANCH   7   9
ENDBRANCH   6   7
ENDBRANCH   5   6
ENDBRANCH   3   5
ENDBRANCH   2   3
ENDBRANCH   1   2
BRANCH   1  37
ATOM     37  C   UNL A   1      33.982  35.117  30.815  1.00  0.00     0.202 C 
BRANCH  37  38
ATOM     38  O   UNL A   1      33.266  34.592  31.928  1.00  0.00    -0.374 OA
BRANCH  38  39
ATOM     39  C   UNL A   1      34.029  34.097  33.025  1.00  0.00     0.202 C 
BRANCH  39  40
ATOM     40  C   UNL A   1      35.466  33.654  32.712  1.00  0.00     0.261 C 
BRANCH  40  41
ATOM     41  O   UNL A   1      35.635  32.223  32.587  1.00  0.00    -0.460 OA
BRANCH  41  42
ATOM     42  C   UNL A   1      36.736  31.734  33.213  1.00  0.00     0.338 C 
ATOM     43  O   UNL A   1      37.030  31.862  34.390  1.00  0.00    -0.246 OA
BRANCH  42  44
ATOM     44  C   UNL A   1      37.570  30.913  32.316  1.00  0.00     0.060 A 
ATOM     45  C   UNL A   1      38.682  30.266  32.871  1.00  0.00     0.016 A 
ATOM     46  C   UNL A   1      37.414  30.980  30.931  1.00  0.00     0.016 A 
ATOM     47  C   UNL A   1      39.680  29.746  32.041  1.00  0.00     0.010 A 
ATOM     48  C   UNL A   1      38.416  30.453  30.101  1.00  0.00     0.010 A 
ATOM     49  C   UNL A   1      39.579  29.878  30.649  1.00  0.00    -0.014 A 
BRANCH  49  50
ATOM     50  C   UNL A   1      40.740  29.545  29.777  1.00  0.00     0.031 A 
ATOM     51  C   UNL A   1      40.854  28.170  29.177  1.00  0.00     0.074 A 
ATOM     52  C   UNL A   1      41.694  30.455  29.509  1.00  0.00     0.049 A 
ATOM     53  N   UNL A   1      41.802  27.668  28.426  1.00  0.00    -0.248 NA
ATOM     54  C   UNL A   1      39.744  27.242  29.445  1.00  0.00     0.031 C 
ATOM     55  C   UNL A   1      41.672  31.843  29.947  1.00  0.00     0.029 A 
ATOM     56  N   UNL A   1      42.879  30.340  28.824  1.00  0.00    -0.354 N 
ATOM     57  C   UNL A   1      41.402  26.374  28.122  1.00  0.00     0.074 A 
ATOM     58  C   UNL A   1      40.146  26.151  28.809  1.00  0.00     0.031 C 
ATOM     59  C   UNL A   1      42.826  32.436  29.599  1.00  0.00     0.029 A 
ATOM     60  C   UNL A   1      43.660  31.467  28.888  1.00  0.00     0.049 A 
ATOM     61  H   UNL A   1      43.142  29.528  28.333  1.00  0.00     0.167 HD
ATOM     62  C   UNL A   1      42.009  25.463  27.325  1.00  0.00     0.037 A 
ATOM     63  C   UNL A   1      44.907  31.695  28.432  1.00  0.00     0.037 A 
ATOM     64  C   UNL A   1      43.251  25.683  26.629  1.00  0.00     0.049 A 
ATOM     65  C   UNL A   1      45.608  30.637  27.624  1.00  0.00     0.074 A 
ATOM     66  C   UNL A   1      43.910  24.838  25.752  1.00  0.00     0.029 A 
ATOM     67  N   UNL A   1      44.029  26.825  26.741  1.00  0.00    -0.354 N 
ATOM     68  N   UNL A   1      45.189  29.441  27.291  1.00  0.00    -0.248 NA
ATOM     69  C   UNL A   1      46.939  30.973  27.099  1.00  0.00     0.031 C 
ATOM     70  C   UNL A   1      45.113  25.446  25.376  1.00  0.00     0.029 A 
ATOM     71  C   UNL A   1      45.179  26.692  25.980  1.00  0.00     0.049 A 
ATOM     72  H   UNL A   1      43.798  27.614  27.283  1.00  0.00     0.167 HD
ATOM     73  C   UNL A   1      46.183  28.898  26.487  1.00  0.00     0.074 A 
ATOM     74  C   UNL A   1      47.227  29.896  26.382  1.00  0.00     0.031 C 
ATOM     75  C   UNL A   1      46.217  27.687  25.879  1.00  0.00     0.037 A 
BRANCH  62  76
ATOM     76  C   UNL A   1      41.342  24.129  27.170  1.00  0.00     0.064 A 
ATOM     77  C   UNL A   1      40.167  23.977  26.418  1.00  0.00     0.173 A 
ATOM     78  C   UNL A   1      41.901  22.983  27.753  1.00  0.00     0.173 A 
ATOM     79  F   UNL A   1      39.588  25.044  25.848  1.00  0.00    -0.203 F 
ATOM     80  C   UNL A   1      39.562  22.730  26.280  1.00  0.00     0.198 A 
ATOM     81  C   UNL A   1      41.309  21.734  27.592  1.00  0.00     0.198 A 
ATOM     82  F   UNL A   1      43.028  23.075  28.477  1.00  0.00    -0.203 F 
ATOM     83  F   UNL A   1      38.416  22.615  25.595  1.00  0.00    -0.200 F 
ATOM     84  C   UNL A   1      40.136  21.610  26.862  1.00  0.00     0.200 A 
ATOM     85  F   UNL A   1      41.871  20.650  28.145  1.00  0.00    -0.200 F 
ATOM     86  F   UNL A   1      39.555  20.409  26.726  1.00  0.00    -0.200 F 
ENDBRANCH  62  76
BRANCH  63  87
ATOM     87  C   UNL A   1      45.567  32.992  28.722  1.00  0.00     0.064 A 
ATOM     88  C   UNL A   1      46.199  33.229  29.950  1.00  0.00     0.173 A 
ATOM     89  C   UNL A   1      45.580  34.021  27.769  1.00  0.00     0.173 A 
ATOM     90  F   UNL A   1      46.196  32.281  30.897  1.00  0.00    -0.203 F 
ATOM     91  C   UNL A   1      46.807  34.454  30.219  1.00  0.00     0.198 A 
ATOM     92  C   UNL A   1      46.206  35.237  28.032  1.00  0.00     0.198 A 
ATOM     93  F   UNL A   1      44.996  33.838  26.575  1.00  0.00    -0.203 F 
ATOM     94  F   UNL A   1      47.378  34.667  31.413  1.00  0.00    -0.200 F 
ATOM     95  C   UNL A   1      46.814  35.455  29.258  1.00  0.00     0.200 A 
ATOM     96  F   UNL A   1      46.225  36.195  27.095  1.00  0.00    -0.200 F 
ATOM     97  F   UNL A   1      47.407  36.628  29.516  1.00  0.00    -0.200 F 
ENDBRANCH  63  87
BRANCH  75  98
ATOM     98  C   UNL A   1      47.408  27.377  25.018  1.00  0.00     0.064 A 
ATOM     99  C   UNL A   1      47.456  27.750  23.668  1.00  0.00     0.173 A 
ATOM    100  C   UNL A   1      48.528  26.731  25.562  1.00  0.00     0.173 A 
ATOM    101  F   UNL A   1      46.403  28.355  23.097  1.00  0.00    -0.203 F 
ATOM    102  C   UNL A   1      48.575  27.469  22.887  1.00  0.00     0.198 A 
ATOM    103  C   UNL A   1      49.656  26.476  24.785  1.00  0.00     0.198 A 
ATOM    104  F   UNL A   1      48.535  26.356  26.850  1.00  0.00    -0.203 F 
ATOM    105  F   UNL A   1      48.581  27.796  21.587  1.00  0.00    -0.200 F 
ATOM    106  C   UNL A   1      49.675  26.839  23.448  1.00  0.00     0.200 A 
ATOM    107  F   UNL A   1      50.723  25.877  25.332  1.00  0.00    -0.200 F 
ATOM    108  F   UNL A   1      50.753  26.574  22.696  1.00  0.00    -0.200 F 
ENDBRANCH  75  98
ENDBRANCH  49  50
ENDBRANCH  42  44
ENDBRANCH  41  42
ENDBRANCH  40  41
ENDBRANCH  39  40
ENDBRANCH  38  39
ENDBRANCH  37  38
ENDBRANCH   1  37
TORSDOF 22
ENDMDL
MODEL 2
REMARK VINA RESULT:     -11.9      3.373      8.102
REMARK SMILES C[C@]12C[C@@H](O)[C@H]3[C@@H](CCC4=CC(=O)C=C[C@]43C)[C@H]1CC[C@@]2(O)C(=O)COC(=O)CCC(=O)OCCOCCOC(=O)c1ccc(-c2c3nc(c(-c4c(F)c(F)c(F)c(F)c4F)c4ccc([nH]4)c(-c4c(F)c(F)c(F)c(F)c4F)c4nc(c(-c5c(F)c(F)c(F)c(F)c5F)c5ccc2[nH]5)C=C4)C=C3)cc1
REMARK SMILES IDX 34 1 33 2 31 3 32 4 30 5 29 6 27 7 28 8 26 9 25 10 23 11
REMARK SMILES IDX 24 12 21 13 17 14 16 15 15 16 10 17 6 18 14 19 11 20 9 21
REMARK SMILES IDX 7 22 4 23 12 24 8 25 18 26 3 27 13 28 2 29 19 30 1 31 20 32
REMARK SMILES IDX 5 33 22 35 35 37 36 38 37 39 38 40 39 41 40 42 41 43 42 44
REMARK SMILES IDX 43 45 104 46 44 47 103 48 45 49 46 50 47 51 97 52 48 53
REMARK SMILES IDX 102 54 96 55 98 56 49 57 101 58 95 59 94 60 50 62 82 63
REMARK SMILES IDX 62 64 81 65 63 66 66 67 80 68 99 69 64 70 65 71 79 73 100 74
REMARK SMILES IDX 67 75 51 76 52 77 60 78 53 79 54 80 58 81 61 82 55 83 56 84
REMARK SMILES IDX 59 85 57 86 83 87 84 88 92 89 85 90 86 91 90 92 93 93 87 94
REMARK SMILES IDX 88 95 91 96 89 97 68 98 69 99 77 100 70 101 71 102 75 103
REMARK SMILES IDX 78 104 72 105 73 106 76 107 74 108
REMARK H PARENT 5 34 22 36 98 61 66 72
REMARK Flexibility Score: inf
ROOT
ATOM      1  C   UNL A   1      31.339  27.617  25.049  1.00  0.00     0.261 C 
ENDROOT
BRANCH   1   2
ATOM      2  O   UNL A   1      30.165  27.573  24.209  1.00  0.00    -0.463 OA
BRANCH   2   3
ATOM      3  C   UNL A   1      30.359  27.945  22.916  1.00  0.00     0.306 C 
ATOM      4  O   UNL A   1      29.534  28.551  22.240  1.00  0.00    -0.252 OA
BRANCH   3   5
ATOM      5  C   UNL A   1      31.684  27.504  22.331  1.00  0.00     0.134 C 
BRANCH   5   6
ATOM      6  C   UNL A   1      31.706  26.216  21.521  1.00  0.00     0.134 C 
BRANCH   6   7
ATOM      7  C   UNL A   1      32.644  25.153  22.044  1.00  0.00     0.306 C 
ATOM      8  O   UNL A   1      33.255  24.388  21.311  1.00  0.00    -0.252 OA
BRANCH   7   9
ATOM      9  O   UNL A   1      32.807  25.239  23.387  1.00  0.00    -0.458 OA
BRANCH   9  10
ATOM     10  C   UNL A   1      34.147  25.272  23.880  1.00  0.00     0.311 C 
BRANCH  10  11
ATOM     11  C   UNL A   1      34.272  24.723  25.302  1.00  0.00     0.202 C 
ATOM     12  O   UNL A   1      33.559  25.167  26.206  1.00  0.00    -0.293 OA
BRANCH  11  13
ATOM     13  C   UNL A   1      35.332  23.618  25.574  1.00  0.00     0.132 C 
ATOM     14  C   UNL A   1      33.464  17.607  22.913  1.00  0.00     0.021 C 
ATOM     15  C   UNL A   1      33.867  17.969  24.373  1.00  0.00     0.013 C 
ATOM     16  C   UNL A   1      32.628  17.632  25.214  1.00  0.00    -0.012 C 
ATOM     17  C   UNL A   1      35.001  17.005  24.793  1.00  0.00    -0.056 C 
ATOM     18  C   UNL A   1      34.298  19.507  24.374  1.00  0.00     0.035 C 
ATOM     19  C   UNL A   1      32.360  16.394  25.665  1.00  0.00     0.048 C 
ATOM     20  C   UNL A   1      34.727  15.746  25.199  1.00  0.00     0.052 C 
ATOM     21  C   UNL A   1      36.432  17.453  24.922  1.00  0.00     0.032 C 
ATOM     22  C   UNL A   1      35.509  19.782  25.291  1.00  0.00    -0.000 C 
ATOM     23  C   UNL A   1      33.142  20.504  24.611  1.00  0.00     0.119 C 
ATOM     24  C   UNL A   1      33.336  15.309  25.437  1.00  0.00     0.178 C 
ATOM     25  C   UNL A   1      36.692  18.946  24.800  1.00  0.00     0.009 C 
ATOM     26  C   UNL A   1      35.911  21.272  25.395  1.00  0.00     0.002 C 
ATOM     27  C   UNL A   1      33.583  21.960  24.731  1.00  0.00     0.042 C 
ATOM     28  O   UNL A   1      33.033  14.128  25.535  1.00  0.00    -0.290 OA
ATOM     29  C   UNL A   1      34.726  22.195  25.745  1.00  0.00     0.009 C 
ATOM     30  C   UNL A   1      36.520  21.945  24.165  1.00  0.00     0.008 C 
ATOM     31  C   UNL A   1      34.313  21.890  27.188  1.00  0.00     0.015 C 
ATOM     32  C   UNL A   1      36.362  23.454  24.423  1.00  0.00     0.044 C 
BRANCH  23  33
ATOM     33  O   UNL A   1      32.195  20.433  23.546  1.00  0.00    -0.393 OA
ATOM     34  H   UNL A   1      32.661  20.467  22.696  1.00  0.00     0.210 HD
ENDBRANCH  23  33
BRANCH  13  35
ATOM     35  O   UNL A   1      36.080  23.975  26.738  1.00  0.00    -0.381 OA
ATOM     36  H   UNL A   1      36.455  23.175  27.139  1.00  0.00     0.212 HD
ENDBRANCH  13  35
ENDBRANCH  11  13
ENDBRANCH  10  11
ENDBRANCH   9  10
ENDBRANCH   7   9
ENDBRANCH   6   7
ENDBRANCH   5   6
ENDBRANCH   3   5
ENDBRANCH   2   3
ENDBRANCH   1   2
BRANCH   1  37
ATOM     37  C   UNL A   1      31.356  28.844  25.959  1.00  0.00     0.202 C 
BRANCH  37  38
ATOM     38  O   UNL A   1      31.844  30.044  25.367  1.00  0.00    -0.374 OA
BRANCH  38  39
ATOM     39  C   UNL A   1      31.972  31.186  26.209  1.00  0.00     0.202 C 
BRANCH  39  40
ATOM     40  C   UNL A   1      32.830  31.012  27.471  1.00  0.00     0.261 C 
BRANCH  40  41
ATOM     41  O   UNL A   1      34.243  30.844  27.214  1.00  0.00    -0.460 OA
BRANCH  41  42
ATOM     42  C   UNL A   1      34.742  29.643  27.602  1.00  0.00     0.338 C 
ATOM     43  O   UNL A   1      34.218  28.550  27.468  1.00  0.00    -0.246 OA
BRANCH  42  44
ATOM     44  C   UNL A   1      36.098  29.759  28.170  1.00  0.00     0.060 A 
ATOM     45  C   UNL A   1      37.149  30.064  27.295  1.00  0.00     0.016 A 
ATOM     46  C   UNL A   1      36.369  29.332  29.472  1.00  0.00     0.016 A 
ATOM     47  C   UNL A   1      38.474  29.875  27.694  1.00  0.00     0.010 A 
ATOM     48  C   UNL A   1      37.702  29.148  29.871  1.00  0.00     0.010 A 
ATOM     49  C   UNL A   1      38.762  29.369  28.969  1.00  0.00    -0.014 A 
BRANCH  49  50
ATOM     50  C   UNL A   1      40.147  28.942  29.314  1.00  0.00     0.031 A 
ATOM     51  C   UNL A   1      41.051  29.876  30.071  1.00  0.00     0.074 A 
ATOM     52  C   UNL A   1      40.610  27.728  28.963  1.00  0.00     0.049 A 
ATOM     53  N   UNL A   1      42.299  29.712  30.432  1.00  0.00    -0.248 NA
ATOM     54  C   UNL A   1      40.467  31.159  30.491  1.00  0.00     0.031 C 
ATOM     55  C   UNL A   1      39.824  26.691  28.308  1.00  0.00     0.029 A 
ATOM     56  N   UNL A   1      41.859  27.171  29.088  1.00  0.00    -0.354 N 
ATOM     57  C   UNL A   1      42.647  30.861  31.130  1.00  0.00     0.074 A 
ATOM     58  C   UNL A   1      41.492  31.735  31.101  1.00  0.00     0.031 C 
ATOM     59  C   UNL A   1      40.623  25.655  28.006  1.00  0.00     0.029 A 
ATOM     60  C   UNL A   1      41.977  25.949  28.474  1.00  0.00     0.049 A 
ATOM     61  H   UNL A   1      42.598  27.606  29.572  1.00  0.00     0.167 HD
ATOM     62  C   UNL A   1      43.811  31.152  31.758  1.00  0.00     0.037 A 
ATOM     63  C   UNL A   1      43.053  25.157  28.302  1.00  0.00     0.037 A 
ATOM     64  C   UNL A   1      44.958  30.282  31.802  1.00  0.00     0.049 A 
ATOM     65  C   UNL A   1      44.367  25.539  28.931  1.00  0.00     0.074 A 
ATOM     66  C   UNL A   1      46.159  30.469  32.466  1.00  0.00     0.029 A 
ATOM     67  N   UNL A   1      45.053  29.066  31.144  1.00  0.00    -0.354 N 
ATOM     68  N   UNL A   1      44.662  26.599  29.642  1.00  0.00    -0.248 NA
ATOM     69  C   UNL A   1      45.484  24.599  28.762  1.00  0.00     0.031 C 
ATOM     70  C   UNL A   1      46.999  29.391  32.165  1.00  0.00     0.029 A 
ATOM     71  C   UNL A   1      46.304  28.508  31.354  1.00  0.00     0.049 A 
ATOM     72  H   UNL A   1      44.337  28.657  30.605  1.00  0.00     0.167 HD
ATOM     73  C   UNL A   1      45.983  26.435  30.039  1.00  0.00     0.074 A 
ATOM     74  C   UNL A   1      46.432  25.173  29.488  1.00  0.00     0.031 C 
ATOM     75  C   UNL A   1      46.747  27.253  30.804  1.00  0.00     0.037 A 
BRANCH  62  76
ATOM     76  C   UNL A   1      43.909  32.481  32.446  1.00  0.00     0.064 A 
ATOM     77  C   UNL A   1      43.582  32.635  33.801  1.00  0.00     0.173 A 
ATOM     78  C   UNL A   1      44.368  33.608  31.749  1.00  0.00     0.173 A 
ATOM     79  F   UNL A   1      43.129  31.589  34.509  1.00  0.00    -0.203 F 
ATOM     80  C   UNL A   1      43.683  33.875  34.426  1.00  0.00     0.198 A 
ATOM     81  C   UNL A   1      44.493  34.842  32.383  1.00  0.00     0.198 A 
ATOM     82  F   UNL A   1      44.700  33.512  30.452  1.00  0.00    -0.203 F 
ATOM     83  F   UNL A   1      43.322  34.009  35.710  1.00  0.00    -0.200 F 
ATOM     84  C   UNL A   1      44.143  34.975  33.718  1.00  0.00     0.200 A 
ATOM     85  F   UNL A   1      44.949  35.901  31.701  1.00  0.00    -0.200 F 
ATOM     86  F   UNL A   1      44.243  36.169  34.321  1.00  0.00    -0.200 F 
ENDBRANCH  62  76
BRANCH  63  87
ATOM     87  C   UNL A   1      42.925  23.911  27.506  1.00  0.00     0.064 A 
ATOM     88  C   UNL A   1      43.267  23.876  26.148  1.00  0.00     0.173 A 
ATOM     89  C   UNL A   1      42.460  22.726  28.095  1.00  0.00     0.173 A 
ATOM     90  F   UNL A   1      43.700  24.989  25.539  1.00  0.00    -0.203 F 
ATOM     91  C   UNL A   1      43.133  22.706  25.404  1.00  0.00     0.198 A 
ATOM     92  C   UNL A   1      42.347  21.551  27.355  1.00  0.00     0.198 A 
ATOM     93  F   UNL A   1      42.129  22.707  29.395  1.00  0.00    -0.203 F 
ATOM     94  F   UNL A   1      43.438  22.706  24.099  1.00  0.00    -0.200 F 
ATOM     95  C   UNL A   1      42.678  21.543  26.010  1.00  0.00     0.200 A 
ATOM     96  F   UNL A   1      41.922  20.427  27.948  1.00  0.00    -0.200 F 
ATOM     97  F   UNL A   1      42.559  20.417  25.295  1.00  0.00    -0.200 F 
ENDBRANCH  63  87
BRANCH  75  98
ATOM     98  C   UNL A   1      48.144  26.799  31.121  1.00  0.00     0.064 A 
ATOM     99  C   UNL A   1      49.245  27.224  30.366  1.00  0.00     0.173 A 
ATOM    100  C   UNL A   1      48.384  25.956  32.217  1.00  0.00     0.173 A 
ATOM    101  F   UNL A   1      49.065  28.016  29.298  1.00  0.00    -0.203 F 
ATOM    102  C   UNL A   1      50.535  26.806  30.683  1.00  0.00     0.198 A 
ATOM    103  C   UNL A   1      49.678  25.562  32.547  1.00  0.00     0.198 A 
ATOM    104  F   UNL A   1      47.366  25.524  32.975  1.00  0.00    -0.203 F 
ATOM    105  F   UNL A   1      51.568  27.189  29.920  1.00  0.00    -0.200 F 
ATOM    106  C   UNL A   1      50.751  25.981  31.777  1.00  0.00     0.200 A 
ATOM    107  F   UNL A   1      49.887  24.774  33.612  1.00  0.00    -0.200 F 
ATOM    108  F   UNL A   1      51.994  25.584  32.084  1.00  0.00    -0.200 F 
ENDBRANCH  75  98
ENDBRANCH  49  50
ENDBRANCH  42  44
ENDBRANCH  41  42
ENDBRANCH  40  41
ENDBRANCH  39  40
ENDBRANCH  38  39
ENDBRANCH  37  38
ENDBRANCH   1  37
TORSDOF 22
ENDMDL
MODEL 3
REMARK VINA RESULT:     -11.8      4.120      7.245
REMARK SMILES C[C@]12C[C@@H](O)[C@H]3[C@@H](CCC4=CC(=O)C=C[C@]43C)[C@H]1CC[C@@]2(O)C(=O)COC(=O)CCC(=O)OCCOCCOC(=O)c1ccc(-c2c3nc(c(-c4c(F)c(F)c(F)c(F)c4F)c4ccc([nH]4)c(-c4c(F)c(F)c(F)c(F)c4F)c4nc(c(-c5c(F)c(F)c(F)c(F)c5F)c5ccc2[nH]5)C=C4)C=C3)cc1
REMARK SMILES IDX 34 1 33 2 31 3 32 4 30 5 29 6 27 7 28 8 26 9 25 10 23 11
REMARK SMILES IDX 24 12 21 13 17 14 16 15 15 16 10 17 6 18 14 19 11 20 9 21
REMARK SMILES IDX 7 22 4 23 12 24 8 25 18 26 3 27 13 28 2 29 19 30 1 31 20 32
REMARK SMILES IDX 5 33 22 35 35 37 36 38 37 39 38 40 39 41 40 42 41 43 42 44
REMARK SMILES IDX 43 45 104 46 44 47 103 48 45 49 46 50 47 51 97 52 48 53
REMARK SMILES IDX 102 54 96 55 98 56 49 57 101 58 95 59 94 60 50 62 82 63
REMARK SMILES IDX 62 64 81 65 63 66 66 67 80 68 99 69 64 70 65 71 79 73 100 74
REMARK SMILES IDX 67 75 51 76 52 77 60 78 53 79 54 80 58 81 61 82 55 83 56 84
REMARK SMILES IDX 59 85 57 86 83 87 84 88 92 89 85 90 86 91 90 92 93 93 87 94
REMARK SMILES IDX 88 95 91 96 89 97 68 98 69 99 77 100 70 101 71 102 75 103
REMARK SMILES IDX 78 104 72 105 73 106 76 107 74 108
REMARK H PARENT 5 34 22 36 98 61 66 72
REMARK Flexibility Score: inf
ROOT
ATOM      1  C   UNL A   1      31.604  27.974  25.130  1.00  0.00     0.261 C 
ENDROOT
BRANCH   1   2
ATOM      2  O   UNL A   1      30.372  27.422  24.615  1.00  0.00    -0.463 OA
BRANCH   2   3
ATOM      3  C   UNL A   1      30.104  27.711  23.315  1.00  0.00     0.306 C 
ATOM      4  O   UNL A   1      28.999  28.039  22.894  1.00  0.00    -0.252 OA
BRANCH   3   5
ATOM      5  C   UNL A   1      31.284  27.548  22.381  1.00  0.00     0.134 C 
BRANCH   5   6
ATOM      6  C   UNL A   1      31.478  26.192  21.718  1.00  0.00     0.134 C 
BRANCH   6   7
ATOM      7  C   UNL A   1      32.607  25.363  22.287  1.00  0.00     0.306 C 
ATOM      8  O   UNL A   1      33.080  24.398  21.705  1.00  0.00    -0.252 OA
BRANCH   7   9
ATOM      9  O   UNL A   1      33.092  25.892  23.437  1.00  0.00    -0.458 OA
BRANCH   9  10
ATOM     10  C   UNL A   1      34.379  25.447  23.867  1.00  0.00     0.311 C 
BRANCH  10  11
ATOM     11  C   UNL A   1      34.347  24.759  25.233  1.00  0.00     0.202 C 
ATOM     12  O   UNL A   1      33.521  25.103  26.083  1.00  0.00    -0.293 OA
BRANCH  11  13
ATOM     13  C   UNL A   1      35.392  23.643  25.520  1.00  0.00     0.132 C 
ATOM     14  C   UNL A   1      33.466  17.633  22.898  1.00  0.00     0.021 C 
ATOM     15  C   UNL A   1      33.865  18.002  24.358  1.00  0.00     0.013 C 
ATOM     16  C   UNL A   1      32.618  17.687  25.194  1.00  0.00    -0.012 C 
ATOM     17  C   UNL A   1      34.985  17.028  24.792  1.00  0.00    -0.056 C 
ATOM     18  C   UNL A   1      34.315  19.535  24.349  1.00  0.00     0.035 C 
ATOM     19  C   UNL A   1      32.332  16.457  25.654  1.00  0.00     0.048 C 
ATOM     20  C   UNL A   1      34.694  15.777  25.207  1.00  0.00     0.052 C 
ATOM     21  C   UNL A   1      36.421  17.460  24.926  1.00  0.00     0.032 C 
ATOM     22  C   UNL A   1      35.524  19.804  25.270  1.00  0.00    -0.000 C 
ATOM     23  C   UNL A   1      33.169  20.548  24.570  1.00  0.00     0.119 C 
ATOM     24  C   UNL A   1      33.296  15.358  25.440  1.00  0.00     0.178 C 
ATOM     25  C   UNL A   1      36.699  18.949  24.793  1.00  0.00     0.009 C 
ATOM     26  C   UNL A   1      35.943  21.289  25.364  1.00  0.00     0.002 C 
ATOM     27  C   UNL A   1      33.628  21.999  24.681  1.00  0.00     0.042 C 
ATOM     28  O   UNL A   1      32.979  14.182  25.546  1.00  0.00    -0.290 OA
ATOM     29  C   UNL A   1      34.767  22.229  25.699  1.00  0.00     0.009 C 
ATOM     30  C   UNL A   1      36.567  21.944  24.133  1.00  0.00     0.008 C 
ATOM     31  C   UNL A   1      34.342  21.941  27.142  1.00  0.00     0.015 C 
ATOM     32  C   UNL A   1      36.426  23.457  24.376  1.00  0.00     0.044 C 
BRANCH  23  33
ATOM     33  O   UNL A   1      32.228  20.479  23.500  1.00  0.00    -0.393 OA
ATOM     34  H   UNL A   1      31.340  20.333  23.859  1.00  0.00     0.210 HD
ENDBRANCH  23  33
BRANCH  13  35
ATOM     35  O   UNL A   1      36.137  24.002  26.686  1.00  0.00    -0.381 OA
ATOM     36  H   UNL A   1      36.861  24.598  26.436  1.00  0.00     0.212 HD
ENDBRANCH  13  35
ENDBRANCH  11  13
ENDBRANCH  10  11
ENDBRANCH   9  10
ENDBRANCH   7   9
ENDBRANCH   6   7
ENDBRANCH   5   6
ENDBRANCH   3   5
ENDBRANCH   2   3
ENDBRANCH   1   2
BRANCH   1  37
ATOM     37  C   UNL A   1      31.394  29.325  25.814  1.00  0.00     0.202 C 
BRANCH  37  38
ATOM     38  O   UNL A   1      31.090  30.413  24.949  1.00  0.00    -0.374 OA
BRANCH  38  39
ATOM     39  C   UNL A   1      30.734  31.653  25.554  1.00  0.00     0.202 C 
BRANCH  39  40
ATOM     40  C   UNL A   1      31.427  31.989  26.882  1.00  0.00     0.261 C 
BRANCH  40  41
ATOM     41  O   UNL A   1      32.835  31.660  26.921  1.00  0.00    -0.460 OA
BRANCH  41  42
ATOM     42  C   UNL A   1      33.605  32.575  27.562  1.00  0.00     0.338 C 
ATOM     43  O   UNL A   1      33.268  33.685  27.941  1.00  0.00    -0.246 OA
BRANCH  42  44
ATOM     44  C   UNL A   1      34.957  32.062  27.855  1.00  0.00     0.060 A 
ATOM     45  C   UNL A   1      35.095  30.689  28.096  1.00  0.00     0.016 A 
ATOM     46  C   UNL A   1      36.009  32.935  28.136  1.00  0.00     0.016 A 
ATOM     47  C   UNL A   1      36.261  30.193  28.686  1.00  0.00     0.010 A 
ATOM     48  C   UNL A   1      37.180  32.432  28.723  1.00  0.00     0.010 A 
ATOM     49  C   UNL A   1      37.295  31.066  29.049  1.00  0.00    -0.014 A 
BRANCH  49  50
ATOM     50  C   UNL A   1      38.427  30.582  29.888  1.00  0.00     0.031 A 
ATOM     51  C   UNL A   1      39.354  29.525  29.353  1.00  0.00     0.074 A 
ATOM     52  C   UNL A   1      38.643  31.076  31.121  1.00  0.00     0.049 A 
ATOM     53  N   UNL A   1      40.372  28.942  29.936  1.00  0.00    -0.248 NA
ATOM     54  C   UNL A   1      39.114  29.076  27.973  1.00  0.00     0.031 C 
ATOM     55  C   UNL A   1      37.884  32.159  31.732  1.00  0.00     0.029 A 
ATOM     56  N   UNL A   1      39.549  30.716  32.088  1.00  0.00    -0.354 N 
ATOM     57  C   UNL A   1      40.899  28.068  28.995  1.00  0.00     0.074 A 
ATOM     58  C   UNL A   1      40.061  28.163  27.818  1.00  0.00     0.031 C 
ATOM     59  C   UNL A   1      38.290  32.323  33.002  1.00  0.00     0.029 A 
ATOM     60  C   UNL A   1      39.362  31.367  33.282  1.00  0.00     0.049 A 
ATOM     61  H   UNL A   1      40.263  30.055  31.939  1.00  0.00     0.167 HD
ATOM     62  C   UNL A   1      41.996  27.278  29.092  1.00  0.00     0.037 A 
ATOM     63  C   UNL A   1      39.978  31.211  34.470  1.00  0.00     0.037 A 
ATOM     64  C   UNL A   1      42.841  27.189  30.255  1.00  0.00     0.049 A 
ATOM     65  C   UNL A   1      41.139  30.260  34.586  1.00  0.00     0.074 A 
ATOM     66  C   UNL A   1      44.007  26.460  30.420  1.00  0.00     0.029 A 
ATOM     67  N   UNL A   1      42.605  27.840  31.456  1.00  0.00    -0.354 N 
ATOM     68  N   UNL A   1      41.666  29.487  33.669  1.00  0.00    -0.248 NA
ATOM     69  C   UNL A   1      41.810  30.186  35.892  1.00  0.00     0.031 C 
ATOM     70  C   UNL A   1      44.446  26.628  31.739  1.00  0.00     0.029 A 
ATOM     71  C   UNL A   1      43.581  27.500  32.379  1.00  0.00     0.049 A 
ATOM     72  H   UNL A   1      41.854  28.452  31.628  1.00  0.00     0.167 HD
ATOM     73  C   UNL A   1      42.753  28.867  34.272  1.00  0.00     0.074 A 
ATOM     74  C   UNL A   1      42.809  29.353  35.634  1.00  0.00     0.031 C 
ATOM     75  C   UNL A   1      43.632  27.985  33.735  1.00  0.00     0.037 A 
BRANCH  62  76
ATOM     76  C   UNL A   1      42.340  26.430  27.904  1.00  0.00     0.064 A 
ATOM     77  C   UNL A   1      43.287  26.843  26.955  1.00  0.00     0.173 A 
ATOM     78  C   UNL A   1      41.741  25.174  27.731  1.00  0.00     0.173 A 
ATOM     79  F   UNL A   1      43.882  28.040  27.071  1.00  0.00    -0.203 F 
ATOM     80  C   UNL A   1      43.600  26.042  25.860  1.00  0.00     0.198 A 
ATOM     81  C   UNL A   1      42.075  24.364  26.649  1.00  0.00     0.198 A 
ATOM     82  F   UNL A   1      40.834  24.730  28.615  1.00  0.00    -0.203 F 
ATOM     83  F   UNL A   1      44.474  26.475  24.941  1.00  0.00    -0.200 F 
ATOM     84  C   UNL A   1      42.998  24.801  25.711  1.00  0.00     0.200 A 
ATOM     85  F   UNL A   1      41.501  23.160  26.513  1.00  0.00    -0.200 F 
ATOM     86  F   UNL A   1      43.302  24.029  24.658  1.00  0.00    -0.200 F 
ENDBRANCH  62  76
BRANCH  63  87
ATOM     87  C   UNL A   1      39.512  31.990  35.645  1.00  0.00     0.064 A 
ATOM     88  C   UNL A   1      40.062  33.240  35.954  1.00  0.00     0.173 A 
ATOM     89  C   UNL A   1      38.500  31.493  36.480  1.00  0.00     0.173 A 
ATOM     90  F   UNL A   1      41.043  33.746  35.194  1.00  0.00    -0.203 F 
ATOM     91  C   UNL A   1      39.627  33.960  37.065  1.00  0.00     0.198 A 
ATOM     92  C   UNL A   1      38.053  32.223  37.579  1.00  0.00     0.198 A 
ATOM     93  F   UNL A   1      37.937  30.304  36.219  1.00  0.00    -0.203 F 
ATOM     94  F   UNL A   1      40.191  35.140  37.358  1.00  0.00    -0.200 F 
ATOM     95  C   UNL A   1      38.620  33.453  37.874  1.00  0.00     0.200 A 
ATOM     96  F   UNL A   1      37.068  31.737  38.347  1.00  0.00    -0.200 F 
ATOM     97  F   UNL A   1      38.197  34.150  38.936  1.00  0.00    -0.200 F 
ENDBRANCH  63  87
BRANCH  75  98
ATOM     98  C   UNL A   1      44.754  27.507  34.612  1.00  0.00     0.064 A 
ATOM     99  C   UNL A   1      45.963  28.209  34.709  1.00  0.00     0.173 A 
ATOM    100  C   UNL A   1      44.602  26.349  35.391  1.00  0.00     0.173 A 
ATOM    101  F   UNL A   1      46.164  29.312  33.971  1.00  0.00    -0.203 F 
ATOM    102  C   UNL A   1      46.988  27.760  35.539  1.00  0.00     0.198 A 
ATOM    103  C   UNL A   1      45.618  25.918  36.240  1.00  0.00     0.198 A 
ATOM    104  F   UNL A   1      43.464  25.642  35.339  1.00  0.00    -0.203 F 
ATOM    105  F   UNL A   1      48.151  28.424  35.582  1.00  0.00    -0.200 F 
ATOM    106  C   UNL A   1      46.812  26.620  36.308  1.00  0.00     0.200 A 
ATOM    107  F   UNL A   1      45.442  24.822  36.992  1.00  0.00    -0.200 F 
ATOM    108  F   UNL A   1      47.797  26.192  37.110  1.00  0.00    -0.200 F 
ENDBRANCH  75  98
ENDBRANCH  49  50
ENDBRANCH  42  44
ENDBRANCH  41  42
ENDBRANCH  40  41
ENDBRANCH  39  40
ENDBRANCH  38  39
ENDBRANCH  37  38
ENDBRANCH   1  37
TORSDOF 22
ENDMDL
