MODEL 1
REMARK VINA RESULT:     -11.9      0.000      0.000
REMARK SMILES CC[C@@](C)(NC(=O)c1c(C)cc(C)[nH]c1=O)C(=O)OCCOCCOC(=O)c1ccc(-c2c3nc(c(-c4c(F)c(F)c(F)c(F)c4F)c4ccc([nH]4)c(-c4c(F)c(F)c(F)c(F)c4F)c4nc(c(-c5c(F)c(F)c(F)c(F)c5F)c5ccc2[nH]5)C=C4)C=C3)cc1
REMARK SMILES IDX 22 1 21 2 20 3 19 4 17 5 18 6 3 7 4 8 2 9 1 10 5 11 6 12
REMARK SMILES IDX 7 14 8 15 9 16 15 17 10 18 11 19 14 20 16 21 12 22 13 24
REMARK SMILES IDX 23 25 24 26 25 27 26 28 27 29 28 30 29 31 90 32 30 33 89 34
REMARK SMILES IDX 31 35 32 36 33 37 83 38 34 39 88 40 82 41 84 42 35 43 87 44
REMARK SMILES IDX 81 45 80 46 36 48 68 49 48 50 67 51 49 52 52 53 66 54 85 55
REMARK SMILES IDX 50 56 51 57 65 59 86 60 53 61 37 62 38 63 46 64 39 65 40 66
REMARK SMILES IDX 44 67 47 68 41 69 42 70 45 71 43 72 69 73 70 74 78 75 71 76
REMARK SMILES IDX 72 77 76 78 79 79 73 80 74 81 77 82 75 83 54 84 55 85 63 86
REMARK SMILES IDX 56 87 57 88 61 89 64 90 58 91 59 92 62 93 60 94
REMARK H PARENT 5 13 14 23 84 47 52 58
REMARK Flexibility Score: inf
ROOT
ATOM      1  O   UNL A   1      39.695  20.537  25.819  1.00  0.00    -0.374 OA
ENDROOT
BRANCH   1   2
ATOM      2  C   UNL A   1      38.950  21.728  26.168  1.00  0.00     0.202 C 
BRANCH   2   3
ATOM      3  C   UNL A   1      37.810  22.173  25.206  1.00  0.00     0.261 C 
BRANCH   3   4
ATOM      4  O   UNL A   1      36.546  22.030  25.824  1.00  0.00    -0.462 OA
BRANCH   4   5
ATOM      5  C   UNL A   1      35.692  21.142  25.298  1.00  0.00     0.331 C 
ATOM      6  O   UNL A   1      35.990  19.976  25.052  1.00  0.00    -0.249 OA
BRANCH   5   7
ATOM      7  C   UNL A   1      34.325  21.816  25.087  1.00  0.00     0.135 C 
ATOM      8  C   UNL A   1      34.275  22.465  23.696  1.00  0.00     0.047 C 
BRANCH   7   9
ATOM      9  C   UNL A   1      33.178  20.698  25.098  1.00  0.00     0.037 C 
ATOM     10  C   UNL A   1      32.461  20.389  23.776  1.00  0.00     0.007 C 
ENDBRANCH   7   9
BRANCH   7  11
ATOM     11  N   UNL A   1      34.033  22.886  26.177  1.00  0.00    -0.336 N 
ATOM     12  C   UNL A   1      32.845  23.486  26.628  1.00  0.00     0.258 C 
ATOM     13  H   UNL A   1      34.839  23.205  26.643  1.00  0.00     0.165 HD
ATOM     14  O   UNL A   1      32.480  23.110  27.752  1.00  0.00    -0.269 OA
BRANCH  12  15
ATOM     15  C   UNL A   1      32.056  24.724  25.937  1.00  0.00     0.107 A 
ATOM     16  C   UNL A   1      32.026  26.127  25.990  1.00  0.00    -0.031 A 
ATOM     17  C   UNL A   1      30.847  24.145  25.185  1.00  0.00     0.261 A 
ATOM     18  C   UNL A   1      32.638  27.345  26.769  1.00  0.00     0.045 C 
ATOM     19  C   UNL A   1      31.187  26.883  25.059  1.00  0.00     0.025 A 
ATOM     20  N   UNL A   1      29.974  25.001  24.550  1.00  0.00    -0.326 N 
ATOM     21  O   UNL A   1      30.623  22.936  25.131  1.00  0.00    -0.269 OA
ATOM     22  C   UNL A   1      30.156  26.342  24.435  1.00  0.00     0.015 A 
ATOM     23  H   UNL A   1      29.162  24.614  24.151  1.00  0.00     0.169 HD
ATOM     24  C   UNL A   1      29.261  27.185  23.596  1.00  0.00     0.064 C 
ENDBRANCH  12  15
ENDBRANCH   7  11
ENDBRANCH   5   7
ENDBRANCH   4   5
ENDBRANCH   3   4
ENDBRANCH   2   3
ENDBRANCH   1   2
BRANCH   1  25
ATOM     25  C   UNL A   1      40.944  20.196  26.436  1.00  0.00     0.202 C 
BRANCH  25  26
ATOM     26  C   UNL A   1      42.360  21.046  26.130  1.00  0.00     0.261 C 
BRANCH  26  27
ATOM     27  O   UNL A   1      42.393  22.182  25.118  1.00  0.00    -0.460 OA
BRANCH  27  28
ATOM     28  C   UNL A   1      43.134  23.356  25.163  1.00  0.00     0.338 C 
ATOM     29  O   UNL A   1      44.072  23.587  24.411  1.00  0.00    -0.246 OA
BRANCH  28  30
ATOM     30  C   UNL A   1      42.617  24.451  26.146  1.00  0.00     0.060 A 
ATOM     31  C   UNL A   1      43.164  25.746  26.195  1.00  0.00     0.016 A 
ATOM     32  C   UNL A   1      41.703  24.184  27.171  1.00  0.00     0.016 A 
ATOM     33  C   UNL A   1      42.692  26.788  27.035  1.00  0.00     0.010 A 
ATOM     34  C   UNL A   1      41.285  25.203  28.097  1.00  0.00     0.010 A 
ATOM     35  C   UNL A   1      41.743  26.534  28.020  1.00  0.00    -0.014 A 
BRANCH  35  36
ATOM     36  C   UNL A   1      41.404  27.587  29.049  1.00  0.00     0.031 A 
ATOM     37  C   UNL A   1      42.258  27.706  30.295  1.00  0.00     0.074 A 
ATOM     38  C   UNL A   1      40.416  28.500  28.895  1.00  0.00     0.049 A 
ATOM     39  N   UNL A   1      42.047  28.375  31.405  1.00  0.00    -0.248 NA
ATOM     40  C   UNL A   1      43.541  26.989  30.269  1.00  0.00     0.031 C 
ATOM     41  C   UNL A   1      39.616  28.691  27.689  1.00  0.00     0.029 A 
ATOM     42  N   UNL A   1      39.915  29.449  29.773  1.00  0.00    -0.354 N 
ATOM     43  C   UNL A   1      43.147  28.125  32.218  1.00  0.00     0.074 A 
ATOM     44  C   UNL A   1      44.040  27.273  31.465  1.00  0.00     0.031 C 
ATOM     45  C   UNL A   1      38.707  29.661  27.912  1.00  0.00     0.029 A 
ATOM     46  C   UNL A   1      38.810  30.125  29.298  1.00  0.00     0.049 A 
ATOM     47  H   UNL A   1      40.312  29.624  30.656  1.00  0.00     0.167 HD
ATOM     48  C   UNL A   1      43.388  28.548  33.485  1.00  0.00     0.037 A 
ATOM     49  C   UNL A   1      37.951  30.970  29.915  1.00  0.00     0.037 A 
ATOM     50  C   UNL A   1      42.511  29.402  34.246  1.00  0.00     0.049 A 
ATOM     51  C   UNL A   1      38.141  31.303  31.382  1.00  0.00     0.074 A 
ATOM     52  C   UNL A   1      42.640  29.822  35.560  1.00  0.00     0.029 A 
ATOM     53  N   UNL A   1      41.347  29.972  33.759  1.00  0.00    -0.354 N 
ATOM     54  N   UNL A   1      39.119  30.968  32.189  1.00  0.00    -0.248 NA
ATOM     55  C   UNL A   1      37.092  32.109  32.035  1.00  0.00     0.031 C 
ATOM     56  C   UNL A   1      41.529  30.605  35.882  1.00  0.00     0.029 A 
ATOM     57  C   UNL A   1      40.736  30.722  34.752  1.00  0.00     0.049 A 
ATOM     58  H   UNL A   1      41.003  29.862  32.843  1.00  0.00     0.167 HD
ATOM     59  C   UNL A   1      38.815  31.532  33.423  1.00  0.00     0.074 A 
ATOM     60  C   UNL A   1      37.571  32.251  33.263  1.00  0.00     0.031 C 
ATOM     61  C   UNL A   1      39.506  31.452  34.588  1.00  0.00     0.037 A 
BRANCH  48  62
ATOM     62  C   UNL A   1      44.623  28.038  34.172  1.00  0.00     0.064 A 
ATOM     63  C   UNL A   1      45.842  28.727  34.118  1.00  0.00     0.173 A 
ATOM     64  C   UNL A   1      44.563  26.870  34.950  1.00  0.00     0.173 A 
ATOM     65  F   UNL A   1      45.957  29.841  33.381  1.00  0.00    -0.203 F 
ATOM     66  C   UNL A   1      46.960  28.256  34.806  1.00  0.00     0.198 A 
ATOM     67  C   UNL A   1      45.674  26.419  35.658  1.00  0.00     0.198 A 
ATOM     68  F   UNL A   1      43.417  26.178  35.044  1.00  0.00    -0.203 F 
ATOM     69  F   UNL A   1      48.126  28.912  34.713  1.00  0.00    -0.200 F 
ATOM     70  C   UNL A   1      46.873  27.109  35.581  1.00  0.00     0.200 A 
ATOM     71  F   UNL A   1      45.581  25.319  36.418  1.00  0.00    -0.200 F 
ATOM     72  F   UNL A   1      47.946  26.667  36.251  1.00  0.00    -0.200 F 
ENDBRANCH  48  62
BRANCH  49  73
ATOM     73  C   UNL A   1      36.763  31.517  29.187  1.00  0.00     0.064 A 
ATOM     74  C   UNL A   1      36.668  32.877  28.852  1.00  0.00     0.173 A 
ATOM     75  C   UNL A   1      35.665  30.701  28.865  1.00  0.00     0.173 A 
ATOM     76  F   UNL A   1      37.657  33.720  29.184  1.00  0.00    -0.203 F 
ATOM     77  C   UNL A   1      35.531  33.394  28.225  1.00  0.00     0.198 A 
ATOM     78  C   UNL A   1      34.544  31.212  28.209  1.00  0.00     0.198 A 
ATOM     79  F   UNL A   1      35.674  29.403  29.197  1.00  0.00    -0.203 F 
ATOM     80  F   UNL A   1      35.450  34.707  27.966  1.00  0.00    -0.200 F 
ATOM     81  C   UNL A   1      34.477  32.559  27.894  1.00  0.00     0.200 A 
ATOM     82  F   UNL A   1      33.526  30.400  27.895  1.00  0.00    -0.200 F 
ATOM     83  F   UNL A   1      33.388  33.055  27.288  1.00  0.00    -0.200 F 
ENDBRANCH  49  73
BRANCH  61  84
ATOM     84  C   UNL A   1      38.965  32.175  35.790  1.00  0.00     0.064 A 
ATOM     85  C   UNL A   1      38.188  31.517  36.755  1.00  0.00     0.173 A 
ATOM     86  C   UNL A   1      39.312  33.515  36.031  1.00  0.00     0.173 A 
ATOM     87  F   UNL A   1      37.823  30.240  36.571  1.00  0.00    -0.203 F 
ATOM     88  C   UNL A   1      37.770  32.176  37.910  1.00  0.00     0.198 A 
ATOM     89  C   UNL A   1      38.915  34.161  37.200  1.00  0.00     0.198 A 
ATOM     90  F   UNL A   1      40.062  34.188  35.147  1.00  0.00    -0.203 F 
ATOM     91  F   UNL A   1      37.007  31.535  38.806  1.00  0.00    -0.200 F 
ATOM     92  C   UNL A   1      38.144  33.492  38.137  1.00  0.00     0.200 A 
ATOM     93  F   UNL A   1      39.294  35.427  37.425  1.00  0.00    -0.200 F 
ATOM     94  F   UNL A   1      37.760  34.116  39.259  1.00  0.00    -0.200 F 
ENDBRANCH  61  84
ENDBRANCH  35  36
ENDBRANCH  28  30
ENDBRANCH  27  28
ENDBRANCH  26  27
ENDBRANCH  25  26
ENDBRANCH   1  25
TORSDOF 17
ENDMDL
MODEL 2
REMARK VINA RESULT:     -11.8      2.829      7.643
REMARK SMILES CC[C@@](C)(NC(=O)c1c(C)cc(C)[nH]c1=O)C(=O)OCCOCCOC(=O)c1ccc(-c2c3nc(c(-c4c(F)c(F)c(F)c(F)c4F)c4ccc([nH]4)c(-c4c(F)c(F)c(F)c(F)c4F)c4nc(c(-c5c(F)c(F)c(F)c(F)c5F)c5ccc2[nH]5)C=C4)C=C3)cc1
REMARK SMILES IDX 22 1 21 2 20 3 19 4 17 5 18 6 3 7 4 8 2 9 1 10 5 11 6 12
REMARK SMILES IDX 7 14 8 15 9 16 15 17 10 18 11 19 14 20 16 21 12 22 13 24
REMARK SMILES IDX 23 25 24 26 25 27 26 28 27 29 28 30 29 31 90 32 30 33 89 34
REMARK SMILES IDX 31 35 32 36 33 37 83 38 34 39 88 40 82 41 84 42 35 43 87 44
REMARK SMILES IDX 81 45 80 46 36 48 68 49 48 50 67 51 49 52 52 53 66 54 85 55
REMARK SMILES IDX 50 56 51 57 65 59 86 60 53 61 37 62 38 63 46 64 39 65 40 66
REMARK SMILES IDX 44 67 47 68 41 69 42 70 45 71 43 72 69 73 70 74 78 75 71 76
REMARK SMILES IDX 72 77 76 78 79 79 73 80 74 81 77 82 75 83 54 84 55 85 63 86
REMARK SMILES IDX 56 87 57 88 61 89 64 90 58 91 59 92 62 93 60 94
REMARK H PARENT 5 13 14 23 84 47 52 58
REMARK Flexibility Score: inf
ROOT
ATOM      1  O   UNL A   1      31.041  26.224  26.878  1.00  0.00    -0.374 OA
ENDROOT
BRANCH   1   2
ATOM      2  C   UNL A   1      32.025  25.253  26.449  1.00  0.00     0.202 C 
BRANCH   2   3
ATOM      3  C   UNL A   1      31.789  23.765  26.842  1.00  0.00     0.261 C 
BRANCH   3   4
ATOM      4  O   UNL A   1      32.503  22.898  25.982  1.00  0.00    -0.462 OA
BRANCH   4   5
ATOM      5  C   UNL A   1      33.837  22.864  26.100  1.00  0.00     0.331 C 
ATOM      6  O   UNL A   1      34.421  22.743  27.174  1.00  0.00    -0.249 OA
BRANCH   5   7
ATOM      7  C   UNL A   1      34.472  22.979  24.704  1.00  0.00     0.135 C 
ATOM      8  C   UNL A   1      35.302  24.269  24.616  1.00  0.00     0.047 C 
BRANCH   7   9
ATOM      9  C   UNL A   1      35.503  21.772  24.492  1.00  0.00     0.037 C 
ATOM     10  C   UNL A   1      36.946  22.117  24.097  1.00  0.00     0.007 C 
ENDBRANCH   7   9
BRANCH   7  11
ATOM     11  N   UNL A   1      33.400  22.966  23.577  1.00  0.00    -0.336 N 
ATOM     12  C   UNL A   1      33.122  23.844  22.517  1.00  0.00     0.258 C 
ATOM     13  H   UNL A   1      32.799  22.188  23.614  1.00  0.00     0.165 HD
ATOM     14  O   UNL A   1      33.435  23.409  21.399  1.00  0.00    -0.269 OA
BRANCH  12  15
ATOM     15  C   UNL A   1      32.274  25.226  22.595  1.00  0.00     0.107 A 
ATOM     16  C   UNL A   1      32.486  26.610  22.484  1.00  0.00    -0.031 A 
ATOM     17  C   UNL A   1      30.896  24.895  23.190  1.00  0.00     0.261 A 
ATOM     18  C   UNL A   1      33.629  27.672  22.307  1.00  0.00     0.045 C 
ATOM     19  C   UNL A   1      31.353  27.535  22.519  1.00  0.00     0.025 A 
ATOM     20  N   UNL A   1      29.996  25.914  23.414  1.00  0.00    -0.326 N 
ATOM     21  O   UNL A   1      30.563  23.747  23.482  1.00  0.00    -0.269 OA
ATOM     22  C   UNL A   1      30.185  27.206  23.042  1.00  0.00     0.015 A 
ATOM     23  H   UNL A   1      29.156  25.689  23.876  1.00  0.00     0.169 HD
ATOM     24  C   UNL A   1      29.106  28.224  23.165  1.00  0.00     0.064 C 
ENDBRANCH  12  15
ENDBRANCH   7  11
ENDBRANCH   5   7
ENDBRANCH   4   5
ENDBRANCH   3   4
ENDBRANCH   2   3
ENDBRANCH   1   2
BRANCH   1  25
ATOM     25  C   UNL A   1      31.222  27.636  26.708  1.00  0.00     0.202 C 
BRANCH  25  26
ATOM     26  C   UNL A   1      32.519  28.283  25.858  1.00  0.00     0.261 C 
BRANCH  26  27
ATOM     27  O   UNL A   1      32.659  29.786  25.661  1.00  0.00    -0.460 OA
BRANCH  27  28
ATOM     28  C   UNL A   1      32.943  30.758  26.611  1.00  0.00     0.338 C 
ATOM     29  O   UNL A   1      32.139  31.616  26.953  1.00  0.00    -0.246 OA
BRANCH  28  30
ATOM     30  C   UNL A   1      34.315  30.620  27.339  1.00  0.00     0.060 A 
ATOM     31  C   UNL A   1      34.795  29.391  27.827  1.00  0.00     0.016 A 
ATOM     32  C   UNL A   1      35.087  31.722  27.724  1.00  0.00     0.016 A 
ATOM     33  C   UNL A   1      36.058  29.209  28.448  1.00  0.00     0.010 A 
ATOM     34  C   UNL A   1      36.324  31.565  28.442  1.00  0.00     0.010 A 
ATOM     35  C   UNL A   1      36.850  30.303  28.782  1.00  0.00    -0.014 A 
BRANCH  35  36
ATOM     36  C   UNL A   1      38.087  30.123  29.633  1.00  0.00     0.031 A 
ATOM     37  C   UNL A   1      39.222  29.264  29.115  1.00  0.00     0.074 A 
ATOM     38  C   UNL A   1      38.285  30.751  30.816  1.00  0.00     0.049 A 
ATOM     39  N   UNL A   1      40.278  28.792  29.736  1.00  0.00    -0.248 NA
ATOM     40  C   UNL A   1      39.168  28.915  27.688  1.00  0.00     0.031 C 
ATOM     41  C   UNL A   1      37.417  31.773  31.392  1.00  0.00     0.029 A 
ATOM     42  N   UNL A   1      39.298  30.618  31.753  1.00  0.00    -0.354 N 
ATOM     43  C   UNL A   1      40.985  28.059  28.789  1.00  0.00     0.074 A 
ATOM     44  C   UNL A   1      40.260  28.176  27.543  1.00  0.00     0.031 C 
ATOM     45  C   UNL A   1      37.908  32.145  32.591  1.00  0.00     0.029 A 
ATOM     46  C   UNL A   1      39.094  31.346  32.907  1.00  0.00     0.049 A 
ATOM     47  H   UNL A   1      40.091  30.053  31.609  1.00  0.00     0.167 HD
ATOM     48  C   UNL A   1      42.124  27.336  28.942  1.00  0.00     0.037 A 
ATOM     49  C   UNL A   1      39.746  31.333  34.094  1.00  0.00     0.037 A 
ATOM     50  C   UNL A   1      42.859  27.215  30.174  1.00  0.00     0.049 A 
ATOM     51  C   UNL A   1      40.919  30.395  34.302  1.00  0.00     0.074 A 
ATOM     52  C   UNL A   1      43.982  26.448  30.439  1.00  0.00     0.029 A 
ATOM     53  N   UNL A   1      42.551  27.885  31.347  1.00  0.00    -0.354 N 
ATOM     54  N   UNL A   1      41.516  29.609  33.439  1.00  0.00    -0.248 NA
ATOM     55  C   UNL A   1      41.493  30.320  35.659  1.00  0.00     0.031 C 
ATOM     56  C   UNL A   1      44.322  26.615  31.784  1.00  0.00     0.029 A 
ATOM     57  C   UNL A   1      43.447  27.532  32.344  1.00  0.00     0.049 A 
ATOM     58  H   UNL A   1      41.805  28.518  31.457  1.00  0.00     0.167 HD
ATOM     59  C   UNL A   1      42.535  28.968  34.136  1.00  0.00     0.074 A 
ATOM     60  C   UNL A   1      42.496  29.468  35.492  1.00  0.00     0.031 C 
ATOM     61  C   UNL A   1      43.419  28.042  33.689  1.00  0.00     0.037 A 
BRANCH  48  62
ATOM     62  C   UNL A   1      42.619  26.551  27.761  1.00  0.00     0.064 A 
ATOM     63  C   UNL A   1      42.121  25.278  27.451  1.00  0.00     0.173 A 
ATOM     64  C   UNL A   1      43.566  27.115  26.888  1.00  0.00     0.173 A 
ATOM     65  F   UNL A   1      41.224  24.689  28.257  1.00  0.00    -0.203 F 
ATOM     66  C   UNL A   1      42.563  24.592  26.321  1.00  0.00     0.198 A 
ATOM     67  C   UNL A   1      43.984  26.439  25.746  1.00  0.00     0.198 A 
ATOM     68  F   UNL A   1      44.067  28.335  27.133  1.00  0.00    -0.203 F 
ATOM     69  F   UNL A   1      42.098  23.362  26.062  1.00  0.00    -0.200 F 
ATOM     70  C   UNL A   1      43.486  25.176  25.465  1.00  0.00     0.200 A 
ATOM     71  F   UNL A   1      44.863  27.012  24.913  1.00  0.00    -0.200 F 
ATOM     72  F   UNL A   1      43.898  24.519  24.372  1.00  0.00    -0.200 F 
ENDBRANCH  48  62
BRANCH  49  73
ATOM     73  C   UNL A   1      39.270  32.176  35.235  1.00  0.00     0.064 A 
ATOM     74  C   UNL A   1      39.697  33.504  35.397  1.00  0.00     0.173 A 
ATOM     75  C   UNL A   1      38.424  31.651  36.227  1.00  0.00     0.173 A 
ATOM     76  F   UNL A   1      40.552  34.045  34.516  1.00  0.00    -0.203 F 
ATOM     77  C   UNL A   1      39.297  34.268  36.496  1.00  0.00     0.198 A 
ATOM     78  C   UNL A   1      37.997  32.426  37.306  1.00  0.00     0.198 A 
ATOM     79  F   UNL A   1      38.015  30.377  36.155  1.00  0.00    -0.203 F 
ATOM     80  F   UNL A   1      39.764  35.515  36.649  1.00  0.00    -0.200 F 
ATOM     81  C   UNL A   1      38.438  33.733  37.442  1.00  0.00     0.200 A 
ATOM     82  F   UNL A   1      37.171  31.901  38.220  1.00  0.00    -0.200 F 
ATOM     83  F   UNL A   1      38.050  34.469  38.494  1.00  0.00    -0.200 F 
ENDBRANCH  49  73
BRANCH  61  84
ATOM     84  C   UNL A   1      44.445  27.511  34.652  1.00  0.00     0.064 A 
ATOM     85  C   UNL A   1      44.235  26.324  35.369  1.00  0.00     0.173 A 
ATOM     86  C   UNL A   1      45.692  28.144  34.783  1.00  0.00     0.173 A 
ATOM     87  F   UNL A   1      43.060  25.684  35.286  1.00  0.00    -0.203 F 
ATOM     88  C   UNL A   1      45.232  25.796  36.188  1.00  0.00     0.198 A 
ATOM     89  C   UNL A   1      46.695  27.597  35.580  1.00  0.00     0.198 A 
ATOM     90  F   UNL A   1      45.950  29.275  34.111  1.00  0.00    -0.203 F 
ATOM     91  F   UNL A   1      45.000  24.674  36.884  1.00  0.00    -0.200 F 
ATOM     92  C   UNL A   1      46.464  26.425  36.284  1.00  0.00     0.200 A 
ATOM     93  F   UNL A   1      47.892  28.198  35.656  1.00  0.00    -0.200 F 
ATOM     94  F   UNL A   1      47.428  25.903  37.053  1.00  0.00    -0.200 F 
ENDBRANCH  61  84
ENDBRANCH  35  36
ENDBRANCH  28  30
ENDBRANCH  27  28
ENDBRANCH  26  27
ENDBRANCH  25  26
ENDBRANCH   1  25
TORSDOF 17
ENDMDL
MODEL 3
REMARK VINA RESULT:     -11.7      4.606      8.915
REMARK SMILES CC[C@@](C)(NC(=O)c1c(C)cc(C)[nH]c1=O)C(=O)OCCOCCOC(=O)c1ccc(-c2c3nc(c(-c4c(F)c(F)c(F)c(F)c4F)c4ccc([nH]4)c(-c4c(F)c(F)c(F)c(F)c4F)c4nc(c(-c5c(F)c(F)c(F)c(F)c5F)c5ccc2[nH]5)C=C4)C=C3)cc1
REMARK SMILES IDX 22 1 21 2 20 3 19 4 17 5 18 6 3 7 4 8 2 9 1 10 5 11 6 12
REMARK SMILES IDX 7 14 8 15 9 16 15 17 10 18 11 19 14 20 16 21 12 22 13 24
REMARK SMILES IDX 23 25 24 26 25 27 26 28 27 29 28 30 29 31 90 32 30 33 89 34
REMARK SMILES IDX 31 35 32 36 33 37 83 38 34 39 88 40 82 41 84 42 35 43 87 44
REMARK SMILES IDX 81 45 80 46 36 48 68 49 48 50 67 51 49 52 52 53 66 54 85 55
REMARK SMILES IDX 50 56 51 57 65 59 86 60 53 61 37 62 38 63 46 64 39 65 40 66
REMARK SMILES IDX 44 67 47 68 41 69 42 70 45 71 43 72 69 73 70 74 78 75 71 76
REMARK SMILES IDX 72 77 76 78 79 79 73 80 74 81 77 82 75 83 54 84 55 85 63 86
REMARK SMILES IDX 56 87 57 88 61 89 64 90 58 91 59 92 62 93 60 94
REMARK H PARENT 5 13 14 23 84 47 52 58
REMARK Flexibility Score: inf
ROOT
ATOM      1  O   UNL A   1      33.595  21.719  23.981  1.00  0.00    -0.374 OA
ENDROOT
BRANCH   1   2
ATOM      2  C   UNL A   1      34.245  22.873  23.399  1.00  0.00     0.202 C 
BRANCH   2   3
ATOM      3  C   UNL A   1      33.390  23.796  22.482  1.00  0.00     0.261 C 
BRANCH   3   4
ATOM      4  O   UNL A   1      33.124  25.030  23.118  1.00  0.00    -0.462 OA
BRANCH   4   5
ATOM      5  C   UNL A   1      33.382  26.152  22.433  1.00  0.00     0.331 C 
ATOM      6  O   UNL A   1      33.688  26.167  21.244  1.00  0.00    -0.249 OA
BRANCH   5   7
ATOM      7  C   UNL A   1      33.213  27.365  23.364  1.00  0.00     0.135 C 
ATOM      8  C   UNL A   1      33.889  28.596  22.742  1.00  0.00     0.047 C 
BRANCH   7   9
ATOM      9  C   UNL A   1      31.657  27.725  23.484  1.00  0.00     0.037 C 
ATOM     10  C   UNL A   1      31.154  28.993  22.779  1.00  0.00     0.007 C 
ENDBRANCH   7   9
BRANCH   7  11
ATOM     11  N   UNL A   1      33.805  27.097  24.777  1.00  0.00    -0.336 N 
ATOM     12  C   UNL A   1      33.490  27.596  26.052  1.00  0.00     0.258 C 
ATOM     13  H   UNL A   1      34.547  26.451  24.778  1.00  0.00     0.165 HD
ATOM     14  O   UNL A   1      32.924  26.779  26.792  1.00  0.00    -0.269 OA
BRANCH  12  15
ATOM     15  C   UNL A   1      33.965  29.012  26.688  1.00  0.00     0.107 A 
ATOM     16  C   UNL A   1      35.067  29.554  27.368  1.00  0.00    -0.031 A 
ATOM     17  C   UNL A   1      32.735  29.933  26.746  1.00  0.00     0.261 A 
ATOM     18  C   UNL A   1      36.447  29.151  28.000  1.00  0.00     0.045 C 
ATOM     19  C   UNL A   1      35.115  30.984  27.674  1.00  0.00     0.025 A 
ATOM     20  N   UNL A   1      32.858  31.188  27.301  1.00  0.00    -0.326 N 
ATOM     21  O   UNL A   1      31.634  29.589  26.317  1.00  0.00    -0.269 OA
ATOM     22  C   UNL A   1      34.030  31.738  27.712  1.00  0.00     0.015 A 
ATOM     23  H   UNL A   1      32.039  31.724  27.406  1.00  0.00     0.169 HD
ATOM     24  C   UNL A   1      34.118  33.158  28.150  1.00  0.00     0.064 C 
ENDBRANCH  12  15
ENDBRANCH   7  11
ENDBRANCH   5   7
ENDBRANCH   4   5
ENDBRANCH   3   4
ENDBRANCH   2   3
ENDBRANCH   1   2
BRANCH   1  25
ATOM     25  C   UNL A   1      34.224  20.892  24.970  1.00  0.00     0.202 C 
BRANCH  25  26
ATOM     26  C   UNL A   1      35.499  21.436  25.920  1.00  0.00     0.261 C 
BRANCH  26  27
ATOM     27  O   UNL A   1      36.838  21.809  25.300  1.00  0.00    -0.460 OA
BRANCH  27  28
ATOM     28  C   UNL A   1      38.114  21.482  25.740  1.00  0.00     0.338 C 
ATOM     29  O   UNL A   1      38.609  20.371  25.598  1.00  0.00    -0.246 OA
BRANCH  28  30
ATOM     30  C   UNL A   1      38.959  22.659  26.316  1.00  0.00     0.060 A 
ATOM     31  C   UNL A   1      38.673  24.008  26.034  1.00  0.00     0.016 A 
ATOM     32  C   UNL A   1      40.164  22.468  27.000  1.00  0.00     0.016 A 
ATOM     33  C   UNL A   1      39.381  25.112  26.577  1.00  0.00     0.010 A 
ATOM     34  C   UNL A   1      40.950  23.577  27.473  1.00  0.00     0.010 A 
ATOM     35  C   UNL A   1      40.552  24.918  27.304  1.00  0.00    -0.014 A 
BRANCH  35  36
ATOM     36  C   UNL A   1      41.417  26.094  27.693  1.00  0.00     0.031 A 
ATOM     37  C   UNL A   1      40.839  27.174  28.585  1.00  0.00     0.074 A 
ATOM     38  C   UNL A   1      42.722  26.214  27.354  1.00  0.00     0.049 A 
ATOM     39  N   UNL A   1      41.302  28.367  28.879  1.00  0.00    -0.248 NA
ATOM     40  C   UNL A   1      39.575  26.846  29.259  1.00  0.00     0.031 C 
ATOM     41  C   UNL A   1      43.522  25.196  26.680  1.00  0.00     0.029 A 
ATOM     42  N   UNL A   1      43.613  27.260  27.538  1.00  0.00    -0.354 N 
ATOM     43  C   UNL A   1      40.368  28.941  29.735  1.00  0.00     0.074 A 
ATOM     44  C   UNL A   1      39.329  27.956  29.941  1.00  0.00     0.031 C 
ATOM     45  C   UNL A   1      44.765  25.676  26.475  1.00  0.00     0.029 A 
ATOM     46  C   UNL A   1      44.842  27.062  26.943  1.00  0.00     0.049 A 
ATOM     47  H   UNL A   1      43.388  28.073  28.047  1.00  0.00     0.167 HD
ATOM     48  C   UNL A   1      40.361  30.182  30.284  1.00  0.00     0.037 A 
ATOM     49  C   UNL A   1      45.882  27.907  26.747  1.00  0.00     0.037 A 
ATOM     50  C   UNL A   1      41.391  31.170  30.092  1.00  0.00     0.049 A 
ATOM     51  C   UNL A   1      45.790  29.343  27.224  1.00  0.00     0.074 A 
ATOM     52  C   UNL A   1      41.432  32.477  30.551  1.00  0.00     0.029 A 
ATOM     53  N   UNL A   1      42.566  30.960  29.389  1.00  0.00    -0.354 N 
ATOM     54  N   UNL A   1      44.850  29.923  27.931  1.00  0.00    -0.248 NA
ATOM     55  C   UNL A   1      46.891  30.252  26.852  1.00  0.00     0.031 C 
ATOM     56  C   UNL A   1      42.607  33.072  30.085  1.00  0.00     0.029 A 
ATOM     57  C   UNL A   1      43.327  32.119  29.383  1.00  0.00     0.049 A 
ATOM     58  H   UNL A   1      42.822  30.114  28.957  1.00  0.00     0.167 HD
ATOM     59  C   UNL A   1      45.252  31.244  28.102  1.00  0.00     0.074 A 
ATOM     60  C   UNL A   1      46.532  31.384  27.444  1.00  0.00     0.031 C 
ATOM     61  C   UNL A   1      44.609  32.253  28.743  1.00  0.00     0.037 A 
BRANCH  48  62
ATOM     62  C   UNL A   1      39.163  30.581  31.098  1.00  0.00     0.064 A 
ATOM     63  C   UNL A   1      39.070  30.308  32.470  1.00  0.00     0.173 A 
ATOM     64  C   UNL A   1      38.118  31.308  30.502  1.00  0.00     0.173 A 
ATOM     65  F   UNL A   1      40.034  29.608  33.086  1.00  0.00    -0.203 F 
ATOM     66  C   UNL A   1      37.968  30.733  33.211  1.00  0.00     0.198 A 
ATOM     67  C   UNL A   1      37.034  31.755  31.251  1.00  0.00     0.198 A 
ATOM     68  F   UNL A   1      38.162  31.605  29.194  1.00  0.00    -0.203 F 
ATOM     69  F   UNL A   1      37.884  30.431  34.514  1.00  0.00    -0.200 F 
ATOM     70  C   UNL A   1      36.957  31.463  32.604  1.00  0.00     0.200 A 
ATOM     71  F   UNL A   1      36.066  32.474  30.665  1.00  0.00    -0.200 F 
ATOM     72  F   UNL A   1      35.906  31.882  33.323  1.00  0.00    -0.200 F 
ENDBRANCH  48  62
BRANCH  49  73
ATOM     73  C   UNL A   1      47.094  27.463  25.988  1.00  0.00     0.064 A 
ATOM     74  C   UNL A   1      48.222  26.944  26.643  1.00  0.00     0.173 A 
ATOM     75  C   UNL A   1      47.173  27.606  24.593  1.00  0.00     0.173 A 
ATOM     76  F   UNL A   1      48.230  26.838  27.981  1.00  0.00    -0.203 F 
ATOM     77  C   UNL A   1      49.373  26.586  25.937  1.00  0.00     0.198 A 
ATOM     78  C   UNL A   1      48.311  27.216  23.884  1.00  0.00     0.198 A 
ATOM     79  F   UNL A   1      46.148  28.135  23.913  1.00  0.00    -0.203 F 
ATOM     80  F   UNL A   1      50.452  26.144  26.597  1.00  0.00    -0.200 F 
ATOM     81  C   UNL A   1      49.412  26.711  24.558  1.00  0.00     0.200 A 
ATOM     82  F   UNL A   1      48.344  27.343  22.551  1.00  0.00    -0.200 F 
ATOM     83  F   UNL A   1      50.515  26.362  23.879  1.00  0.00    -0.200 F 
ENDBRANCH  49  73
BRANCH  61  84
ATOM     84  C   UNL A   1      45.274  33.600  28.799  1.00  0.00     0.064 A 
ATOM     85  C   UNL A   1      45.021  34.585  27.833  1.00  0.00     0.173 A 
ATOM     86  C   UNL A   1      46.093  33.945  29.887  1.00  0.00     0.173 A 
ATOM     87  F   UNL A   1      44.252  34.307  26.770  1.00  0.00    -0.203 F 
ATOM     88  C   UNL A   1      45.572  35.861  27.949  1.00  0.00     0.198 A 
ATOM     89  C   UNL A   1      46.619  35.229  30.013  1.00  0.00     0.198 A 
ATOM     90  F   UNL A   1      46.358  33.045  30.846  1.00  0.00    -0.203 F 
ATOM     91  F   UNL A   1      45.339  36.778  27.000  1.00  0.00    -0.200 F 
ATOM     92  C   UNL A   1      46.360  36.185  29.043  1.00  0.00     0.200 A 
ATOM     93  F   UNL A   1      47.364  35.544  31.082  1.00  0.00    -0.200 F 
ATOM     94  F   UNL A   1      46.869  37.418  29.163  1.00  0.00    -0.200 F 
ENDBRANCH  61  84
ENDBRANCH  35  36
ENDBRANCH  28  30
ENDBRANCH  27  28
ENDBRANCH  26  27
ENDBRANCH  25  26
ENDBRANCH   1  25
TORSDOF 17
ENDMDL
