MODEL 1
REMARK VINA RESULT:     -11.0      0.000      0.000
REMARK SMILES CC(C)[C@@](C)(CC(=O)N[C@H]1CCCC1(C)C)C(=O)OCCOCCOC(=O)c1ccc(-c2c3nc(c(-c4c(F)c(F)c(F)c(F)c4F)c4ccc([nH]4)c(-c4c(F)c(F)c(F)c(F)c4F)c4nc(c(-c5c(F)c(F)c(F)c(F)c5F)c5ccc2[nH]5)C=C4)C=C3)cc1
REMARK SMILES IDX 21 1 20 2 19 3 17 4 18 5 4 6 5 7 2 8 1 9 3 10 6 11 7 12 8 13
REMARK SMILES IDX 9 14 10 16 11 17 14 18 12 19 13 20 15 21 16 22 22 23 23 24
REMARK SMILES IDX 24 25 25 26 26 27 27 28 28 29 29 30 90 31 30 32 89 33 31 34
REMARK SMILES IDX 32 35 33 36 83 37 34 38 88 39 82 40 84 41 35 42 87 43 81 44
REMARK SMILES IDX 80 45 36 47 68 48 48 49 67 50 49 51 52 52 66 53 85 54 50 55
REMARK SMILES IDX 51 56 65 58 86 59 53 60 37 61 38 62 46 63 39 64 40 65 44 66
REMARK SMILES IDX 47 67 41 68 42 69 45 70 43 71 69 72 70 73 78 74 71 75 72 76
REMARK SMILES IDX 76 77 79 78 73 79 74 80 77 81 75 82 54 83 55 84 63 85 56 86
REMARK SMILES IDX 57 87 61 88 64 89 58 90 59 91 62 92 60 93
REMARK H PARENT 9 15 84 46 52 57
REMARK Flexibility Score: inf
ROOT
ATOM      1  C   UNL A   1      32.750  29.434  25.915  1.00  0.00     0.202 C 
ENDROOT
BRANCH   1   2
ATOM      2  C   UNL A   1      33.542  28.215  26.409  1.00  0.00     0.261 C 
BRANCH   2   3
ATOM      3  O   UNL A   1      32.943  26.936  26.122  1.00  0.00    -0.463 OA
BRANCH   3   4
ATOM      4  C   UNL A   1      32.892  26.644  24.799  1.00  0.00     0.312 C 
ATOM      5  O   UNL A   1      33.791  26.936  24.013  1.00  0.00    -0.252 OA
BRANCH   4   6
ATOM      6  C   UNL A   1      31.591  25.985  24.312  1.00  0.00     0.076 C 
ATOM      7  C   UNL A   1      31.062  25.261  25.589  1.00  0.00     0.024 C 
BRANCH   6   8
ATOM      8  C   UNL A   1      30.585  27.118  23.890  1.00  0.00     0.000 C 
ATOM      9  C   UNL A   1      30.843  27.821  22.544  1.00  0.00     0.008 C 
ATOM     10  C   UNL A   1      29.122  26.651  23.883  1.00  0.00     0.008 C 
ENDBRANCH   6   8
BRANCH   6  11
ATOM     11  C   UNL A   1      31.685  24.819  23.268  1.00  0.00     0.118 C 
BRANCH  11  12
ATOM     12  C   UNL A   1      32.953  24.219  22.669  1.00  0.00     0.221 C 
ATOM     13  O   UNL A   1      33.337  24.568  21.550  1.00  0.00    -0.275 OA
ATOM     14  N   UNL A   1      33.791  23.403  23.371  1.00  0.00    -0.353 N 
ATOM     15  H   UNL A   1      34.668  23.260  22.948  1.00  0.00     0.163 HD
BRANCH  14  16
ATOM     16  C   UNL A   1      33.612  22.710  24.638  1.00  0.00     0.087 C 
ATOM     17  C   UNL A   1      33.438  21.200  24.389  1.00  0.00     0.025 C 
ATOM     18  C   UNL A   1      34.772  22.814  25.650  1.00  0.00    -0.015 C 
ATOM     19  C   UNL A   1      34.727  20.521  24.841  1.00  0.00     0.003 C 
ATOM     20  C   UNL A   1      35.676  21.637  25.262  1.00  0.00     0.008 C 
ATOM     21  C   UNL A   1      35.531  24.140  25.608  1.00  0.00     0.013 C 
ATOM     22  C   UNL A   1      34.205  22.621  27.076  1.00  0.00     0.013 C 
ENDBRANCH  14  16
ENDBRANCH  11  12
ENDBRANCH   6  11
ENDBRANCH   4   6
ENDBRANCH   3   4
ENDBRANCH   2   3
ENDBRANCH   1   2
BRANCH   1  23
ATOM     23  O   UNL A   1      32.181  30.304  26.886  1.00  0.00    -0.374 OA
BRANCH  23  24
ATOM     24  C   UNL A   1      31.446  31.429  26.395  1.00  0.00     0.202 C 
BRANCH  24  25
ATOM     25  C   UNL A   1      31.727  32.785  27.050  1.00  0.00     0.261 C 
BRANCH  25  26
ATOM     26  O   UNL A   1      33.127  33.113  26.970  1.00  0.00    -0.460 OA
BRANCH  26  27
ATOM     27  C   UNL A   1      33.675  33.560  28.113  1.00  0.00     0.338 C 
ATOM     28  O   UNL A   1      33.167  34.291  28.955  1.00  0.00    -0.246 OA
BRANCH  27  29
ATOM     29  C   UNL A   1      34.942  32.850  28.348  1.00  0.00     0.060 A 
ATOM     30  C   UNL A   1      34.862  31.501  28.714  1.00  0.00     0.016 A 
ATOM     31  C   UNL A   1      36.173  33.509  28.299  1.00  0.00     0.016 A 
ATOM     32  C   UNL A   1      36.010  30.820  29.101  1.00  0.00     0.010 A 
ATOM     33  C   UNL A   1      37.324  32.824  28.706  1.00  0.00     0.010 A 
ATOM     34  C   UNL A   1      37.237  31.494  29.154  1.00  0.00    -0.014 A 
BRANCH  34  35
ATOM     35  C   UNL A   1      38.365  30.851  29.867  1.00  0.00     0.031 A 
ATOM     36  C   UNL A   1      38.587  31.193  31.315  1.00  0.00     0.074 A 
ATOM     37  C   UNL A   1      39.125  29.920  29.264  1.00  0.00     0.049 A 
ATOM     38  N   UNL A   1      39.473  30.722  32.156  1.00  0.00    -0.248 NA
ATOM     39  C   UNL A   1      37.681  32.199  31.896  1.00  0.00     0.031 C 
ATOM     40  C   UNL A   1      38.969  29.472  27.883  1.00  0.00     0.029 A 
ATOM     41  N   UNL A   1      40.174  29.180  29.747  1.00  0.00    -0.354 N 
ATOM     42  C   UNL A   1      39.229  31.370  33.360  1.00  0.00     0.074 A 
ATOM     43  C   UNL A   1      38.135  32.288  33.137  1.00  0.00     0.031 C 
ATOM     44  C   UNL A   1      39.893  28.530  27.626  1.00  0.00     0.029 A 
ATOM     45  C   UNL A   1      40.718  28.329  28.817  1.00  0.00     0.049 A 
ATOM     46  H   UNL A   1      40.505  29.252  30.670  1.00  0.00     0.167 HD
ATOM     47  C   UNL A   1      39.858  31.205  34.548  1.00  0.00     0.037 A 
ATOM     48  C   UNL A   1      41.769  27.493  28.919  1.00  0.00     0.037 A 
ATOM     49  C   UNL A   1      40.947  30.293  34.767  1.00  0.00     0.049 A 
ATOM     50  C   UNL A   1      42.499  27.384  30.233  1.00  0.00     0.074 A 
ATOM     51  C   UNL A   1      41.640  30.039  35.937  1.00  0.00     0.029 A 
ATOM     52  N   UNL A   1      41.506  29.486  33.786  1.00  0.00    -0.354 N 
ATOM     53  N   UNL A   1      42.247  27.978  31.374  1.00  0.00    -0.248 NA
ATOM     54  C   UNL A   1      43.662  26.484  30.272  1.00  0.00     0.031 C 
ATOM     55  C   UNL A   1      42.653  29.116  35.653  1.00  0.00     0.029 A 
ATOM     56  C   UNL A   1      42.557  28.757  34.317  1.00  0.00     0.049 A 
ATOM     57  H   UNL A   1      41.202  29.440  32.851  1.00  0.00     0.167 HD
ATOM     58  C   UNL A   1      43.196  27.507  32.271  1.00  0.00     0.074 A 
ATOM     59  C   UNL A   1      44.026  26.567  31.544  1.00  0.00     0.031 C 
ATOM     60  C   UNL A   1      43.367  27.821  33.579  1.00  0.00     0.037 A 
BRANCH  47  61
ATOM     61  C   UNL A   1      39.400  32.057  35.695  1.00  0.00     0.064 A 
ATOM     62  C   UNL A   1      38.433  31.609  36.607  1.00  0.00     0.173 A 
ATOM     63  C   UNL A   1      39.956  33.329  35.899  1.00  0.00     0.173 A 
ATOM     64  F   UNL A   1      37.860  30.407  36.448  1.00  0.00    -0.203 F 
ATOM     65  C   UNL A   1      38.024  32.413  37.669  1.00  0.00     0.198 A 
ATOM     66  C   UNL A   1      39.564  34.119  36.975  1.00  0.00     0.198 A 
ATOM     67  F   UNL A   1      40.886  33.802  35.056  1.00  0.00    -0.203 F 
ATOM     68  F   UNL A   1      37.068  31.982  38.504  1.00  0.00    -0.200 F 
ATOM     69  C   UNL A   1      38.594  33.664  37.855  1.00  0.00     0.200 A 
ATOM     70  F   UNL A   1      40.122  35.324  37.159  1.00  0.00    -0.200 F 
ATOM     71  F   UNL A   1      38.202  34.434  38.879  1.00  0.00    -0.200 F 
ENDBRANCH  47  61
BRANCH  48  72
ATOM     72  C   UNL A   1      42.200  26.696  27.741  1.00  0.00     0.064 A 
ATOM     73  C   UNL A   1      41.649  25.433  27.479  1.00  0.00     0.173 A 
ATOM     74  C   UNL A   1      43.182  27.175  26.862  1.00  0.00     0.173 A 
ATOM     75  F   UNL A   1      40.726  24.920  28.306  1.00  0.00    -0.203 F 
ATOM     76  C   UNL A   1      42.076  24.675  26.391  1.00  0.00     0.198 A 
ATOM     77  C   UNL A   1      43.589  26.427  25.759  1.00  0.00     0.198 A 
ATOM     78  F   UNL A   1      43.743  28.374  27.072  1.00  0.00    -0.203 F 
ATOM     79  F   UNL A   1      41.565  23.452  26.188  1.00  0.00    -0.200 F 
ATOM     80  C   UNL A   1      43.040  25.174  25.529  1.00  0.00     0.200 A 
ATOM     81  F   UNL A   1      44.514  26.917  24.924  1.00  0.00    -0.200 F 
ATOM     82  F   UNL A   1      43.448  24.445  24.481  1.00  0.00    -0.200 F 
ENDBRANCH  48  72
BRANCH  60  83
ATOM     83  C   UNL A   1      44.471  27.123  34.317  1.00  0.00     0.064 A 
ATOM     84  C   UNL A   1      45.748  27.690  34.437  1.00  0.00     0.173 A 
ATOM     85  C   UNL A   1      44.234  25.894  34.951  1.00  0.00     0.173 A 
ATOM     86  F   UNL A   1      46.027  28.858  33.837  1.00  0.00    -0.203 F 
ATOM     87  C   UNL A   1      46.755  27.041  35.145  1.00  0.00     0.198 A 
ATOM     88  C   UNL A   1      45.236  25.261  35.682  1.00  0.00     0.198 A 
ATOM     89  F   UNL A   1      43.027  25.314  34.873  1.00  0.00    -0.203 F 
ATOM     90  F   UNL A   1      47.980  27.578  35.210  1.00  0.00    -0.200 F 
ATOM     91  C   UNL A   1      46.496  25.831  35.773  1.00  0.00     0.200 A 
ATOM     92  F   UNL A   1      44.979  24.098  36.299  1.00  0.00    -0.200 F 
ATOM     93  F   UNL A   1      47.465  25.210  36.461  1.00  0.00    -0.200 F 
ENDBRANCH  60  83
ENDBRANCH  34  35
ENDBRANCH  27  29
ENDBRANCH  26  27
ENDBRANCH  25  26
ENDBRANCH  24  25
ENDBRANCH  23  24
ENDBRANCH   1  23
TORSDOF 18
ENDMDL
MODEL 2
REMARK VINA RESULT:     -10.8      4.712     10.360
REMARK SMILES CC(C)[C@@](C)(CC(=O)N[C@H]1CCCC1(C)C)C(=O)OCCOCCOC(=O)c1ccc(-c2c3nc(c(-c4c(F)c(F)c(F)c(F)c4F)c4ccc([nH]4)c(-c4c(F)c(F)c(F)c(F)c4F)c4nc(c(-c5c(F)c(F)c(F)c(F)c5F)c5ccc2[nH]5)C=C4)C=C3)cc1
REMARK SMILES IDX 21 1 20 2 19 3 17 4 18 5 4 6 5 7 2 8 1 9 3 10 6 11 7 12 8 13
REMARK SMILES IDX 9 14 10 16 11 17 14 18 12 19 13 20 15 21 16 22 22 23 23 24
REMARK SMILES IDX 24 25 25 26 26 27 27 28 28 29 29 30 90 31 30 32 89 33 31 34
REMARK SMILES IDX 32 35 33 36 83 37 34 38 88 39 82 40 84 41 35 42 87 43 81 44
REMARK SMILES IDX 80 45 36 47 68 48 48 49 67 50 49 51 52 52 66 53 85 54 50 55
REMARK SMILES IDX 51 56 65 58 86 59 53 60 37 61 38 62 46 63 39 64 40 65 44 66
REMARK SMILES IDX 47 67 41 68 42 69 45 70 43 71 69 72 70 73 78 74 71 75 72 76
REMARK SMILES IDX 76 77 79 78 73 79 74 80 77 81 75 82 54 83 55 84 63 85 56 86
REMARK SMILES IDX 57 87 61 88 64 89 58 90 59 91 62 92 60 93
REMARK H PARENT 9 15 84 46 52 57
REMARK Flexibility Score: inf
ROOT
ATOM      1  C   UNL A   1      38.011  23.477  26.075  1.00  0.00     0.202 C 
ENDROOT
BRANCH   1   2
ATOM      2  C   UNL A   1      36.480  23.378  26.130  1.00  0.00     0.261 C 
BRANCH   2   3
ATOM      3  O   UNL A   1      35.779  24.117  25.109  1.00  0.00    -0.463 OA
BRANCH   3   4
ATOM      4  C   UNL A   1      34.434  23.955  25.147  1.00  0.00     0.312 C 
ATOM      5  O   UNL A   1      33.764  24.147  26.160  1.00  0.00    -0.252 OA
BRANCH   4   6
ATOM      6  C   UNL A   1      33.789  23.434  23.852  1.00  0.00     0.076 C 
ATOM      7  C   UNL A   1      35.015  23.195  22.918  1.00  0.00     0.024 C 
BRANCH   6   8
ATOM      8  C   UNL A   1      33.083  22.063  24.163  1.00  0.00     0.000 C 
ATOM      9  C   UNL A   1      32.219  21.450  23.045  1.00  0.00     0.008 C 
ATOM     10  C   UNL A   1      34.063  20.974  24.626  1.00  0.00     0.008 C 
ENDBRANCH   6   8
BRANCH   6  11
ATOM     11  C   UNL A   1      32.898  24.412  23.010  1.00  0.00     0.118 C 
BRANCH  11  12
ATOM     12  C   UNL A   1      33.282  25.798  22.499  1.00  0.00     0.221 C 
ATOM     13  O   UNL A   1      33.653  25.948  21.332  1.00  0.00    -0.275 OA
ATOM     14  N   UNL A   1      33.102  26.935  23.230  1.00  0.00    -0.353 N 
ATOM     15  H   UNL A   1      33.189  27.768  22.715  1.00  0.00     0.163 HD
BRANCH  14  16
ATOM     16  C   UNL A   1      32.801  27.127  24.642  1.00  0.00     0.087 C 
ATOM     17  C   UNL A   1      33.683  28.252  25.216  1.00  0.00     0.025 C 
ATOM     18  C   UNL A   1      31.356  27.540  24.988  1.00  0.00    -0.015 C 
ATOM     19  C   UNL A   1      32.778  29.461  25.435  1.00  0.00     0.003 C 
ATOM     20  C   UNL A   1      31.403  29.071  24.905  1.00  0.00     0.008 C 
ATOM     21  C   UNL A   1      30.292  26.962  24.054  1.00  0.00     0.013 C 
ATOM     22  C   UNL A   1      31.041  27.081  26.431  1.00  0.00     0.013 C 
ENDBRANCH  14  16
ENDBRANCH  11  12
ENDBRANCH   6  11
ENDBRANCH   4   6
ENDBRANCH   3   4
ENDBRANCH   2   3
ENDBRANCH   1   2
BRANCH   1  23
ATOM     23  O   UNL A   1      38.763  22.269  26.093  1.00  0.00    -0.374 OA
BRANCH  23  24
ATOM     24  C   UNL A   1      38.219  21.158  25.376  1.00  0.00     0.202 C 
BRANCH  24  25
ATOM     25  C   UNL A   1      39.027  19.857  25.389  1.00  0.00     0.261 C 
BRANCH  25  26
ATOM     26  O   UNL A   1      39.897  19.805  26.535  1.00  0.00    -0.460 OA
BRANCH  26  27
ATOM     27  C   UNL A   1      41.192  19.574  26.258  1.00  0.00     0.338 C 
ATOM     28  O   UNL A   1      41.687  18.575  25.751  1.00  0.00    -0.246 OA
BRANCH  27  29
ATOM     29  C   UNL A   1      41.952  20.820  26.446  1.00  0.00     0.060 A 
ATOM     30  C   UNL A   1      42.273  21.183  27.760  1.00  0.00     0.016 A 
ATOM     31  C   UNL A   1      42.266  21.658  25.373  1.00  0.00     0.016 A 
ATOM     32  C   UNL A   1      42.849  22.422  28.014  1.00  0.00     0.010 A 
ATOM     33  C   UNL A   1      42.831  22.911  25.635  1.00  0.00     0.010 A 
ATOM     34  C   UNL A   1      43.079  23.315  26.960  1.00  0.00    -0.014 A 
BRANCH  34  35
ATOM     35  C   UNL A   1      43.386  24.727  27.285  1.00  0.00     0.031 A 
ATOM     36  C   UNL A   1      44.765  25.249  26.983  1.00  0.00     0.074 A 
ATOM     37  C   UNL A   1      42.436  25.551  27.759  1.00  0.00     0.049 A 
ATOM     38  N   UNL A   1      45.249  26.456  27.131  1.00  0.00    -0.248 NA
ATOM     39  C   UNL A   1      45.726  24.279  26.432  1.00  0.00     0.031 C 
ATOM     40  C   UNL A   1      41.054  25.169  28.041  1.00  0.00     0.029 A 
ATOM     41  N   UNL A   1      42.493  26.884  28.079  1.00  0.00    -0.354 N 
ATOM     42  C   UNL A   1      46.564  26.389  26.692  1.00  0.00     0.074 A 
ATOM     43  C   UNL A   1      46.814  25.021  26.298  1.00  0.00     0.031 C 
ATOM     44  C   UNL A   1      40.391  26.247  28.494  1.00  0.00     0.029 A 
ATOM     45  C   UNL A   1      41.307  27.385  28.556  1.00  0.00     0.049 A 
ATOM     46  H   UNL A   1      43.306  27.428  27.977  1.00  0.00     0.167 HD
ATOM     47  C   UNL A   1      47.479  27.385  26.613  1.00  0.00     0.037 A 
ATOM     48  C   UNL A   1      41.006  28.620  29.001  1.00  0.00     0.037 A 
ATOM     49  C   UNL A   1      47.229  28.745  27.006  1.00  0.00     0.049 A 
ATOM     50  C   UNL A   1      42.065  29.691  28.974  1.00  0.00     0.074 A 
ATOM     51  C   UNL A   1      48.083  29.832  26.951  1.00  0.00     0.029 A 
ATOM     52  N   UNL A   1      46.030  29.203  27.536  1.00  0.00    -0.354 N 
ATOM     53  N   UNL A   1      43.297  29.629  28.531  1.00  0.00    -0.248 NA
ATOM     54  C   UNL A   1      41.688  31.009  29.507  1.00  0.00     0.031 C 
ATOM     55  C   UNL A   1      47.419  30.937  27.494  1.00  0.00     0.029 A 
ATOM     56  C   UNL A   1      46.133  30.550  27.841  1.00  0.00     0.049 A 
ATOM     57  H   UNL A   1      45.227  28.652  27.675  1.00  0.00     0.167 HD
ATOM     58  C   UNL A   1      43.833  30.898  28.705  1.00  0.00     0.074 A 
ATOM     59  C   UNL A   1      42.788  31.716  29.286  1.00  0.00     0.031 C 
ATOM     60  C   UNL A   1      45.078  31.348  28.412  1.00  0.00     0.037 A 
BRANCH  47  61
ATOM     61  C   UNL A   1      48.847  27.028  26.112  1.00  0.00     0.064 A 
ATOM     62  C   UNL A   1      49.862  26.600  26.980  1.00  0.00     0.173 A 
ATOM     63  C   UNL A   1      49.138  27.091  24.741  1.00  0.00     0.173 A 
ATOM     64  F   UNL A   1      49.640  26.538  28.301  1.00  0.00    -0.203 F 
ATOM     65  C   UNL A   1      51.126  26.269  26.495  1.00  0.00     0.198 A 
ATOM     66  C   UNL A   1      50.393  26.734  24.257  1.00  0.00     0.198 A 
ATOM     67  F   UNL A   1      48.200  27.492  23.869  1.00  0.00    -0.203 F 
ATOM     68  F   UNL A   1      52.094  25.903  27.347  1.00  0.00    -0.200 F 
ATOM     69  C   UNL A   1      51.388  26.331  25.135  1.00  0.00     0.200 A 
ATOM     70  F   UNL A   1      50.642  26.785  22.941  1.00  0.00    -0.200 F 
ATOM     71  F   UNL A   1      52.602  26.007  24.670  1.00  0.00    -0.200 F 
ENDBRANCH  47  61
BRANCH  48  72
ATOM     72  C   UNL A   1      39.643  28.910  29.516  1.00  0.00     0.064 A 
ATOM     73  C   UNL A   1      38.646  29.429  28.678  1.00  0.00     0.173 A 
ATOM     74  C   UNL A   1      39.315  28.688  30.862  1.00  0.00     0.173 A 
ATOM     75  F   UNL A   1      38.919  29.683  27.390  1.00  0.00    -0.203 F 
ATOM     76  C   UNL A   1      37.377  29.728  29.170  1.00  0.00     0.198 A 
ATOM     77  C   UNL A   1      38.038  28.964  31.346  1.00  0.00     0.198 A 
ATOM     78  F   UNL A   1      40.234  28.199  31.705  1.00  0.00    -0.203 F 
ATOM     79  F   UNL A   1      36.455  30.264  28.359  1.00  0.00    -0.200 F 
ATOM     80  C   UNL A   1      37.072  29.490  30.502  1.00  0.00     0.200 A 
ATOM     81  F   UNL A   1      37.746  28.723  32.631  1.00  0.00    -0.200 F 
ATOM     82  F   UNL A   1      35.851  29.776  30.973  1.00  0.00    -0.200 F 
ENDBRANCH  48  72
BRANCH  60  83
ATOM     83  C   UNL A   1      45.370  32.795  28.684  1.00  0.00     0.064 A 
ATOM     84  C   UNL A   1      45.091  33.791  27.738  1.00  0.00     0.173 A 
ATOM     85  C   UNL A   1      45.891  33.193  29.925  1.00  0.00     0.173 A 
ATOM     86  F   UNL A   1      44.604  33.460  26.532  1.00  0.00    -0.203 F 
ATOM     87  C   UNL A   1      45.345  35.131  28.015  1.00  0.00     0.198 A 
ATOM     88  C   UNL A   1      46.118  34.536  30.208  1.00  0.00     0.198 A 
ATOM     89  F   UNL A   1      46.168  32.278  30.867  1.00  0.00    -0.203 F 
ATOM     90  F   UNL A   1      45.113  36.063  27.080  1.00  0.00    -0.200 F 
ATOM     91  C   UNL A   1      45.852  35.503  29.252  1.00  0.00     0.200 A 
ATOM     92  F   UNL A   1      46.595  34.895  31.410  1.00  0.00    -0.200 F 
ATOM     93  F   UNL A   1      46.089  36.795  29.520  1.00  0.00    -0.200 F 
ENDBRANCH  60  83
ENDBRANCH  34  35
ENDBRANCH  27  29
ENDBRANCH  26  27
ENDBRANCH  25  26
ENDBRANCH  24  25
ENDBRANCH  23  24
ENDBRANCH   1  23
TORSDOF 18
ENDMDL
MODEL 3
REMARK VINA RESULT:     -10.7      1.410      7.590
REMARK SMILES CC(C)[C@@](C)(CC(=O)N[C@H]1CCCC1(C)C)C(=O)OCCOCCOC(=O)c1ccc(-c2c3nc(c(-c4c(F)c(F)c(F)c(F)c4F)c4ccc([nH]4)c(-c4c(F)c(F)c(F)c(F)c4F)c4nc(c(-c5c(F)c(F)c(F)c(F)c5F)c5ccc2[nH]5)C=C4)C=C3)cc1
REMARK SMILES IDX 21 1 20 2 19 3 17 4 18 5 4 6 5 7 2 8 1 9 3 10 6 11 7 12 8 13
REMARK SMILES IDX 9 14 10 16 11 17 14 18 12 19 13 20 15 21 16 22 22 23 23 24
REMARK SMILES IDX 24 25 25 26 26 27 27 28 28 29 29 30 90 31 30 32 89 33 31 34
REMARK SMILES IDX 32 35 33 36 83 37 34 38 88 39 82 40 84 41 35 42 87 43 81 44
REMARK SMILES IDX 80 45 36 47 68 48 48 49 67 50 49 51 52 52 66 53 85 54 50 55
REMARK SMILES IDX 51 56 65 58 86 59 53 60 37 61 38 62 46 63 39 64 40 65 44 66
REMARK SMILES IDX 47 67 41 68 42 69 45 70 43 71 69 72 70 73 78 74 71 75 72 76
REMARK SMILES IDX 76 77 79 78 73 79 74 80 77 81 75 82 54 83 55 84 63 85 56 86
REMARK SMILES IDX 57 87 61 88 64 89 58 90 59 91 62 92 60 93
REMARK H PARENT 9 15 84 46 52 57
REMARK Flexibility Score: inf
ROOT
ATOM      1  C   UNL A   1      31.480  27.561  26.006  1.00  0.00     0.202 C 
ENDROOT
BRANCH   1   2
ATOM      2  C   UNL A   1      30.313  26.568  26.099  1.00  0.00     0.261 C 
BRANCH   2   3
ATOM      3  O   UNL A   1      30.503  25.329  25.386  1.00  0.00    -0.463 OA
BRANCH   3   4
ATOM      4  C   UNL A   1      31.319  24.455  26.024  1.00  0.00     0.312 C 
ATOM      5  O   UNL A   1      31.345  24.332  27.247  1.00  0.00    -0.252 OA
BRANCH   4   6
ATOM      6  C   UNL A   1      32.283  23.664  25.124  1.00  0.00     0.076 C 
ATOM      7  C   UNL A   1      31.323  22.945  24.125  1.00  0.00     0.024 C 
BRANCH   6   8
ATOM      8  C   UNL A   1      33.190  24.686  24.345  1.00  0.00     0.000 C 
ATOM      9  C   UNL A   1      34.122  25.579  25.186  1.00  0.00     0.008 C 
ATOM     10  C   UNL A   1      34.055  24.019  23.264  1.00  0.00     0.008 C 
ENDBRANCH   6   8
BRANCH   6  11
ATOM     11  C   UNL A   1      33.087  22.471  25.748  1.00  0.00     0.118 C 
BRANCH  11  12
ATOM     12  C   UNL A   1      34.014  22.520  26.960  1.00  0.00     0.221 C 
ATOM     13  O   UNL A   1      33.566  22.323  28.092  1.00  0.00    -0.275 OA
ATOM     14  N   UNL A   1      35.369  22.631  26.853  1.00  0.00    -0.353 N 
ATOM     15  H   UNL A   1      35.860  22.438  27.684  1.00  0.00     0.163 HD
BRANCH  14  16
ATOM     16  C   UNL A   1      36.214  22.983  25.721  1.00  0.00     0.087 C 
ATOM     17  C   UNL A   1      37.344  23.921  26.184  1.00  0.00     0.025 C 
ATOM     18  C   UNL A   1      36.933  21.818  25.009  1.00  0.00    -0.015 C 
ATOM     19  C   UNL A   1      38.634  23.107  26.175  1.00  0.00     0.003 C 
ATOM     20  C   UNL A   1      38.240  21.683  25.800  1.00  0.00     0.008 C 
ATOM     21  C   UNL A   1      36.149  20.505  24.996  1.00  0.00     0.013 C 
ATOM     22  C   UNL A   1      37.219  22.231  23.547  1.00  0.00     0.013 C 
ENDBRANCH  14  16
ENDBRANCH  11  12
ENDBRANCH   6  11
ENDBRANCH   4   6
ENDBRANCH   3   4
ENDBRANCH   2   3
ENDBRANCH   1   2
BRANCH   1  23
ATOM     23  O   UNL A   1      31.594  28.356  24.831  1.00  0.00    -0.374 OA
BRANCH  23  24
ATOM     24  C   UNL A   1      31.280  29.746  24.958  1.00  0.00     0.202 C 
BRANCH  24  25
ATOM     25  C   UNL A   1      31.679  30.434  26.266  1.00  0.00     0.261 C 
BRANCH  25  26
ATOM     26  O   UNL A   1      33.112  30.488  26.401  1.00  0.00    -0.460 OA
BRANCH  26  27
ATOM     27  C   UNL A   1      33.573  31.468  27.196  1.00  0.00     0.338 C 
ATOM     28  O   UNL A   1      32.956  32.426  27.647  1.00  0.00    -0.246 OA
BRANCH  27  29
ATOM     29  C   UNL A   1      34.923  31.113  27.662  1.00  0.00     0.060 A 
ATOM     30  C   UNL A   1      35.195  29.754  27.863  1.00  0.00     0.016 A 
ATOM     31  C   UNL A   1      35.872  32.089  27.980  1.00  0.00     0.016 A 
ATOM     32  C   UNL A   1      36.394  29.367  28.449  1.00  0.00     0.010 A 
ATOM     33  C   UNL A   1      37.071  31.696  28.585  1.00  0.00     0.010 A 
ATOM     34  C   UNL A   1      37.313  30.339  28.865  1.00  0.00    -0.014 A 
BRANCH  34  35
ATOM     35  C   UNL A   1      38.416  29.929  29.764  1.00  0.00     0.031 A 
ATOM     36  C   UNL A   1      39.435  28.948  29.249  1.00  0.00     0.074 A 
ATOM     37  C   UNL A   1      38.558  30.478  30.982  1.00  0.00     0.049 A 
ATOM     38  N   UNL A   1      40.511  28.482  29.830  1.00  0.00    -0.248 NA
ATOM     39  C   UNL A   1      39.212  28.427  27.889  1.00  0.00     0.031 C 
ATOM     40  C   UNL A   1      37.663  31.475  31.566  1.00  0.00     0.029 A 
ATOM     41  N   UNL A   1      39.518  30.278  31.943  1.00  0.00    -0.354 N 
ATOM     42  C   UNL A   1      41.091  27.619  28.910  1.00  0.00     0.074 A 
ATOM     43  C   UNL A   1      40.237  27.602  27.743  1.00  0.00     0.031 C 
ATOM     44  C   UNL A   1      38.117  31.801  32.788  1.00  0.00     0.029 A 
ATOM     45  C   UNL A   1      39.317  31.019  33.081  1.00  0.00     0.049 A 
ATOM     46  H   UNL A   1      40.276  29.662  31.827  1.00  0.00     0.167 HD
ATOM     47  C   UNL A   1      42.241  26.913  29.024  1.00  0.00     0.037 A 
ATOM     48  C   UNL A   1      40.021  31.049  34.229  1.00  0.00     0.037 A 
ATOM     49  C   UNL A   1      43.089  26.931  30.186  1.00  0.00     0.049 A 
ATOM     50  C   UNL A   1      41.256  30.196  34.359  1.00  0.00     0.074 A 
ATOM     51  C   UNL A   1      44.283  26.265  30.394  1.00  0.00     0.029 A 
ATOM     52  N   UNL A   1      42.824  27.653  31.341  1.00  0.00    -0.354 N 
ATOM     53  N   UNL A   1      41.815  29.405  33.475  1.00  0.00    -0.248 NA
ATOM     54  C   UNL A   1      41.960  30.242  35.649  1.00  0.00     0.031 C 
ATOM     55  C   UNL A   1      44.715  26.543  31.696  1.00  0.00     0.029 A 
ATOM     56  C   UNL A   1      43.817  27.423  32.279  1.00  0.00     0.049 A 
ATOM     57  H   UNL A   1      42.045  28.240  31.475  1.00  0.00     0.167 HD
ATOM     58  C   UNL A   1      42.946  28.882  34.087  1.00  0.00     0.074 A 
ATOM     59  C   UNL A   1      43.002  29.454  35.417  1.00  0.00     0.031 C 
ATOM     60  C   UNL A   1      43.858  28.008  33.595  1.00  0.00     0.037 A 
BRANCH  47  61
ATOM     61  C   UNL A   1      42.630  26.035  27.872  1.00  0.00     0.064 A 
ATOM     62  C   UNL A   1      43.538  26.463  26.892  1.00  0.00     0.173 A 
ATOM     63  C   UNL A   1      42.107  24.738  27.761  1.00  0.00     0.173 A 
ATOM     64  F   UNL A   1      44.055  27.699  26.943  1.00  0.00    -0.203 F 
ATOM     65  C   UNL A   1      43.890  25.631  25.831  1.00  0.00     0.198 A 
ATOM     66  C   UNL A   1      42.480  23.901  26.715  1.00  0.00     0.198 A 
ATOM     67  F   UNL A   1      41.237  24.281  28.674  1.00  0.00    -0.203 F 
ATOM     68  F   UNL A   1      44.727  26.075  24.882  1.00  0.00    -0.200 F 
ATOM     69  C   UNL A   1      43.366  24.350  25.747  1.00  0.00     0.200 A 
ATOM     70  F   UNL A   1      41.980  22.659  26.640  1.00  0.00    -0.200 F 
ATOM     71  F   UNL A   1      43.709  23.550  24.728  1.00  0.00    -0.200 F 
ENDBRANCH  47  61
BRANCH  48  72
ATOM     72  C   UNL A   1      39.573  31.914  35.351  1.00  0.00     0.064 A 
ATOM     73  C   UNL A   1      38.660  31.447  36.307  1.00  0.00     0.173 A 
ATOM     74  C   UNL A   1      40.037  33.231  35.480  1.00  0.00     0.173 A 
ATOM     75  F   UNL A   1      38.167  30.204  36.211  1.00  0.00    -0.203 F 
ATOM     76  C   UNL A   1      38.219  32.269  37.342  1.00  0.00     0.198 A 
ATOM     77  C   UNL A   1      39.615  34.044  36.530  1.00  0.00     0.198 A 
ATOM     78  F   UNL A   1      40.906  33.727  34.588  1.00  0.00    -0.203 F 
ATOM     79  F   UNL A   1      37.313  31.813  38.218  1.00  0.00    -0.200 F 
ATOM     80  C   UNL A   1      38.701  33.564  37.456  1.00  0.00     0.200 A 
ATOM     81  F   UNL A   1      40.090  35.291  36.641  1.00  0.00    -0.200 F 
ATOM     82  F   UNL A   1      38.277  34.354  38.453  1.00  0.00    -0.200 F 
ENDBRANCH  48  72
BRANCH  60  83
ATOM     83  C   UNL A   1      45.010  27.640  34.484  1.00  0.00     0.064 A 
ATOM     84  C   UNL A   1      46.185  28.403  34.518  1.00  0.00     0.173 A 
ATOM     85  C   UNL A   1      44.915  26.537  35.347  1.00  0.00     0.173 A 
ATOM     86  F   UNL A   1      46.328  29.459  33.702  1.00  0.00    -0.203 F 
ATOM     87  C   UNL A   1      47.235  28.061  35.366  1.00  0.00     0.198 A 
ATOM     88  C   UNL A   1      45.956  26.215  36.214  1.00  0.00     0.198 A 
ATOM     89  F   UNL A   1      43.808  25.780  35.358  1.00  0.00    -0.203 F 
ATOM     90  F   UNL A   1      48.367  28.778  35.350  1.00  0.00    -0.200 F 
ATOM     91  C   UNL A   1      47.116  26.973  36.217  1.00  0.00     0.200 A 
ATOM     92  F   UNL A   1      45.834  25.171  37.046  1.00  0.00    -0.200 F 
ATOM     93  F   UNL A   1      48.125  26.649  37.039  1.00  0.00    -0.200 F 
ENDBRANCH  60  83
ENDBRANCH  34  35
ENDBRANCH  27  29
ENDBRANCH  26  27
ENDBRANCH  25  26
ENDBRANCH  24  25
ENDBRANCH  23  24
ENDBRANCH   1  23
TORSDOF 18
ENDMDL
