MODEL 1
REMARK VINA RESULT:     -12.2      0.000      0.000
REMARK SMILES COc1ccc(-c2cnc(N)c(C(=O)OCCOCCOC(=O)c3ccc(-c4c5nc(c(-c6c(F)c(F)c(F)c(F)c6F)c6ccc([nH]6)c(-c6c(F)c(F)c(F)c(F)c6F)c6nc(c(-c7c(F)c(F)c(F)c(F)c7F)c7ccc4[nH]7)C=C6)C=C5)cc3)c2)c(C)c1
REMARK SMILES IDX 18 1 17 2 16 3 15 4 13 5 14 6 12 7 7 8 8 9 87 10 9 11 10 12
REMARK SMILES IDX 6 13 3 14 4 15 90 16 5 17 88 18 89 19 2 20 1 21 11 22 19 25
REMARK SMILES IDX 20 26 21 27 22 28 23 29 24 30 25 31 86 32 26 33 85 34 27 35
REMARK SMILES IDX 28 36 29 37 79 38 30 39 84 40 78 41 80 42 31 43 83 44 77 45
REMARK SMILES IDX 76 46 32 48 64 49 44 50 63 51 45 52 48 53 62 54 81 55 46 56
REMARK SMILES IDX 47 57 61 59 82 60 49 61 33 62 34 63 42 64 35 65 36 66 40 67
REMARK SMILES IDX 43 68 37 69 38 70 41 71 39 72 65 73 66 74 74 75 67 76 68 77
REMARK SMILES IDX 72 78 75 79 69 80 70 81 73 82 71 83 50 84 51 85 59 86 52 87
REMARK SMILES IDX 53 88 57 89 60 90 54 91 55 92 58 93 56 94
REMARK H PARENT 11 23 11 24 80 47 48 58
REMARK Flexibility Score: inf
ROOT
ATOM      1  O   UNL A   1      32.425  28.094  26.923  1.00  0.00    -0.374 OA
ENDROOT
BRANCH   1   2
ATOM      2  C   UNL A   1      31.227  27.422  26.587  1.00  0.00     0.202 C 
BRANCH   2   3
ATOM      3  C   UNL A   1      31.389  26.966  25.161  1.00  0.00     0.261 C 
BRANCH   3   4
ATOM      4  O   UNL A   1      30.307  26.092  24.774  1.00  0.00    -0.460 OA
BRANCH   4   5
ATOM      5  C   UNL A   1      30.544  24.842  24.281  1.00  0.00     0.342 C 
ATOM      6  O   UNL A   1      30.365  24.454  23.147  1.00  0.00    -0.246 OA
BRANCH   5   7
ATOM      7  C   UNL A   1      31.206  24.018  25.309  1.00  0.00     0.102 A 
ATOM      8  C   UNL A   1      33.294  23.065  26.057  1.00  0.00     0.001 A 
ATOM      9  C   UNL A   1      32.675  22.914  27.295  1.00  0.00     0.122 A 
ATOM     10  C   UNL A   1      32.522  23.622  25.043  1.00  0.00     0.030 A 
ATOM     11  N   UNL A   1      31.382  23.216  27.558  1.00  0.00    -0.238 NA
ATOM     12  C   UNL A   1      30.654  23.754  26.564  1.00  0.00     0.138 A 
BRANCH   8  13
ATOM     13  C   UNL A   1      34.666  22.614  25.825  1.00  0.00    -0.014 A 
ATOM     14  C   UNL A   1      37.375  21.928  25.458  1.00  0.00     0.119 A 
ATOM     15  C   UNL A   1      37.039  23.202  25.896  1.00  0.00     0.047 A 
ATOM     16  C   UNL A   1      36.367  21.005  25.177  1.00  0.00     0.050 A 
ATOM     17  C   UNL A   1      35.700  23.536  26.081  1.00  0.00     0.013 A 
ATOM     18  C   UNL A   1      35.008  21.323  25.368  1.00  0.00    -0.040 A 
ATOM     19  C   UNL A   1      34.002  20.239  25.074  1.00  0.00     0.045 C 
BRANCH  14  20
ATOM     20  O   UNL A   1      38.658  21.518  25.225  1.00  0.00    -0.497 OA
ATOM     21  C   UNL A   1      39.516  21.653  26.355  1.00  0.00     0.278 C 
ENDBRANCH  14  20
ENDBRANCH   8  13
BRANCH  12  22
ATOM     22  N   UNL A   1      29.322  23.933  26.872  1.00  0.00    -0.383 N 
ATOM     23  H   UNL A   1      28.830  24.700  26.498  1.00  0.00     0.158 HD
ATOM     24  H   UNL A   1      28.863  23.297  27.466  1.00  0.00     0.158 HD
ENDBRANCH  12  22
ENDBRANCH   5   7
ENDBRANCH   4   5
ENDBRANCH   3   4
ENDBRANCH   2   3
ENDBRANCH   1   2
BRANCH   1  25
ATOM     25  C   UNL A   1      32.342  29.495  27.077  1.00  0.00     0.202 C 
BRANCH  25  26
ATOM     26  C   UNL A   1      33.683  30.177  26.798  1.00  0.00     0.261 C 
BRANCH  26  27
ATOM     27  O   UNL A   1      34.033  31.060  27.889  1.00  0.00    -0.460 OA
BRANCH  27  28
ATOM     28  C   UNL A   1      35.333  31.475  27.928  1.00  0.00     0.338 C 
ATOM     29  O   UNL A   1      35.734  32.559  27.536  1.00  0.00    -0.246 OA
BRANCH  28  30
ATOM     30  C   UNL A   1      36.228  30.324  28.254  1.00  0.00     0.060 A 
ATOM     31  C   UNL A   1      36.179  29.724  29.530  1.00  0.00     0.016 A 
ATOM     32  C   UNL A   1      37.326  30.109  27.431  1.00  0.00     0.016 A 
ATOM     33  C   UNL A   1      37.304  29.054  30.044  1.00  0.00     0.010 A 
ATOM     34  C   UNL A   1      38.467  29.587  27.996  1.00  0.00     0.010 A 
ATOM     35  C   UNL A   1      38.482  29.068  29.306  1.00  0.00    -0.014 A 
BRANCH  35  36
ATOM     36  C   UNL A   1      39.819  28.622  29.731  1.00  0.00     0.031 A 
ATOM     37  C   UNL A   1      40.238  27.264  29.294  1.00  0.00     0.074 A 
ATOM     38  C   UNL A   1      40.766  29.521  30.105  1.00  0.00     0.049 A 
ATOM     39  N   UNL A   1      41.418  26.783  29.454  1.00  0.00    -0.248 NA
ATOM     40  C   UNL A   1      39.342  26.308  28.644  1.00  0.00     0.031 C 
ATOM     41  C   UNL A   1      42.201  29.464  29.795  1.00  0.00     0.029 A 
ATOM     42  N   UNL A   1      40.646  30.740  30.786  1.00  0.00    -0.354 N 
ATOM     43  C   UNL A   1      41.544  25.669  28.661  1.00  0.00     0.074 A 
ATOM     44  C   UNL A   1      40.196  25.350  28.272  1.00  0.00     0.031 C 
ATOM     45  C   UNL A   1      42.856  30.423  30.470  1.00  0.00     0.029 A 
ATOM     46  C   UNL A   1      41.897  31.040  31.361  1.00  0.00     0.049 A 
ATOM     47  H   UNL A   1      39.832  31.289  30.849  1.00  0.00     0.167 HD
ATOM     48  C   UNL A   1      42.807  25.248  28.365  1.00  0.00     0.037 A 
ATOM     49  C   UNL A   1      42.029  31.191  32.707  1.00  0.00     0.037 A 
ATOM     50  C   UNL A   1      43.781  25.984  29.190  1.00  0.00     0.049 A 
ATOM     51  C   UNL A   1      42.888  30.080  33.233  1.00  0.00     0.074 A 
ATOM     52  C   UNL A   1      44.706  26.981  28.928  1.00  0.00     0.029 A 
ATOM     53  N   UNL A   1      43.647  25.934  30.580  1.00  0.00    -0.354 N 
ATOM     54  N   UNL A   1      43.013  28.943  32.604  1.00  0.00    -0.248 NA
ATOM     55  C   UNL A   1      43.755  30.177  34.401  1.00  0.00     0.031 C 
ATOM     56  C   UNL A   1      45.068  27.574  30.175  1.00  0.00     0.029 A 
ATOM     57  C   UNL A   1      44.393  26.918  31.196  1.00  0.00     0.049 A 
ATOM     58  H   UNL A   1      43.088  25.280  31.060  1.00  0.00     0.167 HD
ATOM     59  C   UNL A   1      44.006  28.216  33.178  1.00  0.00     0.074 A 
ATOM     60  C   UNL A   1      44.409  29.004  34.331  1.00  0.00     0.031 C 
ATOM     61  C   UNL A   1      44.434  27.035  32.653  1.00  0.00     0.037 A 
BRANCH  48  62
ATOM     62  C   UNL A   1      43.216  24.296  27.251  1.00  0.00     0.064 A 
ATOM     63  C   UNL A   1      42.854  22.930  27.319  1.00  0.00     0.173 A 
ATOM     64  C   UNL A   1      44.017  24.618  26.133  1.00  0.00     0.173 A 
ATOM     65  F   UNL A   1      42.097  22.458  28.319  1.00  0.00    -0.203 F 
ATOM     66  C   UNL A   1      43.265  21.984  26.370  1.00  0.00     0.198 A 
ATOM     67  C   UNL A   1      44.402  23.679  25.168  1.00  0.00     0.198 A 
ATOM     68  F   UNL A   1      44.500  25.843  25.924  1.00  0.00    -0.203 F 
ATOM     69  F   UNL A   1      42.915  20.698  26.518  1.00  0.00    -0.200 F 
ATOM     70  C   UNL A   1      44.034  22.359  25.290  1.00  0.00     0.200 A 
ATOM     71  F   UNL A   1      45.151  24.070  24.126  1.00  0.00    -0.200 F 
ATOM     72  F   UNL A   1      44.425  21.458  24.380  1.00  0.00    -0.200 F 
ENDBRANCH  48  62
BRANCH  49  73
ATOM     73  C   UNL A   1      40.827  31.840  33.301  1.00  0.00     0.064 A 
ATOM     74  C   UNL A   1      40.629  33.193  32.943  1.00  0.00     0.173 A 
ATOM     75  C   UNL A   1      39.686  31.086  33.619  1.00  0.00     0.173 A 
ATOM     76  F   UNL A   1      41.682  33.959  32.617  1.00  0.00    -0.203 F 
ATOM     77  C   UNL A   1      39.351  33.707  32.733  1.00  0.00     0.198 A 
ATOM     78  C   UNL A   1      38.406  31.607  33.397  1.00  0.00     0.198 A 
ATOM     79  F   UNL A   1      39.804  29.794  33.958  1.00  0.00    -0.203 F 
ATOM     80  F   UNL A   1      39.201  34.938  32.217  1.00  0.00    -0.200 F 
ATOM     81  C   UNL A   1      38.243  32.898  32.914  1.00  0.00     0.200 A 
ATOM     82  F   UNL A   1      37.330  30.817  33.530  1.00  0.00    -0.200 F 
ATOM     83  F   UNL A   1      37.029  33.335  32.547  1.00  0.00    -0.200 F 
ENDBRANCH  49  73
BRANCH  61  84
ATOM     84  C   UNL A   1      45.010  25.926  33.490  1.00  0.00     0.064 A 
ATOM     85  C   UNL A   1      44.218  25.070  34.278  1.00  0.00     0.173 A 
ATOM     86  C   UNL A   1      46.371  25.565  33.379  1.00  0.00     0.173 A 
ATOM     87  F   UNL A   1      42.887  25.203  34.348  1.00  0.00    -0.203 F 
ATOM     88  C   UNL A   1      44.763  23.997  34.979  1.00  0.00     0.198 A 
ATOM     89  C   UNL A   1      46.896  24.445  34.018  1.00  0.00     0.198 A 
ATOM     90  F   UNL A   1      47.229  26.255  32.615  1.00  0.00    -0.203 F 
ATOM     91  F   UNL A   1      43.972  23.253  35.764  1.00  0.00    -0.200 F 
ATOM     92  C   UNL A   1      46.098  23.677  34.840  1.00  0.00     0.200 A 
ATOM     93  F   UNL A   1      48.174  24.101  33.811  1.00  0.00    -0.200 F 
ATOM     94  F   UNL A   1      46.609  22.617  35.479  1.00  0.00    -0.200 F 
ENDBRANCH  61  84
ENDBRANCH  35  36
ENDBRANCH  28  30
ENDBRANCH  27  28
ENDBRANCH  26  27
ENDBRANCH  25  26
ENDBRANCH   1  25
TORSDOF 17
ENDMDL
MODEL 2
REMARK VINA RESULT:     -11.6      2.909      9.465
REMARK SMILES COc1ccc(-c2cnc(N)c(C(=O)OCCOCCOC(=O)c3ccc(-c4c5nc(c(-c6c(F)c(F)c(F)c(F)c6F)c6ccc([nH]6)c(-c6c(F)c(F)c(F)c(F)c6F)c6nc(c(-c7c(F)c(F)c(F)c(F)c7F)c7ccc4[nH]7)C=C6)C=C5)cc3)c2)c(C)c1
REMARK SMILES IDX 18 1 17 2 16 3 15 4 13 5 14 6 12 7 7 8 8 9 87 10 9 11 10 12
REMARK SMILES IDX 6 13 3 14 4 15 90 16 5 17 88 18 89 19 2 20 1 21 11 22 19 25
REMARK SMILES IDX 20 26 21 27 22 28 23 29 24 30 25 31 86 32 26 33 85 34 27 35
REMARK SMILES IDX 28 36 29 37 79 38 30 39 84 40 78 41 80 42 31 43 83 44 77 45
REMARK SMILES IDX 76 46 32 48 64 49 44 50 63 51 45 52 48 53 62 54 81 55 46 56
REMARK SMILES IDX 47 57 61 59 82 60 49 61 33 62 34 63 42 64 35 65 36 66 40 67
REMARK SMILES IDX 43 68 37 69 38 70 41 71 39 72 65 73 66 74 74 75 67 76 68 77
REMARK SMILES IDX 72 78 75 79 69 80 70 81 73 82 71 83 50 84 51 85 59 86 52 87
REMARK SMILES IDX 53 88 57 89 60 90 54 91 55 92 58 93 56 94
REMARK H PARENT 11 23 11 24 80 47 48 58
REMARK Flexibility Score: inf
ROOT
ATOM      1  O   UNL A   1      36.498  21.440  25.654  1.00  0.00    -0.374 OA
ENDROOT
BRANCH   1   2
ATOM      2  C   UNL A   1      35.314  21.544  24.888  1.00  0.00     0.202 C 
BRANCH   2   3
ATOM      3  C   UNL A   1      35.315  22.933  24.304  1.00  0.00     0.261 C 
BRANCH   3   4
ATOM      4  O   UNL A   1      34.094  23.187  23.578  1.00  0.00    -0.460 OA
BRANCH   4   5
ATOM      5  C   UNL A   1      33.722  24.453  23.233  1.00  0.00     0.342 C 
ATOM      6  O   UNL A   1      33.888  25.002  22.165  1.00  0.00    -0.246 OA
BRANCH   5   7
ATOM      7  C   UNL A   1      32.933  25.056  24.323  1.00  0.00     0.102 A 
ATOM      8  C   UNL A   1      32.543  27.044  25.635  1.00  0.00     0.001 A 
ATOM      9  C   UNL A   1      31.322  26.469  25.976  1.00  0.00     0.122 A 
ATOM     10  C   UNL A   1      33.365  26.301  24.795  1.00  0.00     0.030 A 
ATOM     11  N   UNL A   1      30.914  25.235  25.597  1.00  0.00    -0.238 NA
ATOM     12  C   UNL A   1      31.723  24.533  24.786  1.00  0.00     0.138 A 
BRANCH   8  13
ATOM     13  C   UNL A   1      32.957  28.340  26.174  1.00  0.00    -0.014 A 
ATOM     14  C   UNL A   1      33.920  30.739  27.296  1.00  0.00     0.119 A 
ATOM     15  C   UNL A   1      34.544  29.537  27.599  1.00  0.00     0.047 A 
ATOM     16  C   UNL A   1      32.804  30.748  26.458  1.00  0.00     0.050 A 
ATOM     17  C   UNL A   1      34.069  28.354  27.039  1.00  0.00     0.013 A 
ATOM     18  C   UNL A   1      32.316  29.562  25.876  1.00  0.00    -0.040 A 
ATOM     19  C   UNL A   1      31.131  29.688  24.952  1.00  0.00     0.045 C 
BRANCH  14  20
ATOM     20  O   UNL A   1      34.299  31.945  27.815  1.00  0.00    -0.497 OA
ATOM     21  C   UNL A   1      33.299  32.955  27.710  1.00  0.00     0.278 C 
ENDBRANCH  14  20
ENDBRANCH   8  13
BRANCH  12  22
ATOM     22  N   UNL A   1      31.294  23.248  24.531  1.00  0.00    -0.383 N 
ATOM     23  H   UNL A   1      31.224  22.928  23.602  1.00  0.00     0.158 HD
ATOM     24  H   UNL A   1      31.056  22.651  25.276  1.00  0.00     0.158 HD
ENDBRANCH  12  22
ENDBRANCH   5   7
ENDBRANCH   4   5
ENDBRANCH   3   4
ENDBRANCH   2   3
ENDBRANCH   1   2
BRANCH   1  25
ATOM     25  C   UNL A   1      37.636  20.932  24.991  1.00  0.00     0.202 C 
BRANCH  25  26
ATOM     26  C   UNL A   1      38.933  21.358  25.682  1.00  0.00     0.261 C 
BRANCH  26  27
ATOM     27  O   UNL A   1      38.709  22.543  26.481  1.00  0.00    -0.460 OA
BRANCH  27  28
ATOM     28  C   UNL A   1      39.817  23.091  27.061  1.00  0.00     0.338 C 
ATOM     29  O   UNL A   1      40.689  22.463  27.639  1.00  0.00    -0.246 OA
BRANCH  28  30
ATOM     30  C   UNL A   1      39.674  24.577  27.133  1.00  0.00     0.060 A 
ATOM     31  C   UNL A   1      40.369  25.404  26.226  1.00  0.00     0.016 A 
ATOM     32  C   UNL A   1      39.157  25.118  28.304  1.00  0.00     0.016 A 
ATOM     33  C   UNL A   1      40.693  26.727  26.575  1.00  0.00     0.010 A 
ATOM     34  C   UNL A   1      39.606  26.357  28.699  1.00  0.00     0.010 A 
ATOM     35  C   UNL A   1      40.387  27.173  27.855  1.00  0.00    -0.014 A 
BRANCH  35  36
ATOM     36  C   UNL A   1      40.810  28.425  28.501  1.00  0.00     0.031 A 
ATOM     37  C   UNL A   1      39.789  29.501  28.602  1.00  0.00     0.074 A 
ATOM     38  C   UNL A   1      41.886  28.453  29.328  1.00  0.00     0.049 A 
ATOM     39  N   UNL A   1      39.947  30.592  29.259  1.00  0.00    -0.248 NA
ATOM     40  C   UNL A   1      38.483  29.444  27.943  1.00  0.00     0.031 C 
ATOM     41  C   UNL A   1      42.012  29.212  30.580  1.00  0.00     0.029 A 
ATOM     42  N   UNL A   1      43.093  27.741  29.278  1.00  0.00    -0.354 N 
ATOM     43  C   UNL A   1      38.720  31.191  29.410  1.00  0.00     0.074 A 
ATOM     44  C   UNL A   1      37.867  30.503  28.478  1.00  0.00     0.031 C 
ATOM     45  C   UNL A   1      43.272  29.136  31.040  1.00  0.00     0.029 A 
ATOM     46  C   UNL A   1      44.050  28.454  30.027  1.00  0.00     0.049 A 
ATOM     47  H   UNL A   1      43.244  26.892  28.804  1.00  0.00     0.167 HD
ATOM     48  C   UNL A   1      38.593  32.121  30.399  1.00  0.00     0.037 A 
ATOM     49  C   UNL A   1      45.193  28.910  29.448  1.00  0.00     0.037 A 
ATOM     50  C   UNL A   1      39.921  32.447  30.947  1.00  0.00     0.049 A 
ATOM     51  C   UNL A   1      45.167  30.409  29.447  1.00  0.00     0.074 A 
ATOM     52  C   UNL A   1      40.569  32.159  32.137  1.00  0.00     0.029 A 
ATOM     53  N   UNL A   1      40.906  32.911  30.072  1.00  0.00    -0.354 N 
ATOM     54  N   UNL A   1      44.050  31.083  29.501  1.00  0.00    -0.248 NA
ATOM     55  C   UNL A   1      46.346  31.264  29.511  1.00  0.00     0.031 C 
ATOM     56  C   UNL A   1      41.963  32.389  31.938  1.00  0.00     0.029 A 
ATOM     57  C   UNL A   1      42.161  32.848  30.643  1.00  0.00     0.049 A 
ATOM     58  H   UNL A   1      40.727  33.240  29.161  1.00  0.00     0.167 HD
ATOM     59  C   UNL A   1      44.325  32.397  29.706  1.00  0.00     0.074 A 
ATOM     60  C   UNL A   1      45.775  32.474  29.655  1.00  0.00     0.031 C 
ATOM     61  C   UNL A   1      43.343  33.316  29.922  1.00  0.00     0.037 A 
BRANCH  48  62
ATOM     62  C   UNL A   1      37.297  32.648  30.998  1.00  0.00     0.064 A 
ATOM     63  C   UNL A   1      36.459  33.495  30.235  1.00  0.00     0.173 A 
ATOM     64  C   UNL A   1      36.845  32.437  32.319  1.00  0.00     0.173 A 
ATOM     65  F   UNL A   1      36.747  33.799  28.962  1.00  0.00    -0.203 F 
ATOM     66  C   UNL A   1      35.294  34.079  30.750  1.00  0.00     0.198 A 
ATOM     67  C   UNL A   1      35.664  32.996  32.824  1.00  0.00     0.198 A 
ATOM     68  F   UNL A   1      37.525  31.710  33.204  1.00  0.00    -0.203 F 
ATOM     69  F   UNL A   1      34.567  34.903  29.982  1.00  0.00    -0.200 F 
ATOM     70  C   UNL A   1      34.892  33.825  32.044  1.00  0.00     0.200 A 
ATOM     71  F   UNL A   1      35.295  32.732  34.086  1.00  0.00    -0.200 F 
ATOM     72  F   UNL A   1      33.777  34.378  32.537  1.00  0.00    -0.200 F 
ENDBRANCH  48  62
BRANCH  49  73
ATOM     73  C   UNL A   1      45.698  27.956  28.421  1.00  0.00     0.064 A 
ATOM     74  C   UNL A   1      46.238  26.752  28.925  1.00  0.00     0.173 A 
ATOM     75  C   UNL A   1      45.134  27.920  27.136  1.00  0.00     0.173 A 
ATOM     76  F   UNL A   1      46.780  26.724  30.154  1.00  0.00    -0.203 F 
ATOM     77  C   UNL A   1      46.056  25.541  28.260  1.00  0.00     0.198 A 
ATOM     78  C   UNL A   1      44.946  26.699  26.477  1.00  0.00     0.198 A 
ATOM     79  F   UNL A   1      44.597  29.026  26.603  1.00  0.00    -0.203 F 
ATOM     80  F   UNL A   1      46.418  24.391  28.851  1.00  0.00    -0.200 F 
ATOM     81  C   UNL A   1      45.367  25.511  27.060  1.00  0.00     0.200 A 
ATOM     82  F   UNL A   1      44.244  26.655  25.335  1.00  0.00    -0.200 F 
ATOM     83  F   UNL A   1      45.039  24.333  26.507  1.00  0.00    -0.200 F 
ENDBRANCH  49  73
BRANCH  61  84
ATOM     84  C   UNL A   1      43.477  34.763  29.534  1.00  0.00     0.064 A 
ATOM     85  C   UNL A   1      43.260  35.229  28.224  1.00  0.00     0.173 A 
ATOM     86  C   UNL A   1      43.643  35.765  30.516  1.00  0.00     0.173 A 
ATOM     87  F   UNL A   1      42.936  34.399  27.223  1.00  0.00    -0.203 F 
ATOM     88  C   UNL A   1      43.305  36.584  27.905  1.00  0.00     0.198 A 
ATOM     89  C   UNL A   1      43.609  37.122  30.205  1.00  0.00     0.198 A 
ATOM     90  F   UNL A   1      43.800  35.469  31.813  1.00  0.00    -0.203 F 
ATOM     91  F   UNL A   1      43.154  36.966  26.629  1.00  0.00    -0.200 F 
ATOM     92  C   UNL A   1      43.468  37.531  28.896  1.00  0.00     0.200 A 
ATOM     93  F   UNL A   1      43.688  38.030  31.188  1.00  0.00    -0.200 F 
ATOM     94  F   UNL A   1      43.464  38.834  28.592  1.00  0.00    -0.200 F 
ENDBRANCH  61  84
ENDBRANCH  35  36
ENDBRANCH  28  30
ENDBRANCH  27  28
ENDBRANCH  26  27
ENDBRANCH  25  26
ENDBRANCH   1  25
TORSDOF 17
ENDMDL
MODEL 3
REMARK VINA RESULT:     -11.5      2.491      3.421
REMARK SMILES COc1ccc(-c2cnc(N)c(C(=O)OCCOCCOC(=O)c3ccc(-c4c5nc(c(-c6c(F)c(F)c(F)c(F)c6F)c6ccc([nH]6)c(-c6c(F)c(F)c(F)c(F)c6F)c6nc(c(-c7c(F)c(F)c(F)c(F)c7F)c7ccc4[nH]7)C=C6)C=C5)cc3)c2)c(C)c1
REMARK SMILES IDX 18 1 17 2 16 3 15 4 13 5 14 6 12 7 7 8 8 9 87 10 9 11 10 12
REMARK SMILES IDX 6 13 3 14 4 15 90 16 5 17 88 18 89 19 2 20 1 21 11 22 19 25
REMARK SMILES IDX 20 26 21 27 22 28 23 29 24 30 25 31 86 32 26 33 85 34 27 35
REMARK SMILES IDX 28 36 29 37 79 38 30 39 84 40 78 41 80 42 31 43 83 44 77 45
REMARK SMILES IDX 76 46 32 48 64 49 44 50 63 51 45 52 48 53 62 54 81 55 46 56
REMARK SMILES IDX 47 57 61 59 82 60 49 61 33 62 34 63 42 64 35 65 36 66 40 67
REMARK SMILES IDX 43 68 37 69 38 70 41 71 39 72 65 73 66 74 74 75 67 76 68 77
REMARK SMILES IDX 72 78 75 79 69 80 70 81 73 82 71 83 50 84 51 85 59 86 52 87
REMARK SMILES IDX 53 88 57 89 60 90 54 91 55 92 58 93 56 94
REMARK H PARENT 11 23 11 24 80 47 48 58
REMARK Flexibility Score: inf
ROOT
ATOM      1  O   UNL A   1      33.183  29.606  25.587  1.00  0.00    -0.374 OA
ENDROOT
BRANCH   1   2
ATOM      2  C   UNL A   1      33.573  28.292  25.934  1.00  0.00     0.202 C 
BRANCH   2   3
ATOM      3  C   UNL A   1      32.297  27.515  26.131  1.00  0.00     0.261 C 
BRANCH   3   4
ATOM      4  O   UNL A   1      31.474  27.569  24.946  1.00  0.00    -0.460 OA
BRANCH   4   5
ATOM      5  C   UNL A   1      30.917  26.442  24.417  1.00  0.00     0.342 C 
ATOM      6  O   UNL A   1      29.744  26.137  24.410  1.00  0.00    -0.246 OA
BRANCH   5   7
ATOM      7  C   UNL A   1      31.944  25.667  23.697  1.00  0.00     0.102 A 
ATOM      8  C   UNL A   1      32.928  23.488  23.367  1.00  0.00     0.001 A 
ATOM      9  C   UNL A   1      33.448  24.003  22.183  1.00  0.00     0.122 A 
ATOM     10  C   UNL A   1      32.167  24.358  24.140  1.00  0.00     0.030 A 
ATOM     11  N   UNL A   1      33.313  25.285  21.770  1.00  0.00    -0.238 NA
ATOM     12  C   UNL A   1      32.574  26.110  22.532  1.00  0.00     0.138 A 
BRANCH   8  13
ATOM     13  C   UNL A   1      33.209  22.117  23.797  1.00  0.00    -0.014 A 
ATOM     14  C   UNL A   1      33.581  19.419  24.516  1.00  0.00     0.119 A 
ATOM     15  C   UNL A   1      32.442  19.795  23.817  1.00  0.00     0.047 A 
ATOM     16  C   UNL A   1      34.520  20.384  24.881  1.00  0.00     0.050 A 
ATOM     17  C   UNL A   1      32.264  21.129  23.459  1.00  0.00     0.013 A 
ATOM     18  C   UNL A   1      34.360  21.735  24.518  1.00  0.00    -0.040 A 
ATOM     19  C   UNL A   1      35.454  22.689  24.925  1.00  0.00     0.045 C 
BRANCH  14  20
ATOM     20  O   UNL A   1      33.830  18.140  24.931  1.00  0.00    -0.497 OA
ATOM     21  C   UNL A   1      32.660  17.430  25.332  1.00  0.00     0.278 C 
ENDBRANCH  14  20
ENDBRANCH   8  13
BRANCH  12  22
ATOM     22  N   UNL A   1      32.572  27.422  22.107  1.00  0.00    -0.383 N 
ATOM     23  H   UNL A   1      33.405  27.947  22.129  1.00  0.00     0.158 HD
ATOM     24  H   UNL A   1      31.739  27.834  21.783  1.00  0.00     0.158 HD
ENDBRANCH  12  22
ENDBRANCH   5   7
ENDBRANCH   4   5
ENDBRANCH   3   4
ENDBRANCH   2   3
ENDBRANCH   1   2
BRANCH   1  25
ATOM     25  C   UNL A   1      32.920  30.490  26.656  1.00  0.00     0.202 C 
BRANCH  25  26
ATOM     26  C   UNL A   1      34.135  30.649  27.572  1.00  0.00     0.261 C 
BRANCH  26  27
ATOM     27  O   UNL A   1      34.606  32.016  27.548  1.00  0.00    -0.460 OA
BRANCH  27  28
ATOM     28  C   UNL A   1      34.446  32.724  28.704  1.00  0.00     0.338 C 
ATOM     29  O   UNL A   1      33.483  33.427  28.968  1.00  0.00    -0.246 OA
BRANCH  28  30
ATOM     30  C   UNL A   1      35.726  32.743  29.474  1.00  0.00     0.060 A 
ATOM     31  C   UNL A   1      36.917  33.191  28.864  1.00  0.00     0.016 A 
ATOM     32  C   UNL A   1      35.788  31.989  30.639  1.00  0.00     0.016 A 
ATOM     33  C   UNL A   1      38.166  32.737  29.325  1.00  0.00     0.010 A 
ATOM     34  C   UNL A   1      36.998  31.432  30.987  1.00  0.00     0.010 A 
ATOM     35  C   UNL A   1      38.197  31.781  30.334  1.00  0.00    -0.014 A 
BRANCH  35  36
ATOM     36  C   UNL A   1      39.357  31.020  30.822  1.00  0.00     0.031 A 
ATOM     37  C   UNL A   1      39.676  29.758  30.103  1.00  0.00     0.074 A 
ATOM     38  C   UNL A   1      40.320  31.620  31.567  1.00  0.00     0.049 A 
ATOM     39  N   UNL A   1      40.731  29.055  30.305  1.00  0.00    -0.248 NA
ATOM     40  C   UNL A   1      38.808  29.161  29.088  1.00  0.00     0.031 C 
ATOM     41  C   UNL A   1      41.770  31.392  31.478  1.00  0.00     0.029 A 
ATOM     42  N   UNL A   1      40.228  32.638  32.526  1.00  0.00    -0.354 N 
ATOM     43  C   UNL A   1      40.864  28.163  29.269  1.00  0.00     0.074 A 
ATOM     44  C   UNL A   1      39.588  28.189  28.605  1.00  0.00     0.031 C 
ATOM     45  C   UNL A   1      42.398  32.028  32.481  1.00  0.00     0.029 A 
ATOM     46  C   UNL A   1      41.371  32.566  33.347  1.00  0.00     0.049 A 
ATOM     47  H   UNL A   1      39.494  33.288  32.611  1.00  0.00     0.167 HD
ATOM     48  C   UNL A   1      42.097  27.614  29.068  1.00  0.00     0.037 A 
ATOM     49  C   UNL A   1      41.258  32.357  34.687  1.00  0.00     0.037 A 
ATOM     50  C   UNL A   1      42.978  27.945  30.202  1.00  0.00     0.049 A 
ATOM     51  C   UNL A   1      41.850  31.020  35.017  1.00  0.00     0.074 A 
ATOM     52  C   UNL A   1      44.056  28.798  30.366  1.00  0.00     0.029 A 
ATOM     53  N   UNL A   1      42.571  27.581  31.488  1.00  0.00    -0.354 N 
ATOM     54  N   UNL A   1      41.948  30.067  34.130  1.00  0.00    -0.248 NA
ATOM     55  C   UNL A   1      42.478  30.676  36.286  1.00  0.00     0.031 C 
ATOM     56  C   UNL A   1      44.242  28.996  31.767  1.00  0.00     0.029 A 
ATOM     57  C   UNL A   1      43.304  28.239  32.455  1.00  0.00     0.049 A 
ATOM     58  H   UNL A   1      41.851  26.937  31.680  1.00  0.00     0.167 HD
ATOM     59  C   UNL A   1      42.708  29.061  34.631  1.00  0.00     0.074 A 
ATOM     60  C   UNL A   1      42.978  29.460  36.002  1.00  0.00     0.031 C 
ATOM     61  C   UNL A   1      43.076  27.987  33.877  1.00  0.00     0.037 A 
BRANCH  48  62
ATOM     62  C   UNL A   1      42.589  26.906  27.814  1.00  0.00     0.064 A 
ATOM     63  C   UNL A   1      42.207  25.568  27.561  1.00  0.00     0.173 A 
ATOM     64  C   UNL A   1      43.486  27.434  26.859  1.00  0.00     0.173 A 
ATOM     65  F   UNL A   1      41.363  24.918  28.373  1.00  0.00    -0.203 F 
ATOM     66  C   UNL A   1      42.688  24.832  26.469  1.00  0.00     0.198 A 
ATOM     67  C   UNL A   1      43.941  26.708  25.751  1.00  0.00     0.198 A 
ATOM     68  F   UNL A   1      43.998  28.661  26.954  1.00  0.00    -0.203 F 
ATOM     69  F   UNL A   1      42.312  23.554  26.312  1.00  0.00    -0.200 F 
ATOM     70  C   UNL A   1      43.550  25.404  25.560  1.00  0.00     0.200 A 
ATOM     71  F   UNL A   1      44.781  27.289  24.880  1.00  0.00    -0.200 F 
ATOM     72  F   UNL A   1      44.007  24.704  24.513  1.00  0.00    -0.200 F 
ENDBRANCH  48  62
BRANCH  49  73
ATOM     73  C   UNL A   1      40.057  33.041  35.242  1.00  0.00     0.064 A 
ATOM     74  C   UNL A   1      39.058  32.187  35.762  1.00  0.00     0.173 A 
ATOM     75  C   UNL A   1      40.154  34.328  35.796  1.00  0.00     0.173 A 
ATOM     76  F   UNL A   1      38.927  30.941  35.279  1.00  0.00    -0.203 F 
ATOM     77  C   UNL A   1      38.327  32.534  36.896  1.00  0.00     0.198 A 
ATOM     78  C   UNL A   1      39.423  34.665  36.941  1.00  0.00     0.198 A 
ATOM     79  F   UNL A   1      41.086  35.184  35.354  1.00  0.00    -0.203 F 
ATOM     80  F   UNL A   1      37.519  31.630  37.474  1.00  0.00    -0.200 F 
ATOM     81  C   UNL A   1      38.546  33.754  37.512  1.00  0.00     0.200 A 
ATOM     82  F   UNL A   1      39.658  35.828  37.568  1.00  0.00    -0.200 F 
ATOM     83  F   UNL A   1      37.973  34.016  38.697  1.00  0.00    -0.200 F 
ENDBRANCH  49  73
BRANCH  61  84
ATOM     84  C   UNL A   1      43.332  26.625  34.460  1.00  0.00     0.064 A 
ATOM     85  C   UNL A   1      42.303  25.785  34.925  1.00  0.00     0.173 A 
ATOM     86  C   UNL A   1      44.615  26.036  34.395  1.00  0.00     0.173 A 
ATOM     87  F   UNL A   1      41.017  26.159  34.897  1.00  0.00    -0.203 F 
ATOM     88  C   UNL A   1      42.554  24.493  35.383  1.00  0.00     0.198 A 
ATOM     89  C   UNL A   1      44.847  24.719  34.780  1.00  0.00     0.198 A 
ATOM     90  F   UNL A   1      45.676  26.700  33.917  1.00  0.00    -0.203 F 
ATOM     91  F   UNL A   1      41.545  23.761  35.875  1.00  0.00    -0.200 F 
ATOM     92  C   UNL A   1      43.822  23.957  35.300  1.00  0.00     0.200 A 
ATOM     93  F   UNL A   1      46.066  24.186  34.618  1.00  0.00    -0.200 F 
ATOM     94  F   UNL A   1      44.051  22.699  35.698  1.00  0.00    -0.200 F 
ENDBRANCH  61  84
ENDBRANCH  35  36
ENDBRANCH  28  30
ENDBRANCH  27  28
ENDBRANCH  26  27
ENDBRANCH  25  26
ENDBRANCH   1  25
TORSDOF 17
ENDMDL
