MODEL 1
REMARK VINA RESULT:     -12.4      0.000      0.000
REMARK SMILES Cc1c(-c2nn(-c3ccccc3)cc2/C=N/O)nnn1-c1ccc(C(=O)OCCOCCOC(=O)c2ccc(-c3c4nc(c(-c5c(F)c(F)c(F)c(F)c5F)c5ccc([nH]5)c(-c5c(F)c(F)c(F)c(F)c5F)c5nc(c(-c6c(F)c(F)c(F)c(F)c6F)c6ccc3[nH]6)C=C5)C=C4)cc2)cc1
REMARK SMILES IDX 29 1 28 2 27 3 25 4 26 5 24 6 21 7 22 8 100 9 23 10 99 11
REMARK SMILES IDX 20 12 1 13 2 14 3 15 18 16 19 17 4 18 5 19 14 20 6 21 13 22
REMARK SMILES IDX 15 23 16 24 17 25 7 27 8 28 12 29 9 30 11 31 10 32 30 33
REMARK SMILES IDX 31 34 32 35 33 36 34 37 35 38 36 39 37 40 98 41 38 42 97 43
REMARK SMILES IDX 39 44 40 45 41 46 91 47 42 48 96 49 90 50 92 51 43 52 95 53
REMARK SMILES IDX 89 54 88 55 44 57 76 58 56 59 75 60 57 61 60 62 74 63 93 64
REMARK SMILES IDX 58 65 59 66 73 68 94 69 61 70 45 71 46 72 54 73 47 74 48 75
REMARK SMILES IDX 52 76 55 77 49 78 50 79 53 80 51 81 77 82 78 83 86 84 79 85
REMARK SMILES IDX 80 86 84 87 87 88 81 89 82 90 85 91 83 92 62 93 63 94 71 95
REMARK SMILES IDX 64 96 65 97 69 98 72 99 66 100 67 101 70 102 68 103
REMARK H PARENT 17 26 92 56 60 67
REMARK Flexibility Score: inf
ROOT
ATOM      1  C   UNL A   1      33.364  36.790  29.762  1.00  0.00     0.202 C 
ENDROOT
BRANCH   1   2
ATOM      2  C   UNL A   1      32.908  35.336  29.624  1.00  0.00     0.261 C 
BRANCH   2   3
ATOM      3  O   UNL A   1      33.499  34.684  28.486  1.00  0.00    -0.460 OA
BRANCH   3   4
ATOM      4  C   UNL A   1      34.360  33.684  28.801  1.00  0.00     0.338 C 
ATOM      5  O   UNL A   1      35.240  33.712  29.643  1.00  0.00    -0.246 OA
BRANCH   4   6
ATOM      6  C   UNL A   1      34.018  32.448  28.067  1.00  0.00     0.060 A 
ATOM      7  C   UNL A   1      33.086  30.036  27.066  1.00  0.00     0.067 A 
ATOM      8  C   UNL A   1      32.290  31.176  26.933  1.00  0.00     0.029 A 
ATOM      9  C   UNL A   1      34.392  30.124  27.573  1.00  0.00     0.029 A 
ATOM     10  C   UNL A   1      32.750  32.377  27.469  1.00  0.00     0.018 A 
ATOM     11  C   UNL A   1      34.870  31.342  28.058  1.00  0.00     0.018 A 
BRANCH   7  12
ATOM     12  N   UNL A   1      32.501  28.773  26.833  1.00  0.00    -0.217 N 
ATOM     13  C   UNL A   1      33.946  28.040  24.874  1.00  0.00     0.069 C 
ATOM     14  C   UNL A   1      32.825  27.879  25.829  1.00  0.00     0.071 A 
ATOM     15  C   UNL A   1      31.980  26.816  26.070  1.00  0.00     0.137 A 
ATOM     16  N   UNL A   1      31.264  27.031  27.212  1.00  0.00    -0.128 NA
ATOM     17  N   UNL A   1      31.649  28.201  27.715  1.00  0.00    -0.061 NA
BRANCH  15  18
ATOM     18  C   UNL A   1      31.884  25.574  25.310  1.00  0.00     0.124 A 
ATOM     19  N   UNL A   1      32.400  24.423  25.761  1.00  0.00    -0.165 NA
ATOM     20  C   UNL A   1      31.371  25.461  23.999  1.00  0.00     0.044 A 
ATOM     21  N   UNL A   1      32.327  23.585  24.704  1.00  0.00    -0.240 N 
ATOM     22  C   UNL A   1      31.718  24.178  23.622  1.00  0.00     0.125 A 
BRANCH  20  23
ATOM     23  C   UNL A   1      30.669  26.399  23.159  1.00  0.00     0.166 C 
ATOM     24  N   UNL A   1      31.327  27.266  22.464  1.00  0.00    -0.097 NA
BRANCH  24  25
ATOM     25  O   UNL A   1      30.427  28.083  21.770  1.00  0.00    -0.411 OA
ATOM     26  H   UNL A   1      30.099  27.813  20.935  1.00  0.00     0.330 HD
ENDBRANCH  24  25
ENDBRANCH  20  23
BRANCH  21  27
ATOM     27  C   UNL A   1      32.866  22.278  24.766  1.00  0.00     0.065 A 
ATOM     28  C   UNL A   1      34.249  22.099  24.641  1.00  0.00     0.028 A 
ATOM     29  C   UNL A   1      32.026  21.173  24.950  1.00  0.00     0.028 A 
ATOM     30  C   UNL A   1      34.792  20.817  24.743  1.00  0.00     0.002 A 
ATOM     31  C   UNL A   1      32.573  19.890  24.998  1.00  0.00     0.002 A 
ATOM     32  C   UNL A   1      33.955  19.713  24.911  1.00  0.00     0.000 A 
ENDBRANCH  21  27
ENDBRANCH  15  18
ENDBRANCH   7  12
ENDBRANCH   4   6
ENDBRANCH   3   4
ENDBRANCH   2   3
ENDBRANCH   1   2
BRANCH   1  33
ATOM     33  O   UNL A   1      32.888  37.519  30.893  1.00  0.00    -0.374 OA
BRANCH  33  34
ATOM     34  C   UNL A   1      33.789  37.827  31.948  1.00  0.00     0.202 C 
BRANCH  34  35
ATOM     35  C   UNL A   1      33.553  37.162  33.295  1.00  0.00     0.261 C 
BRANCH  35  36
ATOM     36  O   UNL A   1      34.499  36.142  33.587  1.00  0.00    -0.460 OA
BRANCH  36  37
ATOM     37  C   UNL A   1      34.133  34.922  33.126  1.00  0.00     0.338 C 
ATOM     38  O   UNL A   1      33.015  34.553  32.821  1.00  0.00    -0.246 OA
BRANCH  37  39
ATOM     39  C   UNL A   1      35.286  34.022  33.224  1.00  0.00     0.060 A 
ATOM     40  C   UNL A   1      36.546  34.623  33.236  1.00  0.00     0.016 A 
ATOM     41  C   UNL A   1      35.129  32.634  33.069  1.00  0.00     0.016 A 
ATOM     42  C   UNL A   1      37.648  33.849  32.947  1.00  0.00     0.010 A 
ATOM     43  C   UNL A   1      36.230  31.864  32.768  1.00  0.00     0.010 A 
ATOM     44  C   UNL A   1      37.468  32.491  32.658  1.00  0.00    -0.014 A 
BRANCH  44  45
ATOM     45  C   UNL A   1      38.654  31.712  32.372  1.00  0.00     0.031 A 
ATOM     46  C   UNL A   1      39.488  31.478  33.566  1.00  0.00     0.074 A 
ATOM     47  C   UNL A   1      38.919  31.189  31.160  1.00  0.00     0.049 A 
ATOM     48  N   UNL A   1      40.682  31.913  33.783  1.00  0.00    -0.248 NA
ATOM     49  C   UNL A   1      38.872  30.802  34.719  1.00  0.00     0.031 C 
ATOM     50  C   UNL A   1      38.007  31.122  30.017  1.00  0.00     0.029 A 
ATOM     51  N   UNL A   1      40.024  30.516  30.728  1.00  0.00    -0.354 N 
ATOM     52  C   UNL A   1      41.051  31.383  35.015  1.00  0.00     0.074 A 
ATOM     53  C   UNL A   1      39.851  30.875  35.621  1.00  0.00     0.031 C 
ATOM     54  C   UNL A   1      38.513  30.270  29.099  1.00  0.00     0.029 A 
ATOM     55  C   UNL A   1      39.834  29.840  29.531  1.00  0.00     0.049 A 
ATOM     56  H   UNL A   1      40.878  30.511  31.218  1.00  0.00     0.167 HD
ATOM     57  C   UNL A   1      42.360  31.130  35.275  1.00  0.00     0.037 A 
ATOM     58  C   UNL A   1      40.680  28.954  28.953  1.00  0.00     0.037 A 
ATOM     59  C   UNL A   1      43.215  31.844  34.361  1.00  0.00     0.049 A 
ATOM     60  C   UNL A   1      42.039  29.182  29.496  1.00  0.00     0.074 A 
ATOM     61  C   UNL A   1      43.699  33.125  34.229  1.00  0.00     0.029 A 
ATOM     62  N   UNL A   1      43.405  31.210  33.164  1.00  0.00    -0.354 N 
ATOM     63  N   UNL A   1      42.755  30.237  29.227  1.00  0.00    -0.248 NA
ATOM     64  C   UNL A   1      42.521  28.369  30.609  1.00  0.00     0.031 C 
ATOM     65  C   UNL A   1      44.097  33.269  32.866  1.00  0.00     0.029 A 
ATOM     66  C   UNL A   1      43.854  32.070  32.201  1.00  0.00     0.049 A 
ATOM     67  H   UNL A   1      43.240  30.250  33.015  1.00  0.00     0.167 HD
ATOM     68  C   UNL A   1      43.492  30.447  30.374  1.00  0.00     0.074 A 
ATOM     69  C   UNL A   1      43.460  29.184  31.096  1.00  0.00     0.031 C 
ATOM     70  C   UNL A   1      43.758  31.711  30.806  1.00  0.00     0.037 A 
BRANCH  57  71
ATOM     71  C   UNL A   1      42.860  29.884  35.976  1.00  0.00     0.064 A 
ATOM     72  C   UNL A   1      43.855  30.026  36.967  1.00  0.00     0.173 A 
ATOM     73  C   UNL A   1      42.667  28.568  35.500  1.00  0.00     0.173 A 
ATOM     74  F   UNL A   1      44.131  31.230  37.490  1.00  0.00    -0.203 F 
ATOM     75  C   UNL A   1      44.653  28.954  37.374  1.00  0.00     0.198 A 
ATOM     76  C   UNL A   1      43.431  27.491  35.947  1.00  0.00     0.198 A 
ATOM     77  F   UNL A   1      41.820  28.277  34.507  1.00  0.00    -0.203 F 
ATOM     78  F   UNL A   1      45.670  29.165  38.220  1.00  0.00    -0.200 F 
ATOM     79  C   UNL A   1      44.446  27.689  36.857  1.00  0.00     0.200 A 
ATOM     80  F   UNL A   1      43.227  26.276  35.419  1.00  0.00    -0.200 F 
ATOM     81  F   UNL A   1      45.249  26.673  37.197  1.00  0.00    -0.200 F 
ENDBRANCH  57  71
BRANCH  58  82
ATOM     82  C   UNL A   1      40.372  27.812  28.066  1.00  0.00     0.064 A 
ATOM     83  C   UNL A   1      41.029  27.650  26.837  1.00  0.00     0.173 A 
ATOM     84  C   UNL A   1      39.618  26.716  28.525  1.00  0.00     0.173 A 
ATOM     85  F   UNL A   1      41.799  28.632  26.346  1.00  0.00    -0.203 F 
ATOM     86  C   UNL A   1      40.964  26.449  26.124  1.00  0.00     0.198 A 
ATOM     87  C   UNL A   1      39.543  25.522  27.807  1.00  0.00     0.198 A 
ATOM     88  F   UNL A   1      39.017  26.748  29.724  1.00  0.00    -0.203 F 
ATOM     89  F   UNL A   1      41.660  26.308  24.988  1.00  0.00    -0.200 F 
ATOM     90  C   UNL A   1      40.228  25.383  26.615  1.00  0.00     0.200 A 
ATOM     91  F   UNL A   1      38.855  24.486  28.310  1.00  0.00    -0.200 F 
ATOM     92  F   UNL A   1      40.216  24.212  25.964  1.00  0.00    -0.200 F 
ENDBRANCH  58  82
BRANCH  70  93
ATOM     93  C   UNL A   1      43.770  32.794  29.777  1.00  0.00     0.064 A 
ATOM     94  C   UNL A   1      44.843  33.047  28.907  1.00  0.00     0.173 A 
ATOM     95  C   UNL A   1      42.620  33.582  29.642  1.00  0.00     0.173 A 
ATOM     96  F   UNL A   1      45.943  32.282  28.929  1.00  0.00    -0.203 F 
ATOM     97  C   UNL A   1      44.779  34.080  27.975  1.00  0.00     0.198 A 
ATOM     98  C   UNL A   1      42.545  34.588  28.685  1.00  0.00     0.198 A 
ATOM     99  F   UNL A   1      41.553  33.357  30.425  1.00  0.00    -0.203 F 
ATOM    100  F   UNL A   1      45.825  34.327  27.172  1.00  0.00    -0.200 F 
ATOM    101  C   UNL A   1      43.628  34.845  27.861  1.00  0.00     0.200 A 
ATOM    102  F   UNL A   1      41.416  35.298  28.553  1.00  0.00    -0.200 F 
ATOM    103  F   UNL A   1      43.556  35.821  26.944  1.00  0.00    -0.200 F 
ENDBRANCH  70  93
ENDBRANCH  44  45
ENDBRANCH  37  39
ENDBRANCH  36  37
ENDBRANCH  35  36
ENDBRANCH  34  35
ENDBRANCH  33  34
ENDBRANCH   1  33
TORSDOF 19
ENDMDL
MODEL 2
REMARK VINA RESULT:     -12.2      2.989      4.600
REMARK SMILES Cc1c(-c2nn(-c3ccccc3)cc2/C=N/O)nnn1-c1ccc(C(=O)OCCOCCOC(=O)c2ccc(-c3c4nc(c(-c5c(F)c(F)c(F)c(F)c5F)c5ccc([nH]5)c(-c5c(F)c(F)c(F)c(F)c5F)c5nc(c(-c6c(F)c(F)c(F)c(F)c6F)c6ccc3[nH]6)C=C5)C=C4)cc2)cc1
REMARK SMILES IDX 29 1 28 2 27 3 25 4 26 5 24 6 21 7 22 8 100 9 23 10 99 11
REMARK SMILES IDX 20 12 1 13 2 14 3 15 18 16 19 17 4 18 5 19 14 20 6 21 13 22
REMARK SMILES IDX 15 23 16 24 17 25 7 27 8 28 12 29 9 30 11 31 10 32 30 33
REMARK SMILES IDX 31 34 32 35 33 36 34 37 35 38 36 39 37 40 98 41 38 42 97 43
REMARK SMILES IDX 39 44 40 45 41 46 91 47 42 48 96 49 90 50 92 51 43 52 95 53
REMARK SMILES IDX 89 54 88 55 44 57 76 58 56 59 75 60 57 61 60 62 74 63 93 64
REMARK SMILES IDX 58 65 59 66 73 68 94 69 61 70 45 71 46 72 54 73 47 74 48 75
REMARK SMILES IDX 52 76 55 77 49 78 50 79 53 80 51 81 77 82 78 83 86 84 79 85
REMARK SMILES IDX 80 86 84 87 87 88 81 89 82 90 85 91 83 92 62 93 63 94 71 95
REMARK SMILES IDX 64 96 65 97 69 98 72 99 66 100 67 101 70 102 68 103
REMARK H PARENT 17 26 92 56 60 67
REMARK Flexibility Score: inf
ROOT
ATOM      1  C   UNL A   1      32.778  33.468  27.415  1.00  0.00     0.202 C 
ENDROOT
BRANCH   1   2
ATOM      2  C   UNL A   1      31.663  32.488  27.044  1.00  0.00     0.261 C 
BRANCH   2   3
ATOM      3  O   UNL A   1      32.171  31.184  26.710  1.00  0.00    -0.460 OA
BRANCH   3   4
ATOM      4  C   UNL A   1      31.463  30.538  25.750  1.00  0.00     0.338 C 
ATOM      5  O   UNL A   1      30.665  31.029  24.971  1.00  0.00    -0.246 OA
BRANCH   4   6
ATOM      6  C   UNL A   1      31.877  29.123  25.656  1.00  0.00     0.060 A 
ATOM      7  C   UNL A   1      32.941  26.619  25.119  1.00  0.00     0.067 A 
ATOM      8  C   UNL A   1      33.686  27.521  25.881  1.00  0.00     0.029 A 
ATOM      9  C   UNL A   1      31.621  26.913  24.743  1.00  0.00     0.029 A 
ATOM     10  C   UNL A   1      33.160  28.790  26.117  1.00  0.00     0.018 A 
ATOM     11  C   UNL A   1      31.077  28.165  25.030  1.00  0.00     0.018 A 
BRANCH   7  12
ATOM     12  N   UNL A   1      33.588  25.478  24.599  1.00  0.00    -0.217 N 
ATOM     13  C   UNL A   1      33.199  23.897  26.552  1.00  0.00     0.069 C 
ATOM     14  C   UNL A   1      33.767  24.262  25.234  1.00  0.00     0.071 A 
ATOM     15  C   UNL A   1      34.429  23.508  24.287  1.00  0.00     0.137 A 
ATOM     16  N   UNL A   1      34.547  24.210  23.123  1.00  0.00    -0.128 NA
ATOM     17  N   UNL A   1      33.957  25.389  23.301  1.00  0.00    -0.061 NA
BRANCH  15  18
ATOM     18  C   UNL A   1      34.879  22.125  24.415  1.00  0.00     0.124 A 
ATOM     19  N   UNL A   1      34.042  21.089  24.267  1.00  0.00    -0.165 NA
ATOM     20  C   UNL A   1      36.171  21.726  24.823  1.00  0.00     0.044 A 
ATOM     21  N   UNL A   1      34.754  20.021  24.686  1.00  0.00    -0.240 N 
ATOM     22  C   UNL A   1      36.039  20.367  25.035  1.00  0.00     0.125 A 
BRANCH  20  23
ATOM     23  C   UNL A   1      37.386  22.473  25.027  1.00  0.00     0.166 C 
ATOM     24  N   UNL A   1      38.329  21.989  25.765  1.00  0.00    -0.097 NA
BRANCH  24  25
ATOM     25  O   UNL A   1      39.378  22.913  25.841  1.00  0.00    -0.411 OA
ATOM     26  H   UNL A   1      39.707  23.180  26.676  1.00  0.00     0.330 HD
ENDBRANCH  24  25
ENDBRANCH  20  23
BRANCH  21  27
ATOM     27  C   UNL A   1      34.169  18.735  24.764  1.00  0.00     0.065 A 
ATOM     28  C   UNL A   1      32.978  18.564  25.482  1.00  0.00     0.028 A 
ATOM     29  C   UNL A   1      34.772  17.642  24.129  1.00  0.00     0.028 A 
ATOM     30  C   UNL A   1      32.372  17.308  25.527  1.00  0.00     0.002 A 
ATOM     31  C   UNL A   1      34.186  16.378  24.226  1.00  0.00     0.002 A 
ATOM     32  C   UNL A   1      32.981  16.214  24.909  1.00  0.00     0.000 A 
ENDBRANCH  21  27
ENDBRANCH  15  18
ENDBRANCH   7  12
ENDBRANCH   4   6
ENDBRANCH   3   4
ENDBRANCH   2   3
ENDBRANCH   1   2
BRANCH   1  33
ATOM     33  O   UNL A   1      32.735  34.040  28.722  1.00  0.00    -0.374 OA
BRANCH  33  34
ATOM     34  C   UNL A   1      33.941  34.505  29.314  1.00  0.00     0.202 C 
BRANCH  34  35
ATOM     35  C   UNL A   1      35.252  33.975  28.755  1.00  0.00     0.261 C 
BRANCH  35  36
ATOM     36  O   UNL A   1      35.881  33.029  29.609  1.00  0.00    -0.460 OA
BRANCH  36  37
ATOM     37  C   UNL A   1      35.689  31.745  29.223  1.00  0.00     0.338 C 
ATOM     38  O   UNL A   1      34.719  31.282  28.656  1.00  0.00    -0.246 OA
BRANCH  37  39
ATOM     39  C   UNL A   1      36.777  30.928  29.770  1.00  0.00     0.060 A 
ATOM     40  C   UNL A   1      38.042  31.516  29.800  1.00  0.00     0.016 A 
ATOM     41  C   UNL A   1      36.591  29.557  30.016  1.00  0.00     0.016 A 
ATOM     42  C   UNL A   1      39.145  30.701  29.936  1.00  0.00     0.010 A 
ATOM     43  C   UNL A   1      37.695  28.742  30.138  1.00  0.00     0.010 A 
ATOM     44  C   UNL A   1      38.958  29.317  30.042  1.00  0.00    -0.014 A 
BRANCH  44  45
ATOM     45  C   UNL A   1      40.142  28.499  30.196  1.00  0.00     0.031 A 
ATOM     46  C   UNL A   1      40.626  28.445  31.589  1.00  0.00     0.074 A 
ATOM     47  C   UNL A   1      40.690  27.798  29.186  1.00  0.00     0.049 A 
ATOM     48  N   UNL A   1      41.740  28.903  32.048  1.00  0.00    -0.248 NA
ATOM     49  C   UNL A   1      39.702  27.953  32.623  1.00  0.00     0.031 C 
ATOM     50  C   UNL A   1      40.106  27.563  27.864  1.00  0.00     0.029 A 
ATOM     51  N   UNL A   1      41.840  27.063  29.163  1.00  0.00    -0.354 N 
ATOM     52  C   UNL A   1      41.751  28.564  33.396  1.00  0.00     0.074 A 
ATOM     53  C   UNL A   1      40.414  28.158  33.731  1.00  0.00     0.031 C 
ATOM     54  C   UNL A   1      40.796  26.580  27.246  1.00  0.00     0.029 A 
ATOM     55  C   UNL A   1      41.938  26.215  28.069  1.00  0.00     0.049 A 
ATOM     56  H   UNL A   1      42.535  27.128  29.857  1.00  0.00     0.167 HD
ATOM     57  C   UNL A   1      42.935  28.348  34.027  1.00  0.00     0.037 A 
ATOM     58  C   UNL A   1      42.866  25.248  27.870  1.00  0.00     0.037 A 
ATOM     59  C   UNL A   1      44.029  28.912  33.278  1.00  0.00     0.049 A 
ATOM     60  C   UNL A   1      44.046  25.550  28.713  1.00  0.00     0.074 A 
ATOM     61  C   UNL A   1      44.587  30.156  33.094  1.00  0.00     0.029 A 
ATOM     62  N   UNL A   1      44.496  28.103  32.278  1.00  0.00    -0.354 N 
ATOM     63  N   UNL A   1      44.853  26.550  28.493  1.00  0.00    -0.248 NA
ATOM     64  C   UNL A   1      44.185  24.912  30.020  1.00  0.00     0.031 C 
ATOM     65  C   UNL A   1      45.332  30.091  31.879  1.00  0.00     0.029 A 
ATOM     66  C   UNL A   1      45.218  28.806  31.354  1.00  0.00     0.049 A 
ATOM     67  H   UNL A   1      44.334  27.133  32.231  1.00  0.00     0.167 HD
ATOM     68  C   UNL A   1      45.273  26.927  29.751  1.00  0.00     0.074 A 
ATOM     69  C   UNL A   1      44.999  25.788  30.614  1.00  0.00     0.031 C 
ATOM     70  C   UNL A   1      45.473  28.241  30.051  1.00  0.00     0.037 A 
BRANCH  57  71
ATOM     71  C   UNL A   1      43.180  27.220  35.008  1.00  0.00     0.064 A 
ATOM     72  C   UNL A   1      43.474  27.550  36.349  1.00  0.00     0.173 A 
ATOM     73  C   UNL A   1      43.472  25.888  34.637  1.00  0.00     0.173 A 
ATOM     74  F   UNL A   1      43.244  28.787  36.814  1.00  0.00    -0.203 F 
ATOM     75  C   UNL A   1      44.095  26.646  37.214  1.00  0.00     0.198 A 
ATOM     76  C   UNL A   1      44.045  24.974  35.520  1.00  0.00     0.198 A 
ATOM     77  F   UNL A   1      43.326  25.440  33.386  1.00  0.00    -0.203 F 
ATOM     78  F   UNL A   1      44.472  27.047  38.436  1.00  0.00    -0.200 F 
ATOM     79  C   UNL A   1      44.389  25.362  36.796  1.00  0.00     0.200 A 
ATOM     80  F   UNL A   1      44.338  23.739  35.089  1.00  0.00    -0.200 F 
ATOM     81  F   UNL A   1      45.041  24.514  37.602  1.00  0.00    -0.200 F 
ENDBRANCH  57  71
BRANCH  58  82
ATOM     82  C   UNL A   1      42.750  23.987  27.108  1.00  0.00     0.064 A 
ATOM     83  C   UNL A   1      43.306  23.859  25.825  1.00  0.00     0.173 A 
ATOM     84  C   UNL A   1      42.320  22.798  27.727  1.00  0.00     0.173 A 
ATOM     85  F   UNL A   1      43.775  24.938  25.180  1.00  0.00    -0.203 F 
ATOM     86  C   UNL A   1      43.456  22.612  25.213  1.00  0.00     0.198 A 
ATOM     87  C   UNL A   1      42.459  21.555  27.110  1.00  0.00     0.198 A 
ATOM     88  F   UNL A   1      41.846  22.809  28.982  1.00  0.00    -0.203 F 
ATOM     89  F   UNL A   1      44.054  22.522  24.017  1.00  0.00    -0.200 F 
ATOM     90  C   UNL A   1      43.040  21.460  25.860  1.00  0.00     0.200 A 
ATOM     91  F   UNL A   1      42.083  20.444  27.762  1.00  0.00    -0.200 F 
ATOM     92  F   UNL A   1      43.240  20.259  25.300  1.00  0.00    -0.200 F 
ENDBRANCH  58  82
BRANCH  70  93
ATOM     93  C   UNL A   1      45.800  29.156  28.916  1.00  0.00     0.064 A 
ATOM     94  C   UNL A   1      47.090  29.336  28.391  1.00  0.00     0.173 A 
ATOM     95  C   UNL A   1      44.745  29.849  28.307  1.00  0.00     0.173 A 
ATOM     96  F   UNL A   1      48.133  28.647  28.874  1.00  0.00    -0.203 F 
ATOM     97  C   UNL A   1      47.314  30.212  27.331  1.00  0.00     0.198 A 
ATOM     98  C   UNL A   1      44.967  30.693  27.226  1.00  0.00     0.198 A 
ATOM     99  F   UNL A   1      43.488  29.683  28.748  1.00  0.00    -0.203 F 
ATOM    100  F   UNL A   1      48.558  30.395  26.862  1.00  0.00    -0.200 F 
ATOM    101  C   UNL A   1      46.252  30.885  26.746  1.00  0.00     0.200 A 
ATOM    102  F   UNL A   1      43.932  31.310  26.639  1.00  0.00    -0.200 F 
ATOM    103  F   UNL A   1      46.465  31.706  25.707  1.00  0.00    -0.200 F 
ENDBRANCH  70  93
ENDBRANCH  44  45
ENDBRANCH  37  39
ENDBRANCH  36  37
ENDBRANCH  35  36
ENDBRANCH  34  35
ENDBRANCH  33  34
ENDBRANCH   1  33
TORSDOF 19
ENDMDL
MODEL 3
REMARK VINA RESULT:     -11.9      3.325      5.896
REMARK SMILES Cc1c(-c2nn(-c3ccccc3)cc2/C=N/O)nnn1-c1ccc(C(=O)OCCOCCOC(=O)c2ccc(-c3c4nc(c(-c5c(F)c(F)c(F)c(F)c5F)c5ccc([nH]5)c(-c5c(F)c(F)c(F)c(F)c5F)c5nc(c(-c6c(F)c(F)c(F)c(F)c6F)c6ccc3[nH]6)C=C5)C=C4)cc2)cc1
REMARK SMILES IDX 29 1 28 2 27 3 25 4 26 5 24 6 21 7 22 8 100 9 23 10 99 11
REMARK SMILES IDX 20 12 1 13 2 14 3 15 18 16 19 17 4 18 5 19 14 20 6 21 13 22
REMARK SMILES IDX 15 23 16 24 17 25 7 27 8 28 12 29 9 30 11 31 10 32 30 33
REMARK SMILES IDX 31 34 32 35 33 36 34 37 35 38 36 39 37 40 98 41 38 42 97 43
REMARK SMILES IDX 39 44 40 45 41 46 91 47 42 48 96 49 90 50 92 51 43 52 95 53
REMARK SMILES IDX 89 54 88 55 44 57 76 58 56 59 75 60 57 61 60 62 74 63 93 64
REMARK SMILES IDX 58 65 59 66 73 68 94 69 61 70 45 71 46 72 54 73 47 74 48 75
REMARK SMILES IDX 52 76 55 77 49 78 50 79 53 80 51 81 77 82 78 83 86 84 79 85
REMARK SMILES IDX 80 86 84 87 87 88 81 89 82 90 85 91 83 92 62 93 63 94 71 95
REMARK SMILES IDX 64 96 65 97 69 98 72 99 66 100 67 101 70 102 68 103
REMARK H PARENT 17 26 92 56 60 67
REMARK Flexibility Score: inf
ROOT
ATOM      1  C   UNL A   1      31.633  29.844  25.134  1.00  0.00     0.202 C 
ENDROOT
BRANCH   1   2
ATOM      2  C   UNL A   1      30.368  29.765  24.276  1.00  0.00     0.261 C 
BRANCH   2   3
ATOM      3  O   UNL A   1      29.936  28.409  24.064  1.00  0.00    -0.460 OA
BRANCH   3   4
ATOM      4  C   UNL A   1      30.032  27.988  22.778  1.00  0.00     0.338 C 
ATOM      5  O   UNL A   1      29.416  28.417  21.818  1.00  0.00    -0.246 OA
BRANCH   4   6
ATOM      6  C   UNL A   1      31.110  26.989  22.632  1.00  0.00     0.060 A 
ATOM      7  C   UNL A   1      33.224  25.205  22.824  1.00  0.00     0.067 A 
ATOM      8  C   UNL A   1      31.970  24.822  23.307  1.00  0.00     0.029 A 
ATOM      9  C   UNL A   1      33.390  26.413  22.130  1.00  0.00     0.029 A 
ATOM     10  C   UNL A   1      30.921  25.737  23.238  1.00  0.00     0.018 A 
ATOM     11  C   UNL A   1      32.322  27.303  22.014  1.00  0.00     0.018 A 
BRANCH   7  12
ATOM     12  N   UNL A   1      34.350  24.434  23.184  1.00  0.00    -0.217 N 
ATOM     13  C   UNL A   1      34.482  25.076  25.640  1.00  0.00     0.069 C 
ATOM     14  C   UNL A   1      34.971  24.394  24.419  1.00  0.00     0.071 A 
ATOM     15  C   UNL A   1      35.987  23.481  24.231  1.00  0.00     0.137 A 
ATOM     16  N   UNL A   1      35.910  22.940  22.981  1.00  0.00    -0.128 NA
ATOM     17  N   UNL A   1      34.854  23.475  22.374  1.00  0.00    -0.061 NA
BRANCH  15  18
ATOM     18  C   UNL A   1      36.974  23.043  25.213  1.00  0.00     0.124 A 
ATOM     19  N   UNL A   1      37.710  23.912  25.918  1.00  0.00    -0.165 NA
ATOM     20  C   UNL A   1      37.355  21.701  25.439  1.00  0.00     0.044 A 
ATOM     21  N   UNL A   1      38.646  23.148  26.522  1.00  0.00    -0.240 N 
ATOM     22  C   UNL A   1      38.468  21.811  26.251  1.00  0.00     0.125 A 
BRANCH  20  23
ATOM     23  C   UNL A   1      36.807  20.455  24.965  1.00  0.00     0.166 C 
ATOM     24  N   UNL A   1      35.545  20.211  25.093  1.00  0.00    -0.097 NA
BRANCH  24  25
ATOM     25  O   UNL A   1      35.270  18.931  24.598  1.00  0.00    -0.411 OA
ATOM     26  H   UNL A   1      35.972  18.369  24.336  1.00  0.00     0.330 HD
ENDBRANCH  24  25
ENDBRANCH  20  23
BRANCH  21  27
ATOM     27  C   UNL A   1      39.677  23.729  27.296  1.00  0.00     0.065 A 
ATOM     28  C   UNL A   1      40.829  22.984  27.578  1.00  0.00     0.028 A 
ATOM     29  C   UNL A   1      39.550  25.037  27.780  1.00  0.00     0.028 A 
ATOM     30  C   UNL A   1      41.868  23.564  28.306  1.00  0.00     0.002 A 
ATOM     31  C   UNL A   1      40.572  25.591  28.553  1.00  0.00     0.002 A 
ATOM     32  C   UNL A   1      41.736  24.862  28.802  1.00  0.00     0.000 A 
ENDBRANCH  21  27
ENDBRANCH  15  18
ENDBRANCH   7  12
ENDBRANCH   4   6
ENDBRANCH   3   4
ENDBRANCH   2   3
ENDBRANCH   1   2
BRANCH   1  33
ATOM     33  O   UNL A   1      31.724  30.923  26.065  1.00  0.00    -0.374 OA
BRANCH  33  34
ATOM     34  C   UNL A   1      32.490  30.752  27.250  1.00  0.00     0.202 C 
BRANCH  34  35
ATOM     35  C   UNL A   1      33.996  30.603  27.102  1.00  0.00     0.261 C 
BRANCH  35  36
ATOM     36  O   UNL A   1      34.701  30.836  28.314  1.00  0.00    -0.460 OA
BRANCH  36  37
ATOM     37  C   UNL A   1      35.780  31.639  28.162  1.00  0.00     0.338 C 
ATOM     38  O   UNL A   1      35.830  32.709  27.587  1.00  0.00    -0.246 OA
BRANCH  37  39
ATOM     39  C   UNL A   1      36.965  30.923  28.647  1.00  0.00     0.060 A 
ATOM     40  C   UNL A   1      38.001  31.707  29.156  1.00  0.00     0.016 A 
ATOM     41  C   UNL A   1      37.134  29.553  28.384  1.00  0.00     0.016 A 
ATOM     42  C   UNL A   1      39.256  31.150  29.269  1.00  0.00     0.010 A 
ATOM     43  C   UNL A   1      38.391  29.001  28.485  1.00  0.00     0.010 A 
ATOM     44  C   UNL A   1      39.446  29.820  28.874  1.00  0.00    -0.014 A 
BRANCH  44  45
ATOM     45  C   UNL A   1      40.777  29.270  29.020  1.00  0.00     0.031 A 
ATOM     46  C   UNL A   1      41.186  29.126  30.430  1.00  0.00     0.074 A 
ATOM     47  C   UNL A   1      41.524  28.860  27.978  1.00  0.00     0.049 A 
ATOM     48  N   UNL A   1      42.140  29.747  31.036  1.00  0.00    -0.248 NA
ATOM     49  C   UNL A   1      40.348  28.299  31.313  1.00  0.00     0.031 C 
ATOM     50  C   UNL A   1      41.080  28.693  26.594  1.00  0.00     0.029 A 
ATOM     51  N   UNL A   1      42.812  28.407  27.958  1.00  0.00    -0.354 N 
ATOM     52  C   UNL A   1      42.158  29.230  32.326  1.00  0.00     0.074 A 
ATOM     53  C   UNL A   1      40.934  28.495  32.493  1.00  0.00     0.031 C 
ATOM     54  C   UNL A   1      42.009  27.985  25.915  1.00  0.00     0.029 A 
ATOM     55  C   UNL A   1      43.160  27.768  26.778  1.00  0.00     0.049 A 
ATOM     56  H   UNL A   1      43.436  28.525  28.710  1.00  0.00     0.167 HD
ATOM     57  C   UNL A   1      43.324  29.193  33.021  1.00  0.00     0.037 A 
ATOM     58  C   UNL A   1      44.294  27.068  26.535  1.00  0.00     0.037 A 
ATOM     59  C   UNL A   1      44.297  30.086  32.444  1.00  0.00     0.049 A 
ATOM     60  C   UNL A   1      45.327  27.500  27.506  1.00  0.00     0.074 A 
ATOM     61  C   UNL A   1      44.562  31.435  32.468  1.00  0.00     0.029 A 
ATOM     62  N   UNL A   1      44.990  29.552  31.392  1.00  0.00    -0.354 N 
ATOM     63  N   UNL A   1      45.893  28.673  27.483  1.00  0.00    -0.248 NA
ATOM     64  C   UNL A   1      45.541  26.728  28.727  1.00  0.00     0.031 C 
ATOM     65  C   UNL A   1      45.366  31.711  31.321  1.00  0.00     0.029 A 
ATOM     66  C   UNL A   1      45.578  30.522  30.629  1.00  0.00     0.049 A 
ATOM     67  H   UNL A   1      45.058  28.587  31.208  1.00  0.00     0.167 HD
ATOM     68  C   UNL A   1      46.149  28.950  28.810  1.00  0.00     0.074 A 
ATOM     69  C   UNL A   1      46.099  27.667  29.494  1.00  0.00     0.031 C 
ATOM     70  C   UNL A   1      46.025  30.219  29.290  1.00  0.00     0.037 A 
BRANCH  57  71
ATOM     71  C   UNL A   1      43.771  28.018  33.867  1.00  0.00     0.064 A 
ATOM     72  C   UNL A   1      43.826  26.742  33.265  1.00  0.00     0.173 A 
ATOM     73  C   UNL A   1      43.814  28.021  35.278  1.00  0.00     0.173 A 
ATOM     74  F   UNL A   1      43.787  26.613  31.930  1.00  0.00    -0.203 F 
ATOM     75  C   UNL A   1      43.829  25.567  34.020  1.00  0.00     0.198 A 
ATOM     76  C   UNL A   1      43.869  26.846  36.028  1.00  0.00     0.198 A 
ATOM     77  F   UNL A   1      43.692  29.139  36.001  1.00  0.00    -0.203 F 
ATOM     78  F   UNL A   1      43.750  24.380  33.404  1.00  0.00    -0.200 F 
ATOM     79  C   UNL A   1      43.841  25.620  35.401  1.00  0.00     0.200 A 
ATOM     80  F   UNL A   1      43.861  26.919  37.366  1.00  0.00    -0.200 F 
ATOM     81  F   UNL A   1      43.779  24.497  36.128  1.00  0.00    -0.200 F 
ENDBRANCH  57  71
BRANCH  58  82
ATOM     82  C   UNL A   1      44.512  25.935  25.611  1.00  0.00     0.064 A 
ATOM     83  C   UNL A   1      45.802  25.582  25.186  1.00  0.00     0.173 A 
ATOM     84  C   UNL A   1      43.486  25.013  25.335  1.00  0.00     0.173 A 
ATOM     85  F   UNL A   1      46.844  26.388  25.443  1.00  0.00    -0.203 F 
ATOM     86  C   UNL A   1      46.057  24.363  24.552  1.00  0.00     0.198 A 
ATOM     87  C   UNL A   1      43.738  23.801  24.691  1.00  0.00     0.198 A 
ATOM     88  F   UNL A   1      42.234  25.225  25.768  1.00  0.00    -0.203 F 
ATOM     89  F   UNL A   1      47.312  24.031  24.222  1.00  0.00    -0.200 F 
ATOM     90  C   UNL A   1      45.026  23.469  24.313  1.00  0.00     0.200 A 
ATOM     91  F   UNL A   1      42.736  22.930  24.496  1.00  0.00    -0.200 F 
ATOM     92  F   UNL A   1      45.279  22.275  23.763  1.00  0.00    -0.200 F 
ENDBRANCH  58  82
BRANCH  70  93
ATOM     93  C   UNL A   1      46.191  31.337  28.313  1.00  0.00     0.064 A 
ATOM     94  C   UNL A   1      47.432  31.829  27.878  1.00  0.00     0.173 A 
ATOM     95  C   UNL A   1      45.035  31.902  27.760  1.00  0.00     0.173 A 
ATOM     96  F   UNL A   1      48.579  31.284  28.307  1.00  0.00    -0.203 F 
ATOM     97  C   UNL A   1      47.505  32.879  26.965  1.00  0.00     0.198 A 
ATOM     98  C   UNL A   1      45.111  32.923  26.820  1.00  0.00     0.198 A 
ATOM     99  F   UNL A   1      43.825  31.442  28.114  1.00  0.00    -0.203 F 
ATOM    100  F   UNL A   1      48.699  33.358  26.584  1.00  0.00    -0.200 F 
ATOM    101  C   UNL A   1      46.345  33.420  26.433  1.00  0.00     0.200 A 
ATOM    102  F   UNL A   1      43.988  33.416  26.279  1.00  0.00    -0.200 F 
ATOM    103  F   UNL A   1      46.415  34.411  25.531  1.00  0.00    -0.200 F 
ENDBRANCH  70  93
ENDBRANCH  44  45
ENDBRANCH  37  39
ENDBRANCH  36  37
ENDBRANCH  35  36
ENDBRANCH  34  35
ENDBRANCH  33  34
ENDBRANCH   1  33
TORSDOF 19
ENDMDL
