MODEL 1
REMARK VINA RESULT:     -13.3      0.000      0.000
REMARK SMILES O=C(NC(=S)Nc1ccccc1C(=O)OCCOCCOC(=O)c1ccc(-c2c3nc(c(-c4c(F)c(F)c(F)c(F)c4F)c4ccc([nH]4)c(-c4c(F)c(F)c(F)c(F)c4F)c4nc(c(-c5c(F)c(F)c(F)c(F)c5F)c5ccc2[nH]5)C=C4)C=C3)cc1)c1ccc2ccccc2c1
REMARK SMILES IDX 17 1 16 2 15 3 13 4 14 5 12 6 7 7 8 8 9 9 11 10 10 11 6 12
REMARK SMILES IDX 4 14 5 15 3 16 1 17 2 18 87 20 88 21 96 22 89 23 95 24 90 25
REMARK SMILES IDX 94 26 91 27 93 28 92 29 18 30 19 31 20 32 21 33 22 34 23 35
REMARK SMILES IDX 24 36 25 37 86 38 26 39 85 40 27 41 28 42 29 43 79 44 30 45
REMARK SMILES IDX 84 46 78 47 80 48 31 49 83 50 77 51 76 52 32 54 64 55 44 56
REMARK SMILES IDX 63 57 45 58 48 59 62 60 81 61 46 62 47 63 61 65 82 66 49 67
REMARK SMILES IDX 33 68 34 69 42 70 35 71 36 72 40 73 43 74 37 75 38 76 41 77
REMARK SMILES IDX 39 78 65 79 66 80 74 81 67 82 68 83 72 84 75 85 69 86 70 87
REMARK SMILES IDX 73 88 71 89 50 90 51 91 59 92 52 93 53 94 57 95 60 96 54 97
REMARK SMILES IDX 55 98 58 99 56 100
REMARK H PARENT 6 13 3 19 80 53 48 64
REMARK Flexibility Score: inf
ROOT
ATOM      1  C   UNL A   1      33.207  29.970  26.172  1.00  0.00     0.202 C 
ENDROOT
BRANCH   1   2
ATOM      2  C   UNL A   1      33.095  28.918  25.039  1.00  0.00     0.261 C 
BRANCH   2   3
ATOM      3  O   UNL A   1      32.981  29.285  23.631  1.00  0.00    -0.460 OA
BRANCH   3   4
ATOM      4  C   UNL A   1      32.274  28.337  22.942  1.00  0.00     0.340 C 
ATOM      5  O   UNL A   1      32.935  27.435  22.440  1.00  0.00    -0.246 OA
BRANCH   4   6
ATOM      6  C   UNL A   1      30.640  28.693  22.625  1.00  0.00     0.083 A 
ATOM      7  C   UNL A   1      29.699  27.320  23.326  1.00  0.00     0.055 A 
ATOM      8  C   UNL A   1      27.934  27.472  23.520  1.00  0.00     0.027 A 
ATOM      9  C   UNL A   1      27.035  28.960  23.144  1.00  0.00     0.002 A 
ATOM     10  C   UNL A   1      29.563  30.375  22.219  1.00  0.00     0.018 A 
ATOM     11  C   UNL A   1      27.792  30.402  22.508  1.00  0.00     0.001 A 
BRANCH   7  12
ATOM     12  N   UNL A   1      30.235  26.622  24.417  1.00  0.00    -0.332 N 
ATOM     13  H   UNL A   1      30.503  27.170  25.189  1.00  0.00     0.169 HD
BRANCH  12  14
ATOM     14  C   UNL A   1      30.430  25.286  24.543  1.00  0.00     0.177 C 
ATOM     15  S   UNL A   1      30.935  24.489  23.148  1.00  0.00    -0.040 S 
BRANCH  14  16
ATOM     16  N   UNL A   1      30.243  24.506  25.696  1.00  0.00    -0.299 N 
ATOM     17  O   UNL A   1      30.022  23.054  27.496  1.00  0.00    -0.269 OA
ATOM     18  C   UNL A   1      30.786  23.677  26.765  1.00  0.00     0.257 C 
ATOM     19  H   UNL A   1      29.273  24.532  25.864  1.00  0.00     0.172 HD
BRANCH  18  20
ATOM     20  C   UNL A   1      32.256  23.566  26.970  1.00  0.00     0.040 A 
ATOM     21  C   UNL A   1      33.039  25.051  26.426  1.00  0.00     0.014 A 
ATOM     22  C   UNL A   1      33.141  22.032  26.666  1.00  0.00     0.022 A 
ATOM     23  C   UNL A   1      34.754  24.903  25.374  1.00  0.00     0.009 A 
ATOM     24  C   UNL A   1      34.684  21.901  25.706  1.00  0.00    -0.018 A 
ATOM     25  C   UNL A   1      35.508  23.322  25.097  1.00  0.00    -0.018 A 
ATOM     26  C   UNL A   1      35.385  20.735  25.374  1.00  0.00     0.009 A 
ATOM     27  C   UNL A   1      36.776  23.210  24.548  1.00  0.00     0.009 A 
ATOM     28  C   UNL A   1      36.668  20.775  24.762  1.00  0.00     0.001 A 
ATOM     29  C   UNL A   1      37.354  21.957  24.416  1.00  0.00     0.001 A 
ENDBRANCH  18  20
ENDBRANCH  14  16
ENDBRANCH  12  14
ENDBRANCH   7  12
ENDBRANCH   4   6
ENDBRANCH   3   4
ENDBRANCH   2   3
ENDBRANCH   1   2
BRANCH   1  30
ATOM     30  O   UNL A   1      32.117  30.473  26.909  1.00  0.00    -0.374 OA
BRANCH  30  31
ATOM     31  C   UNL A   1      31.465  31.667  26.535  1.00  0.00     0.202 C 
BRANCH  31  32
ATOM     32  C   UNL A   1      31.993  33.058  26.920  1.00  0.00     0.261 C 
BRANCH  32  33
ATOM     33  O   UNL A   1      32.630  33.194  28.195  1.00  0.00    -0.460 OA
BRANCH  33  34
ATOM     34  C   UNL A   1      33.716  34.000  28.201  1.00  0.00     0.338 C 
ATOM     35  O   UNL A   1      33.736  35.218  28.141  1.00  0.00    -0.246 OA
BRANCH  34  36
ATOM     36  C   UNL A   1      34.929  33.197  28.450  1.00  0.00     0.060 A 
ATOM     37  C   UNL A   1      34.768  31.906  28.970  1.00  0.00     0.016 A 
ATOM     38  C   UNL A   1      36.203  33.741  28.282  1.00  0.00     0.016 A 
ATOM     39  C   UNL A   1      35.878  31.181  29.386  1.00  0.00     0.010 A 
ATOM     40  C   UNL A   1      37.318  33.017  28.718  1.00  0.00     0.010 A 
ATOM     41  C   UNL A   1      37.154  31.755  29.316  1.00  0.00    -0.014 A 
BRANCH  41  42
ATOM     42  C   UNL A   1      38.272  31.087  30.025  1.00  0.00     0.031 A 
ATOM     43  C   UNL A   1      38.512  31.398  31.477  1.00  0.00     0.074 A 
ATOM     44  C   UNL A   1      39.009  30.152  29.401  1.00  0.00     0.049 A 
ATOM     45  N   UNL A   1      39.403  30.905  32.299  1.00  0.00    -0.248 NA
ATOM     46  C   UNL A   1      37.625  32.402  32.087  1.00  0.00     0.031 C 
ATOM     47  C   UNL A   1      38.841  29.737  28.011  1.00  0.00     0.029 A 
ATOM     48  N   UNL A   1      40.043  29.378  29.864  1.00  0.00    -0.354 N 
ATOM     49  C   UNL A   1      39.191  31.541  33.516  1.00  0.00     0.074 A 
ATOM     50  C   UNL A   1      38.110  32.482  33.317  1.00  0.00     0.031 C 
ATOM     51  C   UNL A   1      39.739  28.779  27.731  1.00  0.00     0.029 A 
ATOM     52  C   UNL A   1      40.566  28.539  28.913  1.00  0.00     0.049 A 
ATOM     53  H   UNL A   1      40.376  29.419  30.789  1.00  0.00     0.167 HD
ATOM     54  C   UNL A   1      39.832  31.348  34.694  1.00  0.00     0.037 A 
ATOM     55  C   UNL A   1      41.606  27.688  28.985  1.00  0.00     0.037 A 
ATOM     56  C   UNL A   1      40.906  30.406  34.884  1.00  0.00     0.049 A 
ATOM     57  C   UNL A   1      42.342  27.537  30.291  1.00  0.00     0.074 A 
ATOM     58  C   UNL A   1      41.608  30.120  36.042  1.00  0.00     0.029 A 
ATOM     59  N   UNL A   1      41.442  29.605  33.886  1.00  0.00    -0.354 N 
ATOM     60  N   UNL A   1      42.120  28.121  31.444  1.00  0.00    -0.248 NA
ATOM     61  C   UNL A   1      43.472  26.598  30.306  1.00  0.00     0.031 C 
ATOM     62  C   UNL A   1      42.613  29.197  35.728  1.00  0.00     0.029 A 
ATOM     63  C   UNL A   1      42.489  28.850  34.392  1.00  0.00     0.049 A 
ATOM     64  H   UNL A   1      41.125  29.577  32.954  1.00  0.00     0.167 HD
ATOM     65  C   UNL A   1      43.059  27.602  32.326  1.00  0.00     0.074 A 
ATOM     66  C   UNL A   1      43.837  26.636  31.579  1.00  0.00     0.031 C 
ATOM     67  C   UNL A   1      43.262  27.897  33.634  1.00  0.00     0.037 A 
BRANCH  54  68
ATOM     68  C   UNL A   1      39.415  32.197  35.862  1.00  0.00     0.064 A 
ATOM     69  C   UNL A   1      39.970  33.464  36.101  1.00  0.00     0.173 A 
ATOM     70  C   UNL A   1      38.417  31.746  36.742  1.00  0.00     0.173 A 
ATOM     71  F   UNL A   1      40.935  33.940  35.301  1.00  0.00    -0.203 F 
ATOM     72  C   UNL A   1      39.563  34.233  37.190  1.00  0.00     0.198 A 
ATOM     73  C   UNL A   1      37.989  32.532  37.809  1.00  0.00     0.198 A 
ATOM     74  F   UNL A   1      37.848  30.544  36.561  1.00  0.00    -0.203 F 
ATOM     75  F   UNL A   1      40.145  35.416  37.426  1.00  0.00    -0.200 F 
ATOM     76  C   UNL A   1      38.568  33.771  38.037  1.00  0.00     0.200 A 
ATOM     77  F   UNL A   1      37.015  32.089  38.617  1.00  0.00    -0.200 F 
ATOM     78  F   UNL A   1      38.171  34.516  39.079  1.00  0.00    -0.200 F 
ENDBRANCH  54  68
BRANCH  55  79
ATOM     79  C   UNL A   1      42.021  26.920  27.781  1.00  0.00     0.064 A 
ATOM     80  C   UNL A   1      41.479  25.660  27.497  1.00  0.00     0.173 A 
ATOM     81  C   UNL A   1      42.988  27.426  26.899  1.00  0.00     0.173 A 
ATOM     82  F   UNL A   1      40.571  25.119  28.322  1.00  0.00    -0.203 F 
ATOM     83  C   UNL A   1      41.904  24.926  26.391  1.00  0.00     0.198 A 
ATOM     84  C   UNL A   1      43.387  26.708  25.774  1.00  0.00     0.198 A 
ATOM     85  F   UNL A   1      43.543  28.627  27.125  1.00  0.00    -0.203 F 
ATOM     86  F   UNL A   1      41.410  23.698  26.175  1.00  0.00    -0.200 F 
ATOM     87  C   UNL A   1      42.852  25.453  25.527  1.00  0.00     0.200 A 
ATOM     88  F   UNL A   1      44.293  27.228  24.936  1.00  0.00    -0.200 F 
ATOM     89  F   UNL A   1      43.257  24.747  24.463  1.00  0.00    -0.200 F 
ENDBRANCH  55  79
BRANCH  67  90
ATOM     90  C   UNL A   1      44.349  27.138  34.347  1.00  0.00     0.064 A 
ATOM     91  C   UNL A   1      44.107  25.904  34.969  1.00  0.00     0.173 A 
ATOM     92  C   UNL A   1      45.654  27.654  34.408  1.00  0.00     0.173 A 
ATOM     93  F   UNL A   1      42.876  25.368  34.951  1.00  0.00    -0.203 F 
ATOM     94  C   UNL A   1      45.113  25.244  35.670  1.00  0.00     0.198 A 
ATOM     95  C   UNL A   1      46.668  26.971  35.074  1.00  0.00     0.198 A 
ATOM     96  F   UNL A   1      45.947  28.824  33.820  1.00  0.00    -0.203 F 
ATOM     97  F   UNL A   1      44.837  24.106  36.322  1.00  0.00    -0.200 F 
ATOM     98  C   UNL A   1      46.393  25.774  35.718  1.00  0.00     0.200 A 
ATOM     99  F   UNL A   1      47.908  27.477  35.101  1.00  0.00    -0.200 F 
ATOM    100  F   UNL A   1      47.359  25.139  36.395  1.00  0.00    -0.200 F 
ENDBRANCH  67  90
ENDBRANCH  41  42
ENDBRANCH  34  36
ENDBRANCH  33  34
ENDBRANCH  32  33
ENDBRANCH  31  32
ENDBRANCH  30  31
ENDBRANCH   1  30
TORSDOF 18
ENDMDL
MODEL 2
REMARK VINA RESULT:     -13.2      1.203      1.995
REMARK SMILES O=C(NC(=S)Nc1ccccc1C(=O)OCCOCCOC(=O)c1ccc(-c2c3nc(c(-c4c(F)c(F)c(F)c(F)c4F)c4ccc([nH]4)c(-c4c(F)c(F)c(F)c(F)c4F)c4nc(c(-c5c(F)c(F)c(F)c(F)c5F)c5ccc2[nH]5)C=C4)C=C3)cc1)c1ccc2ccccc2c1
REMARK SMILES IDX 17 1 16 2 15 3 13 4 14 5 12 6 7 7 8 8 9 9 11 10 10 11 6 12
REMARK SMILES IDX 4 14 5 15 3 16 1 17 2 18 87 20 88 21 96 22 89 23 95 24 90 25
REMARK SMILES IDX 94 26 91 27 93 28 92 29 18 30 19 31 20 32 21 33 22 34 23 35
REMARK SMILES IDX 24 36 25 37 86 38 26 39 85 40 27 41 28 42 29 43 79 44 30 45
REMARK SMILES IDX 84 46 78 47 80 48 31 49 83 50 77 51 76 52 32 54 64 55 44 56
REMARK SMILES IDX 63 57 45 58 48 59 62 60 81 61 46 62 47 63 61 65 82 66 49 67
REMARK SMILES IDX 33 68 34 69 42 70 35 71 36 72 40 73 43 74 37 75 38 76 41 77
REMARK SMILES IDX 39 78 65 79 66 80 74 81 67 82 68 83 72 84 75 85 69 86 70 87
REMARK SMILES IDX 73 88 71 89 50 90 51 91 59 92 52 93 53 94 57 95 60 96 54 97
REMARK SMILES IDX 55 98 58 99 56 100
REMARK H PARENT 6 13 3 19 80 53 48 64
REMARK Flexibility Score: inf
ROOT
ATOM      1  C   UNL A   1      32.876  29.010  26.941  1.00  0.00     0.202 C 
ENDROOT
BRANCH   1   2
ATOM      2  C   UNL A   1      33.294  28.512  25.535  1.00  0.00     0.261 C 
BRANCH   2   3
ATOM      3  O   UNL A   1      32.949  29.226  24.309  1.00  0.00    -0.460 OA
BRANCH   3   4
ATOM      4  C   UNL A   1      32.466  28.360  23.367  1.00  0.00     0.340 C 
ATOM      5  O   UNL A   1      33.301  27.667  22.797  1.00  0.00    -0.246 OA
BRANCH   4   6
ATOM      6  C   UNL A   1      30.840  28.571  22.906  1.00  0.00     0.083 A 
ATOM      7  C   UNL A   1      29.951  27.161  23.602  1.00  0.00     0.055 A 
ATOM      8  C   UNL A   1      28.170  27.182  23.651  1.00  0.00     0.027 A 
ATOM      9  C   UNL A   1      27.196  28.576  23.130  1.00  0.00     0.002 A 
ATOM     10  C   UNL A   1      29.678  30.143  22.333  1.00  0.00     0.018 A 
ATOM     11  C   UNL A   1      27.892  30.044  22.482  1.00  0.00     0.001 A 
BRANCH   7  12
ATOM     12  N   UNL A   1      30.448  26.557  24.765  1.00  0.00    -0.332 N 
ATOM     13  H   UNL A   1      30.315  27.059  25.601  1.00  0.00     0.169 HD
BRANCH  12  14
ATOM     14  C   UNL A   1      31.089  25.368  24.884  1.00  0.00     0.177 C 
ATOM     15  S   UNL A   1      30.579  24.388  26.154  1.00  0.00    -0.040 S 
BRANCH  14  16
ATOM     16  N   UNL A   1      32.132  24.883  24.076  1.00  0.00    -0.299 N 
ATOM     17  O   UNL A   1      33.981  24.091  22.915  1.00  0.00    -0.269 OA
ATOM     18  C   UNL A   1      33.147  23.878  23.790  1.00  0.00     0.257 C 
ATOM     19  H   UNL A   1      32.218  25.544  23.352  1.00  0.00     0.172 HD
BRANCH  18  20
ATOM     20  C   UNL A   1      33.194  22.604  24.558  1.00  0.00     0.040 A 
ATOM     21  C   UNL A   1      34.813  22.379  25.224  1.00  0.00     0.014 A 
ATOM     22  C   UNL A   1      32.345  21.125  23.993  1.00  0.00     0.022 A 
ATOM     23  C   UNL A   1      35.638  20.540  25.145  1.00  0.00     0.009 A 
ATOM     24  C   UNL A   1      33.096  19.467  23.912  1.00  0.00    -0.018 A 
ATOM     25  C   UNL A   1      34.713  19.164  24.517  1.00  0.00    -0.018 A 
ATOM     26  C   UNL A   1      32.517  18.292  23.420  1.00  0.00     0.009 A 
ATOM     27  C   UNL A   1      35.182  17.863  24.628  1.00  0.00     0.009 A 
ATOM     28  C   UNL A   1      33.144  17.023  23.564  1.00  0.00     0.001 A 
ATOM     29  C   UNL A   1      34.392  16.813  24.187  1.00  0.00     0.001 A 
ENDBRANCH  18  20
ENDBRANCH  14  16
ENDBRANCH  12  14
ENDBRANCH   7  12
ENDBRANCH   4   6
ENDBRANCH   3   4
ENDBRANCH   2   3
ENDBRANCH   1   2
BRANCH   1  30
ATOM     30  O   UNL A   1      31.856  29.951  27.188  1.00  0.00    -0.374 OA
BRANCH  30  31
ATOM     31  C   UNL A   1      31.788  31.166  26.474  1.00  0.00     0.202 C 
BRANCH  31  32
ATOM     32  C   UNL A   1      31.717  32.535  27.169  1.00  0.00     0.261 C 
BRANCH  32  33
ATOM     33  O   UNL A   1      32.862  33.388  27.065  1.00  0.00    -0.460 OA
BRANCH  33  34
ATOM     34  C   UNL A   1      33.395  33.766  28.249  1.00  0.00     0.338 C 
ATOM     35  O   UNL A   1      32.895  34.498  29.087  1.00  0.00    -0.246 OA
BRANCH  34  36
ATOM     36  C   UNL A   1      34.653  33.032  28.484  1.00  0.00     0.060 A 
ATOM     37  C   UNL A   1      34.567  31.696  28.900  1.00  0.00     0.016 A 
ATOM     38  C   UNL A   1      35.889  33.674  28.407  1.00  0.00     0.016 A 
ATOM     39  C   UNL A   1      35.712  31.020  29.304  1.00  0.00     0.010 A 
ATOM     40  C   UNL A   1      37.038  32.997  28.831  1.00  0.00     0.010 A 
ATOM     41  C   UNL A   1      36.945  31.684  29.326  1.00  0.00    -0.014 A 
BRANCH  41  42
ATOM     42  C   UNL A   1      38.084  31.042  30.026  1.00  0.00     0.031 A 
ATOM     43  C   UNL A   1      38.326  31.356  31.478  1.00  0.00     0.074 A 
ATOM     44  C   UNL A   1      38.840  30.127  29.395  1.00  0.00     0.049 A 
ATOM     45  N   UNL A   1      39.235  30.884  32.292  1.00  0.00    -0.248 NA
ATOM     46  C   UNL A   1      37.419  32.337  32.096  1.00  0.00     0.031 C 
ATOM     47  C   UNL A   1      38.672  29.711  28.005  1.00  0.00     0.029 A 
ATOM     48  N   UNL A   1      39.895  29.377  29.850  1.00  0.00    -0.354 N 
ATOM     49  C   UNL A   1      39.014  31.511  33.512  1.00  0.00     0.074 A 
ATOM     50  C   UNL A   1      37.909  32.426  33.323  1.00  0.00     0.031 C 
ATOM     51  C   UNL A   1      39.592  28.776  27.717  1.00  0.00     0.029 A 
ATOM     52  C   UNL A   1      40.433  28.554  28.893  1.00  0.00     0.049 A 
ATOM     53  H   UNL A   1      40.233  29.425  30.772  1.00  0.00     0.167 HD
ATOM     54  C   UNL A   1      39.668  31.332  34.685  1.00  0.00     0.037 A 
ATOM     55  C   UNL A   1      41.494  27.728  28.956  1.00  0.00     0.037 A 
ATOM     56  C   UNL A   1      40.766  30.416  34.866  1.00  0.00     0.049 A 
ATOM     57  C   UNL A   1      42.242  27.593  30.258  1.00  0.00     0.074 A 
ATOM     58  C   UNL A   1      41.483  30.145  36.019  1.00  0.00     0.029 A 
ATOM     59  N   UNL A   1      41.314  29.630  33.863  1.00  0.00    -0.354 N 
ATOM     60  N   UNL A   1      42.012  28.169  31.414  1.00  0.00    -0.248 NA
ATOM     61  C   UNL A   1      43.395  26.682  30.263  1.00  0.00     0.031 C 
ATOM     62  C   UNL A   1      42.508  29.248  35.696  1.00  0.00     0.029 A 
ATOM     63  C   UNL A   1      42.383  28.901  34.361  1.00  0.00     0.049 A 
ATOM     64  H   UNL A   1      40.992  29.596  32.933  1.00  0.00     0.167 HD
ATOM     65  C   UNL A   1      42.971  27.671  32.287  1.00  0.00     0.074 A 
ATOM     66  C   UNL A   1      43.767  26.726  31.533  1.00  0.00     0.031 C 
ATOM     67  C   UNL A   1      43.175  27.968  33.596  1.00  0.00     0.037 A 
BRANCH  54  68
ATOM     68  C   UNL A   1      39.238  32.168  35.859  1.00  0.00     0.064 A 
ATOM     69  C   UNL A   1      39.736  33.462  36.076  1.00  0.00     0.173 A 
ATOM     70  C   UNL A   1      38.285  31.675  36.765  1.00  0.00     0.173 A 
ATOM     71  F   UNL A   1      40.657  33.979  35.250  1.00  0.00    -0.203 F 
ATOM     72  C   UNL A   1      39.318  34.218  37.170  1.00  0.00     0.198 A 
ATOM     73  C   UNL A   1      37.844  32.447  37.837  1.00  0.00     0.198 A 
ATOM     74  F   UNL A   1      37.771  30.446  36.605  1.00  0.00    -0.203 F 
ATOM     75  F   UNL A   1      39.847  35.430  37.385  1.00  0.00    -0.200 F 
ATOM     76  C   UNL A   1      38.367  33.714  38.044  1.00  0.00     0.200 A 
ATOM     77  F   UNL A   1      36.912  31.963  38.671  1.00  0.00    -0.200 F 
ATOM     78  F   UNL A   1      37.960  34.446  39.090  1.00  0.00    -0.200 F 
ENDBRANCH  54  68
BRANCH  55  79
ATOM     79  C   UNL A   1      41.920  26.973  27.749  1.00  0.00     0.064 A 
ATOM     80  C   UNL A   1      41.463  25.672  27.503  1.00  0.00     0.173 A 
ATOM     81  C   UNL A   1      42.812  27.536  26.822  1.00  0.00     0.173 A 
ATOM     82  F   UNL A   1      40.630  25.079  28.371  1.00  0.00    -0.203 F 
ATOM     83  C   UNL A   1      41.900  24.953  26.392  1.00  0.00     0.198 A 
ATOM     84  C   UNL A   1      43.220  26.830  25.693  1.00  0.00     0.198 A 
ATOM     85  F   UNL A   1      43.283  28.778  27.010  1.00  0.00    -0.203 F 
ATOM     86  F   UNL A   1      41.492  23.689  26.212  1.00  0.00    -0.200 F 
ATOM     87  C   UNL A   1      42.772  25.535  25.484  1.00  0.00     0.200 A 
ATOM     88  F   UNL A   1      44.052  27.402  24.813  1.00  0.00    -0.200 F 
ATOM     89  F   UNL A   1      43.189  24.844  24.415  1.00  0.00    -0.200 F 
ENDBRANCH  55  79
BRANCH  67  90
ATOM     90  C   UNL A   1      44.285  27.235  34.299  1.00  0.00     0.064 A 
ATOM     91  C   UNL A   1      45.547  27.815  34.499  1.00  0.00     0.173 A 
ATOM     92  C   UNL A   1      44.083  25.932  34.782  1.00  0.00     0.173 A 
ATOM     93  F   UNL A   1      45.800  29.055  34.050  1.00  0.00    -0.203 F 
ATOM     94  C   UNL A   1      46.578  27.100  35.104  1.00  0.00     0.198 A 
ATOM     95  C   UNL A   1      45.103  25.236  35.424  1.00  0.00     0.198 A 
ATOM     96  F   UNL A   1      42.892  25.332  34.631  1.00  0.00    -0.203 F 
ATOM     97  F   UNL A   1      47.796  27.648  35.213  1.00  0.00    -0.200 F 
ATOM     98  C   UNL A   1      46.354  25.815  35.571  1.00  0.00     0.200 A 
ATOM     99  F   UNL A   1      44.876  24.000  35.892  1.00  0.00    -0.200 F 
ATOM    100  F   UNL A   1      47.347  25.127  36.150  1.00  0.00    -0.200 F 
ENDBRANCH  67  90
ENDBRANCH  41  42
ENDBRANCH  34  36
ENDBRANCH  33  34
ENDBRANCH  32  33
ENDBRANCH  31  32
ENDBRANCH  30  31
ENDBRANCH   1  30
TORSDOF 18
ENDMDL
MODEL 3
REMARK VINA RESULT:     -13.1      1.803      2.809
REMARK SMILES O=C(NC(=S)Nc1ccccc1C(=O)OCCOCCOC(=O)c1ccc(-c2c3nc(c(-c4c(F)c(F)c(F)c(F)c4F)c4ccc([nH]4)c(-c4c(F)c(F)c(F)c(F)c4F)c4nc(c(-c5c(F)c(F)c(F)c(F)c5F)c5ccc2[nH]5)C=C4)C=C3)cc1)c1ccc2ccccc2c1
REMARK SMILES IDX 17 1 16 2 15 3 13 4 14 5 12 6 7 7 8 8 9 9 11 10 10 11 6 12
REMARK SMILES IDX 4 14 5 15 3 16 1 17 2 18 87 20 88 21 96 22 89 23 95 24 90 25
REMARK SMILES IDX 94 26 91 27 93 28 92 29 18 30 19 31 20 32 21 33 22 34 23 35
REMARK SMILES IDX 24 36 25 37 86 38 26 39 85 40 27 41 28 42 29 43 79 44 30 45
REMARK SMILES IDX 84 46 78 47 80 48 31 49 83 50 77 51 76 52 32 54 64 55 44 56
REMARK SMILES IDX 63 57 45 58 48 59 62 60 81 61 46 62 47 63 61 65 82 66 49 67
REMARK SMILES IDX 33 68 34 69 42 70 35 71 36 72 40 73 43 74 37 75 38 76 41 77
REMARK SMILES IDX 39 78 65 79 66 80 74 81 67 82 68 83 72 84 75 85 69 86 70 87
REMARK SMILES IDX 73 88 71 89 50 90 51 91 59 92 52 93 53 94 57 95 60 96 54 97
REMARK SMILES IDX 55 98 58 99 56 100
REMARK H PARENT 6 13 3 19 80 53 48 64
REMARK Flexibility Score: inf
ROOT
ATOM      1  C   UNL A   1      34.751  29.567  27.195  1.00  0.00     0.202 C 
ENDROOT
BRANCH   1   2
ATOM      2  C   UNL A   1      33.977  28.807  26.088  1.00  0.00     0.261 C 
BRANCH   2   3
ATOM      3  O   UNL A   1      33.125  29.483  25.114  1.00  0.00    -0.460 OA
BRANCH   3   4
ATOM      4  C   UNL A   1      31.808  29.365  25.462  1.00  0.00     0.340 C 
ATOM      5  O   UNL A   1      31.563  28.600  26.388  1.00  0.00    -0.246 OA
BRANCH   4   6
ATOM      6  C   UNL A   1      30.677  30.049  24.388  1.00  0.00     0.083 A 
ATOM      7  C   UNL A   1      30.069  28.677  23.383  1.00  0.00     0.055 A 
ATOM      8  C   UNL A   1      28.616  28.901  22.376  1.00  0.00     0.027 A 
ATOM      9  C   UNL A   1      27.653  30.396  22.371  1.00  0.00     0.002 A 
ATOM     10  C   UNL A   1      29.532  31.734  24.352  1.00  0.00     0.018 A 
ATOM     11  C   UNL A   1      28.064  31.805  23.323  1.00  0.00     0.001 A 
BRANCH   7  12
ATOM     12  N   UNL A   1      30.068  27.387  23.931  1.00  0.00    -0.332 N 
ATOM     13  H   UNL A   1      29.484  27.251  24.712  1.00  0.00     0.169 HD
BRANCH  12  14
ATOM     14  C   UNL A   1      30.773  26.302  23.522  1.00  0.00     0.177 C 
ATOM     15  S   UNL A   1      30.563  24.908  24.442  1.00  0.00    -0.040 S 
BRANCH  14  16
ATOM     16  N   UNL A   1      31.659  26.228  22.435  1.00  0.00    -0.299 N 
ATOM     17  O   UNL A   1      33.278  26.172  20.770  1.00  0.00    -0.269 OA
ATOM     18  C   UNL A   1      32.868  25.692  21.823  1.00  0.00     0.257 C 
ATOM     19  H   UNL A   1      31.278  26.831  21.757  1.00  0.00     0.172 HD
BRANCH  18  20
ATOM     20  C   UNL A   1      33.619  24.581  22.468  1.00  0.00     0.040 A 
ATOM     21  C   UNL A   1      32.903  23.037  21.999  1.00  0.00     0.014 A 
ATOM     22  C   UNL A   1      34.233  24.704  24.152  1.00  0.00     0.022 A 
ATOM     23  C   UNL A   1      32.678  21.614  23.410  1.00  0.00     0.009 A 
ATOM     24  C   UNL A   1      34.018  23.421  25.427  1.00  0.00    -0.018 A 
ATOM     25  C   UNL A   1      33.283  21.874  25.056  1.00  0.00    -0.018 A 
ATOM     26  C   UNL A   1      34.408  23.480  26.771  1.00  0.00     0.009 A 
ATOM     27  C   UNL A   1      33.314  20.847  25.988  1.00  0.00     0.009 A 
ATOM     28  C   UNL A   1      34.335  22.349  27.629  1.00  0.00     0.001 A 
ATOM     29  C   UNL A   1      33.862  21.078  27.240  1.00  0.00     0.001 A 
ENDBRANCH  18  20
ENDBRANCH  14  16
ENDBRANCH  12  14
ENDBRANCH   7  12
ENDBRANCH   4   6
ENDBRANCH   3   4
ENDBRANCH   2   3
ENDBRANCH   1   2
BRANCH   1  30
ATOM     30  O   UNL A   1      34.759  30.968  27.349  1.00  0.00    -0.374 OA
BRANCH  30  31
ATOM     31  C   UNL A   1      33.635  31.659  27.849  1.00  0.00     0.202 C 
BRANCH  31  32
ATOM     32  C   UNL A   1      33.262  33.079  27.394  1.00  0.00     0.261 C 
BRANCH  32  33
ATOM     33  O   UNL A   1      32.392  33.837  28.241  1.00  0.00    -0.460 OA
BRANCH  33  34
ATOM     34  C   UNL A   1      32.950  34.948  28.774  1.00  0.00     0.338 C 
ATOM     35  O   UNL A   1      32.528  36.090  28.715  1.00  0.00    -0.246 OA
BRANCH  34  36
ATOM     36  C   UNL A   1      34.112  34.571  29.602  1.00  0.00     0.060 A 
ATOM     37  C   UNL A   1      35.389  34.708  29.042  1.00  0.00     0.016 A 
ATOM     38  C   UNL A   1      33.946  33.990  30.859  1.00  0.00     0.016 A 
ATOM     39  C   UNL A   1      36.498  34.203  29.711  1.00  0.00     0.010 A 
ATOM     40  C   UNL A   1      35.061  33.466  31.522  1.00  0.00     0.010 A 
ATOM     41  C   UNL A   1      36.333  33.528  30.927  1.00  0.00    -0.014 A 
BRANCH  41  42
ATOM     42  C   UNL A   1      37.477  32.755  31.469  1.00  0.00     0.031 A 
ATOM     43  C   UNL A   1      37.986  33.067  32.850  1.00  0.00     0.074 A 
ATOM     44  C   UNL A   1      37.998  31.733  30.769  1.00  0.00     0.049 A 
ATOM     45  N   UNL A   1      38.944  32.495  33.534  1.00  0.00    -0.248 NA
ATOM     46  C   UNL A   1      37.323  34.175  33.558  1.00  0.00     0.031 C 
ATOM     47  C   UNL A   1      37.559  31.311  29.442  1.00  0.00     0.029 A 
ATOM     48  N   UNL A   1      39.007  30.859  31.087  1.00  0.00    -0.354 N 
ATOM     49  C   UNL A   1      39.004  33.174  34.745  1.00  0.00     0.074 A 
ATOM     50  C   UNL A   1      38.010  34.225  34.689  1.00  0.00     0.031 C 
ATOM     51  C   UNL A   1      38.293  30.255  29.056  1.00  0.00     0.029 A 
ATOM     52  C   UNL A   1      39.274  29.949  30.096  1.00  0.00     0.049 A 
ATOM     53  H   UNL A   1      39.491  30.882  31.943  1.00  0.00     0.167 HD
ATOM     54  C   UNL A   1      39.807  32.936  35.809  1.00  0.00     0.037 A 
ATOM     55  C   UNL A   1      40.216  28.989  30.030  1.00  0.00     0.037 A 
ATOM     56  C   UNL A   1      40.793  31.885  35.858  1.00  0.00     0.049 A 
ATOM     57  C   UNL A   1      41.139  28.785  31.204  1.00  0.00     0.074 A 
ATOM     58  C   UNL A   1      41.643  31.547  36.896  1.00  0.00     0.029 A 
ATOM     59  N   UNL A   1      41.068  31.011  34.817  1.00  0.00    -0.354 N 
ATOM     60  N   UNL A   1      41.173  29.413  32.355  1.00  0.00    -0.248 NA
ATOM     61  C   UNL A   1      42.150  27.728  31.071  1.00  0.00     0.031 C 
ATOM     62  C   UNL A   1      42.479  30.513  36.458  1.00  0.00     0.029 A 
ATOM     63  C   UNL A   1      42.100  30.156  35.174  1.00  0.00     0.049 A 
ATOM     64  H   UNL A   1      40.601  30.999  33.950  1.00  0.00     0.167 HD
ATOM     65  C   UNL A   1      42.186  28.811  33.091  1.00  0.00     0.074 A 
ATOM     66  C   UNL A   1      42.723  27.750  32.265  1.00  0.00     0.031 C 
ATOM     67  C   UNL A   1      42.632  29.108  34.338  1.00  0.00     0.037 A 
BRANCH  54  68
ATOM     68  C   UNL A   1      39.681  33.849  36.997  1.00  0.00     0.064 A 
ATOM     69  C   UNL A   1      40.342  35.086  37.062  1.00  0.00     0.173 A 
ATOM     70  C   UNL A   1      38.858  33.492  38.077  1.00  0.00     0.173 A 
ATOM     71  F   UNL A   1      41.151  35.472  36.065  1.00  0.00    -0.203 F 
ATOM     72  C   UNL A   1      40.206  35.915  38.174  1.00  0.00     0.198 A 
ATOM     73  C   UNL A   1      38.696  34.339  39.170  1.00  0.00     0.198 A 
ATOM     74  F   UNL A   1      38.199  32.323  38.069  1.00  0.00    -0.203 F 
ATOM     75  F   UNL A   1      40.888  37.067  38.235  1.00  0.00    -0.200 F 
ATOM     76  C   UNL A   1      39.377  35.546  39.222  1.00  0.00     0.200 A 
ATOM     77  F   UNL A   1      37.882  33.986  40.176  1.00  0.00    -0.200 F 
ATOM     78  F   UNL A   1      39.240  36.349  40.286  1.00  0.00    -0.200 F 
ENDBRANCH  54  68
BRANCH  55  79
ATOM     79  C   UNL A   1      40.343  28.157  28.805  1.00  0.00     0.064 A 
ATOM     80  C   UNL A   1      39.676  26.930  28.685  1.00  0.00     0.173 A 
ATOM     81  C   UNL A   1      41.154  28.565  27.734  1.00  0.00     0.173 A 
ATOM     82  F   UNL A   1      38.910  26.482  29.689  1.00  0.00    -0.203 F 
ATOM     83  C   UNL A   1      39.834  26.134  27.551  1.00  0.00     0.198 A 
ATOM     84  C   UNL A   1      41.283  27.785  26.588  1.00  0.00     0.198 A 
ATOM     85  F   UNL A   1      41.818  29.729  27.799  1.00  0.00    -0.203 F 
ATOM     86  F   UNL A   1      39.230  24.939  27.487  1.00  0.00    -0.200 F 
ATOM     87  C   UNL A   1      40.630  26.565  26.502  1.00  0.00     0.200 A 
ATOM     88  F   UNL A   1      42.043  28.213  25.571  1.00  0.00    -0.200 F 
ATOM     89  F   UNL A   1      40.779  25.799  25.412  1.00  0.00    -0.200 F 
ENDBRANCH  55  79
BRANCH  67  90
ATOM     90  C   UNL A   1      43.736  28.249  34.892  1.00  0.00     0.064 A 
ATOM     91  C   UNL A   1      45.089  28.592  34.743  1.00  0.00     0.173 A 
ATOM     92  C   UNL A   1      43.436  27.064  35.583  1.00  0.00     0.173 A 
ATOM     93  F   UNL A   1      45.435  29.708  34.084  1.00  0.00    -0.203 F 
ATOM     94  C   UNL A   1      46.098  27.756  35.217  1.00  0.00     0.198 A 
ATOM     95  C   UNL A   1      44.447  26.252  36.092  1.00  0.00     0.198 A 
ATOM     96  F   UNL A   1      42.160  26.692  35.767  1.00  0.00    -0.203 F 
ATOM     97  F   UNL A   1      47.382  28.066  34.993  1.00  0.00    -0.200 F 
ATOM     98  C   UNL A   1      45.776  26.590  35.895  1.00  0.00     0.200 A 
ATOM     99  F   UNL A   1      44.131  25.136  36.764  1.00  0.00    -0.200 F 
ATOM    100  F   UNL A   1      46.747  25.786  36.346  1.00  0.00    -0.200 F 
ENDBRANCH  67  90
ENDBRANCH  41  42
ENDBRANCH  34  36
ENDBRANCH  33  34
ENDBRANCH  32  33
ENDBRANCH  31  32
ENDBRANCH  30  31
ENDBRANCH   1  30
TORSDOF 18
ENDMDL
