MODEL 1
REMARK VINA RESULT:     -11.3      0.000      0.000
REMARK SMILES CCCOc1ccccc1O[C@@H]1CC[C@@]([NH3+])(C(=O)OCCOCCOC(=O)c2ccc(-c3c4nc(c(-c5c(F)c(F)c(F)c(F)c5F)c5ccc([nH]5)c(-c5c(F)c(F)c(F)c(F)c5F)c5nc(c(-c6c(F)c(F)c(F)c(F)c6F)c6ccc3[nH]6)C=C5)C=C4)cc2)C1
REMARK SMILES IDX 20 1 19 2 17 3 18 4 15 5 12 6 13 7 91 8 14 9 11 10 10 11
REMARK SMILES IDX 5 12 6 13 7 14 9 15 8 16 4 17 3 18 2 19 1 20 16 21 21 25
REMARK SMILES IDX 22 26 23 27 24 28 25 29 26 30 27 31 28 32 29 33 90 34 30 35
REMARK SMILES IDX 89 36 31 37 32 38 33 39 83 40 34 41 88 42 82 43 84 44 35 45
REMARK SMILES IDX 87 46 81 47 80 48 36 50 68 51 48 52 67 53 49 54 52 55 66 56
REMARK SMILES IDX 85 57 50 58 51 59 65 61 86 62 53 63 37 64 38 65 46 66 39 67
REMARK SMILES IDX 40 68 44 69 47 70 41 71 42 72 45 73 43 74 69 75 70 76 78 77
REMARK SMILES IDX 71 78 72 79 76 80 79 81 73 82 74 83 77 84 75 85 54 86 55 87
REMARK SMILES IDX 63 88 56 89 57 90 61 91 64 92 58 93 59 94 62 95 60 96
REMARK H PARENT 16 22 16 23 16 24 84 49 52 60
REMARK Flexibility Score: inf
ROOT
ATOM      1  C   UNL A   1      32.708  23.775  26.089  1.00  0.00     0.261 C 
ENDROOT
BRANCH   1   2
ATOM      2  O   UNL A   1      31.414  23.955  25.465  1.00  0.00    -0.459 OA
BRANCH   2   3
ATOM      3  C   UNL A   1      31.279  24.910  24.485  1.00  0.00     0.368 C 
ATOM      4  O   UNL A   1      31.714  24.824  23.345  1.00  0.00    -0.245 OA
BRANCH   3   5
ATOM      5  C   UNL A   1      30.460  26.222  25.061  1.00  0.00     0.196 C 
ATOM      6  C   UNL A   1      31.836  29.093  25.962  1.00  0.00     0.180 C 
ATOM      7  C   UNL A   1      30.896  29.359  24.198  1.00  0.00     0.052 C 
ATOM      8  C   UNL A   1      31.460  27.165  26.562  1.00  0.00     0.126 C 
ATOM      9  C   UNL A   1      30.227  27.573  23.594  1.00  0.00     0.085 C 
BRANCH   6  10
ATOM     10  O   UNL A   1      32.036  30.131  26.892  1.00  0.00    -0.486 OA
BRANCH  10  11
ATOM     11  C   UNL A   1      33.321  30.263  27.251  1.00  0.00     0.161 A 
ATOM     12  C   UNL A   1      33.775  31.478  27.709  1.00  0.00     0.161 A 
ATOM     13  C   UNL A   1      35.127  31.641  27.966  1.00  0.00     0.050 A 
ATOM     14  C   UNL A   1      35.995  30.553  27.774  1.00  0.00     0.004 A 
ATOM     15  C   UNL A   1      34.165  29.186  27.025  1.00  0.00     0.050 A 
ATOM     16  C   UNL A   1      35.516  29.328  27.295  1.00  0.00     0.004 A 
BRANCH  12  17
ATOM     17  O   UNL A   1      32.902  32.522  27.621  1.00  0.00    -0.490 OA
BRANCH  17  18
ATOM     18  C   UNL A   1      33.387  33.922  28.002  1.00  0.00     0.229 C 
BRANCH  18  19
ATOM     19  C   UNL A   1      33.196  35.076  29.840  1.00  0.00     0.038 C 
ATOM     20  C   UNL A   1      33.278  36.794  30.215  1.00  0.00     0.007 C 
ENDBRANCH  18  19
ENDBRANCH  17  18
ENDBRANCH  12  17
ENDBRANCH  10  11
ENDBRANCH   6  10
BRANCH   5  21
ATOM     21  N   UNL A   1      29.154  25.578  25.398  1.00  0.00    -0.343 N 
ATOM     22  H   UNL A   1      29.324  24.727  25.935  1.00  0.00     0.345 HD
ATOM     23  H   UNL A   1      28.658  25.344  24.538  1.00  0.00     0.345 HD
ATOM     24  H   UNL A   1      28.590  26.222  25.952  1.00  0.00     0.345 HD
ENDBRANCH   5  21
ENDBRANCH   3   5
ENDBRANCH   2   3
ENDBRANCH   1   2
BRANCH   1  25
ATOM     25  C   UNL A   1      33.579  22.720  25.361  1.00  0.00     0.202 C 
BRANCH  25  26
ATOM     26  O   UNL A   1      34.703  22.158  26.053  1.00  0.00    -0.374 OA
BRANCH  26  27
ATOM     27  C   UNL A   1      35.327  21.062  25.401  1.00  0.00     0.202 C 
BRANCH  27  28
ATOM     28  C   UNL A   1      36.800  21.159  24.996  1.00  0.00     0.261 C 
BRANCH  28  29
ATOM     29  O   UNL A   1      37.470  22.193  25.727  1.00  0.00    -0.460 OA
BRANCH  29  30
ATOM     30  C   UNL A   1      38.711  21.839  26.127  1.00  0.00     0.338 C 
ATOM     31  O   UNL A   1      39.295  20.792  25.909  1.00  0.00    -0.246 OA
BRANCH  30  32
ATOM     32  C   UNL A   1      39.374  23.008  26.715  1.00  0.00     0.060 A 
ATOM     33  C   UNL A   1      38.909  24.264  26.307  1.00  0.00     0.016 A 
ATOM     34  C   UNL A   1      40.441  22.885  27.605  1.00  0.00     0.016 A 
ATOM     35  C   UNL A   1      39.543  25.414  26.754  1.00  0.00     0.010 A 
ATOM     36  C   UNL A   1      41.089  24.041  28.041  1.00  0.00     0.010 A 
ATOM     37  C   UNL A   1      40.660  25.303  27.590  1.00  0.00    -0.014 A 
BRANCH  37  38
ATOM     38  C   UNL A   1      41.462  26.507  27.885  1.00  0.00     0.031 A 
ATOM     39  C   UNL A   1      40.835  27.615  28.680  1.00  0.00     0.074 A 
ATOM     40  C   UNL A   1      42.734  26.591  27.464  1.00  0.00     0.049 A 
ATOM     41  N   UNL A   1      41.315  28.791  28.984  1.00  0.00    -0.248 NA
ATOM     42  C   UNL A   1      39.480  27.362  29.197  1.00  0.00     0.031 C 
ATOM     43  C   UNL A   1      43.449  25.543  26.738  1.00  0.00     0.029 A 
ATOM     44  N   UNL A   1      43.643  27.609  27.576  1.00  0.00    -0.354 N 
ATOM     45  C   UNL A   1      40.320  29.424  29.717  1.00  0.00     0.074 A 
ATOM     46  C   UNL A   1      39.197  28.514  29.786  1.00  0.00     0.031 C 
ATOM     47  C   UNL A   1      44.687  25.980  26.454  1.00  0.00     0.029 A 
ATOM     48  C   UNL A   1      44.828  27.353  26.934  1.00  0.00     0.049 A 
ATOM     49  H   UNL A   1      43.464  28.441  28.069  1.00  0.00     0.167 HD
ATOM     50  C   UNL A   1      40.350  30.652  30.284  1.00  0.00     0.037 A 
ATOM     51  C   UNL A   1      45.888  28.156  26.726  1.00  0.00     0.037 A 
ATOM     52  C   UNL A   1      41.477  31.544  30.196  1.00  0.00     0.049 A 
ATOM     53  C   UNL A   1      45.854  29.559  27.275  1.00  0.00     0.074 A 
ATOM     54  C   UNL A   1      41.625  32.804  30.747  1.00  0.00     0.029 A 
ATOM     55  N   UNL A   1      42.645  31.271  29.498  1.00  0.00    -0.354 N 
ATOM     56  N   UNL A   1      44.925  30.146  27.991  1.00  0.00    -0.248 NA
ATOM     57  C   UNL A   1      47.012  30.413  26.982  1.00  0.00     0.031 C 
ATOM     58  C   UNL A   1      42.850  33.324  30.318  1.00  0.00     0.029 A 
ATOM     59  C   UNL A   1      43.500  32.359  29.563  1.00  0.00     0.049 A 
ATOM     60  H   UNL A   1      42.838  30.429  29.026  1.00  0.00     0.167 HD
ATOM     61  C   UNL A   1      45.395  31.426  28.255  1.00  0.00     0.074 A 
ATOM     62  C   UNL A   1      46.702  31.523  27.637  1.00  0.00     0.031 C 
ATOM     63  C   UNL A   1      44.800  32.432  28.941  1.00  0.00     0.037 A 
BRANCH  50  64
ATOM     64  C   UNL A   1      39.118  31.119  31.006  1.00  0.00     0.064 A 
ATOM     65  C   UNL A   1      38.154  31.928  30.388  1.00  0.00     0.173 A 
ATOM     66  C   UNL A   1      38.885  30.724  32.334  1.00  0.00     0.173 A 
ATOM     67  F   UNL A   1      38.331  32.345  29.125  1.00  0.00    -0.203 F 
ATOM     68  C   UNL A   1      37.022  32.353  31.079  1.00  0.00     0.198 A 
ATOM     69  C   UNL A   1      37.734  31.119  33.010  1.00  0.00     0.198 A 
ATOM     70  F   UNL A   1      39.770  29.946  32.974  1.00  0.00    -0.203 F 
ATOM     71  F   UNL A   1      36.144  33.173  30.486  1.00  0.00    -0.200 F 
ATOM     72  C   UNL A   1      36.810  31.942  32.386  1.00  0.00     0.200 A 
ATOM     73  F   UNL A   1      37.523  30.707  34.267  1.00  0.00    -0.200 F 
ATOM     74  F   UNL A   1      35.715  32.344  33.048  1.00  0.00    -0.200 F 
ENDBRANCH  50  64
BRANCH  51  75
ATOM     75  C   UNL A   1      47.050  27.663  25.941  1.00  0.00     0.064 A 
ATOM     76  C   UNL A   1      48.169  27.109  26.577  1.00  0.00     0.173 A 
ATOM     77  C   UNL A   1      47.072  27.745  24.540  1.00  0.00     0.173 A 
ATOM     78  F   UNL A   1      48.207  27.029  27.915  1.00  0.00    -0.203 F 
ATOM     79  C   UNL A   1      49.271  26.673  25.844  1.00  0.00     0.198 A 
ATOM     80  C   UNL A   1      48.159  27.277  23.807  1.00  0.00     0.198 A 
ATOM     81  F   UNL A   1      46.027  28.267  23.880  1.00  0.00    -0.203 F 
ATOM     82  F   UNL A   1      50.348  26.195  26.481  1.00  0.00    -0.200 F 
ATOM     83  C   UNL A   1      49.262  26.751  24.460  1.00  0.00     0.200 A 
ATOM     84  F   UNL A   1      48.138  27.338  22.468  1.00  0.00    -0.200 F 
ATOM     85  F   UNL A   1      50.320  26.327  23.756  1.00  0.00    -0.200 F 
ENDBRANCH  51  75
BRANCH  63  86
ATOM     86  C   UNL A   1      45.559  33.720  29.082  1.00  0.00     0.064 A 
ATOM     87  C   UNL A   1      46.475  33.923  30.124  1.00  0.00     0.173 A 
ATOM     88  C   UNL A   1      45.422  34.735  28.121  1.00  0.00     0.173 A 
ATOM     89  F   UNL A   1      46.633  32.991  31.076  1.00  0.00    -0.203 F 
ATOM     90  C   UNL A   1      47.212  35.102  30.211  1.00  0.00     0.198 A 
ATOM     91  C   UNL A   1      46.187  35.896  28.190  1.00  0.00     0.198 A 
ATOM     92  F   UNL A   1      44.565  34.588  27.099  1.00  0.00    -0.203 F 
ATOM     93  F   UNL A   1      48.048  35.292  31.239  1.00  0.00    -0.200 F 
ATOM     94  C   UNL A   1      47.076  36.081  29.237  1.00  0.00     0.200 A 
ATOM     95  F   UNL A   1      46.069  36.832  27.238  1.00  0.00    -0.200 F 
ATOM     96  F   UNL A   1      47.801  37.205  29.311  1.00  0.00    -0.200 F 
ENDBRANCH  63  86
ENDBRANCH  37  38
ENDBRANCH  30  32
ENDBRANCH  29  30
ENDBRANCH  28  29
ENDBRANCH  27  28
ENDBRANCH  26  27
ENDBRANCH  25  26
ENDBRANCH   1  25
TORSDOF 20
ENDMDL
MODEL 2
REMARK VINA RESULT:     -11.1      2.784      8.809
REMARK SMILES CCCOc1ccccc1O[C@@H]1CC[C@@]([NH3+])(C(=O)OCCOCCOC(=O)c2ccc(-c3c4nc(c(-c5c(F)c(F)c(F)c(F)c5F)c5ccc([nH]5)c(-c5c(F)c(F)c(F)c(F)c5F)c5nc(c(-c6c(F)c(F)c(F)c(F)c6F)c6ccc3[nH]6)C=C5)C=C4)cc2)C1
REMARK SMILES IDX 20 1 19 2 17 3 18 4 15 5 12 6 13 7 91 8 14 9 11 10 10 11
REMARK SMILES IDX 5 12 6 13 7 14 9 15 8 16 4 17 3 18 2 19 1 20 16 21 21 25
REMARK SMILES IDX 22 26 23 27 24 28 25 29 26 30 27 31 28 32 29 33 90 34 30 35
REMARK SMILES IDX 89 36 31 37 32 38 33 39 83 40 34 41 88 42 82 43 84 44 35 45
REMARK SMILES IDX 87 46 81 47 80 48 36 50 68 51 48 52 67 53 49 54 52 55 66 56
REMARK SMILES IDX 85 57 50 58 51 59 65 61 86 62 53 63 37 64 38 65 46 66 39 67
REMARK SMILES IDX 40 68 44 69 47 70 41 71 42 72 45 73 43 74 69 75 70 76 78 77
REMARK SMILES IDX 71 78 72 79 76 80 79 81 73 82 74 83 77 84 75 85 54 86 55 87
REMARK SMILES IDX 63 88 56 89 57 90 61 91 64 92 58 93 59 94 62 95 60 96
REMARK H PARENT 16 22 16 23 16 24 84 49 52 60
REMARK Flexibility Score: inf
ROOT
ATOM      1  C   UNL A   1      34.077  32.606  28.002  1.00  0.00     0.261 C 
ENDROOT
BRANCH   1   2
ATOM      2  O   UNL A   1      33.180  31.525  27.652  1.00  0.00    -0.459 OA
BRANCH   2   3
ATOM      3  C   UNL A   1      33.709  30.371  27.125  1.00  0.00     0.368 C 
ATOM      4  O   UNL A   1      34.860  29.984  27.277  1.00  0.00    -0.245 OA
BRANCH   3   5
ATOM      5  C   UNL A   1      32.580  29.571  26.226  1.00  0.00     0.196 C 
ATOM      6  C   UNL A   1      32.826  26.438  25.192  1.00  0.00     0.180 C 
ATOM      7  C   UNL A   1      31.486  26.511  26.696  1.00  0.00     0.052 C 
ATOM      8  C   UNL A   1      33.419  28.368  24.815  1.00  0.00     0.126 C 
ATOM      9  C   UNL A   1      31.488  28.378  27.417  1.00  0.00     0.085 C 
BRANCH   6  10
ATOM     10  O   UNL A   1      32.791  25.464  24.175  1.00  0.00    -0.486 OA
BRANCH  10  11
ATOM     11  C   UNL A   1      33.906  24.722  24.130  1.00  0.00     0.161 A 
ATOM     12  C   UNL A   1      34.020  23.726  23.187  1.00  0.00     0.161 A 
ATOM     13  C   UNL A   1      35.122  22.888  23.220  1.00  0.00     0.050 A 
ATOM     14  C   UNL A   1      36.107  23.091  24.202  1.00  0.00     0.004 A 
ATOM     15  C   UNL A   1      34.851  24.922  25.126  1.00  0.00     0.050 A 
ATOM     16  C   UNL A   1      35.968  24.103  25.159  1.00  0.00     0.004 A 
BRANCH  12  17
ATOM     17  O   UNL A   1      32.903  23.462  22.450  1.00  0.00    -0.490 OA
BRANCH  17  18
ATOM     18  C   UNL A   1      32.248  22.085  22.575  1.00  0.00     0.229 C 
BRANCH  18  19
ATOM     19  C   UNL A   1      32.354  20.561  24.129  1.00  0.00     0.038 C 
ATOM     20  C   UNL A   1      33.233  19.046  24.292  1.00  0.00     0.007 C 
ENDBRANCH  18  19
ENDBRANCH  17  18
ENDBRANCH  12  17
ENDBRANCH  10  11
ENDBRANCH   6  10
BRANCH   5  21
ATOM     21  N   UNL A   1      31.767  30.731  25.751  1.00  0.00    -0.343 N 
ATOM     22  H   UNL A   1      30.810  30.638  26.095  1.00  0.00     0.345 HD
ATOM     23  H   UNL A   1      31.762  30.748  24.731  1.00  0.00     0.345 HD
ATOM     24  H   UNL A   1      32.172  31.598  26.105  1.00  0.00     0.345 HD
ENDBRANCH   5  21
ENDBRANCH   3   5
ENDBRANCH   2   3
ENDBRANCH   1   2
BRANCH   1  25
ATOM     25  C   UNL A   1      34.558  32.530  29.473  1.00  0.00     0.202 C 
BRANCH  25  26
ATOM     26  O   UNL A   1      34.020  33.461  30.423  1.00  0.00    -0.374 OA
BRANCH  26  27
ATOM     27  C   UNL A   1      34.902  33.829  31.473  1.00  0.00     0.202 C 
BRANCH  27  28
ATOM     28  C   UNL A   1      34.868  33.061  32.797  1.00  0.00     0.261 C 
BRANCH  28  29
ATOM     29  O   UNL A   1      35.510  31.788  32.673  1.00  0.00    -0.460 OA
BRANCH  29  30
ATOM     30  C   UNL A   1      36.715  31.742  33.283  1.00  0.00     0.338 C 
ATOM     31  O   UNL A   1      36.967  31.963  34.454  1.00  0.00    -0.246 OA
BRANCH  30  32
ATOM     32  C   UNL A   1      37.698  31.170  32.355  1.00  0.00     0.060 A 
ATOM     33  C   UNL A   1      38.872  30.661  32.920  1.00  0.00     0.016 A 
ATOM     34  C   UNL A   1      37.498  31.168  30.974  1.00  0.00     0.016 A 
ATOM     35  C   UNL A   1      39.883  30.184  32.099  1.00  0.00     0.010 A 
ATOM     36  C   UNL A   1      38.522  30.704  30.148  1.00  0.00     0.010 A 
ATOM     37  C   UNL A   1      39.726  30.242  30.709  1.00  0.00    -0.014 A 
BRANCH  37  38
ATOM     38  C   UNL A   1      40.881  29.941  29.840  1.00  0.00     0.031 A 
ATOM     39  C   UNL A   1      41.004  28.566  29.254  1.00  0.00     0.074 A 
ATOM     40  C   UNL A   1      41.787  30.894  29.568  1.00  0.00     0.049 A 
ATOM     41  N   UNL A   1      41.969  28.053  28.537  1.00  0.00    -0.248 NA
ATOM     42  C   UNL A   1      39.889  27.642  29.515  1.00  0.00     0.031 C 
ATOM     43  C   UNL A   1      41.722  32.275  30.041  1.00  0.00     0.029 A 
ATOM     44  N   UNL A   1      42.945  30.838  28.838  1.00  0.00    -0.354 N 
ATOM     45  C   UNL A   1      41.585  26.745  28.273  1.00  0.00     0.074 A 
ATOM     46  C   UNL A   1      40.314  26.532  28.930  1.00  0.00     0.031 C 
ATOM     47  C   UNL A   1      42.806  32.936  29.602  1.00  0.00     0.029 A 
ATOM     48  C   UNL A   1      43.659  32.009  28.862  1.00  0.00     0.049 A 
ATOM     49  H   UNL A   1      43.235  30.037  28.346  1.00  0.00     0.167 HD
ATOM     50  C   UNL A   1      42.238  25.813  27.540  1.00  0.00     0.037 A 
ATOM     51  C   UNL A   1      44.883  32.284  28.374  1.00  0.00     0.037 A 
ATOM     52  C   UNL A   1      43.506  26.046  26.900  1.00  0.00     0.049 A 
ATOM     53  C   UNL A   1      45.638  31.195  27.654  1.00  0.00     0.074 A 
ATOM     54  C   UNL A   1      44.250  25.180  26.118  1.00  0.00     0.029 A 
ATOM     55  N   UNL A   1      44.225  27.230  26.982  1.00  0.00    -0.354 N 
ATOM     56  N   UNL A   1      45.263  29.969  27.380  1.00  0.00    -0.248 NA
ATOM     57  C   UNL A   1      46.989  31.527  27.182  1.00  0.00     0.031 C 
ATOM     58  C   UNL A   1      45.452  25.814  25.792  1.00  0.00     0.029 A 
ATOM     59  C   UNL A   1      45.428  27.102  26.306  1.00  0.00     0.049 A 
ATOM     60  H   UNL A   1      43.926  28.042  27.453  1.00  0.00     0.167 HD
ATOM     61  C   UNL A   1      46.316  29.391  26.684  1.00  0.00     0.074 A 
ATOM     62  C   UNL A   1      47.339  30.409  26.561  1.00  0.00     0.031 C 
ATOM     63  C   UNL A   1      46.431  28.132  26.195  1.00  0.00     0.037 A 
BRANCH  50  64
ATOM     64  C   UNL A   1      41.616  24.450  27.430  1.00  0.00     0.064 A 
ATOM     65  C   UNL A   1      40.481  24.210  26.641  1.00  0.00     0.173 A 
ATOM     66  C   UNL A   1      42.184  23.357  28.105  1.00  0.00     0.173 A 
ATOM     67  F   UNL A   1      39.891  25.220  25.983  1.00  0.00    -0.203 F 
ATOM     68  C   UNL A   1      39.919  22.939  26.558  1.00  0.00     0.198 A 
ATOM     69  C   UNL A   1      41.642  22.080  27.991  1.00  0.00     0.198 A 
ATOM     70  F   UNL A   1      43.272  23.526  28.870  1.00  0.00    -0.203 F 
ATOM     71  F   UNL A   1      38.801  22.747  25.844  1.00  0.00    -0.200 F 
ATOM     72  C   UNL A   1      40.504  21.874  27.227  1.00  0.00     0.200 A 
ATOM     73  F   UNL A   1      42.219  21.050  28.624  1.00  0.00    -0.200 F 
ATOM     74  F   UNL A   1      39.967  20.649  27.140  1.00  0.00    -0.200 F 
ENDBRANCH  50  64
BRANCH  51  75
ATOM     75  C   UNL A   1      45.479  33.630  28.576  1.00  0.00     0.064 A 
ATOM     76  C   UNL A   1      45.378  34.620  27.590  1.00  0.00     0.173 A 
ATOM     77  C   UNL A   1      46.169  33.954  29.755  1.00  0.00     0.173 A 
ATOM     78  F   UNL A   1      44.747  34.354  26.436  1.00  0.00    -0.203 F 
ATOM     79  C   UNL A   1      45.960  35.874  27.766  1.00  0.00     0.198 A 
ATOM     80  C   UNL A   1      46.721  35.219  29.944  1.00  0.00     0.198 A 
ATOM     81  F   UNL A   1      46.296  33.043  30.732  1.00  0.00    -0.203 F 
ATOM     82  F   UNL A   1      45.892  36.784  26.784  1.00  0.00    -0.200 F 
ATOM     83  C   UNL A   1      46.624  36.174  28.945  1.00  0.00     0.200 A 
ATOM     84  F   UNL A   1      47.346  35.509  31.093  1.00  0.00    -0.200 F 
ATOM     85  F   UNL A   1      47.179  37.382  29.115  1.00  0.00    -0.200 F 
ENDBRANCH  51  75
BRANCH  63  86
ATOM     86  C   UNL A   1      47.695  27.786  25.462  1.00  0.00     0.064 A 
ATOM     87  C   UNL A   1      48.849  27.369  26.142  1.00  0.00     0.173 A 
ATOM     88  C   UNL A   1      47.731  27.803  24.059  1.00  0.00     0.173 A 
ATOM     89  F   UNL A   1      48.872  27.349  27.483  1.00  0.00    -0.203 F 
ATOM     90  C   UNL A   1      49.996  27.000  25.445  1.00  0.00     0.198 A 
ATOM     91  C   UNL A   1      48.867  27.399  23.365  1.00  0.00     0.198 A 
ATOM     92  F   UNL A   1      46.652  28.187  23.358  1.00  0.00    -0.203 F 
ATOM     93  F   UNL A   1      51.100  26.647  26.117  1.00  0.00    -0.200 F 
ATOM     94  C   UNL A   1      50.001  27.003  24.058  1.00  0.00     0.200 A 
ATOM     95  F   UNL A   1      48.863  27.383  22.024  1.00  0.00    -0.200 F 
ATOM     96  F   UNL A   1      51.099  26.628  23.389  1.00  0.00    -0.200 F 
ENDBRANCH  63  86
ENDBRANCH  37  38
ENDBRANCH  30  32
ENDBRANCH  29  30
ENDBRANCH  28  29
ENDBRANCH  27  28
ENDBRANCH  26  27
ENDBRANCH  25  26
ENDBRANCH   1  25
TORSDOF 20
ENDMDL
MODEL 3
REMARK VINA RESULT:     -11.1      4.661     10.716
REMARK SMILES CCCOc1ccccc1O[C@@H]1CC[C@@]([NH3+])(C(=O)OCCOCCOC(=O)c2ccc(-c3c4nc(c(-c5c(F)c(F)c(F)c(F)c5F)c5ccc([nH]5)c(-c5c(F)c(F)c(F)c(F)c5F)c5nc(c(-c6c(F)c(F)c(F)c(F)c6F)c6ccc3[nH]6)C=C5)C=C4)cc2)C1
REMARK SMILES IDX 20 1 19 2 17 3 18 4 15 5 12 6 13 7 91 8 14 9 11 10 10 11
REMARK SMILES IDX 5 12 6 13 7 14 9 15 8 16 4 17 3 18 2 19 1 20 16 21 21 25
REMARK SMILES IDX 22 26 23 27 24 28 25 29 26 30 27 31 28 32 29 33 90 34 30 35
REMARK SMILES IDX 89 36 31 37 32 38 33 39 83 40 34 41 88 42 82 43 84 44 35 45
REMARK SMILES IDX 87 46 81 47 80 48 36 50 68 51 48 52 67 53 49 54 52 55 66 56
REMARK SMILES IDX 85 57 50 58 51 59 65 61 86 62 53 63 37 64 38 65 46 66 39 67
REMARK SMILES IDX 40 68 44 69 47 70 41 71 42 72 45 73 43 74 69 75 70 76 78 77
REMARK SMILES IDX 71 78 72 79 76 80 79 81 73 82 74 83 77 84 75 85 54 86 55 87
REMARK SMILES IDX 63 88 56 89 57 90 61 91 64 92 58 93 59 94 62 95 60 96
REMARK H PARENT 16 22 16 23 16 24 84 49 52 60
REMARK Flexibility Score: inf
ROOT
ATOM      1  C   UNL A   1      32.059  28.915  25.035  1.00  0.00     0.261 C 
ENDROOT
BRANCH   1   2
ATOM      2  O   UNL A   1      31.622  27.691  24.398  1.00  0.00    -0.459 OA
BRANCH   2   3
ATOM      3  C   UNL A   1      30.329  27.610  23.938  1.00  0.00     0.368 C 
ATOM      4  O   UNL A   1      29.701  28.524  23.421  1.00  0.00    -0.245 OA
BRANCH   3   5
ATOM      5  C   UNL A   1      29.713  26.101  24.197  1.00  0.00     0.196 C 
ATOM      6  C   UNL A   1      31.493  23.324  24.450  1.00  0.00     0.180 C 
ATOM      7  C   UNL A   1      30.843  23.838  26.288  1.00  0.00     0.052 C 
ATOM      8  C   UNL A   1      30.685  24.670  23.126  1.00  0.00     0.126 C 
ATOM      9  C   UNL A   1      29.923  25.607  26.132  1.00  0.00     0.085 C 
BRANCH   6  10
ATOM     10  O   UNL A   1      31.775  21.996  24.075  1.00  0.00    -0.486 OA
BRANCH  10  11
ATOM     11  C   UNL A   1      33.049  21.652  24.309  1.00  0.00     0.161 A 
ATOM     12  C   UNL A   1      33.360  20.335  24.561  1.00  0.00     0.161 A 
ATOM     13  C   UNL A   1      34.656  20.004  24.917  1.00  0.00     0.050 A 
ATOM     14  C   UNL A   1      35.627  21.017  24.989  1.00  0.00     0.004 A 
ATOM     15  C   UNL A   1      33.983  22.672  24.404  1.00  0.00     0.050 A 
ATOM     16  C   UNL A   1      35.288  22.353  24.740  1.00  0.00     0.004 A 
BRANCH  12  17
ATOM     17  O   UNL A   1      32.304  19.483  24.707  1.00  0.00    -0.490 OA
BRANCH  17  18
ATOM     18  C   UNL A   1      32.372  18.107  24.039  1.00  0.00     0.229 C 
BRANCH  18  19
ATOM     19  C   UNL A   1      33.965  16.626  23.923  1.00  0.00     0.038 C 
ATOM     20  C   UNL A   1      35.148  16.015  25.074  1.00  0.00     0.007 C 
ENDBRANCH  18  19
ENDBRANCH  17  18
ENDBRANCH  12  17
ENDBRANCH  10  11
ENDBRANCH   6  10
BRANCH   5  21
ATOM     21  N   UNL A   1      28.277  26.355  23.869  1.00  0.00    -0.343 N 
ATOM     22  H   UNL A   1      28.000  27.265  24.238  1.00  0.00     0.345 HD
ATOM     23  H   UNL A   1      27.698  25.627  24.289  1.00  0.00     0.345 HD
ATOM     24  H   UNL A   1      28.153  26.346  22.856  1.00  0.00     0.345 HD
ENDBRANCH   5  21
ENDBRANCH   3   5
ENDBRANCH   2   3
ENDBRANCH   1   2
BRANCH   1  25
ATOM     25  C   UNL A   1      31.844  28.899  26.570  1.00  0.00     0.202 C 
BRANCH  25  26
ATOM     26  O   UNL A   1      31.955  30.131  27.295  1.00  0.00    -0.374 OA
BRANCH  26  27
ATOM     27  C   UNL A   1      33.060  30.946  26.933  1.00  0.00     0.202 C 
BRANCH  27  28
ATOM     28  C   UNL A   1      33.546  32.036  27.894  1.00  0.00     0.261 C 
BRANCH  28  29
ATOM     29  O   UNL A   1      33.137  33.334  27.451  1.00  0.00    -0.460 OA
BRANCH  29  30
ATOM     30  C   UNL A   1      33.285  34.287  28.398  1.00  0.00     0.338 C 
ATOM     31  O   UNL A   1      32.530  35.208  28.654  1.00  0.00    -0.246 OA
BRANCH  30  32
ATOM     32  C   UNL A   1      34.426  33.938  29.251  1.00  0.00     0.060 A 
ATOM     33  C   UNL A   1      35.700  34.188  28.728  1.00  0.00     0.016 A 
ATOM     34  C   UNL A   1      34.261  33.347  30.505  1.00  0.00     0.016 A 
ATOM     35  C   UNL A   1      36.827  33.804  29.440  1.00  0.00     0.010 A 
ATOM     36  C   UNL A   1      35.394  32.946  31.212  1.00  0.00     0.010 A 
ATOM     37  C   UNL A   1      36.675  33.146  30.666  1.00  0.00    -0.014 A 
BRANCH  37  38
ATOM     38  C   UNL A   1      37.858  32.546  31.314  1.00  0.00     0.031 A 
ATOM     39  C   UNL A   1      38.489  31.337  30.689  1.00  0.00     0.074 A 
ATOM     40  C   UNL A   1      38.365  33.093  32.431  1.00  0.00     0.049 A 
ATOM     41  N   UNL A   1      39.475  30.598  31.123  1.00  0.00    -0.248 NA
ATOM     42  C   UNL A   1      37.928  30.901  29.400  1.00  0.00     0.031 C 
ATOM     43  C   UNL A   1      37.860  34.301  33.080  1.00  0.00     0.029 A 
ATOM     44  N   UNL A   1      39.411  32.694  33.221  1.00  0.00    -0.354 N 
ATOM     45  C   UNL A   1      39.645  29.603  30.170  1.00  0.00     0.074 A 
ATOM     46  C   UNL A   1      38.642  29.814  29.149  1.00  0.00     0.031 C 
ATOM     47  C   UNL A   1      38.587  34.538  34.183  1.00  0.00     0.029 A 
ATOM     48  C   UNL A   1      39.573  33.471  34.341  1.00  0.00     0.049 A 
ATOM     49  H   UNL A   1      39.988  31.927  33.007  1.00  0.00     0.167 HD
ATOM     50  C   UNL A   1      40.563  28.609  30.152  1.00  0.00     0.037 A 
ATOM     51  C   UNL A   1      40.399  33.309  35.391  1.00  0.00     0.037 A 
ATOM     52  C   UNL A   1      41.549  28.414  31.183  1.00  0.00     0.049 A 
ATOM     53  C   UNL A   1      41.340  32.131  35.400  1.00  0.00     0.074 A 
ATOM     54  C   UNL A   1      42.539  27.452  31.259  1.00  0.00     0.029 A 
ATOM     55  N   UNL A   1      41.656  29.192  32.327  1.00  0.00    -0.354 N 
ATOM     56  N   UNL A   1      41.519  31.207  34.485  1.00  0.00    -0.248 NA
ATOM     57  C   UNL A   1      42.188  31.969  36.588  1.00  0.00     0.031 C 
ATOM     58  C   UNL A   1      43.195  27.601  32.485  1.00  0.00     0.029 A 
ATOM     59  C   UNL A   1      42.666  28.703  33.140  1.00  0.00     0.049 A 
ATOM     60  H   UNL A   1      41.097  29.977  32.532  1.00  0.00     0.167 HD
ATOM     61  C   UNL A   1      42.514  30.371  34.974  1.00  0.00     0.074 A 
ATOM     62  C   UNL A   1      42.913  30.910  36.258  1.00  0.00     0.031 C 
ATOM     63  C   UNL A   1      43.047  29.257  34.416  1.00  0.00     0.037 A 
BRANCH  50  64
ATOM     64  C   UNL A   1      40.516  27.635  29.010  1.00  0.00     0.064 A 
ATOM     65  C   UNL A   1      39.672  26.514  29.021  1.00  0.00     0.173 A 
ATOM     66  C   UNL A   1      41.309  27.842  27.869  1.00  0.00     0.173 A 
ATOM     67  F   UNL A   1      38.901  26.260  30.090  1.00  0.00    -0.203 F 
ATOM     68  C   UNL A   1      39.648  25.621  27.953  1.00  0.00     0.198 A 
ATOM     69  C   UNL A   1      41.255  26.969  26.787  1.00  0.00     0.198 A 
ATOM     70  F   UNL A   1      42.131  28.900  27.800  1.00  0.00    -0.203 F 
ATOM     71  F   UNL A   1      38.877  24.527  28.012  1.00  0.00    -0.200 F 
ATOM     72  C   UNL A   1      40.434  25.854  26.834  1.00  0.00     0.200 A 
ATOM     73  F   UNL A   1      42.002  27.204  25.700  1.00  0.00    -0.200 F 
ATOM     74  F   UNL A   1      40.403  24.998  25.802  1.00  0.00    -0.200 F 
ENDBRANCH  50  64
BRANCH  51  75
ATOM     75  C   UNL A   1      40.351  34.265  36.528  1.00  0.00     0.064 A 
ATOM     76  C   UNL A   1      41.221  35.361  36.586  1.00  0.00     0.173 A 
ATOM     77  C   UNL A   1      39.442  34.098  37.584  1.00  0.00     0.173 A 
ATOM     78  F   UNL A   1      42.124  35.553  35.613  1.00  0.00    -0.203 F 
ATOM     79  C   UNL A   1      41.198  36.243  37.665  1.00  0.00     0.198 A 
ATOM     80  C   UNL A   1      39.396  35.000  38.645  1.00  0.00     0.198 A 
ATOM     81  F   UNL A   1      38.586  33.065  37.578  1.00  0.00    -0.203 F 
ATOM     82  F   UNL A   1      42.076  37.253  37.720  1.00  0.00    -0.200 F 
ATOM     83  C   UNL A   1      40.280  36.066  38.689  1.00  0.00     0.200 A 
ATOM     84  F   UNL A   1      38.495  34.833  39.623  1.00  0.00    -0.200 F 
ATOM     85  F   UNL A   1      40.255  36.916  39.724  1.00  0.00    -0.200 F 
ENDBRANCH  51  75
BRANCH  63  86
ATOM     86  C   UNL A   1      44.134  28.553  35.175  1.00  0.00     0.064 A 
ATOM     87  C   UNL A   1      43.852  27.501  36.058  1.00  0.00     0.173 A 
ATOM     88  C   UNL A   1      45.481  28.889  34.963  1.00  0.00     0.173 A 
ATOM     89  F   UNL A   1      42.581  27.151  36.307  1.00  0.00    -0.203 F 
ATOM     90  C   UNL A   1      44.876  26.823  36.715  1.00  0.00     0.198 A 
ATOM     91  C   UNL A   1      46.504  28.184  35.593  1.00  0.00     0.198 A 
ATOM     92  F   UNL A   1      45.808  29.883  34.123  1.00  0.00    -0.203 F 
ATOM     93  F   UNL A   1      44.580  25.850  37.587  1.00  0.00    -0.200 F 
ATOM     94  C   UNL A   1      46.200  27.156  36.472  1.00  0.00     0.200 A 
ATOM     95  F   UNL A   1      47.783  28.495  35.341  1.00  0.00    -0.200 F 
ATOM     96  F   UNL A   1      47.185  26.488  37.089  1.00  0.00    -0.200 F 
ENDBRANCH  63  86
ENDBRANCH  37  38
ENDBRANCH  30  32
ENDBRANCH  29  30
ENDBRANCH  28  29
ENDBRANCH  27  28
ENDBRANCH  26  27
ENDBRANCH  25  26
ENDBRANCH   1  25
TORSDOF 20
ENDMDL
