MODEL 1
REMARK VINA RESULT:     -11.8      0.000      0.000
REMARK SMILES O=C(OCCOCCOC(=O)[C@H]1C=C[C@H](NC(=O)c2cc(F)c(Cl)cc2Cl)C1)c1ccc(-c2c3nc(c(-c4c(F)c(F)c(F)c(F)c4F)c4ccc([nH]4)c(-c4c(F)c(F)c(F)c(F)c4F)c4nc(c(-c5c(F)c(F)c(F)c(F)c5F)c5ccc2[nH]5)C=C4)C=C3)cc1
REMARK SMILES IDX 6 1 5 2 4 3 3 4 2 5 1 6 29 7 30 8 91 9 31 10 90 11 32 12
REMARK SMILES IDX 33 13 34 14 84 15 35 16 89 17 83 18 85 19 36 20 88 21 82 22
REMARK SMILES IDX 81 23 37 25 69 26 49 27 68 28 50 29 53 30 67 31 86 32 51 33
REMARK SMILES IDX 52 34 66 36 87 37 54 38 38 39 39 40 47 41 40 42 41 43 45 44
REMARK SMILES IDX 48 45 42 46 43 47 46 48 44 49 70 50 71 51 79 52 72 53 73 54
REMARK SMILES IDX 77 55 80 56 74 57 75 58 78 59 76 60 55 61 56 62 64 63 57 64
REMARK SMILES IDX 58 65 62 66 65 67 59 68 60 69 63 70 61 71 7 72 8 73 9 74
REMARK SMILES IDX 10 75 11 76 12 77 13 78 28 79 14 80 15 81 16 82 17 83 18 85
REMARK SMILES IDX 19 86 20 87 26 88 21 89 25 90 27 91 22 92 23 93 24 94
REMARK H PARENT 85 24 53 35 16 84
REMARK Flexibility Score: inf
ROOT
ATOM      1  O   UNL A   1      37.067  20.132  24.959  1.00  0.00    -0.374 OA
ENDROOT
BRANCH   1   2
ATOM      2  C   UNL A   1      38.249  19.319  25.004  1.00  0.00     0.202 C 
BRANCH   2   3
ATOM      3  C   UNL A   1      39.473  19.842  25.782  1.00  0.00     0.261 C 
BRANCH   3   4
ATOM      4  O   UNL A   1      40.579  18.922  25.751  1.00  0.00    -0.460 OA
BRANCH   4   5
ATOM      5  C   UNL A   1      41.881  19.172  26.029  1.00  0.00     0.338 C 
ATOM      6  O   UNL A   1      42.679  18.238  26.030  1.00  0.00    -0.246 OA
BRANCH   5   7
ATOM      7  C   UNL A   1      42.395  20.537  26.344  1.00  0.00     0.060 A 
ATOM      8  C   UNL A   1      42.518  21.057  27.632  1.00  0.00     0.016 A 
ATOM      9  C   UNL A   1      42.845  21.324  25.271  1.00  0.00     0.016 A 
ATOM     10  C   UNL A   1      42.954  22.343  27.861  1.00  0.00     0.010 A 
ATOM     11  C   UNL A   1      43.346  22.608  25.493  1.00  0.00     0.010 A 
ATOM     12  C   UNL A   1      43.370  23.124  26.792  1.00  0.00    -0.014 A 
BRANCH  12  13
ATOM     13  C   UNL A   1      43.694  24.521  27.097  1.00  0.00     0.031 A 
ATOM     14  C   UNL A   1      45.060  25.011  26.745  1.00  0.00     0.074 A 
ATOM     15  C   UNL A   1      42.707  25.346  27.487  1.00  0.00     0.049 A 
ATOM     16  N   UNL A   1      45.588  26.188  26.934  1.00  0.00    -0.248 NA
ATOM     17  C   UNL A   1      45.949  24.051  26.067  1.00  0.00     0.031 C 
ATOM     18  C   UNL A   1      41.307  24.953  27.681  1.00  0.00     0.029 A 
ATOM     19  N   UNL A   1      42.715  26.687  27.745  1.00  0.00    -0.354 N 
ATOM     20  C   UNL A   1      46.880  26.097  26.437  1.00  0.00     0.074 A 
ATOM     21  C   UNL A   1      47.059  24.759  25.925  1.00  0.00     0.031 C 
ATOM     22  C   UNL A   1      40.588  26.038  28.008  1.00  0.00     0.029 A 
ATOM     23  C   UNL A   1      41.490  27.176  28.126  1.00  0.00     0.049 A 
ATOM     24  H   UNL A   1      43.520  27.249  27.664  1.00  0.00     0.167 HD
ATOM     25  C   UNL A   1      47.828  27.059  26.433  1.00  0.00     0.037 A 
ATOM     26  C   UNL A   1      41.163  28.403  28.569  1.00  0.00     0.037 A 
ATOM     27  C   UNL A   1      47.598  28.380  26.949  1.00  0.00     0.049 A 
ATOM     28  C   UNL A   1      42.266  29.424  28.651  1.00  0.00     0.074 A 
ATOM     29  C   UNL A   1      48.488  29.429  27.082  1.00  0.00     0.029 A 
ATOM     30  N   UNL A   1      46.368  28.830  27.416  1.00  0.00    -0.354 N 
ATOM     31  N   UNL A   1      43.520  29.315  28.276  1.00  0.00    -0.248 NA
ATOM     32  C   UNL A   1      41.923  30.723  29.234  1.00  0.00     0.031 C 
ATOM     33  C   UNL A   1      47.805  30.497  27.672  1.00  0.00     0.029 A 
ATOM     34  C   UNL A   1      46.477  30.135  27.855  1.00  0.00     0.049 A 
ATOM     35  H   UNL A   1      45.541  28.296  27.431  1.00  0.00     0.167 HD
ATOM     36  C   UNL A   1      44.113  30.535  28.561  1.00  0.00     0.074 A 
ATOM     37  C   UNL A   1      43.071  31.376  29.122  1.00  0.00     0.031 C 
ATOM     38  C   UNL A   1      45.399  30.930  28.391  1.00  0.00     0.037 A 
BRANCH  25  39
ATOM     39  C   UNL A   1      49.193  26.677  25.946  1.00  0.00     0.064 A 
ATOM     40  C   UNL A   1      50.132  26.042  26.772  1.00  0.00     0.173 A 
ATOM     41  C   UNL A   1      49.576  26.982  24.631  1.00  0.00     0.173 A 
ATOM     42  F   UNL A   1      49.829  25.761  28.048  1.00  0.00    -0.203 F 
ATOM     43  C   UNL A   1      51.412  25.749  26.306  1.00  0.00     0.198 A 
ATOM     44  C   UNL A   1      50.847  26.665  24.161  1.00  0.00     0.198 A 
ATOM     45  F   UNL A   1      48.721  27.603  23.805  1.00  0.00    -0.203 F 
ATOM     46  F   UNL A   1      52.313  25.194  27.128  1.00  0.00    -0.200 F 
ATOM     47  C   UNL A   1      51.767  26.055  24.999  1.00  0.00     0.200 A 
ATOM     48  F   UNL A   1      51.187  26.963  22.899  1.00  0.00    -0.200 F 
ATOM     49  F   UNL A   1      52.999  25.776  24.555  1.00  0.00    -0.200 F 
ENDBRANCH  25  39
BRANCH  26  50
ATOM     50  C   UNL A   1      39.780  28.698  29.032  1.00  0.00     0.064 A 
ATOM     51  C   UNL A   1      39.377  28.443  30.349  1.00  0.00     0.173 A 
ATOM     52  C   UNL A   1      38.817  29.224  28.153  1.00  0.00     0.173 A 
ATOM     53  F   UNL A   1      40.249  27.923  31.226  1.00  0.00    -0.203 F 
ATOM     54  C   UNL A   1      38.066  28.678  30.762  1.00  0.00     0.198 A 
ATOM     55  C   UNL A   1      37.518  29.491  28.575  1.00  0.00     0.198 A 
ATOM     56  F   UNL A   1      39.142  29.486  26.877  1.00  0.00    -0.203 F 
ATOM     57  F   UNL A   1      37.695  28.370  32.013  1.00  0.00    -0.200 F 
ATOM     58  C   UNL A   1      37.139  29.207  29.877  1.00  0.00     0.200 A 
ATOM     59  F   UNL A   1      36.632  30.016  27.718  1.00  0.00    -0.200 F 
ATOM     60  F   UNL A   1      35.878  29.429  30.274  1.00  0.00    -0.200 F 
ENDBRANCH  26  50
BRANCH  38  61
ATOM     61  C   UNL A   1      45.725  32.337  28.780  1.00  0.00     0.064 A 
ATOM     62  C   UNL A   1      46.178  32.656  30.067  1.00  0.00     0.173 A 
ATOM     63  C   UNL A   1      45.631  33.368  27.833  1.00  0.00     0.173 A 
ATOM     64  F   UNL A   1      46.267  31.704  31.008  1.00  0.00    -0.203 F 
ATOM     65  C   UNL A   1      46.505  33.966  30.401  1.00  0.00     0.198 A 
ATOM     66  C   UNL A   1      45.989  34.670  28.162  1.00  0.00     0.198 A 
ATOM     67  F   UNL A   1      45.210  33.106  26.587  1.00  0.00    -0.203 F 
ATOM     68  F   UNL A   1      46.892  34.260  31.650  1.00  0.00    -0.200 F 
ATOM     69  C   UNL A   1      46.419  34.970  29.446  1.00  0.00     0.200 A 
ATOM     70  F   UNL A   1      45.921  35.636  27.234  1.00  0.00    -0.200 F 
ATOM     71  F   UNL A   1      46.746  36.228  29.766  1.00  0.00    -0.200 F 
ENDBRANCH  38  61
ENDBRANCH  12  13
ENDBRANCH   5   7
ENDBRANCH   4   5
ENDBRANCH   3   4
ENDBRANCH   2   3
ENDBRANCH   1   2
BRANCH   1  72
ATOM     72  C   UNL A   1      37.274  21.536  24.732  1.00  0.00     0.202 C 
BRANCH  72  73
ATOM     73  C   UNL A   1      36.211  22.375  25.430  1.00  0.00     0.261 C 
BRANCH  73  74
ATOM     74  O   UNL A   1      35.481  21.469  26.265  1.00  0.00    -0.463 OA
BRANCH  74  75
ATOM     75  C   UNL A   1      34.147  21.659  26.222  1.00  0.00     0.312 C 
ATOM     76  O   UNL A   1      33.375  21.518  27.167  1.00  0.00    -0.252 OA
BRANCH  75  77
ATOM     77  C   UNL A   1      33.684  22.203  24.894  1.00  0.00     0.124 C 
ATOM     78  C   UNL A   1      32.879  21.443  23.882  1.00  0.00    -0.014 C 
ATOM     79  C   UNL A   1      32.784  23.409  25.095  1.00  0.00     0.048 C 
ATOM     80  C   UNL A   1      32.167  22.306  23.144  1.00  0.00    -0.006 C 
ATOM     81  C   UNL A   1      32.248  23.701  23.702  1.00  0.00     0.106 C 
BRANCH  81  82
ATOM     82  N   UNL A   1      33.011  24.544  22.795  1.00  0.00    -0.346 N 
ATOM     83  C   UNL A   1      33.196  25.894  22.629  1.00  0.00     0.253 C 
ATOM     84  H   UNL A   1      33.521  24.017  22.139  1.00  0.00     0.164 HD
ATOM     85  O   UNL A   1      33.653  26.323  21.572  1.00  0.00    -0.269 OA
BRANCH  83  86
ATOM     86  C   UNL A   1      32.903  26.875  23.682  1.00  0.00     0.061 A 
ATOM     87  C   UNL A   1      33.777  26.995  24.767  1.00  0.00     0.056 A 
ATOM     88  C   UNL A   1      31.720  27.629  23.647  1.00  0.00     0.055 A 
ATOM     89  C   UNL A   1      33.520  27.953  25.746  1.00  0.00     0.142 A 
ATOM     90  C   UNL A   1      31.470  28.586  24.636  1.00  0.00     0.045 A 
ATOM     91  Cl  UNL A   1      30.553  27.457  22.381  1.00  0.00    -0.083 Cl
ATOM     92  F   UNL A   1      34.398  28.096  26.751  1.00  0.00    -0.205 F 
ATOM     93  C   UNL A   1      32.383  28.758  25.677  1.00  0.00     0.078 A 
ATOM     94  Cl  UNL A   1      32.083  29.963  26.870  1.00  0.00    -0.081 Cl
ENDBRANCH  83  86
ENDBRANCH  81  82
ENDBRANCH  75  77
ENDBRANCH  74  75
ENDBRANCH  73  74
ENDBRANCH  72  73
ENDBRANCH   1  72
TORSDOF 16
ENDMDL
MODEL 2
REMARK VINA RESULT:     -11.7      4.974      8.625
REMARK SMILES O=C(OCCOCCOC(=O)[C@H]1C=C[C@H](NC(=O)c2cc(F)c(Cl)cc2Cl)C1)c1ccc(-c2c3nc(c(-c4c(F)c(F)c(F)c(F)c4F)c4ccc([nH]4)c(-c4c(F)c(F)c(F)c(F)c4F)c4nc(c(-c5c(F)c(F)c(F)c(F)c5F)c5ccc2[nH]5)C=C4)C=C3)cc1
REMARK SMILES IDX 6 1 5 2 4 3 3 4 2 5 1 6 29 7 30 8 91 9 31 10 90 11 32 12
REMARK SMILES IDX 33 13 34 14 84 15 35 16 89 17 83 18 85 19 36 20 88 21 82 22
REMARK SMILES IDX 81 23 37 25 69 26 49 27 68 28 50 29 53 30 67 31 86 32 51 33
REMARK SMILES IDX 52 34 66 36 87 37 54 38 38 39 39 40 47 41 40 42 41 43 45 44
REMARK SMILES IDX 48 45 42 46 43 47 46 48 44 49 70 50 71 51 79 52 72 53 73 54
REMARK SMILES IDX 77 55 80 56 74 57 75 58 78 59 76 60 55 61 56 62 64 63 57 64
REMARK SMILES IDX 58 65 62 66 65 67 59 68 60 69 63 70 61 71 7 72 8 73 9 74
REMARK SMILES IDX 10 75 11 76 12 77 13 78 28 79 14 80 15 81 16 82 17 83 18 85
REMARK SMILES IDX 19 86 20 87 26 88 21 89 25 90 27 91 22 92 23 93 24 94
REMARK H PARENT 85 24 53 35 16 84
REMARK Flexibility Score: inf
ROOT
ATOM      1  O   UNL A   1      31.088  29.101  23.722  1.00  0.00    -0.374 OA
ENDROOT
BRANCH   1   2
ATOM      2  C   UNL A   1      30.964  30.208  24.627  1.00  0.00     0.202 C 
BRANCH   2   3
ATOM      3  C   UNL A   1      31.613  30.095  26.021  1.00  0.00     0.261 C 
BRANCH   3   4
ATOM      4  O   UNL A   1      32.934  30.660  26.061  1.00  0.00    -0.460 OA
BRANCH   4   5
ATOM      5  C   UNL A   1      33.500  31.395  27.049  1.00  0.00     0.338 C 
ATOM      6  O   UNL A   1      32.974  32.455  27.378  1.00  0.00    -0.246 OA
BRANCH   5   7
ATOM      7  C   UNL A   1      34.746  30.978  27.756  1.00  0.00     0.060 A 
ATOM      8  C   UNL A   1      35.025  29.673  28.161  1.00  0.00     0.016 A 
ATOM      9  C   UNL A   1      35.729  31.958  27.971  1.00  0.00     0.016 A 
ATOM     10  C   UNL A   1      36.172  29.354  28.854  1.00  0.00     0.010 A 
ATOM     11  C   UNL A   1      36.923  31.637  28.620  1.00  0.00     0.010 A 
ATOM     12  C   UNL A   1      37.125  30.334  29.087  1.00  0.00    -0.014 A 
BRANCH  12  13
ATOM     13  C   UNL A   1      38.253  29.952  29.942  1.00  0.00     0.031 A 
ATOM     14  C   UNL A   1      39.329  29.110  29.341  1.00  0.00     0.074 A 
ATOM     15  C   UNL A   1      38.376  30.531  31.150  1.00  0.00     0.049 A 
ATOM     16  N   UNL A   1      40.406  28.628  29.894  1.00  0.00    -0.248 NA
ATOM     17  C   UNL A   1      39.185  28.780  27.911  1.00  0.00     0.031 C 
ATOM     18  C   UNL A   1      37.435  31.500  31.720  1.00  0.00     0.029 A 
ATOM     19  N   UNL A   1      39.357  30.425  32.093  1.00  0.00    -0.354 N 
ATOM     20  C   UNL A   1      41.045  27.907  28.896  1.00  0.00     0.074 A 
ATOM     21  C   UNL A   1      40.248  28.021  27.698  1.00  0.00     0.031 C 
ATOM     22  C   UNL A   1      37.900  31.916  32.908  1.00  0.00     0.029 A 
ATOM     23  C   UNL A   1      39.120  31.181  33.214  1.00  0.00     0.049 A 
ATOM     24  H   UNL A   1      40.159  29.863  31.980  1.00  0.00     0.167 HD
ATOM     25  C   UNL A   1      42.193  27.203  28.997  1.00  0.00     0.037 A 
ATOM     26  C   UNL A   1      39.799  31.222  34.374  1.00  0.00     0.037 A 
ATOM     27  C   UNL A   1      42.954  27.127  30.213  1.00  0.00     0.049 A 
ATOM     28  C   UNL A   1      41.017  30.345  34.491  1.00  0.00     0.074 A 
ATOM     29  C   UNL A   1      44.090  26.389  30.483  1.00  0.00     0.029 A 
ATOM     30  N   UNL A   1      42.645  27.833  31.370  1.00  0.00    -0.354 N 
ATOM     31  N   UNL A   1      41.573  29.579  33.582  1.00  0.00    -0.248 NA
ATOM     32  C   UNL A   1      41.687  30.316  35.794  1.00  0.00     0.031 C 
ATOM     33  C   UNL A   1      44.440  26.614  31.819  1.00  0.00     0.029 A 
ATOM     34  C   UNL A   1      43.557  27.536  32.365  1.00  0.00     0.049 A 
ATOM     35  H   UNL A   1      41.887  28.455  31.467  1.00  0.00     0.167 HD
ATOM     36  C   UNL A   1      42.667  28.989  34.193  1.00  0.00     0.074 A 
ATOM     37  C   UNL A   1      42.707  29.506  35.549  1.00  0.00     0.031 C 
ATOM     38  C   UNL A   1      43.556  28.094  33.694  1.00  0.00     0.037 A 
BRANCH  25  39
ATOM     39  C   UNL A   1      42.617  26.406  27.802  1.00  0.00     0.064 A 
ATOM     40  C   UNL A   1      43.541  26.895  26.865  1.00  0.00     0.173 A 
ATOM     41  C   UNL A   1      42.063  25.138  27.574  1.00  0.00     0.173 A 
ATOM     42  F   UNL A   1      44.073  28.117  27.016  1.00  0.00    -0.203 F 
ATOM     43  C   UNL A   1      43.874  26.153  25.734  1.00  0.00     0.198 A 
ATOM     44  C   UNL A   1      42.417  24.387  26.457  1.00  0.00     0.198 A 
ATOM     45  F   UNL A   1      41.164  24.631  28.431  1.00  0.00    -0.203 F 
ATOM     46  F   UNL A   1      44.715  26.662  24.823  1.00  0.00    -0.200 F 
ATOM     47  C   UNL A   1      43.316  24.898  25.534  1.00  0.00     0.200 A 
ATOM     48  F   UNL A   1      41.876  23.176  26.265  1.00  0.00    -0.200 F 
ATOM     49  F   UNL A   1      43.635  24.187  24.443  1.00  0.00    -0.200 F 
ENDBRANCH  25  39
BRANCH  26  50
ATOM     50  C   UNL A   1      39.307  32.045  35.513  1.00  0.00     0.064 A 
ATOM     51  C   UNL A   1      39.702  33.378  35.678  1.00  0.00     0.173 A 
ATOM     52  C   UNL A   1      38.443  31.502  36.480  1.00  0.00     0.173 A 
ATOM     53  F   UNL A   1      40.541  33.942  34.796  1.00  0.00    -0.203 F 
ATOM     54  C   UNL A   1      39.274  34.128  36.773  1.00  0.00     0.198 A 
ATOM     55  C   UNL A   1      37.989  32.261  37.555  1.00  0.00     0.198 A 
ATOM     56  F   UNL A   1      38.033  30.228  36.378  1.00  0.00    -0.203 F 
ATOM     57  F   UNL A   1      39.714  35.384  36.935  1.00  0.00    -0.200 F 
ATOM     58  C   UNL A   1      38.414  33.571  37.708  1.00  0.00     0.200 A 
ATOM     59  F   UNL A   1      37.146  31.721  38.445  1.00  0.00    -0.200 F 
ATOM     60  F   UNL A   1      38.006  34.291  38.762  1.00  0.00    -0.200 F 
ENDBRANCH  26  50
BRANCH  38  61
ATOM     61  C   UNL A   1      44.656  27.660  34.611  1.00  0.00     0.064 A 
ATOM     62  C   UNL A   1      44.531  26.523  35.420  1.00  0.00     0.173 A 
ATOM     63  C   UNL A   1      45.869  28.365  34.637  1.00  0.00     0.173 A 
ATOM     64  F   UNL A   1      43.383  25.829  35.437  1.00  0.00    -0.203 F 
ATOM     65  C   UNL A   1      45.577  26.118  36.243  1.00  0.00     0.198 A 
ATOM     66  C   UNL A   1      46.922  27.939  35.437  1.00  0.00     0.198 A 
ATOM     67  F   UNL A   1      46.034  29.455  33.873  1.00  0.00    -0.203 F 
ATOM     68  F   UNL A   1      45.423  25.055  37.044  1.00  0.00    -0.200 F 
ATOM     69  C   UNL A   1      46.773  26.821  36.244  1.00  0.00     0.200 A 
ATOM     70  F   UNL A   1      48.083  28.609  35.425  1.00  0.00    -0.200 F 
ATOM     71  F   UNL A   1      47.783  26.422  37.028  1.00  0.00    -0.200 F 
ENDBRANCH  38  61
ENDBRANCH  12  13
ENDBRANCH   5   7
ENDBRANCH   4   5
ENDBRANCH   3   4
ENDBRANCH   2   3
ENDBRANCH   1   2
BRANCH   1  72
ATOM     72  C   UNL A   1      29.936  28.249  23.605  1.00  0.00     0.202 C 
BRANCH  72  73
ATOM     73  C   UNL A   1      30.338  26.791  23.421  1.00  0.00     0.261 C 
BRANCH  73  74
ATOM     74  O   UNL A   1      29.564  26.047  24.370  1.00  0.00    -0.463 OA
BRANCH  74  75
ATOM     75  C   UNL A   1      30.236  25.763  25.504  1.00  0.00     0.312 C 
ATOM     76  O   UNL A   1      29.731  25.384  26.558  1.00  0.00    -0.252 OA
BRANCH  75  77
ATOM     77  C   UNL A   1      31.731  25.831  25.320  1.00  0.00     0.124 C 
ATOM     78  C   UNL A   1      32.630  26.865  25.931  1.00  0.00    -0.014 C 
ATOM     79  C   UNL A   1      32.392  24.567  25.842  1.00  0.00     0.048 C 
ATOM     80  C   UNL A   1      33.862  26.354  26.072  1.00  0.00    -0.006 C 
ATOM     81  C   UNL A   1      33.879  24.879  25.776  1.00  0.00     0.106 C 
BRANCH  81  82
ATOM     82  N   UNL A   1      34.615  24.639  24.544  1.00  0.00    -0.346 N 
ATOM     83  C   UNL A   1      34.957  23.535  23.802  1.00  0.00     0.253 C 
ATOM     84  H   UNL A   1      34.950  25.473  24.143  1.00  0.00     0.164 HD
ATOM     85  O   UNL A   1      35.858  23.615  22.971  1.00  0.00    -0.269 OA
BRANCH  83  86
ATOM     86  C   UNL A   1      34.268  22.245  23.927  1.00  0.00     0.061 A 
ATOM     87  C   UNL A   1      33.173  21.973  23.100  1.00  0.00     0.056 A 
ATOM     88  C   UNL A   1      34.646  21.325  24.917  1.00  0.00     0.055 A 
ATOM     89  C   UNL A   1      32.543  20.732  23.190  1.00  0.00     0.142 A 
ATOM     90  C   UNL A   1      34.005  20.085  25.001  1.00  0.00     0.045 A 
ATOM     91  Cl  UNL A   1      35.929  21.646  26.032  1.00  0.00    -0.083 Cl
ATOM     92  F   UNL A   1      31.532  20.463  22.351  1.00  0.00    -0.205 F 
ATOM     93  C   UNL A   1      32.964  19.784  24.123  1.00  0.00     0.078 A 
ATOM     94  Cl  UNL A   1      32.206  18.240  24.213  1.00  0.00    -0.081 Cl
ENDBRANCH  83  86
ENDBRANCH  81  82
ENDBRANCH  75  77
ENDBRANCH  74  75
ENDBRANCH  73  74
ENDBRANCH  72  73
ENDBRANCH   1  72
TORSDOF 16
ENDMDL
MODEL 3
REMARK VINA RESULT:     -11.7      2.028      7.897
REMARK SMILES O=C(OCCOCCOC(=O)[C@H]1C=C[C@H](NC(=O)c2cc(F)c(Cl)cc2Cl)C1)c1ccc(-c2c3nc(c(-c4c(F)c(F)c(F)c(F)c4F)c4ccc([nH]4)c(-c4c(F)c(F)c(F)c(F)c4F)c4nc(c(-c5c(F)c(F)c(F)c(F)c5F)c5ccc2[nH]5)C=C4)C=C3)cc1
REMARK SMILES IDX 6 1 5 2 4 3 3 4 2 5 1 6 29 7 30 8 91 9 31 10 90 11 32 12
REMARK SMILES IDX 33 13 34 14 84 15 35 16 89 17 83 18 85 19 36 20 88 21 82 22
REMARK SMILES IDX 81 23 37 25 69 26 49 27 68 28 50 29 53 30 67 31 86 32 51 33
REMARK SMILES IDX 52 34 66 36 87 37 54 38 38 39 39 40 47 41 40 42 41 43 45 44
REMARK SMILES IDX 48 45 42 46 43 47 46 48 44 49 70 50 71 51 79 52 72 53 73 54
REMARK SMILES IDX 77 55 80 56 74 57 75 58 78 59 76 60 55 61 56 62 64 63 57 64
REMARK SMILES IDX 58 65 62 66 65 67 59 68 60 69 63 70 61 71 7 72 8 73 9 74
REMARK SMILES IDX 10 75 11 76 12 77 13 78 28 79 14 80 15 81 16 82 17 83 18 85
REMARK SMILES IDX 19 86 20 87 26 88 21 89 25 90 27 91 22 92 23 93 24 94
REMARK H PARENT 85 24 53 35 16 84
REMARK Flexibility Score: inf
ROOT
ATOM      1  O   UNL A   1      34.423  22.318  24.584  1.00  0.00    -0.374 OA
ENDROOT
BRANCH   1   2
ATOM      2  C   UNL A   1      35.346  21.228  24.732  1.00  0.00     0.202 C 
BRANCH   2   3
ATOM      3  C   UNL A   1      36.855  21.519  24.617  1.00  0.00     0.261 C 
BRANCH   3   4
ATOM      4  O   UNL A   1      37.534  21.419  25.880  1.00  0.00    -0.460 OA
BRANCH   4   5
ATOM      5  C   UNL A   1      38.861  21.533  26.128  1.00  0.00     0.338 C 
ATOM      6  O   UNL A   1      39.573  20.537  26.030  1.00  0.00    -0.246 OA
BRANCH   5   7
ATOM      7  C   UNL A   1      39.503  22.820  26.523  1.00  0.00     0.060 A 
ATOM      8  C   UNL A   1      39.055  24.080  26.127  1.00  0.00     0.016 A 
ATOM      9  C   UNL A   1      40.594  22.757  27.405  1.00  0.00     0.016 A 
ATOM     10  C   UNL A   1      39.716  25.234  26.484  1.00  0.00     0.010 A 
ATOM     11  C   UNL A   1      41.239  23.923  27.823  1.00  0.00     0.010 A 
ATOM     12  C   UNL A   1      40.811  25.161  27.333  1.00  0.00    -0.014 A 
BRANCH  12  13
ATOM     13  C   UNL A   1      41.540  26.412  27.561  1.00  0.00     0.031 A 
ATOM     14  C   UNL A   1      40.905  27.438  28.440  1.00  0.00     0.074 A 
ATOM     15  C   UNL A   1      42.816  26.505  27.145  1.00  0.00     0.049 A 
ATOM     16  N   UNL A   1      41.337  28.623  28.772  1.00  0.00    -0.248 NA
ATOM     17  C   UNL A   1      39.613  27.074  29.049  1.00  0.00     0.031 C 
ATOM     18  C   UNL A   1      43.546  25.455  26.427  1.00  0.00     0.029 A 
ATOM     19  N   UNL A   1      43.735  27.502  27.303  1.00  0.00    -0.354 N 
ATOM     20  C   UNL A   1      40.355  29.159  29.592  1.00  0.00     0.074 A 
ATOM     21  C   UNL A   1      39.309  28.173  29.722  1.00  0.00     0.031 C 
ATOM     22  C   UNL A   1      44.810  25.859  26.225  1.00  0.00     0.029 A 
ATOM     23  C   UNL A   1      44.948  27.221  26.724  1.00  0.00     0.049 A 
ATOM     24  H   UNL A   1      43.547  28.340  27.785  1.00  0.00     0.167 HD
ATOM     25  C   UNL A   1      40.340  30.382  30.165  1.00  0.00     0.037 A 
ATOM     26  C   UNL A   1      46.026  28.012  26.578  1.00  0.00     0.037 A 
ATOM     27  C   UNL A   1      41.412  31.326  30.010  1.00  0.00     0.049 A 
ATOM     28  C   UNL A   1      45.938  29.407  27.138  1.00  0.00     0.074 A 
ATOM     29  C   UNL A   1      41.497  32.627  30.465  1.00  0.00     0.029 A 
ATOM     30  N   UNL A   1      42.600  31.053  29.340  1.00  0.00    -0.354 N 
ATOM     31  N   UNL A   1      44.969  29.959  27.830  1.00  0.00    -0.248 NA
ATOM     32  C   UNL A   1      47.075  30.295  26.880  1.00  0.00     0.031 C 
ATOM     33  C   UNL A   1      42.718  33.155  30.031  1.00  0.00     0.029 A 
ATOM     34  C   UNL A   1      43.419  32.165  29.354  1.00  0.00     0.049 A 
ATOM     35  H   UNL A   1      42.825  30.191  28.919  1.00  0.00     0.167 HD
ATOM     36  C   UNL A   1      45.382  31.252  28.106  1.00  0.00     0.074 A 
ATOM     37  C   UNL A   1      46.704  31.393  27.523  1.00  0.00     0.031 C 
ATOM     38  C   UNL A   1      44.734  32.243  28.769  1.00  0.00     0.037 A 
BRANCH  25  39
ATOM     39  C   UNL A   1      39.104  30.775  30.913  1.00  0.00     0.064 A 
ATOM     40  C   UNL A   1      38.041  31.456  30.299  1.00  0.00     0.173 A 
ATOM     41  C   UNL A   1      38.995  30.491  32.282  1.00  0.00     0.173 A 
ATOM     42  F   UNL A   1      38.110  31.784  29.000  1.00  0.00    -0.203 F 
ATOM     43  C   UNL A   1      36.927  31.857  31.034  1.00  0.00     0.198 A 
ATOM     44  C   UNL A   1      37.870  30.870  33.009  1.00  0.00     0.198 A 
ATOM     45  F   UNL A   1      39.990  29.857  32.921  1.00  0.00    -0.203 F 
ATOM     46  F   UNL A   1      35.950  32.555  30.441  1.00  0.00    -0.200 F 
ATOM     47  C   UNL A   1      36.841  31.559  32.387  1.00  0.00     0.200 A 
ATOM     48  F   UNL A   1      37.789  30.582  34.316  1.00  0.00    -0.200 F 
ATOM     49  F   UNL A   1      35.771  31.949  33.094  1.00  0.00    -0.200 F 
ENDBRANCH  25  39
BRANCH  26  50
ATOM     50  C   UNL A   1      47.216  27.540  25.821  1.00  0.00     0.064 A 
ATOM     51  C   UNL A   1      48.292  26.913  26.462  1.00  0.00     0.173 A 
ATOM     52  C   UNL A   1      47.314  27.729  24.431  1.00  0.00     0.173 A 
ATOM     53  F   UNL A   1      48.261  26.725  27.790  1.00  0.00    -0.203 F 
ATOM     54  C   UNL A   1      49.425  26.516  25.753  1.00  0.00     0.198 A 
ATOM     55  C   UNL A   1      48.430  27.301  23.717  1.00  0.00     0.198 A 
ATOM     56  F   UNL A   1      46.317  28.327  23.761  1.00  0.00    -0.203 F 
ATOM     57  F   UNL A   1      50.462  25.970  26.402  1.00  0.00    -0.200 F 
ATOM     58  C   UNL A   1      49.491  26.705  24.380  1.00  0.00     0.200 A 
ATOM     59  F   UNL A   1      48.480  27.474  22.390  1.00  0.00    -0.200 F 
ATOM     60  F   UNL A   1      50.581  26.327  23.699  1.00  0.00    -0.200 F 
ENDBRANCH  26  50
BRANCH  38  61
ATOM     61  C   UNL A   1      45.468  33.538  28.924  1.00  0.00     0.064 A 
ATOM     62  C   UNL A   1      46.333  33.766  30.002  1.00  0.00     0.173 A 
ATOM     63  C   UNL A   1      45.340  34.539  27.949  1.00  0.00     0.173 A 
ATOM     64  F   UNL A   1      46.473  32.841  30.964  1.00  0.00    -0.203 F 
ATOM     65  C   UNL A   1      47.030  34.965  30.113  1.00  0.00     0.198 A 
ATOM     66  C   UNL A   1      46.062  35.723  28.047  1.00  0.00     0.198 A 
ATOM     67  F   UNL A   1      44.529  34.359  26.897  1.00  0.00    -0.203 F 
ATOM     68  F   UNL A   1      47.817  35.184  31.174  1.00  0.00    -0.200 F 
ATOM     69  C   UNL A   1      46.900  35.937  29.131  1.00  0.00     0.200 A 
ATOM     70  F   UNL A   1      45.949  36.655  27.091  1.00  0.00    -0.200 F 
ATOM     71  F   UNL A   1      47.581  37.086  29.233  1.00  0.00    -0.200 F 
ENDBRANCH  38  61
ENDBRANCH  12  13
ENDBRANCH   5   7
ENDBRANCH   4   5
ENDBRANCH   3   4
ENDBRANCH   2   3
ENDBRANCH   1   2
BRANCH   1  72
ATOM     72  C   UNL A   1      33.926  22.548  23.255  1.00  0.00     0.202 C 
BRANCH  72  73
ATOM     73  C   UNL A   1      33.708  24.032  22.992  1.00  0.00     0.261 C 
BRANCH  73  74
ATOM     74  O   UNL A   1      33.300  24.133  21.623  1.00  0.00    -0.463 OA
BRANCH  74  75
ATOM     75  C   UNL A   1      32.969  25.387  21.253  1.00  0.00     0.312 C 
ATOM     76  O   UNL A   1      32.903  25.796  20.097  1.00  0.00    -0.252 OA
BRANCH  75  77
ATOM     77  C   UNL A   1      32.546  26.239  22.423  1.00  0.00     0.124 C 
ATOM     78  C   UNL A   1      33.174  27.545  22.811  1.00  0.00    -0.014 C 
ATOM     79  C   UNL A   1      31.101  26.678  22.270  1.00  0.00     0.048 C 
ATOM     80  C   UNL A   1      32.272  28.295  23.460  1.00  0.00    -0.006 C 
ATOM     81  C   UNL A   1      30.901  27.679  23.398  1.00  0.00     0.106 C 
BRANCH  81  82
ATOM     82  N   UNL A   1      30.518  27.211  24.721  1.00  0.00    -0.346 N 
ATOM     83  C   UNL A   1      31.067  27.258  25.978  1.00  0.00     0.253 C 
ATOM     84  H   UNL A   1      29.650  26.746  24.713  1.00  0.00     0.164 HD
ATOM     85  O   UNL A   1      30.659  26.496  26.852  1.00  0.00    -0.269 OA
BRANCH  83  86
ATOM     86  C   UNL A   1      32.117  28.213  26.355  1.00  0.00     0.061 A 
ATOM     87  C   UNL A   1      31.774  29.550  26.580  1.00  0.00     0.056 A 
ATOM     88  C   UNL A   1      33.461  27.813  26.410  1.00  0.00     0.055 A 
ATOM     89  C   UNL A   1      32.763  30.449  26.977  1.00  0.00     0.142 A 
ATOM     90  C   UNL A   1      34.446  28.724  26.806  1.00  0.00     0.045 A 
ATOM     91  Cl  UNL A   1      33.958  26.197  26.047  1.00  0.00    -0.083 Cl
ATOM     92  F   UNL A   1      32.410  31.715  27.245  1.00  0.00    -0.205 F 
ATOM     93  C   UNL A   1      34.091  30.039  27.106  1.00  0.00     0.078 A 
ATOM     94  Cl  UNL A   1      35.306  31.142  27.626  1.00  0.00    -0.081 Cl
ENDBRANCH  83  86
ENDBRANCH  81  82
ENDBRANCH  75  77
ENDBRANCH  74  75
ENDBRANCH  73  74
ENDBRANCH  72  73
ENDBRANCH   1  72
TORSDOF 16
ENDMDL
