MODEL 1
REMARK VINA RESULT:     -11.6      0.000      0.000
REMARK SMILES O=C(OCCOCCOC(=O)c1cc(-c2ccc[nH]c2=O)ccc1Cl)c1ccc(-c2c3nc(c(-c4c(F)c(F)c(F)c(F)c4F)c4ccc([nH]4)c(-c4c(F)c(F)c(F)c(F)c4F)c4nc(c(-c5c(F)c(F)c(F)c(F)c5F)c5ccc2[nH]5)C=C4)C=C3)cc1
REMARK SMILES IDX 5 1 4 2 3 3 2 4 1 5 26 6 27 7 88 8 28 9 87 10 29 11 30 12
REMARK SMILES IDX 31 13 81 14 32 15 86 16 80 17 82 18 33 19 85 20 79 21 78 22
REMARK SMILES IDX 34 24 66 25 46 26 65 27 47 28 50 29 64 30 83 31 48 32 49 33
REMARK SMILES IDX 63 35 84 36 51 37 35 38 36 39 44 40 37 41 38 42 42 43 45 44
REMARK SMILES IDX 39 45 40 46 43 47 41 48 67 49 68 50 76 51 69 52 70 53 74 54
REMARK SMILES IDX 77 55 71 56 72 57 75 58 73 59 52 60 53 61 61 62 54 63 55 64
REMARK SMILES IDX 59 65 62 66 56 67 57 68 60 69 58 70 6 71 7 72 8 73 9 74
REMARK SMILES IDX 10 75 11 76 12 77 13 78 24 79 14 80 23 81 25 82 22 83 15 84
REMARK SMILES IDX 16 85 20 86 17 87 19 88 21 89 18 90
REMARK H PARENT 82 23 50 34 19 91
REMARK Flexibility Score: inf
ROOT
ATOM      1  C   UNL A   1      31.398  31.956  26.858  1.00  0.00     0.202 C 
ENDROOT
BRANCH   1   2
ATOM      2  C   UNL A   1      32.552  32.964  26.873  1.00  0.00     0.261 C 
BRANCH   2   3
ATOM      3  O   UNL A   1      32.233  34.078  27.724  1.00  0.00    -0.460 OA
BRANCH   3   4
ATOM      4  C   UNL A   1      33.012  34.686  28.648  1.00  0.00     0.338 C 
ATOM      5  O   UNL A   1      32.775  35.858  28.935  1.00  0.00    -0.246 OA
BRANCH   4   6
ATOM      6  C   UNL A   1      34.146  34.015  29.353  1.00  0.00     0.060 A 
ATOM      7  C   UNL A   1      34.017  32.929  30.220  1.00  0.00     0.016 A 
ATOM      8  C   UNL A   1      35.444  34.453  29.038  1.00  0.00     0.016 A 
ATOM      9  C   UNL A   1      35.122  32.328  30.803  1.00  0.00     0.010 A 
ATOM     10  C   UNL A   1      36.569  33.827  29.588  1.00  0.00     0.010 A 
ATOM     11  C   UNL A   1      36.403  32.767  30.483  1.00  0.00    -0.014 A 
BRANCH  11  12
ATOM     12  C   UNL A   1      37.534  32.132  31.178  1.00  0.00     0.031 A 
ATOM     13  C   UNL A   1      38.338  31.108  30.445  1.00  0.00     0.074 A 
ATOM     14  C   UNL A   1      37.901  32.590  32.388  1.00  0.00     0.049 A 
ATOM     15  N   UNL A   1      39.371  30.420  30.851  1.00  0.00    -0.248 NA
ATOM     16  C   UNL A   1      37.936  30.835  29.055  1.00  0.00     0.031 C 
ATOM     17  C   UNL A   1      37.235  33.676  33.112  1.00  0.00     0.029 A 
ATOM     18  N   UNL A   1      38.938  32.231  33.205  1.00  0.00    -0.354 N 
ATOM     19  C   UNL A   1      39.725  29.616  29.778  1.00  0.00     0.074 A 
ATOM     20  C   UNL A   1      38.804  29.900  28.702  1.00  0.00     0.031 C 
ATOM     21  C   UNL A   1      37.897  33.909  34.256  1.00  0.00     0.029 A 
ATOM     22  C   UNL A   1      38.988  32.949  34.374  1.00  0.00     0.049 A 
ATOM     23  H   UNL A   1      39.586  31.526  32.976  1.00  0.00     0.167 HD
ATOM     24  C   UNL A   1      40.731  28.713  29.714  1.00  0.00     0.037 A 
ATOM     25  C   UNL A   1      39.811  32.813  35.430  1.00  0.00     0.037 A 
ATOM     26  C   UNL A   1      41.628  28.455  30.808  1.00  0.00     0.049 A 
ATOM     27  C   UNL A   1      40.867  31.743  35.365  1.00  0.00     0.074 A 
ATOM     28  C   UNL A   1      42.641  27.520  30.898  1.00  0.00     0.029 A 
ATOM     29  N   UNL A   1      41.608  29.146  32.014  1.00  0.00    -0.354 N 
ATOM     30  N   UNL A   1      41.159  30.931  34.377  1.00  0.00    -0.248 NA
ATOM     31  C   UNL A   1      41.696  31.557  36.562  1.00  0.00     0.031 C 
ATOM     32  C   UNL A   1      43.207  27.618  32.174  1.00  0.00     0.029 A 
ATOM     33  C   UNL A   1      42.580  28.647  32.862  1.00  0.00     0.049 A 
ATOM     34  H   UNL A   1      40.993  29.883  32.231  1.00  0.00     0.167 HD
ATOM     35  C   UNL A   1      42.208  30.143  34.825  1.00  0.00     0.074 A 
ATOM     36  C   UNL A   1      42.517  30.593  36.168  1.00  0.00     0.031 C 
ATOM     37  C   UNL A   1      42.854  29.132  34.192  1.00  0.00     0.037 A 
BRANCH  24  38
ATOM     38  C   UNL A   1      40.841  27.903  28.459  1.00  0.00     0.064 A 
ATOM     39  C   UNL A   1      40.186  26.672  28.305  1.00  0.00     0.173 A 
ATOM     40  C   UNL A   1      41.656  28.349  27.406  1.00  0.00     0.173 A 
ATOM     41  F   UNL A   1      39.421  26.187  29.294  1.00  0.00    -0.203 F 
ATOM     42  C   UNL A   1      40.365  25.904  27.156  1.00  0.00     0.198 A 
ATOM     43  C   UNL A   1      41.813  27.590  26.249  1.00  0.00     0.198 A 
ATOM     44  F   UNL A   1      42.313  29.513  27.507  1.00  0.00    -0.203 F 
ATOM     45  F   UNL A   1      39.778  24.704  27.056  1.00  0.00    -0.200 F 
ATOM     46  C   UNL A   1      41.176  26.365  26.129  1.00  0.00     0.200 A 
ATOM     47  F   UNL A   1      42.597  28.038  25.259  1.00  0.00    -0.200 F 
ATOM     48  F   UNL A   1      41.356  25.619  25.030  1.00  0.00    -0.200 F 
ENDBRANCH  24  38
BRANCH  25  49
ATOM     49  C   UNL A   1      39.631  33.668  36.635  1.00  0.00     0.064 A 
ATOM     50  C   UNL A   1      40.289  34.898  36.764  1.00  0.00     0.173 A 
ATOM     51  C   UNL A   1      38.795  33.266  37.689  1.00  0.00     0.173 A 
ATOM     52  F   UNL A   1      41.118  35.320  35.798  1.00  0.00    -0.203 F 
ATOM     53  C   UNL A   1      40.127  35.686  37.904  1.00  0.00     0.198 A 
ATOM     54  C   UNL A   1      38.609  34.068  38.813  1.00  0.00     0.198 A 
ATOM     55  F   UNL A   1      38.144  32.095  37.622  1.00  0.00    -0.203 F 
ATOM     56  F   UNL A   1      40.802  36.838  38.021  1.00  0.00    -0.200 F 
ATOM     57  C   UNL A   1      39.282  35.275  38.923  1.00  0.00     0.200 A 
ATOM     58  F   UNL A   1      37.781  33.670  39.788  1.00  0.00    -0.200 F 
ATOM     59  F   UNL A   1      39.123  36.034  40.015  1.00  0.00    -0.200 F 
ENDBRANCH  25  49
BRANCH  37  60
ATOM     60  C   UNL A   1      43.968  28.468  34.944  1.00  0.00     0.064 A 
ATOM     61  C   UNL A   1      43.743  27.323  35.721  1.00  0.00     0.173 A 
ATOM     62  C   UNL A   1      45.279  28.954  34.839  1.00  0.00     0.173 A 
ATOM     63  F   UNL A   1      42.502  26.833  35.861  1.00  0.00    -0.203 F 
ATOM     64  C   UNL A   1      44.794  26.698  36.385  1.00  0.00     0.198 A 
ATOM     65  C   UNL A   1      46.331  28.309  35.481  1.00  0.00     0.198 A 
ATOM     66  F   UNL A   1      45.540  30.043  34.100  1.00  0.00    -0.203 F 
ATOM     67  F   UNL A   1      44.555  25.629  37.156  1.00  0.00    -0.200 F 
ATOM     68  C   UNL A   1      46.087  27.186  36.257  1.00  0.00     0.200 A 
ATOM     69  F   UNL A   1      47.580  28.773  35.346  1.00  0.00    -0.200 F 
ATOM     70  F   UNL A   1      47.099  26.575  36.889  1.00  0.00    -0.200 F 
ENDBRANCH  37  60
ENDBRANCH  11  12
ENDBRANCH   4   6
ENDBRANCH   3   4
ENDBRANCH   2   3
ENDBRANCH   1   2
BRANCH   1  71
ATOM     71  O   UNL A   1      31.818  30.593  26.921  1.00  0.00    -0.374 OA
BRANCH  71  72
ATOM     72  C   UNL A   1      33.209  30.391  27.204  1.00  0.00     0.202 C 
BRANCH  72  73
ATOM     73  C   UNL A   1      33.608  28.980  26.777  1.00  0.00     0.261 C 
BRANCH  73  74
ATOM     74  O   UNL A   1      32.403  28.220  26.604  1.00  0.00    -0.460 OA
BRANCH  74  75
ATOM     75  C   UNL A   1      32.424  27.278  25.630  1.00  0.00     0.339 C 
ATOM     76  O   UNL A   1      33.270  26.421  25.442  1.00  0.00    -0.246 OA
BRANCH  75  77
ATOM     77  C   UNL A   1      31.093  27.275  24.994  1.00  0.00     0.079 A 
ATOM     78  C   UNL A   1      30.652  28.496  24.450  1.00  0.00     0.026 A 
ATOM     79  C   UNL A   1      30.327  26.116  24.833  1.00  0.00     0.055 A 
ATOM     80  C   UNL A   1      29.478  28.548  23.690  1.00  0.00    -0.012 A 
ATOM     81  C   UNL A   1      29.152  26.171  24.081  1.00  0.00     0.022 A 
ATOM     82  Cl  UNL A   1      30.740  24.601  25.553  1.00  0.00    -0.083 Cl
ATOM     83  C   UNL A   1      28.738  27.375  23.503  1.00  0.00     0.010 A 
BRANCH  80  84
ATOM     84  C   UNL A   1      29.016  29.795  23.068  1.00  0.00     0.047 A 
ATOM     85  C   UNL A   1      28.043  30.533  23.636  1.00  0.00     0.016 A 
ATOM     86  C   UNL A   1      29.690  30.326  21.832  1.00  0.00     0.255 A 
ATOM     87  C   UNL A   1      27.653  31.814  23.086  1.00  0.00     0.019 A 
ATOM     88  N   UNL A   1      29.259  31.557  21.394  1.00  0.00    -0.329 N 
ATOM     89  O   UNL A   1      30.577  29.710  21.251  1.00  0.00    -0.269 OA
ATOM     90  C   UNL A   1      28.273  32.289  21.998  1.00  0.00     0.086 A 
ATOM     91  H   UNL A   1      29.689  31.937  20.593  1.00  0.00     0.169 HD
ENDBRANCH  80  84
ENDBRANCH  75  77
ENDBRANCH  74  75
ENDBRANCH  73  74
ENDBRANCH  72  73
ENDBRANCH  71  72
ENDBRANCH   1  71
TORSDOF 15
ENDMDL
MODEL 2
REMARK VINA RESULT:     -11.6      0.754      7.460
REMARK SMILES O=C(OCCOCCOC(=O)c1cc(-c2ccc[nH]c2=O)ccc1Cl)c1ccc(-c2c3nc(c(-c4c(F)c(F)c(F)c(F)c4F)c4ccc([nH]4)c(-c4c(F)c(F)c(F)c(F)c4F)c4nc(c(-c5c(F)c(F)c(F)c(F)c5F)c5ccc2[nH]5)C=C4)C=C3)cc1
REMARK SMILES IDX 5 1 4 2 3 3 2 4 1 5 26 6 27 7 88 8 28 9 87 10 29 11 30 12
REMARK SMILES IDX 31 13 81 14 32 15 86 16 80 17 82 18 33 19 85 20 79 21 78 22
REMARK SMILES IDX 34 24 66 25 46 26 65 27 47 28 50 29 64 30 83 31 48 32 49 33
REMARK SMILES IDX 63 35 84 36 51 37 35 38 36 39 44 40 37 41 38 42 42 43 45 44
REMARK SMILES IDX 39 45 40 46 43 47 41 48 67 49 68 50 76 51 69 52 70 53 74 54
REMARK SMILES IDX 77 55 71 56 72 57 75 58 73 59 52 60 53 61 61 62 54 63 55 64
REMARK SMILES IDX 59 65 62 66 56 67 57 68 60 69 58 70 6 71 7 72 8 73 9 74
REMARK SMILES IDX 10 75 11 76 12 77 13 78 24 79 14 80 23 81 25 82 22 83 15 84
REMARK SMILES IDX 16 85 20 86 17 87 19 88 21 89 18 90
REMARK H PARENT 82 23 50 34 19 91
REMARK Flexibility Score: inf
ROOT
ATOM      1  C   UNL A   1      31.502  31.655  26.892  1.00  0.00     0.202 C 
ENDROOT
BRANCH   1   2
ATOM      2  C   UNL A   1      32.463  32.836  26.726  1.00  0.00     0.261 C 
BRANCH   2   3
ATOM      3  O   UNL A   1      32.166  33.863  27.687  1.00  0.00    -0.460 OA
BRANCH   3   4
ATOM      4  C   UNL A   1      33.009  34.504  28.529  1.00  0.00     0.338 C 
ATOM      5  O   UNL A   1      32.742  35.656  28.864  1.00  0.00    -0.246 OA
BRANCH   4   6
ATOM      6  C   UNL A   1      34.253  33.890  29.087  1.00  0.00     0.060 A 
ATOM      7  C   UNL A   1      35.551  34.302  28.787  1.00  0.00     0.016 A 
ATOM      8  C   UNL A   1      34.091  32.889  30.061  1.00  0.00     0.016 A 
ATOM      9  C   UNL A   1      36.658  33.714  29.380  1.00  0.00     0.010 A 
ATOM     10  C   UNL A   1      35.198  32.317  30.697  1.00  0.00     0.010 A 
ATOM     11  C   UNL A   1      36.487  32.726  30.344  1.00  0.00    -0.014 A 
BRANCH  11  12
ATOM     12  C   UNL A   1      37.697  32.096  30.896  1.00  0.00     0.031 A 
ATOM     13  C   UNL A   1      38.122  32.456  32.282  1.00  0.00     0.074 A 
ATOM     14  C   UNL A   1      38.299  31.113  30.202  1.00  0.00     0.049 A 
ATOM     15  N   UNL A   1      39.146  32.033  32.971  1.00  0.00    -0.248 NA
ATOM     16  C   UNL A   1      37.262  33.412  33.000  1.00  0.00     0.031 C 
ATOM     17  C   UNL A   1      37.863  30.622  28.892  1.00  0.00     0.029 A 
ATOM     18  N   UNL A   1      39.376  30.329  30.511  1.00  0.00    -0.354 N 
ATOM     19  C   UNL A   1      39.070  32.688  34.191  1.00  0.00     0.074 A 
ATOM     20  C   UNL A   1      37.900  33.535  34.153  1.00  0.00     0.031 C 
ATOM     21  C   UNL A   1      38.654  29.602  28.522  1.00  0.00     0.029 A 
ATOM     22  C   UNL A   1      39.686  29.415  29.534  1.00  0.00     0.049 A 
ATOM     23  H   UNL A   1      39.881  30.412  31.353  1.00  0.00     0.167 HD
ATOM     24  C   UNL A   1      39.918  32.590  35.240  1.00  0.00     0.037 A 
ATOM     25  C   UNL A   1      40.715  28.550  29.463  1.00  0.00     0.037 A 
ATOM     26  C   UNL A   1      41.076  31.738  35.240  1.00  0.00     0.049 A 
ATOM     27  C   UNL A   1      41.690  28.523  30.608  1.00  0.00     0.074 A 
ATOM     28  C   UNL A   1      42.051  31.598  36.208  1.00  0.00     0.029 A 
ATOM     29  N   UNL A   1      41.410  30.875  34.202  1.00  0.00    -0.354 N 
ATOM     30  N   UNL A   1      41.659  29.195  31.735  1.00  0.00    -0.248 NA
ATOM     31  C   UNL A   1      42.850  27.634  30.470  1.00  0.00     0.031 C 
ATOM     32  C   UNL A   1      42.999  30.681  35.738  1.00  0.00     0.029 A 
ATOM     33  C   UNL A   1      42.587  30.212  34.499  1.00  0.00     0.049 A 
ATOM     34  H   UNL A   1      40.885  30.753  33.379  1.00  0.00     0.167 HD
ATOM     35  C   UNL A   1      42.786  28.808  32.444  1.00  0.00     0.074 A 
ATOM     36  C   UNL A   1      43.467  27.821  31.629  1.00  0.00     0.031 C 
ATOM     37  C   UNL A   1      43.227  29.232  33.655  1.00  0.00     0.037 A 
BRANCH  24  38
ATOM     38  C   UNL A   1      39.656  33.483  36.414  1.00  0.00     0.064 A 
ATOM     39  C   UNL A   1      38.856  33.080  37.494  1.00  0.00     0.173 A 
ATOM     40  C   UNL A   1      40.180  34.785  36.436  1.00  0.00     0.173 A 
ATOM     41  F   UNL A   1      38.306  31.857  37.507  1.00  0.00    -0.203 F 
ATOM     42  C   UNL A   1      38.568  33.957  38.538  1.00  0.00     0.198 A 
ATOM     43  C   UNL A   1      39.910  35.650  37.493  1.00  0.00     0.198 A 
ATOM     44  F   UNL A   1      40.941  35.224  35.422  1.00  0.00    -0.203 F 
ATOM     45  F   UNL A   1      37.753  33.571  39.530  1.00  0.00    -0.200 F 
ATOM     46  C   UNL A   1      39.097  35.240  38.537  1.00  0.00     0.200 A 
ATOM     47  F   UNL A   1      40.422  36.888  37.489  1.00  0.00    -0.200 F 
ATOM     48  F   UNL A   1      38.809  36.085  39.536  1.00  0.00    -0.200 F 
ENDBRANCH  24  38
BRANCH  25  49
ATOM     49  C   UNL A   1      40.893  27.695  28.258  1.00  0.00     0.064 A 
ATOM     50  C   UNL A   1      41.648  28.128  27.160  1.00  0.00     0.173 A 
ATOM     51  C   UNL A   1      40.307  26.422  28.181  1.00  0.00     0.173 A 
ATOM     52  F   UNL A   1      42.210  29.346  27.171  1.00  0.00    -0.203 F 
ATOM     53  C   UNL A   1      41.798  27.327  26.027  1.00  0.00     0.198 A 
ATOM     54  C   UNL A   1      40.484  25.609  27.063  1.00  0.00     0.198 A 
ATOM     55  F   UNL A   1      39.570  25.957  29.201  1.00  0.00    -0.203 F 
ATOM     56  F   UNL A   1      42.488  27.784  24.973  1.00  0.00    -0.200 F 
ATOM     57  C   UNL A   1      41.223  26.066  25.983  1.00  0.00     0.200 A 
ATOM     58  F   UNL A   1      39.936  24.387  27.032  1.00  0.00    -0.200 F 
ATOM     59  F   UNL A   1      41.372  25.295  24.898  1.00  0.00    -0.200 F 
ENDBRANCH  25  49
BRANCH  37  60
ATOM     60  C   UNL A   1      44.491  28.612  34.168  1.00  0.00     0.064 A 
ATOM     61  C   UNL A   1      45.739  29.209  33.948  1.00  0.00     0.173 A 
ATOM     62  C   UNL A   1      44.441  27.437  34.932  1.00  0.00     0.173 A 
ATOM     63  F   UNL A   1      45.835  30.325  33.210  1.00  0.00    -0.203 F 
ATOM     64  C   UNL A   1      46.901  28.639  34.460  1.00  0.00     0.198 A 
ATOM     65  C   UNL A   1      45.601  26.886  35.468  1.00  0.00     0.198 A 
ATOM     66  F   UNL A   1      43.266  26.836  35.174  1.00  0.00    -0.203 F 
ATOM     67  F   UNL A   1      48.089  29.201  34.206  1.00  0.00    -0.200 F 
ATOM     68  C   UNL A   1      46.829  27.483  35.227  1.00  0.00     0.200 A 
ATOM     69  F   UNL A   1      45.528  25.778  36.218  1.00  0.00    -0.200 F 
ATOM     70  F   UNL A   1      47.947  26.942  35.729  1.00  0.00    -0.200 F 
ENDBRANCH  37  60
ENDBRANCH  11  12
ENDBRANCH   4   6
ENDBRANCH   3   4
ENDBRANCH   2   3
ENDBRANCH   1   2
BRANCH   1  71
ATOM     71  O   UNL A   1      32.153  30.389  27.003  1.00  0.00    -0.374 OA
BRANCH  71  72
ATOM     72  C   UNL A   1      33.553  30.442  27.308  1.00  0.00     0.202 C 
BRANCH  72  73
ATOM     73  C   UNL A   1      34.148  29.041  27.181  1.00  0.00     0.261 C 
BRANCH  73  74
ATOM     74  O   UNL A   1      33.059  28.114  27.072  1.00  0.00    -0.460 OA
BRANCH  74  75
ATOM     75  C   UNL A   1      33.207  27.119  26.163  1.00  0.00     0.339 C 
ATOM     76  O   UNL A   1      34.170  26.386  26.015  1.00  0.00    -0.246 OA
BRANCH  75  77
ATOM     77  C   UNL A   1      31.884  26.874  25.560  1.00  0.00     0.079 A 
ATOM     78  C   UNL A   1      31.393  27.869  24.694  1.00  0.00     0.026 A 
ATOM     79  C   UNL A   1      31.174  25.682  25.738  1.00  0.00     0.055 A 
ATOM     80  C   UNL A   1      30.225  27.648  23.956  1.00  0.00    -0.012 A 
ATOM     81  C   UNL A   1      30.004  25.467  25.006  1.00  0.00     0.022 A 
ATOM     82  Cl  UNL A   1      31.649  24.455  26.856  1.00  0.00    -0.083 Cl
ATOM     83  C   UNL A   1      29.541  26.437  24.112  1.00  0.00     0.010 A 
BRANCH  80  84
ATOM     84  C   UNL A   1      29.712  28.644  23.007  1.00  0.00     0.047 A 
ATOM     85  C   UNL A   1      28.394  28.911  22.927  1.00  0.00     0.016 A 
ATOM     86  C   UNL A   1      30.660  29.461  22.171  1.00  0.00     0.255 A 
ATOM     87  C   UNL A   1      27.891  29.962  22.070  1.00  0.00     0.019 A 
ATOM     88  N   UNL A   1      30.086  30.445  21.399  1.00  0.00    -0.329 N 
ATOM     89  O   UNL A   1      31.872  29.274  22.180  1.00  0.00    -0.269 OA
ATOM     90  C   UNL A   1      28.743  30.699  21.346  1.00  0.00     0.086 A 
ATOM     91  H   UNL A   1      30.682  31.004  20.849  1.00  0.00     0.169 HD
ENDBRANCH  80  84
ENDBRANCH  75  77
ENDBRANCH  74  75
ENDBRANCH  73  74
ENDBRANCH  72  73
ENDBRANCH  71  72
ENDBRANCH   1  71
TORSDOF 15
ENDMDL
MODEL 3
REMARK VINA RESULT:     -11.5      0.641      2.098
REMARK SMILES O=C(OCCOCCOC(=O)c1cc(-c2ccc[nH]c2=O)ccc1Cl)c1ccc(-c2c3nc(c(-c4c(F)c(F)c(F)c(F)c4F)c4ccc([nH]4)c(-c4c(F)c(F)c(F)c(F)c4F)c4nc(c(-c5c(F)c(F)c(F)c(F)c5F)c5ccc2[nH]5)C=C4)C=C3)cc1
REMARK SMILES IDX 5 1 4 2 3 3 2 4 1 5 26 6 27 7 88 8 28 9 87 10 29 11 30 12
REMARK SMILES IDX 31 13 81 14 32 15 86 16 80 17 82 18 33 19 85 20 79 21 78 22
REMARK SMILES IDX 34 24 66 25 46 26 65 27 47 28 50 29 64 30 83 31 48 32 49 33
REMARK SMILES IDX 63 35 84 36 51 37 35 38 36 39 44 40 37 41 38 42 42 43 45 44
REMARK SMILES IDX 39 45 40 46 43 47 41 48 67 49 68 50 76 51 69 52 70 53 74 54
REMARK SMILES IDX 77 55 71 56 72 57 75 58 73 59 52 60 53 61 61 62 54 63 55 64
REMARK SMILES IDX 59 65 62 66 56 67 57 68 60 69 58 70 6 71 7 72 8 73 9 74
REMARK SMILES IDX 10 75 11 76 12 77 13 78 24 79 14 80 23 81 25 82 22 83 15 84
REMARK SMILES IDX 16 85 20 86 17 87 19 88 21 89 18 90
REMARK H PARENT 82 23 50 34 19 91
REMARK Flexibility Score: inf
ROOT
ATOM      1  C   UNL A   1      31.384  31.967  27.022  1.00  0.00     0.202 C 
ENDROOT
BRANCH   1   2
ATOM      2  C   UNL A   1      32.501  33.010  26.926  1.00  0.00     0.261 C 
BRANCH   2   3
ATOM      3  O   UNL A   1      32.233  34.115  27.804  1.00  0.00    -0.460 OA
BRANCH   3   4
ATOM      4  C   UNL A   1      33.081  34.761  28.636  1.00  0.00     0.338 C 
ATOM      5  O   UNL A   1      32.920  35.966  28.821  1.00  0.00    -0.246 OA
BRANCH   4   6
ATOM      6  C   UNL A   1      34.209  34.094  29.356  1.00  0.00     0.060 A 
ATOM      7  C   UNL A   1      34.065  33.073  30.295  1.00  0.00     0.016 A 
ATOM      8  C   UNL A   1      35.514  34.462  28.981  1.00  0.00     0.016 A 
ATOM      9  C   UNL A   1      35.162  32.469  30.890  1.00  0.00     0.010 A 
ATOM     10  C   UNL A   1      36.629  33.831  29.544  1.00  0.00     0.010 A 
ATOM     11  C   UNL A   1      36.449  32.838  30.510  1.00  0.00    -0.014 A 
BRANCH  11  12
ATOM     12  C   UNL A   1      37.574  32.206  31.217  1.00  0.00     0.031 A 
ATOM     13  C   UNL A   1      38.388  31.183  30.494  1.00  0.00     0.074 A 
ATOM     14  C   UNL A   1      37.929  32.668  32.430  1.00  0.00     0.049 A 
ATOM     15  N   UNL A   1      39.418  30.498  30.912  1.00  0.00    -0.248 NA
ATOM     16  C   UNL A   1      38.000  30.905  29.101  1.00  0.00     0.031 C 
ATOM     17  C   UNL A   1      37.254  33.754  33.144  1.00  0.00     0.029 A 
ATOM     18  N   UNL A   1      38.958  32.313  33.257  1.00  0.00    -0.354 N 
ATOM     19  C   UNL A   1      39.784  29.691  29.844  1.00  0.00     0.074 A 
ATOM     20  C   UNL A   1      38.873  29.971  28.759  1.00  0.00     0.031 C 
ATOM     21  C   UNL A   1      37.904  33.992  34.295  1.00  0.00     0.029 A 
ATOM     22  C   UNL A   1      38.996  33.034  34.425  1.00  0.00     0.049 A 
ATOM     23  H   UNL A   1      39.611  31.609  33.036  1.00  0.00     0.167 HD
ATOM     24  C   UNL A   1      40.792  28.791  29.793  1.00  0.00     0.037 A 
ATOM     25  C   UNL A   1      39.809  32.902  35.489  1.00  0.00     0.037 A 
ATOM     26  C   UNL A   1      41.679  28.536  30.896  1.00  0.00     0.049 A 
ATOM     27  C   UNL A   1      40.867  31.834  35.438  1.00  0.00     0.074 A 
ATOM     28  C   UNL A   1      42.693  27.604  30.997  1.00  0.00     0.029 A 
ATOM     29  N   UNL A   1      41.646  29.231  32.100  1.00  0.00    -0.354 N 
ATOM     30  N   UNL A   1      41.171  31.020  34.454  1.00  0.00    -0.248 NA
ATOM     31  C   UNL A   1      41.685  31.652  36.643  1.00  0.00     0.031 C 
ATOM     32  C   UNL A   1      43.247  27.706  32.279  1.00  0.00     0.029 A 
ATOM     33  C   UNL A   1      42.611  28.736  32.958  1.00  0.00     0.049 A 
ATOM     34  H   UNL A   1      41.028  29.967  32.310  1.00  0.00     0.167 HD
ATOM     35  C   UNL A   1      42.217  30.235  34.914  1.00  0.00     0.074 A 
ATOM     36  C   UNL A   1      42.512  30.689  36.259  1.00  0.00     0.031 C 
ATOM     37  C   UNL A   1      42.871  29.225  34.290  1.00  0.00     0.037 A 
BRANCH  24  38
ATOM     38  C   UNL A   1      40.916  27.978  28.540  1.00  0.00     0.064 A 
ATOM     39  C   UNL A   1      41.681  28.408  27.445  1.00  0.00     0.173 A 
ATOM     40  C   UNL A   1      40.220  26.766  28.419  1.00  0.00     0.173 A 
ATOM     41  F   UNL A   1      42.340  29.574  27.498  1.00  0.00    -0.203 F 
ATOM     42  C   UNL A   1      41.719  27.668  26.264  1.00  0.00     0.198 A 
ATOM     43  C   UNL A   1      40.281  26.017  27.247  1.00  0.00     0.198 A 
ATOM     44  F   UNL A   1      39.465  26.316  29.432  1.00  0.00    -0.203 F 
ATOM     45  F   UNL A   1      42.407  28.128  25.210  1.00  0.00    -0.200 F 
ATOM     46  C   UNL A   1      41.021  26.473  26.168  1.00  0.00     0.200 A 
ATOM     47  F   UNL A   1      39.605  24.863  27.156  1.00  0.00    -0.200 F 
ATOM     48  F   UNL A   1      41.050  25.769  25.027  1.00  0.00    -0.200 F 
ENDBRANCH  24  38
BRANCH  25  49
ATOM     49  C   UNL A   1      39.615  33.759  36.691  1.00  0.00     0.064 A 
ATOM     50  C   UNL A   1      38.810  33.347  37.761  1.00  0.00     0.173 A 
ATOM     51  C   UNL A   1      40.234  35.016  36.791  1.00  0.00     0.173 A 
ATOM     52  F   UNL A   1      38.176  32.166  37.707  1.00  0.00    -0.203 F 
ATOM     53  C   UNL A   1      38.621  34.163  38.877  1.00  0.00     0.198 A 
ATOM     54  C   UNL A   1      40.071  35.816  37.919  1.00  0.00     0.198 A 
ATOM     55  F   UNL A   1      41.012  35.464  35.794  1.00  0.00    -0.203 F 
ATOM     56  F   UNL A   1      37.811  33.763  39.867  1.00  0.00    -0.200 F 
ATOM     57  C   UNL A   1      39.257  35.392  38.959  1.00  0.00     0.200 A 
ATOM     58  F   UNL A   1      40.698  36.997  37.998  1.00  0.00    -0.200 F 
ATOM     59  F   UNL A   1      39.080  36.173  40.033  1.00  0.00    -0.200 F 
ENDBRANCH  25  49
BRANCH  37  60
ATOM     60  C   UNL A   1      43.979  28.564  35.054  1.00  0.00     0.064 A 
ATOM     61  C   UNL A   1      45.290  29.055  35.011  1.00  0.00     0.173 A 
ATOM     62  C   UNL A   1      43.709  27.462  35.877  1.00  0.00     0.173 A 
ATOM     63  F   UNL A   1      45.596  30.099  34.225  1.00  0.00    -0.203 F 
ATOM     64  C   UNL A   1      46.301  28.452  35.752  1.00  0.00     0.198 A 
ATOM     65  C   UNL A   1      44.716  26.879  36.640  1.00  0.00     0.198 A 
ATOM     66  F   UNL A   1      42.465  26.963  35.954  1.00  0.00    -0.203 F 
ATOM     67  F   UNL A   1      47.557  28.909  35.668  1.00  0.00    -0.200 F 
ATOM     68  C   UNL A   1      46.010  27.370  36.572  1.00  0.00     0.200 A 
ATOM     69  F   UNL A   1      44.431  25.843  37.441  1.00  0.00    -0.200 F 
ATOM     70  F   UNL A   1      46.983  26.797  37.295  1.00  0.00    -0.200 F 
ENDBRANCH  37  60
ENDBRANCH  11  12
ENDBRANCH   4   6
ENDBRANCH   3   4
ENDBRANCH   2   3
ENDBRANCH   1   2
BRANCH   1  71
ATOM     71  O   UNL A   1      31.774  30.659  26.605  1.00  0.00    -0.374 OA
BRANCH  71  72
ATOM     72  C   UNL A   1      33.119  30.285  26.931  1.00  0.00     0.202 C 
BRANCH  72  73
ATOM     73  C   UNL A   1      33.580  29.184  25.978  1.00  0.00     0.261 C 
BRANCH  73  74
ATOM     74  O   UNL A   1      32.522  28.220  25.882  1.00  0.00    -0.460 OA
BRANCH  74  75
ATOM     75  C   UNL A   1      32.379  27.605  24.683  1.00  0.00     0.339 C 
ATOM     76  O   UNL A   1      33.175  26.867  24.127  1.00  0.00    -0.246 OA
BRANCH  75  77
ATOM     77  C   UNL A   1      30.966  27.745  24.282  1.00  0.00     0.079 A 
ATOM     78  C   UNL A   1      30.598  28.969  23.693  1.00  0.00     0.026 A 
ATOM     79  C   UNL A   1      30.041  26.701  24.376  1.00  0.00     0.055 A 
ATOM     80  C   UNL A   1      29.323  29.129  23.138  1.00  0.00    -0.012 A 
ATOM     81  C   UNL A   1      28.767  26.867  23.829  1.00  0.00     0.022 A 
ATOM     82  Cl  UNL A   1      30.375  25.207  25.174  1.00  0.00    -0.083 Cl
ATOM     83  C   UNL A   1      28.415  28.066  23.204  1.00  0.00     0.010 A 
BRANCH  80  84
ATOM     84  C   UNL A   1      28.923  30.375  22.472  1.00  0.00     0.047 A 
ATOM     85  C   UNL A   1      28.468  30.368  21.204  1.00  0.00     0.016 A 
ATOM     86  C   UNL A   1      28.920  31.677  23.227  1.00  0.00     0.255 A 
ATOM     87  C   UNL A   1      27.975  31.575  20.576  1.00  0.00     0.019 A 
ATOM     88  N   UNL A   1      28.420  32.765  22.549  1.00  0.00    -0.329 N 
ATOM     89  O   UNL A   1      29.326  31.768  24.381  1.00  0.00    -0.269 OA
ATOM     90  C   UNL A   1      27.955  32.724  21.262  1.00  0.00     0.086 A 
ATOM     91  H   UNL A   1      28.394  33.629  23.020  1.00  0.00     0.169 HD
ENDBRANCH  80  84
ENDBRANCH  75  77
ENDBRANCH  74  75
ENDBRANCH  73  74
ENDBRANCH  72  73
ENDBRANCH  71  72
ENDBRANCH   1  71
TORSDOF 15
ENDMDL
