MODEL 1
REMARK VINA RESULT:     -10.4      0.000      0.000
REMARK SMILES CCCC[C@@H](Sc1nc(OCCC2CCCCC2)cc(OCCC2CCCCC2)n1)C(=O)OCCOCCOC(=O)c1ccc(-c2c3nc(c(-c4c(F)c(F)c(F)c(F)c4F)c4ccc([nH]4)c(-c4c(F)c(F)c(F)c(F)c4F)c4nc(c(-c5c(F)c(F)c(F)c(F)c5F)c5ccc2[nH]5)C=C4)C=C3)cc1
REMARK SMILES IDX 34 1 33 2 31 3 32 4 5 5 4 6 3 7 2 8 1 9 6 10 7 11 8 12 30 13
REMARK SMILES IDX 9 14 20 15 19 16 10 17 11 18 12 19 13 20 14 21 18 22 15 23
REMARK SMILES IDX 17 24 16 25 21 26 22 27 23 28 24 29 25 30 29 31 26 32 28 33
REMARK SMILES IDX 27 34 35 35 36 36 37 37 38 38 39 39 40 40 41 41 42 42 43 43
REMARK SMILES IDX 104 44 44 45 103 46 45 47 46 48 47 49 97 50 48 51 102 52
REMARK SMILES IDX 96 53 98 54 49 55 101 56 95 57 94 58 50 60 82 61 62 62 81 63
REMARK SMILES IDX 63 64 66 65 80 66 99 67 64 68 65 69 79 71 100 72 67 73 51 74
REMARK SMILES IDX 52 75 60 76 53 77 54 78 58 79 61 80 55 81 56 82 59 83 57 84
REMARK SMILES IDX 83 85 84 86 92 87 85 88 86 89 90 90 93 91 87 92 88 93 91 94
REMARK SMILES IDX 89 95 68 96 69 97 77 98 70 99 71 100 75 101 78 102 72 103
REMARK SMILES IDX 73 104 76 105 74 106
REMARK H PARENT 98 59 66 70
REMARK Flexibility Score: inf
ROOT
ATOM      1  C   UNL A   1      32.848  25.825  21.499  1.00  0.00     0.261 C 
ENDROOT
BRANCH   1   2
ATOM      2  O   UNL A   1      31.693  26.584  21.898  1.00  0.00    -0.462 OA
BRANCH   2   3
ATOM      3  C   UNL A   1      31.941  27.760  22.541  1.00  0.00     0.319 C 
ATOM      4  O   UNL A   1      32.871  28.516  22.285  1.00  0.00    -0.251 OA
BRANCH   3   5
ATOM      5  C   UNL A   1      30.918  28.048  23.630  1.00  0.00     0.164 C 
BRANCH   5   6
ATOM      6  C   UNL A   1      30.223  29.419  23.439  1.00  0.00     0.027 C 
BRANCH   6   7
ATOM      7  C   UNL A   1      29.025  29.520  22.475  1.00  0.00     0.001 C 
BRANCH   7   8
ATOM      8  C   UNL A   1      27.689  29.985  23.073  1.00  0.00    -0.003 C 
ATOM      9  C   UNL A   1      27.607  31.488  23.280  1.00  0.00     0.004 C 
ENDBRANCH   7   8
ENDBRANCH   6   7
ENDBRANCH   5   6
BRANCH   5  10
ATOM     10  S   UNL A   1      29.777  26.594  23.671  1.00  0.00    -0.071 SA
BRANCH  10  11
ATOM     11  C   UNL A   1      30.604  25.743  24.976  1.00  0.00     0.195 A 
ATOM     12  N   UNL A   1      31.492  26.496  25.624  1.00  0.00    -0.187 NA
ATOM     13  N   UNL A   1      30.481  24.420  25.099  1.00  0.00    -0.187 NA
ATOM     14  C   UNL A   1      32.422  25.888  26.349  1.00  0.00     0.221 A 
ATOM     15  C   UNL A   1      31.377  23.843  25.909  1.00  0.00     0.221 A 
ATOM     16  C   UNL A   1      32.419  24.533  26.491  1.00  0.00     0.136 A 
BRANCH  14  17
ATOM     17  O   UNL A   1      33.289  26.783  26.890  1.00  0.00    -0.477 OA
BRANCH  17  18
ATOM     18  C   UNL A   1      33.776  27.896  26.159  1.00  0.00     0.231 C 
BRANCH  18  19
ATOM     19  C   UNL A   1      34.261  29.068  27.034  1.00  0.00     0.045 C 
BRANCH  19  20
ATOM     20  C   UNL A   1      33.501  30.378  26.805  1.00  0.00    -0.008 C 
ATOM     21  C   UNL A   1      31.983  30.217  26.695  1.00  0.00     0.004 C 
ATOM     22  C   UNL A   1      33.793  31.427  27.893  1.00  0.00     0.004 C 
ATOM     23  C   UNL A   1      31.364  31.554  26.265  1.00  0.00     0.000 C 
ATOM     24  C   UNL A   1      33.278  32.782  27.428  1.00  0.00     0.000 C 
ATOM     25  C   UNL A   1      31.776  32.726  27.163  1.00  0.00     0.000 C 
ENDBRANCH  19  20
ENDBRANCH  18  19
ENDBRANCH  17  18
ENDBRANCH  14  17
BRANCH  15  26
ATOM     26  O   UNL A   1      31.282  22.475  26.015  1.00  0.00    -0.477 OA
BRANCH  26  27
ATOM     27  C   UNL A   1      31.852  21.751  24.921  1.00  0.00     0.231 C 
BRANCH  27  28
ATOM     28  C   UNL A   1      32.535  20.445  25.377  1.00  0.00     0.045 C 
BRANCH  28  29
ATOM     29  C   UNL A   1      33.243  19.566  24.310  1.00  0.00    -0.008 C 
ATOM     30  C   UNL A   1      34.210  18.556  24.948  1.00  0.00     0.004 C 
ATOM     31  C   UNL A   1      32.261  19.002  23.265  1.00  0.00     0.004 C 
ATOM     32  C   UNL A   1      34.728  17.509  23.976  1.00  0.00     0.000 C 
ATOM     33  C   UNL A   1      32.720  17.751  22.511  1.00  0.00     0.000 C 
ATOM     34  C   UNL A   1      33.567  16.782  23.327  1.00  0.00     0.000 C 
ENDBRANCH  28  29
ENDBRANCH  27  28
ENDBRANCH  26  27
ENDBRANCH  15  26
ENDBRANCH  10  11
ENDBRANCH   5  10
ENDBRANCH   3   5
ENDBRANCH   2   3
ENDBRANCH   1   2
BRANCH   1  35
ATOM     35  C   UNL A   1      33.076  24.626  22.422  1.00  0.00     0.202 C 
BRANCH  35  36
ATOM     36  O   UNL A   1      34.431  24.289  22.716  1.00  0.00    -0.374 OA
BRANCH  36  37
ATOM     37  C   UNL A   1      34.836  24.279  24.082  1.00  0.00     0.202 C 
BRANCH  37  38
ATOM     38  C   UNL A   1      36.154  23.555  24.397  1.00  0.00     0.261 C 
BRANCH  38  39
ATOM     39  O   UNL A   1      36.778  24.027  25.609  1.00  0.00    -0.460 OA
BRANCH  39  40
ATOM     40  C   UNL A   1      37.911  23.378  25.950  1.00  0.00     0.338 C 
ATOM     41  O   UNL A   1      38.204  22.207  25.701  1.00  0.00    -0.246 OA
BRANCH  40  42
ATOM     42  C   UNL A   1      38.890  24.290  26.557  1.00  0.00     0.060 A 
ATOM     43  C   UNL A   1      38.756  24.560  27.924  1.00  0.00     0.016 A 
ATOM     44  C   UNL A   1      39.808  25.002  25.781  1.00  0.00     0.016 A 
ATOM     45  C   UNL A   1      39.493  25.585  28.509  1.00  0.00     0.010 A 
ATOM     46  C   UNL A   1      40.546  26.038  26.371  1.00  0.00     0.010 A 
ATOM     47  C   UNL A   1      40.357  26.364  27.726  1.00  0.00    -0.014 A 
BRANCH  47  48
ATOM     48  C   UNL A   1      40.922  27.607  28.312  1.00  0.00     0.031 A 
ATOM     49  C   UNL A   1      42.416  27.790  28.352  1.00  0.00     0.074 A 
ATOM     50  C   UNL A   1      40.114  28.601  28.721  1.00  0.00     0.049 A 
ATOM     51  N   UNL A   1      43.119  28.819  28.757  1.00  0.00    -0.248 NA
ATOM     52  C   UNL A   1      43.228  26.663  27.867  1.00  0.00     0.031 C 
ATOM     53  C   UNL A   1      38.655  28.564  28.697  1.00  0.00     0.029 A 
ATOM     54  N   UNL A   1      40.413  29.843  29.225  1.00  0.00    -0.354 N 
ATOM     55  C   UNL A   1      44.450  28.466  28.572  1.00  0.00     0.074 A 
ATOM     56  C   UNL A   1      44.461  27.114  28.054  1.00  0.00     0.031 C 
ATOM     57  C   UNL A   1      38.181  29.732  29.162  1.00  0.00     0.029 A 
ATOM     58  C   UNL A   1      39.304  30.591  29.536  1.00  0.00     0.049 A 
ATOM     59  H   UNL A   1      41.335  30.167  29.350  1.00  0.00     0.167 HD
ATOM     60  C   UNL A   1      45.563  29.204  28.800  1.00  0.00     0.037 A 
ATOM     61  C   UNL A   1      39.208  31.824  30.069  1.00  0.00     0.037 A 
ATOM     62  C   UNL A   1      45.556  30.550  29.312  1.00  0.00     0.049 A 
ATOM     63  C   UNL A   1      40.463  32.602  30.369  1.00  0.00     0.074 A 
ATOM     64  C   UNL A   1      46.631  31.385  29.562  1.00  0.00     0.029 A 
ATOM     65  N   UNL A   1      44.413  31.257  29.658  1.00  0.00    -0.354 N 
ATOM     66  N   UNL A   1      41.715  32.271  30.165  1.00  0.00    -0.248 NA
ATOM     67  C   UNL A   1      40.288  33.934  30.966  1.00  0.00     0.031 C 
ATOM     68  C   UNL A   1      46.142  32.579  30.105  1.00  0.00     0.029 A 
ATOM     69  C   UNL A   1      44.759  32.509  30.142  1.00  0.00     0.049 A 
ATOM     70  H   UNL A   1      43.492  30.919  29.571  1.00  0.00     0.167 HD
ATOM     71  C   UNL A   1      42.472  33.357  30.581  1.00  0.00     0.074 A 
ATOM     72  C   UNL A   1      41.539  34.368  31.034  1.00  0.00     0.031 C 
ATOM     73  C   UNL A   1      43.820  33.507  30.587  1.00  0.00     0.037 A 
BRANCH  60  74
ATOM     74  C   UNL A   1      46.890  28.563  28.516  1.00  0.00     0.064 A 
ATOM     75  C   UNL A   1      47.543  27.766  29.469  1.00  0.00     0.173 A 
ATOM     76  C   UNL A   1      47.500  28.717  27.262  1.00  0.00     0.173 A 
ATOM     77  F   UNL A   1      47.009  27.597  30.688  1.00  0.00    -0.203 F 
ATOM     78  C   UNL A   1      48.768  27.169  29.184  1.00  0.00     0.198 A 
ATOM     79  C   UNL A   1      48.711  28.095  26.972  1.00  0.00     0.198 A 
ATOM     80  F   UNL A   1      46.915  29.463  26.313  1.00  0.00    -0.203 F 
ATOM     81  F   UNL A   1      49.395  26.446  30.124  1.00  0.00    -0.200 F 
ATOM     82  C   UNL A   1      49.348  27.327  27.934  1.00  0.00     0.200 A 
ATOM     83  F   UNL A   1      49.263  28.240  25.759  1.00  0.00    -0.200 F 
ATOM     84  F   UNL A   1      50.523  26.745  27.660  1.00  0.00    -0.200 F 
ENDBRANCH  60  74
BRANCH  61  85
ATOM     85  C   UNL A   1      37.870  32.404  30.356  1.00  0.00     0.064 A 
ATOM     86  C   UNL A   1      37.156  32.048  31.508  1.00  0.00     0.173 A 
ATOM     87  C   UNL A   1      37.270  33.312  29.471  1.00  0.00     0.173 A 
ATOM     88  F   UNL A   1      37.676  31.162  32.370  1.00  0.00    -0.203 F 
ATOM     89  C   UNL A   1      35.887  32.566  31.756  1.00  0.00     0.198 A 
ATOM     90  C   UNL A   1      36.013  33.851  29.733  1.00  0.00     0.198 A 
ATOM     91  F   UNL A   1      37.910  33.681  28.351  1.00  0.00    -0.203 F 
ATOM     92  F   UNL A   1      35.206  32.172  32.841  1.00  0.00    -0.200 F 
ATOM     93  C   UNL A   1      35.319  33.470  30.872  1.00  0.00     0.200 A 
ATOM     94  F   UNL A   1      35.473  34.731  28.881  1.00  0.00    -0.200 F 
ATOM     95  F   UNL A   1      34.097  33.968  31.111  1.00  0.00    -0.200 F 
ENDBRANCH  61  85
BRANCH  73  96
ATOM     96  C   UNL A   1      44.366  34.820  31.071  1.00  0.00     0.064 A 
ATOM     97  C   UNL A   1      44.559  35.903  30.202  1.00  0.00     0.173 A 
ATOM     98  C   UNL A   1      44.676  35.004  32.428  1.00  0.00     0.173 A 
ATOM     99  F   UNL A   1      44.291  35.776  28.893  1.00  0.00    -0.203 F 
ATOM    100  C   UNL A   1      45.072  37.112  30.667  1.00  0.00     0.198 A 
ATOM    101  C   UNL A   1      45.160  36.223  32.894  1.00  0.00     0.198 A 
ATOM    102  F   UNL A   1      44.502  34.002  33.303  1.00  0.00    -0.203 F 
ATOM    103  F   UNL A   1      45.298  38.117  29.808  1.00  0.00    -0.200 F 
ATOM    104  C   UNL A   1      45.366  37.272  32.012  1.00  0.00     0.200 A 
ATOM    105  F   UNL A   1      45.431  36.380  34.198  1.00  0.00    -0.200 F 
ATOM    106  F   UNL A   1      45.858  38.437  32.458  1.00  0.00    -0.200 F 
ENDBRANCH  73  96
ENDBRANCH  47  48
ENDBRANCH  40  42
ENDBRANCH  39  40
ENDBRANCH  38  39
ENDBRANCH  37  38
ENDBRANCH  36  37
ENDBRANCH  35  36
ENDBRANCH   1  35
TORSDOF 27
ENDMDL
MODEL 2
REMARK VINA RESULT:     -10.3      0.692      2.051
REMARK SMILES CCCC[C@@H](Sc1nc(OCCC2CCCCC2)cc(OCCC2CCCCC2)n1)C(=O)OCCOCCOC(=O)c1ccc(-c2c3nc(c(-c4c(F)c(F)c(F)c(F)c4F)c4ccc([nH]4)c(-c4c(F)c(F)c(F)c(F)c4F)c4nc(c(-c5c(F)c(F)c(F)c(F)c5F)c5ccc2[nH]5)C=C4)C=C3)cc1
REMARK SMILES IDX 34 1 33 2 31 3 32 4 5 5 4 6 3 7 2 8 1 9 6 10 7 11 8 12 30 13
REMARK SMILES IDX 9 14 20 15 19 16 10 17 11 18 12 19 13 20 14 21 18 22 15 23
REMARK SMILES IDX 17 24 16 25 21 26 22 27 23 28 24 29 25 30 29 31 26 32 28 33
REMARK SMILES IDX 27 34 35 35 36 36 37 37 38 38 39 39 40 40 41 41 42 42 43 43
REMARK SMILES IDX 104 44 44 45 103 46 45 47 46 48 47 49 97 50 48 51 102 52
REMARK SMILES IDX 96 53 98 54 49 55 101 56 95 57 94 58 50 60 82 61 62 62 81 63
REMARK SMILES IDX 63 64 66 65 80 66 99 67 64 68 65 69 79 71 100 72 67 73 51 74
REMARK SMILES IDX 52 75 60 76 53 77 54 78 58 79 61 80 55 81 56 82 59 83 57 84
REMARK SMILES IDX 83 85 84 86 92 87 85 88 86 89 90 90 93 91 87 92 88 93 91 94
REMARK SMILES IDX 89 95 68 96 69 97 77 98 70 99 71 100 75 101 78 102 72 103
REMARK SMILES IDX 73 104 76 105 74 106
REMARK H PARENT 98 59 66 70
REMARK Flexibility Score: inf
ROOT
ATOM      1  C   UNL A   1      32.943  25.802  21.620  1.00  0.00     0.261 C 
ENDROOT
BRANCH   1   2
ATOM      2  O   UNL A   1      31.738  26.505  21.971  1.00  0.00    -0.462 OA
BRANCH   2   3
ATOM      3  C   UNL A   1      31.906  27.711  22.586  1.00  0.00     0.319 C 
ATOM      4  O   UNL A   1      32.767  28.533  22.293  1.00  0.00    -0.251 OA
BRANCH   3   5
ATOM      5  C   UNL A   1      30.887  27.940  23.694  1.00  0.00     0.164 C 
BRANCH   5   6
ATOM      6  C   UNL A   1      29.996  29.178  23.429  1.00  0.00     0.027 C 
BRANCH   6   7
ATOM      7  C   UNL A   1      28.526  28.965  23.021  1.00  0.00     0.001 C 
BRANCH   7   8
ATOM      8  C   UNL A   1      27.621  30.205  23.012  1.00  0.00    -0.003 C 
ATOM      9  C   UNL A   1      28.280  31.443  23.599  1.00  0.00     0.004 C 
ENDBRANCH   7   8
ENDBRANCH   6   7
ENDBRANCH   5   6
BRANCH   5  10
ATOM     10  S   UNL A   1      29.970  26.347  23.894  1.00  0.00    -0.071 SA
BRANCH  10  11
ATOM     11  C   UNL A   1      30.991  25.703  25.181  1.00  0.00     0.195 A 
ATOM     12  N   UNL A   1      32.017  26.494  25.492  1.00  0.00    -0.187 NA
ATOM     13  N   UNL A   1      30.836  24.444  25.595  1.00  0.00    -0.187 NA
ATOM     14  C   UNL A   1      33.041  25.966  26.151  1.00  0.00     0.221 A 
ATOM     15  C   UNL A   1      31.843  23.965  26.336  1.00  0.00     0.221 A 
ATOM     16  C   UNL A   1      33.005  24.669  26.569  1.00  0.00     0.136 A 
BRANCH  14  17
ATOM     17  O   UNL A   1      34.033  26.876  26.334  1.00  0.00    -0.477 OA
BRANCH  17  18
ATOM     18  C   UNL A   1      33.838  28.260  26.093  1.00  0.00     0.231 C 
BRANCH  18  19
ATOM     19  C   UNL A   1      33.984  29.149  27.343  1.00  0.00     0.045 C 
BRANCH  19  20
ATOM     20  C   UNL A   1      33.064  30.373  27.353  1.00  0.00    -0.008 C 
ATOM     21  C   UNL A   1      33.791  31.708  27.540  1.00  0.00     0.004 C 
ATOM     22  C   UNL A   1      32.199  30.472  26.085  1.00  0.00     0.004 C 
ATOM     23  C   UNL A   1      32.755  32.822  27.738  1.00  0.00     0.000 C 
ATOM     24  C   UNL A   1      31.100  31.500  26.311  1.00  0.00     0.000 C 
ATOM     25  C   UNL A   1      31.697  32.868  26.629  1.00  0.00     0.000 C 
ENDBRANCH  19  20
ENDBRANCH  18  19
ENDBRANCH  17  18
ENDBRANCH  14  17
BRANCH  15  26
ATOM     26  O   UNL A   1      31.711  22.657  26.737  1.00  0.00    -0.477 OA
BRANCH  26  27
ATOM     27  C   UNL A   1      31.282  21.758  25.711  1.00  0.00     0.231 C 
BRANCH  27  28
ATOM     28  C   UNL A   1      32.466  21.030  25.040  1.00  0.00     0.045 C 
BRANCH  28  29
ATOM     29  C   UNL A   1      32.255  19.574  24.542  1.00  0.00    -0.008 C 
ATOM     30  C   UNL A   1      32.402  19.464  23.015  1.00  0.00     0.004 C 
ATOM     31  C   UNL A   1      33.039  18.544  25.377  1.00  0.00     0.004 C 
ATOM     32  C   UNL A   1      32.462  18.032  22.510  1.00  0.00     0.000 C 
ATOM     33  C   UNL A   1      33.332  17.204  24.700  1.00  0.00     0.000 C 
ATOM     34  C   UNL A   1      33.585  17.282  23.199  1.00  0.00     0.000 C 
ENDBRANCH  28  29
ENDBRANCH  27  28
ENDBRANCH  26  27
ENDBRANCH  15  26
ENDBRANCH  10  11
ENDBRANCH   5  10
ENDBRANCH   3   5
ENDBRANCH   2   3
ENDBRANCH   1   2
BRANCH   1  35
ATOM     35  C   UNL A   1      33.667  25.279  22.862  1.00  0.00     0.202 C 
BRANCH  35  36
ATOM     36  O   UNL A   1      34.648  24.263  22.655  1.00  0.00    -0.374 OA
BRANCH  36  37
ATOM     37  C   UNL A   1      35.108  23.537  23.791  1.00  0.00     0.202 C 
BRANCH  37  38
ATOM     38  C   UNL A   1      36.628  23.522  24.020  1.00  0.00     0.261 C 
BRANCH  38  39
ATOM     39  O   UNL A   1      37.004  24.030  25.317  1.00  0.00    -0.460 OA
BRANCH  39  40
ATOM     40  C   UNL A   1      38.014  23.361  25.913  1.00  0.00     0.338 C 
ATOM     41  O   UNL A   1      38.251  22.154  25.847  1.00  0.00    -0.246 OA
BRANCH  40  42
ATOM     42  C   UNL A   1      38.951  24.281  26.571  1.00  0.00     0.060 A 
ATOM     43  C   UNL A   1      38.827  24.443  27.956  1.00  0.00     0.016 A 
ATOM     44  C   UNL A   1      39.814  25.099  25.837  1.00  0.00     0.016 A 
ATOM     45  C   UNL A   1      39.517  25.463  28.605  1.00  0.00     0.010 A 
ATOM     46  C   UNL A   1      40.505  26.129  26.492  1.00  0.00     0.010 A 
ATOM     47  C   UNL A   1      40.322  26.345  27.870  1.00  0.00    -0.014 A 
BRANCH  47  48
ATOM     48  C   UNL A   1      40.828  27.572  28.537  1.00  0.00     0.031 A 
ATOM     49  C   UNL A   1      42.308  27.728  28.768  1.00  0.00     0.074 A 
ATOM     50  C   UNL A   1      39.990  28.575  28.853  1.00  0.00     0.049 A 
ATOM     51  N   UNL A   1      42.970  28.741  29.271  1.00  0.00    -0.248 NA
ATOM     52  C   UNL A   1      43.157  26.593  28.376  1.00  0.00     0.031 C 
ATOM     53  C   UNL A   1      38.545  28.563  28.645  1.00  0.00     0.029 A 
ATOM     54  N   UNL A   1      40.242  29.807  29.406  1.00  0.00    -0.354 N 
ATOM     55  C   UNL A   1      44.307  28.367  29.251  1.00  0.00     0.074 A 
ATOM     56  C   UNL A   1      44.362  27.021  28.723  1.00  0.00     0.031 C 
ATOM     57  C   UNL A   1      38.035  29.734  29.060  1.00  0.00     0.029 A 
ATOM     58  C   UNL A   1      39.115  30.570  29.584  1.00  0.00     0.049 A 
ATOM     59  H   UNL A   1      41.145  30.113  29.650  1.00  0.00     0.167 HD
ATOM     60  C   UNL A   1      45.394  29.084  29.628  1.00  0.00     0.037 A 
ATOM     61  C   UNL A   1      38.971  31.799  30.115  1.00  0.00     0.037 A 
ATOM     62  C   UNL A   1      45.343  30.425  30.151  1.00  0.00     0.049 A 
ATOM     63  C   UNL A   1      40.190  32.553  30.581  1.00  0.00     0.074 A 
ATOM     64  C   UNL A   1      46.391  31.239  30.545  1.00  0.00     0.029 A 
ATOM     65  N   UNL A   1      44.177  31.148  30.358  1.00  0.00    -0.354 N 
ATOM     66  N   UNL A   1      41.452  32.202  30.532  1.00  0.00    -0.248 NA
ATOM     67  C   UNL A   1      39.961  33.881  31.168  1.00  0.00     0.031 C 
ATOM     68  C   UNL A   1      45.856  32.436  31.037  1.00  0.00     0.029 A 
ATOM     69  C   UNL A   1      44.478  32.388  30.898  1.00  0.00     0.049 A 
ATOM     70  H   UNL A   1      43.269  30.826  30.152  1.00  0.00     0.167 HD
ATOM     71  C   UNL A   1      42.168  33.271  31.055  1.00  0.00     0.074 A 
ATOM     72  C   UNL A   1      41.200  34.292  31.398  1.00  0.00     0.031 C 
ATOM     73  C   UNL A   1      43.506  33.397  31.233  1.00  0.00     0.037 A 
BRANCH  60  74
ATOM     74  C   UNL A   1      46.736  28.424  29.506  1.00  0.00     0.064 A 
ATOM     75  C   UNL A   1      47.500  28.517  28.332  1.00  0.00     0.173 A 
ATOM     76  C   UNL A   1      47.282  27.720  30.590  1.00  0.00     0.173 A 
ATOM     77  F   UNL A   1      47.018  29.168  27.263  1.00  0.00    -0.203 F 
ATOM     78  C   UNL A   1      48.749  27.908  28.241  1.00  0.00     0.198 A 
ATOM     79  C   UNL A   1      48.543  27.136  30.504  1.00  0.00     0.198 A 
ATOM     80  F   UNL A   1      46.596  27.606  31.737  1.00  0.00    -0.203 F 
ATOM     81  F   UNL A   1      49.443  27.973  27.096  1.00  0.00    -0.200 F 
ATOM     82  C   UNL A   1      49.273  27.224  29.328  1.00  0.00     0.200 A 
ATOM     83  F   UNL A   1      49.053  26.486  31.560  1.00  0.00    -0.200 F 
ATOM     84  F   UNL A   1      50.478  26.646  29.241  1.00  0.00    -0.200 F 
ENDBRANCH  60  74
BRANCH  61  85
ATOM     85  C   UNL A   1      37.617  32.399  30.238  1.00  0.00     0.064 A 
ATOM     86  C   UNL A   1      37.142  33.319  29.294  1.00  0.00     0.173 A 
ATOM     87  C   UNL A   1      36.779  32.079  31.317  1.00  0.00     0.173 A 
ATOM     88  F   UNL A   1      37.918  33.678  28.260  1.00  0.00    -0.203 F 
ATOM     89  C   UNL A   1      35.887  33.907  29.431  1.00  0.00     0.198 A 
ATOM     90  C   UNL A   1      35.513  32.646  31.439  1.00  0.00     0.198 A 
ATOM     91  F   UNL A   1      37.189  31.208  32.251  1.00  0.00    -0.203 F 
ATOM     92  F   UNL A   1      35.476  34.820  28.540  1.00  0.00    -0.200 F 
ATOM     93  C   UNL A   1      35.071  33.567  30.500  1.00  0.00     0.200 A 
ATOM     94  F   UNL A   1      34.725  32.308  32.467  1.00  0.00    -0.200 F 
ATOM     95  F   UNL A   1      33.864  34.134  30.631  1.00  0.00    -0.200 F 
ENDBRANCH  61  85
BRANCH  73  96
ATOM     96  C   UNL A   1      44.006  34.696  31.798  1.00  0.00     0.064 A 
ATOM     97  C   UNL A   1      44.221  34.869  33.172  1.00  0.00     0.173 A 
ATOM     98  C   UNL A   1      44.298  35.775  30.947  1.00  0.00     0.173 A 
ATOM     99  F   UNL A   1      43.946  33.873  34.029  1.00  0.00    -0.203 F 
ATOM    100  C   UNL A   1      44.679  36.083  33.679  1.00  0.00     0.198 A 
ATOM    101  C   UNL A   1      44.784  36.977  31.454  1.00  0.00     0.198 A 
ATOM    102  F   UNL A   1      44.117  35.660  29.623  1.00  0.00    -0.203 F 
ATOM    103  F   UNL A   1      44.827  36.243  35.002  1.00  0.00    -0.200 F 
ATOM    104  C   UNL A   1      44.965  37.133  32.819  1.00  0.00     0.200 A 
ATOM    105  F   UNL A   1      45.073  37.986  30.620  1.00  0.00    -0.200 F 
ATOM    106  F   UNL A   1      45.407  38.300  33.309  1.00  0.00    -0.200 F 
ENDBRANCH  73  96
ENDBRANCH  47  48
ENDBRANCH  40  42
ENDBRANCH  39  40
ENDBRANCH  38  39
ENDBRANCH  37  38
ENDBRANCH  36  37
ENDBRANCH  35  36
ENDBRANCH   1  35
TORSDOF 27
ENDMDL
MODEL 3
REMARK VINA RESULT:      -9.7      0.933      6.941
REMARK SMILES CCCC[C@@H](Sc1nc(OCCC2CCCCC2)cc(OCCC2CCCCC2)n1)C(=O)OCCOCCOC(=O)c1ccc(-c2c3nc(c(-c4c(F)c(F)c(F)c(F)c4F)c4ccc([nH]4)c(-c4c(F)c(F)c(F)c(F)c4F)c4nc(c(-c5c(F)c(F)c(F)c(F)c5F)c5ccc2[nH]5)C=C4)C=C3)cc1
REMARK SMILES IDX 34 1 33 2 31 3 32 4 5 5 4 6 3 7 2 8 1 9 6 10 7 11 8 12 30 13
REMARK SMILES IDX 9 14 20 15 19 16 10 17 11 18 12 19 13 20 14 21 18 22 15 23
REMARK SMILES IDX 17 24 16 25 21 26 22 27 23 28 24 29 25 30 29 31 26 32 28 33
REMARK SMILES IDX 27 34 35 35 36 36 37 37 38 38 39 39 40 40 41 41 42 42 43 43
REMARK SMILES IDX 104 44 44 45 103 46 45 47 46 48 47 49 97 50 48 51 102 52
REMARK SMILES IDX 96 53 98 54 49 55 101 56 95 57 94 58 50 60 82 61 62 62 81 63
REMARK SMILES IDX 63 64 66 65 80 66 99 67 64 68 65 69 79 71 100 72 67 73 51 74
REMARK SMILES IDX 52 75 60 76 53 77 54 78 58 79 61 80 55 81 56 82 59 83 57 84
REMARK SMILES IDX 83 85 84 86 92 87 85 88 86 89 90 90 93 91 87 92 88 93 91 94
REMARK SMILES IDX 89 95 68 96 69 97 77 98 70 99 71 100 75 101 78 102 72 103
REMARK SMILES IDX 73 104 76 105 74 106
REMARK H PARENT 98 59 66 70
REMARK Flexibility Score: inf
ROOT
ATOM      1  C   UNL A   1      33.598  23.579  21.875  1.00  0.00     0.261 C 
ENDROOT
BRANCH   1   2
ATOM      2  O   UNL A   1      32.381  24.345  21.829  1.00  0.00    -0.462 OA
BRANCH   2   3
ATOM      3  C   UNL A   1      32.529  25.698  21.745  1.00  0.00     0.319 C 
ATOM      4  O   UNL A   1      33.320  26.272  21.005  1.00  0.00    -0.251 OA
BRANCH   3   5
ATOM      5  C   UNL A   1      31.584  26.439  22.679  1.00  0.00     0.164 C 
BRANCH   5   6
ATOM      6  C   UNL A   1      31.046  27.750  22.055  1.00  0.00     0.027 C 
BRANCH   6   7
ATOM      7  C   UNL A   1      29.812  28.425  22.686  1.00  0.00     0.001 C 
BRANCH   7   8
ATOM      8  C   UNL A   1      29.630  29.927  22.423  1.00  0.00    -0.003 C 
ATOM      9  C   UNL A   1      28.295  30.275  21.785  1.00  0.00     0.004 C 
ENDBRANCH   7   8
ENDBRANCH   6   7
ENDBRANCH   5   6
BRANCH   5  10
ATOM     10  S   UNL A   1      30.284  25.222  23.178  1.00  0.00    -0.071 SA
BRANCH  10  11
ATOM     11  C   UNL A   1      30.987  24.832  24.749  1.00  0.00     0.195 A 
ATOM     12  N   UNL A   1      31.513  25.884  25.374  1.00  0.00    -0.187 NA
ATOM     13  N   UNL A   1      31.153  23.558  25.112  1.00  0.00    -0.187 NA
ATOM     14  C   UNL A   1      32.381  25.665  26.352  1.00  0.00     0.221 A 
ATOM     15  C   UNL A   1      31.963  23.372  26.161  1.00  0.00     0.221 A 
ATOM     16  C   UNL A   1      32.664  24.396  26.760  1.00  0.00     0.136 A 
BRANCH  14  17
ATOM     17  O   UNL A   1      32.877  26.831  26.843  1.00  0.00    -0.477 OA
BRANCH  17  18
ATOM     18  C   UNL A   1      33.923  27.536  26.194  1.00  0.00     0.231 C 
BRANCH  18  19
ATOM     19  C   UNL A   1      34.394  28.800  26.938  1.00  0.00     0.045 C 
BRANCH  19  20
ATOM     20  C   UNL A   1      33.333  29.900  27.041  1.00  0.00    -0.008 C 
ATOM     21  C   UNL A   1      33.886  31.277  27.418  1.00  0.00     0.004 C 
ATOM     22  C   UNL A   1      32.512  30.050  25.749  1.00  0.00     0.004 C 
ATOM     23  C   UNL A   1      32.716  32.232  27.689  1.00  0.00     0.000 C 
ATOM     24  C   UNL A   1      31.288  30.910  26.035  1.00  0.00     0.000 C 
ATOM     25  C   UNL A   1      31.704  32.289  26.539  1.00  0.00     0.000 C 
ENDBRANCH  19  20
ENDBRANCH  18  19
ENDBRANCH  17  18
ENDBRANCH  14  17
BRANCH  15  26
ATOM     26  O   UNL A   1      32.170  22.061  26.522  1.00  0.00    -0.477 OA
BRANCH  26  27
ATOM     27  C   UNL A   1      32.127  21.130  25.437  1.00  0.00     0.231 C 
BRANCH  27  28
ATOM     28  C   UNL A   1      32.977  19.872  25.713  1.00  0.00     0.045 C 
BRANCH  28  29
ATOM     29  C   UNL A   1      32.731  18.606  24.848  1.00  0.00    -0.008 C 
ATOM     30  C   UNL A   1      32.625  18.945  23.353  1.00  0.00     0.004 C 
ATOM     31  C   UNL A   1      33.675  17.446  25.218  1.00  0.00     0.004 C 
ATOM     32  C   UNL A   1      32.643  17.724  22.447  1.00  0.00     0.000 C 
ATOM     33  C   UNL A   1      33.891  16.379  24.142  1.00  0.00     0.000 C 
ATOM     34  C   UNL A   1      33.888  16.900  22.710  1.00  0.00     0.000 C 
ENDBRANCH  28  29
ENDBRANCH  27  28
ENDBRANCH  26  27
ENDBRANCH  15  26
ENDBRANCH  10  11
ENDBRANCH   5  10
ENDBRANCH   3   5
ENDBRANCH   2   3
ENDBRANCH   1   2
BRANCH   1  35
ATOM     35  C   UNL A   1      34.305  23.734  23.223  1.00  0.00     0.202 C 
BRANCH  35  36
ATOM     36  O   UNL A   1      35.060  22.615  23.687  1.00  0.00    -0.374 OA
BRANCH  36  37
ATOM     37  C   UNL A   1      36.479  22.669  23.563  1.00  0.00     0.202 C 
BRANCH  37  38
ATOM     38  C   UNL A   1      37.282  21.808  24.551  1.00  0.00     0.261 C 
BRANCH  38  39
ATOM     39  O   UNL A   1      38.260  22.569  25.291  1.00  0.00    -0.460 OA
BRANCH  39  40
ATOM     40  C   UNL A   1      37.743  23.522  26.095  1.00  0.00     0.338 C 
ATOM     41  O   UNL A   1      36.571  23.636  26.457  1.00  0.00    -0.246 OA
BRANCH  40  42
ATOM     42  C   UNL A   1      38.795  24.382  26.653  1.00  0.00     0.060 A 
ATOM     43  C   UNL A   1      38.747  24.647  28.026  1.00  0.00     0.016 A 
ATOM     44  C   UNL A   1      39.703  25.055  25.832  1.00  0.00     0.016 A 
ATOM     45  C   UNL A   1      39.564  25.631  28.576  1.00  0.00     0.010 A 
ATOM     46  C   UNL A   1      40.522  26.049  26.387  1.00  0.00     0.010 A 
ATOM     47  C   UNL A   1      40.421  26.374  27.752  1.00  0.00    -0.014 A 
BRANCH  47  48
ATOM     48  C   UNL A   1      41.075  27.584  28.313  1.00  0.00     0.031 A 
ATOM     49  C   UNL A   1      40.223  28.744  28.757  1.00  0.00     0.074 A 
ATOM     50  C   UNL A   1      42.405  27.616  28.509  1.00  0.00     0.049 A 
ATOM     51  N   UNL A   1      40.577  29.866  29.333  1.00  0.00    -0.248 NA
ATOM     52  C   UNL A   1      38.775  28.619  28.526  1.00  0.00     0.031 C 
ATOM     53  C   UNL A   1      43.334  26.545  28.160  1.00  0.00     0.029 A 
ATOM     54  N   UNL A   1      43.201  28.587  29.065  1.00  0.00    -0.354 N 
ATOM     55  C   UNL A   1      39.401  30.577  29.534  1.00  0.00     0.074 A 
ATOM     56  C   UNL A   1      38.325  29.779  28.987  1.00  0.00     0.031 C 
ATOM     57  C   UNL A   1      44.577  26.914  28.513  1.00  0.00     0.029 A 
ATOM     58  C   UNL A   1      44.534  28.256  29.092  1.00  0.00     0.049 A 
ATOM     59  H   UNL A   1      42.850  29.440  29.411  1.00  0.00     0.167 HD
ATOM     60  C   UNL A   1      39.230  31.780  30.133  1.00  0.00     0.037 A 
ATOM     61  C   UNL A   1      45.596  28.958  29.529  1.00  0.00     0.037 A 
ATOM     62  C   UNL A   1      40.297  32.576  30.681  1.00  0.00     0.049 A 
ATOM     63  C   UNL A   1      45.385  30.321  30.138  1.00  0.00     0.074 A 
ATOM     64  C   UNL A   1      40.221  33.801  31.320  1.00  0.00     0.029 A 
ATOM     65  N   UNL A   1      41.639  32.225  30.650  1.00  0.00    -0.354 N 
ATOM     66  N   UNL A   1      44.267  30.972  30.349  1.00  0.00    -0.248 NA
ATOM     67  C   UNL A   1      46.588  31.042  30.577  1.00  0.00     0.031 C 
ATOM     68  C   UNL A   1      41.522  34.215  31.633  1.00  0.00     0.029 A 
ATOM     69  C   UNL A   1      42.403  33.222  31.236  1.00  0.00     0.049 A 
ATOM     70  H   UNL A   1      41.997  31.391  30.267  1.00  0.00     0.167 HD
ATOM     71  C   UNL A   1      44.627  32.162  30.967  1.00  0.00     0.074 A 
ATOM     72  C   UNL A   1      46.068  32.136  31.115  1.00  0.00     0.031 C 
ATOM     73  C   UNL A   1      43.836  33.184  31.379  1.00  0.00     0.037 A 
BRANCH  60  74
ATOM     74  C   UNL A   1      37.833  32.324  30.208  1.00  0.00     0.064 A 
ATOM     75  C   UNL A   1      37.351  33.251  29.271  1.00  0.00     0.173 A 
ATOM     76  C   UNL A   1      36.953  31.885  31.209  1.00  0.00     0.173 A 
ATOM     77  F   UNL A   1      38.155  33.712  28.302  1.00  0.00    -0.203 F 
ATOM     78  C   UNL A   1      36.047  33.735  29.350  1.00  0.00     0.198 A 
ATOM     79  C   UNL A   1      35.642  32.350  31.267  1.00  0.00     0.198 A 
ATOM     80  F   UNL A   1      37.362  30.995  32.126  1.00  0.00    -0.203 F 
ATOM     81  F   UNL A   1      35.620  34.652  28.469  1.00  0.00    -0.200 F 
ATOM     82  C   UNL A   1      35.192  33.280  30.342  1.00  0.00     0.200 A 
ATOM     83  F   UNL A   1      34.814  31.900  32.220  1.00  0.00    -0.200 F 
ATOM     84  F   UNL A   1      33.936  33.741  30.411  1.00  0.00    -0.200 F 
ENDBRANCH  60  74
BRANCH  61  85
ATOM     85  C   UNL A   1      46.962  28.387  29.408  1.00  0.00     0.064 A 
ATOM     86  C   UNL A   1      47.730  28.579  28.251  1.00  0.00     0.173 A 
ATOM     87  C   UNL A   1      47.519  27.617  30.440  1.00  0.00     0.173 A 
ATOM     88  F   UNL A   1      47.229  29.283  27.225  1.00  0.00    -0.203 F 
ATOM     89  C   UNL A   1      48.996  28.011  28.125  1.00  0.00     0.198 A 
ATOM     90  C   UNL A   1      48.796  27.073  30.325  1.00  0.00     0.198 A 
ATOM     91  F   UNL A   1      46.823  27.399  31.566  1.00  0.00    -0.203 F 
ATOM     92  F   UNL A   1      49.690  28.171  26.990  1.00  0.00    -0.200 F 
ATOM     93  C   UNL A   1      49.531  27.264  29.164  1.00  0.00     0.200 A 
ATOM     94  F   UNL A   1      49.312  26.360  31.335  1.00  0.00    -0.200 F 
ATOM     95  F   UNL A   1      50.748  26.718  29.042  1.00  0.00    -0.200 F 
ENDBRANCH  61  85
BRANCH  73  96
ATOM     96  C   UNL A   1      44.508  34.345  32.054  1.00  0.00     0.064 A 
ATOM     97  C   UNL A   1      44.947  35.464  31.333  1.00  0.00     0.173 A 
ATOM     98  C   UNL A   1      44.691  34.348  33.446  1.00  0.00     0.173 A 
ATOM     99  F   UNL A   1      44.808  35.506  29.999  1.00  0.00    -0.203 F 
ATOM    100  C   UNL A   1      45.575  36.530  31.975  1.00  0.00     0.198 A 
ATOM    101  C   UNL A   1      45.291  35.428  34.089  1.00  0.00     0.198 A 
ATOM    102  F   UNL A   1      44.282  33.306  34.185  1.00  0.00    -0.203 F 
ATOM    103  F   UNL A   1      46.034  37.566  31.259  1.00  0.00    -0.200 F 
ATOM    104  C   UNL A   1      45.740  36.513  33.352  1.00  0.00     0.200 A 
ATOM    105  F   UNL A   1      45.438  35.416  35.421  1.00  0.00    -0.200 F 
ATOM    106  F   UNL A   1      46.342  37.540  33.968  1.00  0.00    -0.200 F 
ENDBRANCH  73  96
ENDBRANCH  47  48
ENDBRANCH  40  42
ENDBRANCH  39  40
ENDBRANCH  38  39
ENDBRANCH  37  38
ENDBRANCH  36  37
ENDBRANCH  35  36
ENDBRANCH   1  35
TORSDOF 27
ENDMDL
