MODEL 1
REMARK VINA RESULT:     -12.0      0.000      0.000
REMARK SMILES Cc1ccc(C(=O)OCCOCCOC(=O)c2ccc(-c3c4nc(c(-c5c(F)c(F)c(F)c(F)c5F)c5ccc([nH]5)c(-c5c(F)c(F)c(F)c(F)c5F)c5nc(c(-c6c(F)c(F)c(F)c(F)c6F)c6ccc3[nH]6)C=C5)C=C4)cc2)cc1N1CC(C)C1
REMARK SMILES IDX 12 1 11 2 10 3 9 4 8 5 6 6 7 7 5 8 1 9 2 10 3 11 81 12 4 13
REMARK SMILES IDX 80 14 82 15 83 16 86 17 84 18 85 19 13 20 14 21 15 22 16 23
REMARK SMILES IDX 17 24 18 25 79 26 19 27 78 28 20 29 21 30 22 31 72 32 23 33
REMARK SMILES IDX 77 34 71 35 73 36 24 37 76 38 70 39 69 40 25 42 57 43 37 44
REMARK SMILES IDX 56 45 38 46 41 47 55 48 74 49 39 50 40 51 54 53 75 54 42 55
REMARK SMILES IDX 26 56 27 57 35 58 28 59 29 60 33 61 36 62 30 63 31 64 34 65
REMARK SMILES IDX 32 66 58 67 59 68 67 69 60 70 61 71 65 72 68 73 62 74 63 75
REMARK SMILES IDX 66 76 64 77 43 78 44 79 52 80 45 81 46 82 50 83 53 84 47 85
REMARK SMILES IDX 48 86 51 87 49 88
REMARK H PARENT 73 41 41 52
REMARK Flexibility Score: inf
ROOT
ATOM      1  C   UNL A   1      32.971  35.948  29.158  1.00  0.00     0.202 C 
ENDROOT
BRANCH   1   2
ATOM      2  O   UNL A   1      33.743  34.778  29.005  1.00  0.00    -0.374 OA
BRANCH   2   3
ATOM      3  C   UNL A   1      33.258  33.846  28.052  1.00  0.00     0.202 C 
BRANCH   3   4
ATOM      4  C   UNL A   1      34.252  32.735  28.063  1.00  0.00     0.261 C 
BRANCH   4   5
ATOM      5  O   UNL A   1      33.609  31.457  27.974  1.00  0.00    -0.460 OA
BRANCH   5   6
ATOM      6  C   UNL A   1      34.228  30.410  27.349  1.00  0.00     0.338 C 
ATOM      7  O   UNL A   1      35.376  30.048  27.436  1.00  0.00    -0.246 OA
BRANCH   6   8
ATOM      8  C   UNL A   1      33.151  29.672  26.652  1.00  0.00     0.062 A 
ATOM      9  C   UNL A   1      30.600  27.689  23.834  1.00  0.00     0.046 C 
ATOM     10  C   UNL A   1      31.497  28.327  24.857  1.00  0.00    -0.028 A 
ATOM     11  C   UNL A   1      31.316  29.704  25.115  1.00  0.00     0.006 A 
ATOM     12  C   UNL A   1      32.485  27.608  25.555  1.00  0.00     0.040 A 
ATOM     13  C   UNL A   1      32.146  30.382  26.006  1.00  0.00     0.016 A 
ATOM     14  C   UNL A   1      33.264  28.291  26.484  1.00  0.00     0.041 A 
BRANCH  12  15
ATOM     15  N   UNL A   1      32.771  26.251  25.287  1.00  0.00    -0.371 N 
ATOM     16  C   UNL A   1      32.579  25.124  26.160  1.00  0.00     0.121 C 
ATOM     17  C   UNL A   1      34.053  25.792  24.813  1.00  0.00     0.121 C 
ATOM     18  C   UNL A   1      33.985  24.638  25.817  1.00  0.00     0.025 C 
ATOM     19  C   UNL A   1      34.065  23.229  25.269  1.00  0.00     0.011 C 
ENDBRANCH  12  15
ENDBRANCH   6   8
ENDBRANCH   5   6
ENDBRANCH   4   5
ENDBRANCH   3   4
ENDBRANCH   2   3
ENDBRANCH   1   2
BRANCH   1  20
ATOM     20  C   UNL A   1      33.177  36.615  30.524  1.00  0.00     0.261 C 
BRANCH  20  21
ATOM     21  O   UNL A   1      33.102  35.617  31.568  1.00  0.00    -0.460 OA
BRANCH  21  22
ATOM     22  C   UNL A   1      34.183  35.518  32.396  1.00  0.00     0.338 C 
ATOM     23  O   UNL A   1      34.689  36.444  33.008  1.00  0.00    -0.246 OA
BRANCH  22  24
ATOM     24  C   UNL A   1      34.833  34.184  32.218  1.00  0.00     0.060 A 
ATOM     25  C   UNL A   1      34.847  33.249  33.273  1.00  0.00     0.016 A 
ATOM     26  C   UNL A   1      35.704  34.025  31.147  1.00  0.00     0.016 A 
ATOM     27  C   UNL A   1      35.843  32.260  33.331  1.00  0.00     0.010 A 
ATOM     28  C   UNL A   1      36.755  33.144  31.278  1.00  0.00     0.010 A 
ATOM     29  C   UNL A   1      36.857  32.273  32.379  1.00  0.00    -0.014 A 
BRANCH  29  30
ATOM     30  C   UNL A   1      38.130  31.540  32.436  1.00  0.00     0.031 A 
ATOM     31  C   UNL A   1      38.237  30.294  31.636  1.00  0.00     0.074 A 
ATOM     32  C   UNL A   1      39.262  32.150  32.875  1.00  0.00     0.049 A 
ATOM     33  N   UNL A   1      39.262  29.516  31.639  1.00  0.00    -0.248 NA
ATOM     34  C   UNL A   1      37.169  29.787  30.775  1.00  0.00     0.031 C 
ATOM     35  C   UNL A   1      40.642  31.906  32.442  1.00  0.00     0.029 A 
ATOM     36  N   UNL A   1      39.429  33.198  33.795  1.00  0.00    -0.354 N 
ATOM     37  C   UNL A   1      39.168  28.702  30.532  1.00  0.00     0.074 A 
ATOM     38  C   UNL A   1      37.788  28.790  30.137  1.00  0.00     0.031 C 
ATOM     39  C   UNL A   1      41.500  32.516  33.280  1.00  0.00     0.029 A 
ATOM     40  C   UNL A   1      40.710  33.075  34.361  1.00  0.00     0.049 A 
ATOM     41  H   UNL A   1      38.766  33.895  34.006  1.00  0.00     0.167 HD
ATOM     42  C   UNL A   1      40.328  28.200  30.013  1.00  0.00     0.037 A 
ATOM     43  C   UNL A   1      40.868  32.898  35.700  1.00  0.00     0.037 A 
ATOM     44  C   UNL A   1      41.456  28.522  30.909  1.00  0.00     0.049 A 
ATOM     45  C   UNL A   1      41.488  31.550  35.899  1.00  0.00     0.074 A 
ATOM     46  C   UNL A   1      42.534  29.387  30.810  1.00  0.00     0.029 A 
ATOM     47  N   UNL A   1      41.388  28.145  32.255  1.00  0.00    -0.354 N 
ATOM     48  N   UNL A   1      41.357  30.597  35.015  1.00  0.00    -0.248 NA
ATOM     49  C   UNL A   1      42.395  31.196  36.983  1.00  0.00     0.031 C 
ATOM     50  C   UNL A   1      43.058  29.586  32.121  1.00  0.00     0.029 A 
ATOM     51  C   UNL A   1      42.318  28.827  33.016  1.00  0.00     0.049 A 
ATOM     52  H   UNL A   1      40.757  27.480  32.613  1.00  0.00     0.167 HD
ATOM     53  C   UNL A   1      42.234  29.603  35.299  1.00  0.00     0.074 A 
ATOM     54  C   UNL A   1      42.810  29.981  36.579  1.00  0.00     0.031 C 
ATOM     55  C   UNL A   1      42.457  28.566  34.447  1.00  0.00     0.037 A 
BRANCH  42  56
ATOM     56  C   UNL A   1      40.520  27.631  28.609  1.00  0.00     0.064 A 
ATOM     57  C   UNL A   1      40.034  26.337  28.298  1.00  0.00     0.173 A 
ATOM     58  C   UNL A   1      41.218  28.240  27.543  1.00  0.00     0.173 A 
ATOM     59  F   UNL A   1      39.310  25.633  29.178  1.00  0.00    -0.203 F 
ATOM     60  C   UNL A   1      40.271  25.705  27.069  1.00  0.00     0.198 A 
ATOM     61  C   UNL A   1      41.440  27.616  26.309  1.00  0.00     0.198 A 
ATOM     62  F   UNL A   1      41.727  29.468  27.622  1.00  0.00    -0.203 F 
ATOM     63  F   UNL A   1      39.810  24.464  26.860  1.00  0.00    -0.200 F 
ATOM     64  C   UNL A   1      40.977  26.343  26.074  1.00  0.00     0.200 A 
ATOM     65  F   UNL A   1      42.119  28.267  25.351  1.00  0.00    -0.200 F 
ATOM     66  F   UNL A   1      41.205  25.744  24.898  1.00  0.00    -0.200 F 
ENDBRANCH  42  56
BRANCH  43  67
ATOM     67  C   UNL A   1      39.783  33.588  36.461  1.00  0.00     0.064 A 
ATOM     68  C   UNL A   1      38.830  32.746  37.084  1.00  0.00     0.173 A 
ATOM     69  C   UNL A   1      39.977  34.856  37.025  1.00  0.00     0.173 A 
ATOM     70  F   UNL A   1      38.615  31.509  36.605  1.00  0.00    -0.203 F 
ATOM     71  C   UNL A   1      38.242  33.087  38.303  1.00  0.00     0.198 A 
ATOM     72  C   UNL A   1      39.376  35.195  38.245  1.00  0.00     0.198 A 
ATOM     73  F   UNL A   1      40.866  35.705  36.490  1.00  0.00    -0.203 F 
ATOM     74  F   UNL A   1      37.492  32.187  38.959  1.00  0.00    -0.200 F 
ATOM     75  C   UNL A   1      38.554  34.292  38.906  1.00  0.00     0.200 A 
ATOM     76  F   UNL A   1      39.686  36.355  38.843  1.00  0.00    -0.200 F 
ATOM     77  F   UNL A   1      38.123  34.552  40.149  1.00  0.00    -0.200 F 
ENDBRANCH  43  67
BRANCH  55  78
ATOM     78  C   UNL A   1      42.916  27.220  34.915  1.00  0.00     0.064 A 
ATOM     79  C   UNL A   1      42.043  26.127  35.048  1.00  0.00     0.173 A 
ATOM     80  C   UNL A   1      44.293  26.933  35.042  1.00  0.00     0.173 A 
ATOM     81  F   UNL A   1      40.727  26.244  34.817  1.00  0.00    -0.203 F 
ATOM     82  C   UNL A   1      42.506  24.854  35.366  1.00  0.00     0.198 A 
ATOM     83  C   UNL A   1      44.756  25.645  35.286  1.00  0.00     0.198 A 
ATOM     84  F   UNL A   1      45.230  27.880  34.895  1.00  0.00    -0.203 F 
ATOM     85  F   UNL A   1      41.628  23.857  35.538  1.00  0.00    -0.200 F 
ATOM     86  C   UNL A   1      43.862  24.611  35.472  1.00  0.00     0.200 A 
ATOM     87  F   UNL A   1      46.074  25.410  35.313  1.00  0.00    -0.200 F 
ATOM     88  F   UNL A   1      44.306  23.375  35.729  1.00  0.00    -0.200 F 
ENDBRANCH  55  78
ENDBRANCH  29  30
ENDBRANCH  22  24
ENDBRANCH  21  22
ENDBRANCH  20  21
ENDBRANCH   1  20
TORSDOF 15
ENDMDL
MODEL 2
REMARK VINA RESULT:     -11.8      5.780     11.952
REMARK SMILES Cc1ccc(C(=O)OCCOCCOC(=O)c2ccc(-c3c4nc(c(-c5c(F)c(F)c(F)c(F)c5F)c5ccc([nH]5)c(-c5c(F)c(F)c(F)c(F)c5F)c5nc(c(-c6c(F)c(F)c(F)c(F)c6F)c6ccc3[nH]6)C=C5)C=C4)cc2)cc1N1CC(C)C1
REMARK SMILES IDX 12 1 11 2 10 3 9 4 8 5 6 6 7 7 5 8 1 9 2 10 3 11 81 12 4 13
REMARK SMILES IDX 80 14 82 15 83 16 86 17 84 18 85 19 13 20 14 21 15 22 16 23
REMARK SMILES IDX 17 24 18 25 79 26 19 27 78 28 20 29 21 30 22 31 72 32 23 33
REMARK SMILES IDX 77 34 71 35 73 36 24 37 76 38 70 39 69 40 25 42 57 43 37 44
REMARK SMILES IDX 56 45 38 46 41 47 55 48 74 49 39 50 40 51 54 53 75 54 42 55
REMARK SMILES IDX 26 56 27 57 35 58 28 59 29 60 33 61 36 62 30 63 31 64 34 65
REMARK SMILES IDX 32 66 58 67 59 68 67 69 60 70 61 71 65 72 68 73 62 74 63 75
REMARK SMILES IDX 66 76 64 77 43 78 44 79 52 80 45 81 46 82 50 83 53 84 47 85
REMARK SMILES IDX 48 86 51 87 49 88
REMARK H PARENT 73 41 41 52
REMARK Flexibility Score: inf
ROOT
ATOM      1  C   UNL A   1      42.891  18.596  25.902  1.00  0.00     0.202 C 
ENDROOT
BRANCH   1   2
ATOM      2  O   UNL A   1      42.327  19.723  26.537  1.00  0.00    -0.374 OA
BRANCH   2   3
ATOM      3  C   UNL A   1      40.911  19.779  26.539  1.00  0.00     0.202 C 
BRANCH   3   4
ATOM      4  C   UNL A   1      40.584  21.213  26.293  1.00  0.00     0.261 C 
BRANCH   4   5
ATOM      5  O   UNL A   1      39.306  21.357  25.661  1.00  0.00    -0.460 OA
BRANCH   5   6
ATOM      6  C   UNL A   1      38.484  22.401  25.984  1.00  0.00     0.338 C 
ATOM      7  O   UNL A   1      38.761  23.440  26.531  1.00  0.00    -0.246 OA
BRANCH   6   8
ATOM      8  C   UNL A   1      37.178  22.084  25.364  1.00  0.00     0.062 A 
ATOM      9  C   UNL A   1      33.101  21.069  24.515  1.00  0.00     0.046 C 
ATOM     10  C   UNL A   1      34.521  21.482  24.778  1.00  0.00    -0.028 A 
ATOM     11  C   UNL A   1      35.491  20.459  24.873  1.00  0.00     0.006 A 
ATOM     12  C   UNL A   1      34.907  22.828  24.924  1.00  0.00     0.040 A 
ATOM     13  C   UNL A   1      36.818  20.755  25.173  1.00  0.00     0.016 A 
ATOM     14  C   UNL A   1      36.248  23.106  25.165  1.00  0.00     0.041 A 
BRANCH  12  15
ATOM     15  N   UNL A   1      33.976  23.891  24.920  1.00  0.00    -0.371 N 
ATOM     16  C   UNL A   1      34.046  25.116  24.170  1.00  0.00     0.121 C 
ATOM     17  C   UNL A   1      33.509  24.535  26.122  1.00  0.00     0.121 C 
ATOM     18  C   UNL A   1      33.689  25.892  25.436  1.00  0.00     0.025 C 
ATOM     19  C   UNL A   1      32.471  26.785  25.323  1.00  0.00     0.011 C 
ENDBRANCH  12  15
ENDBRANCH   6   8
ENDBRANCH   5   6
ENDBRANCH   4   5
ENDBRANCH   3   4
ENDBRANCH   2   3
ENDBRANCH   1   2
BRANCH   1  20
ATOM     20  C   UNL A   1      44.304  18.865  25.370  1.00  0.00     0.261 C 
BRANCH  20  21
ATOM     21  O   UNL A   1      44.304  20.077  24.581  1.00  0.00    -0.460 OA
BRANCH  21  22
ATOM     22  C   UNL A   1      45.117  21.085  25.011  1.00  0.00     0.338 C 
ATOM     23  O   UNL A   1      46.295  20.964  25.303  1.00  0.00    -0.246 OA
BRANCH  22  24
ATOM     24  C   UNL A   1      44.295  22.285  25.353  1.00  0.00     0.060 A 
ATOM     25  C   UNL A   1      44.126  23.326  24.416  1.00  0.00     0.016 A 
ATOM     26  C   UNL A   1      44.003  22.512  26.692  1.00  0.00     0.016 A 
ATOM     27  C   UNL A   1      43.828  24.629  24.849  1.00  0.00     0.010 A 
ATOM     28  C   UNL A   1      43.847  23.812  27.120  1.00  0.00     0.010 A 
ATOM     29  C   UNL A   1      43.786  24.888  26.215  1.00  0.00    -0.014 A 
BRANCH  29  30
ATOM     30  C   UNL A   1      43.797  26.207  26.864  1.00  0.00     0.031 A 
ATOM     31  C   UNL A   1      42.494  26.898  27.029  1.00  0.00     0.074 A 
ATOM     32  C   UNL A   1      44.862  26.603  27.609  1.00  0.00     0.049 A 
ATOM     33  N   UNL A   1      42.357  28.080  27.517  1.00  0.00    -0.248 NA
ATOM     34  C   UNL A   1      41.212  26.323  26.621  1.00  0.00     0.031 C 
ATOM     35  C   UNL A   1      44.860  27.471  28.792  1.00  0.00     0.029 A 
ATOM     36  N   UNL A   1      46.220  26.261  27.505  1.00  0.00    -0.354 N 
ATOM     37  C   UNL A   1      41.034  28.236  27.865  1.00  0.00     0.074 A 
ATOM     38  C   UNL A   1      40.348  27.201  27.138  1.00  0.00     0.031 C 
ATOM     39  C   UNL A   1      46.119  27.835  29.096  1.00  0.00     0.029 A 
ATOM     40  C   UNL A   1      46.975  27.319  28.043  1.00  0.00     0.049 A 
ATOM     41  H   UNL A   1      46.581  25.429  27.121  1.00  0.00     0.167 HD
ATOM     42  C   UNL A   1      40.738  29.125  28.858  1.00  0.00     0.037 A 
ATOM     43  C   UNL A   1      47.875  27.994  27.281  1.00  0.00     0.037 A 
ATOM     44  C   UNL A   1      41.951  29.881  29.229  1.00  0.00     0.049 A 
ATOM     45  C   UNL A   1      47.393  29.407  27.173  1.00  0.00     0.074 A 
ATOM     46  C   UNL A   1      42.769  29.879  30.346  1.00  0.00     0.029 A 
ATOM     47  N   UNL A   1      42.658  30.565  28.235  1.00  0.00    -0.354 N 
ATOM     48  N   UNL A   1      46.131  29.715  27.313  1.00  0.00    -0.248 NA
ATOM     49  C   UNL A   1      48.251  30.578  27.051  1.00  0.00     0.031 C 
ATOM     50  C   UNL A   1      44.004  30.497  29.987  1.00  0.00     0.029 A 
ATOM     51  C   UNL A   1      43.931  30.896  28.660  1.00  0.00     0.049 A 
ATOM     52  H   UNL A   1      42.296  30.782  27.346  1.00  0.00     0.167 HD
ATOM     53  C   UNL A   1      46.014  31.058  27.452  1.00  0.00     0.074 A 
ATOM     54  C   UNL A   1      47.352  31.569  27.207  1.00  0.00     0.031 C 
ATOM     55  C   UNL A   1      44.839  31.652  27.801  1.00  0.00     0.037 A 
BRANCH  42  56
ATOM     56  C   UNL A   1      39.447  29.177  29.673  1.00  0.00     0.064 A 
ATOM     57  C   UNL A   1      38.344  29.929  29.202  1.00  0.00     0.173 A 
ATOM     58  C   UNL A   1      39.228  28.590  30.940  1.00  0.00     0.173 A 
ATOM     59  F   UNL A   1      38.362  30.515  27.998  1.00  0.00    -0.203 F 
ATOM     60  C   UNL A   1      37.170  30.114  29.945  1.00  0.00     0.198 A 
ATOM     61  C   UNL A   1      38.049  28.762  31.676  1.00  0.00     0.198 A 
ATOM     62  F   UNL A   1      40.131  27.820  31.543  1.00  0.00    -0.203 F 
ATOM     63  F   UNL A   1      36.180  30.869  29.449  1.00  0.00    -0.200 F 
ATOM     64  C   UNL A   1      37.023  29.533  31.186  1.00  0.00     0.200 A 
ATOM     65  F   UNL A   1      37.926  28.170  32.875  1.00  0.00    -0.200 F 
ATOM     66  F   UNL A   1      35.902  29.706  31.899  1.00  0.00    -0.200 F 
ENDBRANCH  42  56
BRANCH  43  67
ATOM     67  C   UNL A   1      48.485  27.097  26.254  1.00  0.00     0.064 A 
ATOM     68  C   UNL A   1      48.002  27.250  24.931  1.00  0.00     0.173 A 
ATOM     69  C   UNL A   1      49.782  26.587  26.403  1.00  0.00     0.173 A 
ATOM     70  F   UNL A   1      46.775  27.755  24.721  1.00  0.00    -0.203 F 
ATOM     71  C   UNL A   1      48.836  27.074  23.826  1.00  0.00     0.198 A 
ATOM     72  C   UNL A   1      50.610  26.406  25.288  1.00  0.00     0.198 A 
ATOM     73  F   UNL A   1      50.305  26.419  27.626  1.00  0.00    -0.203 F 
ATOM     74  F   UNL A   1      48.403  27.411  22.600  1.00  0.00    -0.200 F 
ATOM     75  C   UNL A   1      50.154  26.699  24.010  1.00  0.00     0.200 A 
ATOM     76  F   UNL A   1      51.894  26.057  25.459  1.00  0.00    -0.200 F 
ATOM     77  F   UNL A   1      51.000  26.690  22.969  1.00  0.00    -0.200 F 
ENDBRANCH  43  67
BRANCH  55  78
ATOM     78  C   UNL A   1      44.498  33.057  27.413  1.00  0.00     0.064 A 
ATOM     79  C   UNL A   1      43.960  33.385  26.157  1.00  0.00     0.173 A 
ATOM     80  C   UNL A   1      44.506  34.092  28.373  1.00  0.00     0.173 A 
ATOM     81  F   UNL A   1      43.773  32.458  25.206  1.00  0.00    -0.203 F 
ATOM     82  C   UNL A   1      43.535  34.675  25.857  1.00  0.00     0.198 A 
ATOM     83  C   UNL A   1      44.011  35.360  28.092  1.00  0.00     0.198 A 
ATOM     84  F   UNL A   1      44.955  33.895  29.622  1.00  0.00    -0.203 F 
ATOM     85  F   UNL A   1      43.082  34.951  24.626  1.00  0.00    -0.200 F 
ATOM     86  C   UNL A   1      43.548  35.658  26.827  1.00  0.00     0.200 A 
ATOM     87  F   UNL A   1      43.962  36.281  29.063  1.00  0.00    -0.200 F 
ATOM     88  F   UNL A   1      43.093  36.885  26.549  1.00  0.00    -0.200 F 
ENDBRANCH  55  78
ENDBRANCH  29  30
ENDBRANCH  22  24
ENDBRANCH  21  22
ENDBRANCH  20  21
ENDBRANCH   1  20
TORSDOF 15
ENDMDL
MODEL 3
REMARK VINA RESULT:     -11.8      0.939      1.730
REMARK SMILES Cc1ccc(C(=O)OCCOCCOC(=O)c2ccc(-c3c4nc(c(-c5c(F)c(F)c(F)c(F)c5F)c5ccc([nH]5)c(-c5c(F)c(F)c(F)c(F)c5F)c5nc(c(-c6c(F)c(F)c(F)c(F)c6F)c6ccc3[nH]6)C=C5)C=C4)cc2)cc1N1CC(C)C1
REMARK SMILES IDX 12 1 11 2 10 3 9 4 8 5 6 6 7 7 5 8 1 9 2 10 3 11 81 12 4 13
REMARK SMILES IDX 80 14 82 15 83 16 86 17 84 18 85 19 13 20 14 21 15 22 16 23
REMARK SMILES IDX 17 24 18 25 79 26 19 27 78 28 20 29 21 30 22 31 72 32 23 33
REMARK SMILES IDX 77 34 71 35 73 36 24 37 76 38 70 39 69 40 25 42 57 43 37 44
REMARK SMILES IDX 56 45 38 46 41 47 55 48 74 49 39 50 40 51 54 53 75 54 42 55
REMARK SMILES IDX 26 56 27 57 35 58 28 59 29 60 33 61 36 62 30 63 31 64 34 65
REMARK SMILES IDX 32 66 58 67 59 68 67 69 60 70 61 71 65 72 68 73 62 74 63 75
REMARK SMILES IDX 66 76 64 77 43 78 44 79 52 80 45 81 46 82 50 83 53 84 47 85
REMARK SMILES IDX 48 86 51 87 49 88
REMARK H PARENT 73 41 41 52
REMARK Flexibility Score: inf
ROOT
ATOM      1  C   UNL A   1      32.970  35.920  29.075  1.00  0.00     0.202 C 
ENDROOT
BRANCH   1   2
ATOM      2  O   UNL A   1      32.667  34.543  29.032  1.00  0.00    -0.374 OA
BRANCH   2   3
ATOM      3  C   UNL A   1      32.988  33.884  27.818  1.00  0.00     0.202 C 
BRANCH   3   4
ATOM      4  C   UNL A   1      33.702  32.643  28.234  1.00  0.00     0.261 C 
BRANCH   4   5
ATOM      5  O   UNL A   1      33.336  31.528  27.410  1.00  0.00    -0.460 OA
BRANCH   5   6
ATOM      6  C   UNL A   1      34.179  30.460  27.271  1.00  0.00     0.338 C 
ATOM      7  O   UNL A   1      35.284  30.304  27.728  1.00  0.00    -0.246 OA
BRANCH   6   8
ATOM      8  C   UNL A   1      33.389  29.422  26.572  1.00  0.00     0.062 A 
ATOM      9  C   UNL A   1      30.354  26.783  25.087  1.00  0.00     0.046 C 
ATOM     10  C   UNL A   1      31.430  27.728  25.544  1.00  0.00    -0.028 A 
ATOM     11  C   UNL A   1      32.190  27.352  26.674  1.00  0.00     0.006 A 
ATOM     12  C   UNL A   1      31.700  28.945  24.891  1.00  0.00     0.040 A 
ATOM     13  C   UNL A   1      33.165  28.200  27.195  1.00  0.00     0.016 A 
ATOM     14  C   UNL A   1      32.718  29.750  25.393  1.00  0.00     0.041 A 
BRANCH  12  15
ATOM     15  N   UNL A   1      30.925  29.416  23.808  1.00  0.00    -0.371 N 
ATOM     16  C   UNL A   1      29.796  30.306  23.858  1.00  0.00     0.121 C 
ATOM     17  C   UNL A   1      30.325  28.546  22.829  1.00  0.00     0.121 C 
ATOM     18  C   UNL A   1      29.034  29.364  22.928  1.00  0.00     0.025 C 
ATOM     19  C   UNL A   1      28.509  29.997  21.656  1.00  0.00     0.011 C 
ENDBRANCH  12  15
ENDBRANCH   6   8
ENDBRANCH   5   6
ENDBRANCH   4   5
ENDBRANCH   3   4
ENDBRANCH   2   3
ENDBRANCH   1   2
BRANCH   1  20
ATOM     20  C   UNL A   1      33.081  36.454  30.508  1.00  0.00     0.261 C 
BRANCH  20  21
ATOM     21  O   UNL A   1      33.128  35.347  31.437  1.00  0.00    -0.460 OA
BRANCH  21  22
ATOM     22  C   UNL A   1      34.211  35.292  32.265  1.00  0.00     0.338 C 
ATOM     23  O   UNL A   1      34.701  36.243  32.851  1.00  0.00    -0.246 OA
BRANCH  22  24
ATOM     24  C   UNL A   1      34.887  33.966  32.123  1.00  0.00     0.060 A 
ATOM     25  C   UNL A   1      34.934  33.068  33.210  1.00  0.00     0.016 A 
ATOM     26  C   UNL A   1      35.746  33.788  31.046  1.00  0.00     0.016 A 
ATOM     27  C   UNL A   1      35.951  32.101  33.287  1.00  0.00     0.010 A 
ATOM     28  C   UNL A   1      36.816  32.933  31.193  1.00  0.00     0.010 A 
ATOM     29  C   UNL A   1      36.952  32.102  32.321  1.00  0.00    -0.014 A 
BRANCH  29  30
ATOM     30  C   UNL A   1      38.240  31.397  32.384  1.00  0.00     0.031 A 
ATOM     31  C   UNL A   1      38.385  30.165  31.569  1.00  0.00     0.074 A 
ATOM     32  C   UNL A   1      39.352  32.027  32.846  1.00  0.00     0.049 A 
ATOM     33  N   UNL A   1      39.427  29.410  31.575  1.00  0.00    -0.248 NA
ATOM     34  C   UNL A   1      37.339  29.645  30.688  1.00  0.00     0.031 C 
ATOM     35  C   UNL A   1      40.743  31.819  32.428  1.00  0.00     0.029 A 
ATOM     36  N   UNL A   1      39.483  33.065  33.782  1.00  0.00    -0.354 N 
ATOM     37  C   UNL A   1      39.366  28.609  30.457  1.00  0.00     0.074 A 
ATOM     38  C   UNL A   1      37.989  28.672  30.045  1.00  0.00     0.031 C 
ATOM     39  C   UNL A   1      41.576  32.437  33.285  1.00  0.00     0.029 A 
ATOM     40  C   UNL A   1      40.760  32.963  34.364  1.00  0.00     0.049 A 
ATOM     41  H   UNL A   1      38.803  33.744  33.993  1.00  0.00     0.167 HD
ATOM     42  C   UNL A   1      40.543  28.141  29.947  1.00  0.00     0.037 A 
ATOM     43  C   UNL A   1      40.905  32.772  35.701  1.00  0.00     0.037 A 
ATOM     44  C   UNL A   1      41.652  28.475  30.861  1.00  0.00     0.049 A 
ATOM     45  C   UNL A   1      41.552  31.435  35.891  1.00  0.00     0.074 A 
ATOM     46  C   UNL A   1      42.711  29.366  30.787  1.00  0.00     0.029 A 
ATOM     47  N   UNL A   1      41.575  28.079  32.200  1.00  0.00    -0.354 N 
ATOM     48  N   UNL A   1      41.454  30.492  34.992  1.00  0.00    -0.248 NA
ATOM     49  C   UNL A   1      42.453  31.088  36.981  1.00  0.00     0.031 C 
ATOM     50  C   UNL A   1      43.214  29.558  32.108  1.00  0.00     0.029 A 
ATOM     51  C   UNL A   1      42.480  28.771  32.983  1.00  0.00     0.049 A 
ATOM     52  H   UNL A   1      40.955  27.395  32.541  1.00  0.00     0.167 HD
ATOM     53  C   UNL A   1      42.349  29.514  35.275  1.00  0.00     0.074 A 
ATOM     54  C   UNL A   1      42.901  29.887  36.567  1.00  0.00     0.031 C 
ATOM     55  C   UNL A   1      42.607  28.494  34.412  1.00  0.00     0.037 A 
BRANCH  42  56
ATOM     56  C   UNL A   1      40.766  27.595  28.537  1.00  0.00     0.064 A 
ATOM     57  C   UNL A   1      40.342  26.283  28.212  1.00  0.00     0.173 A 
ATOM     58  C   UNL A   1      41.438  28.247  27.480  1.00  0.00     0.173 A 
ATOM     59  F   UNL A   1      39.648  25.538  29.082  1.00  0.00    -0.203 F 
ATOM     60  C   UNL A   1      40.611  25.675  26.978  1.00  0.00     0.198 A 
ATOM     61  C   UNL A   1      41.693  27.645  26.241  1.00  0.00     0.198 A 
ATOM     62  F   UNL A   1      41.889  29.496  27.573  1.00  0.00    -0.203 F 
ATOM     63  F   UNL A   1      40.209  24.416  26.754  1.00  0.00    -0.200 F 
ATOM     64  C   UNL A   1      41.290  26.355  25.991  1.00  0.00     0.200 A 
ATOM     65  F   UNL A   1      42.343  28.337  25.292  1.00  0.00    -0.200 F 
ATOM     66  F   UNL A   1      41.549  25.779  24.810  1.00  0.00    -0.200 F 
ENDBRANCH  42  56
BRANCH  43  67
ATOM     67  C   UNL A   1      39.794  33.427  36.458  1.00  0.00     0.064 A 
ATOM     68  C   UNL A   1      38.829  32.557  37.020  1.00  0.00     0.173 A 
ATOM     69  C   UNL A   1      39.965  34.673  37.076  1.00  0.00     0.173 A 
ATOM     70  F   UNL A   1      38.634  31.339  36.487  1.00  0.00    -0.203 F 
ATOM     71  C   UNL A   1      38.204  32.848  38.234  1.00  0.00     0.198 A 
ATOM     72  C   UNL A   1      39.328  34.961  38.291  1.00  0.00     0.198 A 
ATOM     73  F   UNL A   1      40.865  35.546  36.600  1.00  0.00    -0.203 F 
ATOM     74  F   UNL A   1      37.441  31.920  38.833  1.00  0.00    -0.200 F 
ATOM     75  C   UNL A   1      38.493  34.030  38.892  1.00  0.00     0.200 A 
ATOM     76  F   UNL A   1      39.615  36.098  38.942  1.00  0.00    -0.200 F 
ATOM     77  F   UNL A   1      38.025  34.239  40.131  1.00  0.00    -0.200 F 
ENDBRANCH  43  67
BRANCH  55  78
ATOM     78  C   UNL A   1      43.090  27.152  34.868  1.00  0.00     0.064 A 
ATOM     79  C   UNL A   1      42.230  26.053  35.029  1.00  0.00     0.173 A 
ATOM     80  C   UNL A   1      44.472  26.876  34.955  1.00  0.00     0.173 A 
ATOM     81  F   UNL A   1      40.907  26.159  34.836  1.00  0.00    -0.203 F 
ATOM     82  C   UNL A   1      42.712  24.784  35.335  1.00  0.00     0.198 A 
ATOM     83  C   UNL A   1      44.952  25.592  35.186  1.00  0.00     0.198 A 
ATOM     84  F   UNL A   1      45.397  27.831  34.778  1.00  0.00    -0.203 F 
ATOM     85  F   UNL A   1      41.847  23.780  35.534  1.00  0.00    -0.200 F 
ATOM     86  C   UNL A   1      44.072  24.551  35.400  1.00  0.00     0.200 A 
ATOM     87  F   UNL A   1      46.272  25.367  35.174  1.00  0.00    -0.200 F 
ATOM     88  F   UNL A   1      44.534  23.320  35.646  1.00  0.00    -0.200 F 
ENDBRANCH  55  78
ENDBRANCH  29  30
ENDBRANCH  22  24
ENDBRANCH  21  22
ENDBRANCH  20  21
ENDBRANCH   1  20
TORSDOF 15
ENDMDL
