MODEL 1
REMARK VINA RESULT:     -10.3      0.000      0.000
REMARK SMILES CC(C)(C(=O)OCCOCCOC(=O)c1ccc(-c2c3nc(c(-c4c(F)c(F)c(F)c(F)c4F)c4ccc([nH]4)c(-c4c(F)c(F)c(F)c(F)c4F)c4nc(c(-c5c(F)c(F)c(F)c(F)c5F)c5ccc2[nH]5)C=C4)C=C3)cc1)c1ccc(C(=O)CCCCl)cc1
REMARK SMILES IDX 7 1 6 2 4 3 5 4 2 5 1 6 3 7 78 8 79 9 89 10 80 11 88 12
REMARK SMILES IDX 81 13 82 14 83 15 84 16 85 17 86 18 87 19 8 20 9 21 10 22
REMARK SMILES IDX 11 23 12 24 13 25 14 26 15 27 16 28 77 29 17 30 76 31 18 32
REMARK SMILES IDX 19 33 20 34 70 35 21 36 75 37 69 38 71 39 22 40 74 41 68 42
REMARK SMILES IDX 67 43 23 45 55 46 35 47 54 48 36 49 39 50 53 51 72 52 37 53
REMARK SMILES IDX 38 54 52 56 73 57 40 58 24 59 25 60 33 61 26 62 27 63 31 64
REMARK SMILES IDX 34 65 28 66 29 67 32 68 30 69 56 70 57 71 65 72 58 73 59 74
REMARK SMILES IDX 63 75 66 76 60 77 61 78 64 79 62 80 41 81 42 82 50 83 43 84
REMARK SMILES IDX 44 85 48 86 51 87 45 88 46 89 49 90 47 91
REMARK H PARENT 71 44 39 55
REMARK Flexibility Score: inf
ROOT
ATOM      1  C   UNL A   1      32.801  29.502  25.262  1.00  0.00     0.261 C 
ENDROOT
BRANCH   1   2
ATOM      2  O   UNL A   1      32.184  28.810  24.167  1.00  0.00    -0.463 OA
BRANCH   2   3
ATOM      3  C   UNL A   1      33.024  28.041  23.421  1.00  0.00     0.316 C 
ATOM      4  O   UNL A   1      34.075  28.454  22.940  1.00  0.00    -0.251 OA
BRANCH   3   5
ATOM      5  C   UNL A   1      32.549  26.570  23.318  1.00  0.00     0.087 C 
ATOM      6  C   UNL A   1      31.164  26.399  23.982  1.00  0.00     0.028 C 
ATOM      7  C   UNL A   1      32.348  26.277  21.813  1.00  0.00     0.028 C 
BRANCH   5   8
ATOM      8  C   UNL A   1      33.625  25.599  23.860  1.00  0.00    -0.031 A 
ATOM      9  C   UNL A   1      34.135  25.671  25.168  1.00  0.00     0.005 A 
ATOM     10  C   UNL A   1      34.092  24.548  23.049  1.00  0.00     0.005 A 
ATOM     11  C   UNL A   1      35.015  24.696  25.659  1.00  0.00     0.012 A 
ATOM     12  C   UNL A   1      34.989  23.587  23.527  1.00  0.00     0.012 A 
ATOM     13  C   UNL A   1      35.409  23.623  24.854  1.00  0.00     0.018 A 
BRANCH  13  14
ATOM     14  C   UNL A   1      36.197  22.516  25.470  1.00  0.00     0.162 C 
ATOM     15  O   UNL A   1      37.338  22.743  25.870  1.00  0.00    -0.294 OA
BRANCH  14  16
ATOM     16  C   UNL A   1      35.552  21.155  25.686  1.00  0.00     0.082 C 
BRANCH  16  17
ATOM     17  C   UNL A   1      34.160  21.246  26.319  1.00  0.00     0.024 C 
BRANCH  17  18
ATOM     18  C   UNL A   1      32.975  20.990  25.389  1.00  0.00     0.110 C 
ATOM     19  Cl  UNL A   1      31.930  22.421  25.227  1.00  0.00    -0.127 Cl
ENDBRANCH  17  18
ENDBRANCH  16  17
ENDBRANCH  14  16
ENDBRANCH  13  14
ENDBRANCH   5   8
ENDBRANCH   3   5
ENDBRANCH   2   3
ENDBRANCH   1   2
BRANCH   1  20
ATOM     20  C   UNL A   1      31.776  29.863  26.340  1.00  0.00     0.202 C 
BRANCH  20  21
ATOM     21  O   UNL A   1      31.854  31.179  26.882  1.00  0.00    -0.374 OA
BRANCH  21  22
ATOM     22  C   UNL A   1      33.085  31.583  27.487  1.00  0.00     0.202 C 
BRANCH  22  23
ATOM     23  C   UNL A   1      33.446  33.073  27.413  1.00  0.00     0.261 C 
BRANCH  23  24
ATOM     24  O   UNL A   1      32.477  33.915  28.071  1.00  0.00    -0.460 OA
BRANCH  24  25
ATOM     25  C   UNL A   1      33.005  34.962  28.752  1.00  0.00     0.338 C 
ATOM     26  O   UNL A   1      32.553  36.095  28.840  1.00  0.00    -0.246 OA
BRANCH  25  27
ATOM     27  C   UNL A   1      34.154  34.523  29.563  1.00  0.00     0.060 A 
ATOM     28  C   UNL A   1      35.431  34.649  29.001  1.00  0.00     0.016 A 
ATOM     29  C   UNL A   1      33.980  33.890  30.795  1.00  0.00     0.016 A 
ATOM     30  C   UNL A   1      36.537  34.104  29.649  1.00  0.00     0.010 A 
ATOM     31  C   UNL A   1      35.091  33.331  31.439  1.00  0.00     0.010 A 
ATOM     32  C   UNL A   1      36.368  33.404  30.850  1.00  0.00    -0.014 A 
BRANCH  32  33
ATOM     33  C   UNL A   1      37.500  32.617  31.397  1.00  0.00     0.031 A 
ATOM     34  C   UNL A   1      38.031  32.958  32.762  1.00  0.00     0.074 A 
ATOM     35  C   UNL A   1      38.023  31.588  30.708  1.00  0.00     0.049 A 
ATOM     36  N   UNL A   1      39.018  32.417  33.431  1.00  0.00    -0.248 NA
ATOM     37  C   UNL A   1      37.354  34.055  33.473  1.00  0.00     0.031 C 
ATOM     38  C   UNL A   1      37.568  31.134  29.396  1.00  0.00     0.029 A 
ATOM     39  N   UNL A   1      39.056  30.741  31.020  1.00  0.00    -0.354 N 
ATOM     40  C   UNL A   1      39.083  33.107  34.634  1.00  0.00     0.074 A 
ATOM     41  C   UNL A   1      38.055  34.125  34.595  1.00  0.00     0.031 C 
ATOM     42  C   UNL A   1      38.327  30.095  29.009  1.00  0.00     0.029 A 
ATOM     43  C   UNL A   1      39.338  29.831  30.032  1.00  0.00     0.049 A 
ATOM     44  H   UNL A   1      39.550  30.782  31.872  1.00  0.00     0.167 HD
ATOM     45  C   UNL A   1      39.919  32.906  35.680  1.00  0.00     0.037 A 
ATOM     46  C   UNL A   1      40.312  28.904  29.955  1.00  0.00     0.037 A 
ATOM     47  C   UNL A   1      40.940  31.893  35.720  1.00  0.00     0.049 A 
ATOM     48  C   UNL A   1      41.275  28.745  31.105  1.00  0.00     0.074 A 
ATOM     49  C   UNL A   1      41.824  31.597  36.743  1.00  0.00     0.029 A 
ATOM     50  N   UNL A   1      41.217  31.013  34.685  1.00  0.00    -0.354 N 
ATOM     51  N   UNL A   1      41.314  29.387  32.248  1.00  0.00    -0.248 NA
ATOM     52  C   UNL A   1      42.328  27.731  30.952  1.00  0.00     0.031 C 
ATOM     53  C   UNL A   1      42.667  30.568  36.309  1.00  0.00     0.029 A 
ATOM     54  C   UNL A   1      42.277  30.191  35.034  1.00  0.00     0.049 A 
ATOM     55  H   UNL A   1      40.733  30.977  33.829  1.00  0.00     0.167 HD
ATOM     56  C   UNL A   1      42.374  28.838  32.959  1.00  0.00     0.074 A 
ATOM     57  C   UNL A   1      42.946  27.803  32.123  1.00  0.00     0.031 C 
ATOM     58  C   UNL A   1      42.831  29.161  34.193  1.00  0.00     0.037 A 
BRANCH  45  59
ATOM     59  C   UNL A   1      39.780  33.820  36.862  1.00  0.00     0.064 A 
ATOM     60  C   UNL A   1      40.454  35.048  36.926  1.00  0.00     0.173 A 
ATOM     61  C   UNL A   1      38.937  33.476  37.928  1.00  0.00     0.173 A 
ATOM     62  F   UNL A   1      41.284  35.415  35.937  1.00  0.00    -0.203 F 
ATOM     63  C   UNL A   1      40.306  35.889  38.026  1.00  0.00     0.198 A 
ATOM     64  C   UNL A   1      38.771  34.331  39.015  1.00  0.00     0.198 A 
ATOM     65  F   UNL A   1      38.267  32.314  37.913  1.00  0.00    -0.203 F 
ATOM     66  F   UNL A   1      40.992  37.039  38.086  1.00  0.00    -0.200 F 
ATOM     67  C   UNL A   1      39.460  35.533  39.066  1.00  0.00     0.200 A 
ATOM     68  F   UNL A   1      37.945  33.990  40.014  1.00  0.00    -0.200 F 
ATOM     69  F   UNL A   1      39.314  36.345  40.121  1.00  0.00    -0.200 F 
ENDBRANCH  45  59
BRANCH  46  70
ATOM     70  C   UNL A   1      40.439  28.060  28.739  1.00  0.00     0.064 A 
ATOM     71  C   UNL A   1      39.794  26.819  28.649  1.00  0.00     0.173 A 
ATOM     72  C   UNL A   1      41.221  28.472  27.651  1.00  0.00     0.173 A 
ATOM     73  F   UNL A   1      39.058  26.370  29.676  1.00  0.00    -0.203 F 
ATOM     74  C   UNL A   1      39.939  26.014  27.520  1.00  0.00     0.198 A 
ATOM     75  C   UNL A   1      41.344  27.679  26.512  1.00  0.00     0.198 A 
ATOM     76  F   UNL A   1      41.862  29.649  27.691  1.00  0.00    -0.203 F 
ATOM     77  F   UNL A   1      39.349  24.812  27.477  1.00  0.00    -0.200 F 
ATOM     78  C   UNL A   1      40.710  26.447  26.451  1.00  0.00     0.200 A 
ATOM     79  F   UNL A   1      42.081  28.105  25.478  1.00  0.00    -0.200 F 
ATOM     80  F   UNL A   1      40.848  25.674  25.365  1.00  0.00    -0.200 F 
ENDBRANCH  46  70
BRANCH  58  81
ATOM     81  C   UNL A   1      43.986  28.368  34.731  1.00  0.00     0.064 A 
ATOM     82  C   UNL A   1      45.312  28.796  34.565  1.00  0.00     0.173 A 
ATOM     83  C   UNL A   1      43.762  27.192  35.462  1.00  0.00     0.173 A 
ATOM     84  F   UNL A   1      45.579  29.906  33.861  1.00  0.00    -0.203 F 
ATOM     85  C   UNL A   1      46.371  28.062  35.093  1.00  0.00     0.198 A 
ATOM     86  C   UNL A   1      44.821  26.476  36.012  1.00  0.00     0.198 A 
ATOM     87  F   UNL A   1      42.512  26.746  35.656  1.00  0.00    -0.203 F 
ATOM     88  F   UNL A   1      47.632  28.466  34.886  1.00  0.00    -0.200 F 
ATOM     89  C   UNL A   1      46.125  26.908  35.822  1.00  0.00     0.200 A 
ATOM     90  F   UNL A   1      44.581  25.368  36.727  1.00  0.00    -0.200 F 
ATOM     91  F   UNL A   1      47.145  26.208  36.335  1.00  0.00    -0.200 F 
ENDBRANCH  58  81
ENDBRANCH  32  33
ENDBRANCH  25  27
ENDBRANCH  24  25
ENDBRANCH  23  24
ENDBRANCH  22  23
ENDBRANCH  21  22
ENDBRANCH  20  21
ENDBRANCH   1  20
TORSDOF 19
ENDMDL
MODEL 2
REMARK VINA RESULT:     -10.1      5.030     10.092
REMARK SMILES CC(C)(C(=O)OCCOCCOC(=O)c1ccc(-c2c3nc(c(-c4c(F)c(F)c(F)c(F)c4F)c4ccc([nH]4)c(-c4c(F)c(F)c(F)c(F)c4F)c4nc(c(-c5c(F)c(F)c(F)c(F)c5F)c5ccc2[nH]5)C=C4)C=C3)cc1)c1ccc(C(=O)CCCCl)cc1
REMARK SMILES IDX 7 1 6 2 4 3 5 4 2 5 1 6 3 7 78 8 79 9 89 10 80 11 88 12
REMARK SMILES IDX 81 13 82 14 83 15 84 16 85 17 86 18 87 19 8 20 9 21 10 22
REMARK SMILES IDX 11 23 12 24 13 25 14 26 15 27 16 28 77 29 17 30 76 31 18 32
REMARK SMILES IDX 19 33 20 34 70 35 21 36 75 37 69 38 71 39 22 40 74 41 68 42
REMARK SMILES IDX 67 43 23 45 55 46 35 47 54 48 36 49 39 50 53 51 72 52 37 53
REMARK SMILES IDX 38 54 52 56 73 57 40 58 24 59 25 60 33 61 26 62 27 63 31 64
REMARK SMILES IDX 34 65 28 66 29 67 32 68 30 69 56 70 57 71 65 72 58 73 59 74
REMARK SMILES IDX 63 75 66 76 60 77 61 78 64 79 62 80 41 81 42 82 50 83 43 84
REMARK SMILES IDX 44 85 48 86 51 87 45 88 46 89 49 90 47 91
REMARK H PARENT 71 44 39 55
REMARK Flexibility Score: inf
ROOT
ATOM      1  C   UNL A   1      41.828  22.232  27.720  1.00  0.00     0.261 C 
ENDROOT
BRANCH   1   2
ATOM      2  O   UNL A   1      40.901  23.255  28.108  1.00  0.00    -0.463 OA
BRANCH   2   3
ATOM      3  C   UNL A   1      41.379  24.528  28.035  1.00  0.00     0.316 C 
ATOM      4  O   UNL A   1      42.510  24.849  28.389  1.00  0.00    -0.251 OA
BRANCH   3   5
ATOM      5  C   UNL A   1      40.371  25.506  27.380  1.00  0.00     0.087 C 
ATOM      6  C   UNL A   1      40.731  25.742  25.895  1.00  0.00     0.028 C 
ATOM      7  C   UNL A   1      38.999  24.794  27.387  1.00  0.00     0.028 C 
BRANCH   5   8
ATOM      8  C   UNL A   1      40.245  26.809  28.205  1.00  0.00    -0.031 A 
ATOM      9  C   UNL A   1      40.221  26.828  29.611  1.00  0.00     0.005 A 
ATOM     10  C   UNL A   1      40.209  28.053  27.548  1.00  0.00     0.005 A 
ATOM     11  C   UNL A   1      40.233  28.038  30.321  1.00  0.00     0.012 A 
ATOM     12  C   UNL A   1      40.195  29.261  28.252  1.00  0.00     0.012 A 
ATOM     13  C   UNL A   1      40.267  29.260  29.642  1.00  0.00     0.018 A 
BRANCH  13  14
ATOM     14  C   UNL A   1      40.462  30.512  30.431  1.00  0.00     0.162 C 
ATOM     15  O   UNL A   1      41.234  31.371  30.009  1.00  0.00    -0.294 OA
BRANCH  14  16
ATOM     16  C   UNL A   1      39.638  30.754  31.686  1.00  0.00     0.082 C 
BRANCH  16  17
ATOM     17  C   UNL A   1      39.830  32.159  32.267  1.00  0.00     0.024 C 
BRANCH  17  18
ATOM     18  C   UNL A   1      38.794  33.206  31.863  1.00  0.00     0.110 C 
ATOM     19  Cl  UNL A   1      39.458  34.398  30.720  1.00  0.00    -0.127 Cl
ENDBRANCH  17  18
ENDBRANCH  16  17
ENDBRANCH  14  16
ENDBRANCH  13  14
ENDBRANCH   5   8
ENDBRANCH   3   5
ENDBRANCH   2   3
ENDBRANCH   1   2
BRANCH   1  20
ATOM     20  C   UNL A   1      41.562  21.756  26.289  1.00  0.00     0.202 C 
BRANCH  20  21
ATOM     21  O   UNL A   1      42.607  21.965  25.341  1.00  0.00    -0.374 OA
BRANCH  21  22
ATOM     22  C   UNL A   1      43.580  22.973  25.627  1.00  0.00     0.202 C 
BRANCH  22  23
ATOM     23  C   UNL A   1      44.442  23.466  24.456  1.00  0.00     0.261 C 
BRANCH  23  24
ATOM     24  O   UNL A   1      44.517  24.905  24.386  1.00  0.00    -0.460 OA
BRANCH  24  25
ATOM     25  C   UNL A   1      45.619  25.443  24.963  1.00  0.00     0.338 C 
ATOM     26  O   UNL A   1      46.786  25.133  24.770  1.00  0.00    -0.246 OA
BRANCH  25  27
ATOM     27  C   UNL A   1      45.257  26.627  25.762  1.00  0.00     0.060 A 
ATOM     28  C   UNL A   1      46.284  27.284  26.451  1.00  0.00     0.016 A 
ATOM     29  C   UNL A   1      43.927  27.014  25.933  1.00  0.00     0.016 A 
ATOM     30  C   UNL A   1      45.982  28.305  27.349  1.00  0.00     0.010 A 
ATOM     31  C   UNL A   1      43.623  28.032  26.846  1.00  0.00     0.010 A 
ATOM     32  C   UNL A   1      44.647  28.656  27.584  1.00  0.00    -0.014 A 
BRANCH  32  33
ATOM     33  C   UNL A   1      44.322  29.558  28.716  1.00  0.00     0.031 A 
ATOM     34  C   UNL A   1      44.049  28.960  30.069  1.00  0.00     0.074 A 
ATOM     35  C   UNL A   1      44.310  30.892  28.555  1.00  0.00     0.049 A 
ATOM     36  N   UNL A   1      43.732  29.552  31.193  1.00  0.00    -0.248 NA
ATOM     37  C   UNL A   1      44.151  27.495  30.169  1.00  0.00     0.031 C 
ATOM     38  C   UNL A   1      44.600  31.593  27.306  1.00  0.00     0.029 A 
ATOM     39  N   UNL A   1      44.040  31.896  29.451  1.00  0.00    -0.354 N 
ATOM     40  C   UNL A   1      43.594  28.536  32.129  1.00  0.00     0.074 A 
ATOM     41  C   UNL A   1      43.833  27.287  31.438  1.00  0.00     0.031 C 
ATOM     42  C   UNL A   1      44.481  32.915  27.512  1.00  0.00     0.029 A 
ATOM     43  C   UNL A   1      44.079  33.151  28.898  1.00  0.00     0.049 A 
ATOM     44  H   UNL A   1      43.835  31.731  30.401  1.00  0.00     0.167 HD
ATOM     45  C   UNL A   1      43.301  28.636  33.448  1.00  0.00     0.037 A 
ATOM     46  C   UNL A   1      43.803  34.351  29.445  1.00  0.00     0.037 A 
ATOM     47  C   UNL A   1      43.065  29.877  34.136  1.00  0.00     0.049 A 
ATOM     48  C   UNL A   1      43.411  34.430  30.899  1.00  0.00     0.074 A 
ATOM     49  C   UNL A   1      42.782  30.083  35.474  1.00  0.00     0.029 A 
ATOM     50  N   UNL A   1      43.080  31.126  33.533  1.00  0.00    -0.354 N 
ATOM     51  N   UNL A   1      43.306  33.467  31.782  1.00  0.00    -0.248 NA
ATOM     52  C   UNL A   1      43.103  35.765  31.431  1.00  0.00     0.031 C 
ATOM     53  C   UNL A   1      42.579  31.453  35.672  1.00  0.00     0.029 A 
ATOM     54  C   UNL A   1      42.783  32.105  34.467  1.00  0.00     0.049 A 
ATOM     55  H   UNL A   1      43.272  31.293  32.582  1.00  0.00     0.167 HD
ATOM     56  C   UNL A   1      42.947  34.079  32.976  1.00  0.00     0.074 A 
ATOM     57  C   UNL A   1      42.862  35.500  32.707  1.00  0.00     0.031 C 
ATOM     58  C   UNL A   1      42.709  33.516  34.185  1.00  0.00     0.037 A 
BRANCH  45  59
ATOM     59  C   UNL A   1      43.195  27.361  34.231  1.00  0.00     0.064 A 
ATOM     60  C   UNL A   1      41.952  26.789  34.542  1.00  0.00     0.173 A 
ATOM     61  C   UNL A   1      44.351  26.684  34.645  1.00  0.00     0.173 A 
ATOM     62  F   UNL A   1      40.816  27.406  34.180  1.00  0.00    -0.203 F 
ATOM     63  C   UNL A   1      41.872  25.599  35.262  1.00  0.00     0.198 A 
ATOM     64  C   UNL A   1      44.268  25.481  35.341  1.00  0.00     0.198 A 
ATOM     65  F   UNL A   1      45.564  27.187  34.369  1.00  0.00    -0.203 F 
ATOM     66  F   UNL A   1      40.673  25.094  35.585  1.00  0.00    -0.200 F 
ATOM     67  C   UNL A   1      43.029  24.944  35.655  1.00  0.00     0.200 A 
ATOM     68  F   UNL A   1      45.387  24.843  35.711  1.00  0.00    -0.200 F 
ATOM     69  F   UNL A   1      42.950  23.796  36.341  1.00  0.00    -0.200 F 
ENDBRANCH  45  59
BRANCH  46  70
ATOM     70  C   UNL A   1      43.872  35.579  28.611  1.00  0.00     0.064 A 
ATOM     71  C   UNL A   1      42.722  36.123  28.024  1.00  0.00     0.173 A 
ATOM     72  C   UNL A   1      45.095  36.223  28.372  1.00  0.00     0.173 A 
ATOM     73  F   UNL A   1      41.534  35.526  28.201  1.00  0.00    -0.203 F 
ATOM     74  C   UNL A   1      42.794  37.256  27.217  1.00  0.00     0.198 A 
ATOM     75  C   UNL A   1      45.162  37.372  27.587  1.00  0.00     0.198 A 
ATOM     76  F   UNL A   1      46.225  35.739  28.908  1.00  0.00    -0.203 F 
ATOM     77  F   UNL A   1      41.686  37.730  26.631  1.00  0.00    -0.200 F 
ATOM     78  C   UNL A   1      44.012  37.883  27.004  1.00  0.00     0.200 A 
ATOM     79  F   UNL A   1      46.340  37.979  27.392  1.00  0.00    -0.200 F 
ATOM     80  F   UNL A   1      44.082  38.974  26.229  1.00  0.00    -0.200 F 
ENDBRANCH  46  70
BRANCH  58  81
ATOM     81  C   UNL A   1      42.367  34.437  35.321  1.00  0.00     0.064 A 
ATOM     82  C   UNL A   1      41.039  34.786  35.609  1.00  0.00     0.173 A 
ATOM     83  C   UNL A   1      43.375  34.937  36.158  1.00  0.00     0.173 A 
ATOM     84  F   UNL A   1      40.041  34.344  34.829  1.00  0.00    -0.203 F 
ATOM     85  C   UNL A   1      40.737  35.620  36.682  1.00  0.00     0.198 A 
ATOM     86  C   UNL A   1      43.067  35.749  37.245  1.00  0.00     0.198 A 
ATOM     87  F   UNL A   1      44.660  34.626  35.929  1.00  0.00    -0.203 F 
ATOM     88  F   UNL A   1      39.466  35.975  36.914  1.00  0.00    -0.200 F 
ATOM     89  C   UNL A   1      41.749  36.095  37.503  1.00  0.00     0.200 A 
ATOM     90  F   UNL A   1      44.045  36.196  38.046  1.00  0.00    -0.200 F 
ATOM     91  F   UNL A   1      41.455  36.892  38.539  1.00  0.00    -0.200 F 
ENDBRANCH  58  81
ENDBRANCH  32  33
ENDBRANCH  25  27
ENDBRANCH  24  25
ENDBRANCH  23  24
ENDBRANCH  22  23
ENDBRANCH  21  22
ENDBRANCH  20  21
ENDBRANCH   1  20
TORSDOF 19
ENDMDL
MODEL 3
REMARK VINA RESULT:      -9.9      5.266      8.781
REMARK SMILES CC(C)(C(=O)OCCOCCOC(=O)c1ccc(-c2c3nc(c(-c4c(F)c(F)c(F)c(F)c4F)c4ccc([nH]4)c(-c4c(F)c(F)c(F)c(F)c4F)c4nc(c(-c5c(F)c(F)c(F)c(F)c5F)c5ccc2[nH]5)C=C4)C=C3)cc1)c1ccc(C(=O)CCCCl)cc1
REMARK SMILES IDX 7 1 6 2 4 3 5 4 2 5 1 6 3 7 78 8 79 9 89 10 80 11 88 12
REMARK SMILES IDX 81 13 82 14 83 15 84 16 85 17 86 18 87 19 8 20 9 21 10 22
REMARK SMILES IDX 11 23 12 24 13 25 14 26 15 27 16 28 77 29 17 30 76 31 18 32
REMARK SMILES IDX 19 33 20 34 70 35 21 36 75 37 69 38 71 39 22 40 74 41 68 42
REMARK SMILES IDX 67 43 23 45 55 46 35 47 54 48 36 49 39 50 53 51 72 52 37 53
REMARK SMILES IDX 38 54 52 56 73 57 40 58 24 59 25 60 33 61 26 62 27 63 31 64
REMARK SMILES IDX 34 65 28 66 29 67 32 68 30 69 56 70 57 71 65 72 58 73 59 74
REMARK SMILES IDX 63 75 66 76 60 77 61 78 64 79 62 80 41 81 42 82 50 83 43 84
REMARK SMILES IDX 44 85 48 86 51 87 45 88 46 89 49 90 47 91
REMARK H PARENT 71 44 39 55
REMARK Flexibility Score: inf
ROOT
ATOM      1  C   UNL A   1      36.222  32.946  30.086  1.00  0.00     0.261 C 
ENDROOT
BRANCH   1   2
ATOM      2  O   UNL A   1      36.864  32.208  29.038  1.00  0.00    -0.463 OA
BRANCH   2   3
ATOM      3  C   UNL A   1      37.921  31.444  29.431  1.00  0.00     0.316 C 
ATOM      4  O   UNL A   1      38.881  31.886  30.056  1.00  0.00    -0.251 OA
BRANCH   3   5
ATOM      5  C   UNL A   1      37.738  29.947  29.077  1.00  0.00     0.087 C 
ATOM      6  C   UNL A   1      36.840  29.248  30.124  1.00  0.00     0.028 C 
ATOM      7  C   UNL A   1      36.962  29.902  27.741  1.00  0.00     0.028 C 
BRANCH   5   8
ATOM      8  C   UNL A   1      39.106  29.255  28.867  1.00  0.00    -0.031 A 
ATOM      9  C   UNL A   1      39.911  29.475  27.736  1.00  0.00     0.005 A 
ATOM     10  C   UNL A   1      39.620  28.404  29.863  1.00  0.00     0.005 A 
ATOM     11  C   UNL A   1      41.199  28.926  27.644  1.00  0.00     0.012 A 
ATOM     12  C   UNL A   1      40.893  27.835  29.764  1.00  0.00     0.012 A 
ATOM     13  C   UNL A   1      41.713  28.140  28.681  1.00  0.00     0.018 A 
BRANCH  13  14
ATOM     14  C   UNL A   1      43.146  27.728  28.625  1.00  0.00     0.162 C 
ATOM     15  O   UNL A   1      43.677  27.269  29.635  1.00  0.00    -0.294 OA
BRANCH  14  16
ATOM     16  C   UNL A   1      43.902  27.789  27.306  1.00  0.00     0.082 C 
BRANCH  16  17
ATOM     17  C   UNL A   1      45.116  26.855  27.269  1.00  0.00     0.024 C 
BRANCH  17  18
ATOM     18  C   UNL A   1      44.883  25.465  26.677  1.00  0.00     0.110 C 
ATOM     19  Cl  UNL A   1      44.044  25.537  25.109  1.00  0.00    -0.127 Cl
ENDBRANCH  17  18
ENDBRANCH  16  17
ENDBRANCH  14  16
ENDBRANCH  13  14
ENDBRANCH   5   8
ENDBRANCH   3   5
ENDBRANCH   2   3
ENDBRANCH   1   2
BRANCH   1  20
ATOM     20  C   UNL A   1      34.821  32.397  30.374  1.00  0.00     0.202 C 
BRANCH  20  21
ATOM     21  O   UNL A   1      34.438  32.307  31.744  1.00  0.00    -0.374 OA
BRANCH  21  22
ATOM     22  C   UNL A   1      34.665  33.444  32.580  1.00  0.00     0.202 C 
BRANCH  22  23
ATOM     23  C   UNL A   1      35.518  33.230  33.839  1.00  0.00     0.261 C 
BRANCH  23  24
ATOM     24  O   UNL A   1      36.554  32.244  33.649  1.00  0.00    -0.460 OA
BRANCH  24  25
ATOM     25  C   UNL A   1      37.393  32.095  34.703  1.00  0.00     0.338 C 
ATOM     26  O   UNL A   1      37.181  32.392  35.871  1.00  0.00    -0.246 OA
BRANCH  25  27
ATOM     27  C   UNL A   1      38.590  31.334  34.305  1.00  0.00     0.060 A 
ATOM     28  C   UNL A   1      39.820  31.729  34.848  1.00  0.00     0.016 A 
ATOM     29  C   UNL A   1      38.532  30.335  33.332  1.00  0.00     0.016 A 
ATOM     30  C   UNL A   1      41.003  31.156  34.387  1.00  0.00     0.010 A 
ATOM     31  C   UNL A   1      39.723  29.771  32.860  1.00  0.00     0.010 A 
ATOM     32  C   UNL A   1      40.965  30.206  33.360  1.00  0.00    -0.014 A 
BRANCH  32  33
ATOM     33  C   UNL A   1      42.231  29.793  32.706  1.00  0.00     0.031 A 
ATOM     34  C   UNL A   1      42.992  28.623  33.267  1.00  0.00     0.074 A 
ATOM     35  C   UNL A   1      42.678  30.422  31.606  1.00  0.00     0.049 A 
ATOM     36  N   UNL A   1      44.124  28.098  32.869  1.00  0.00    -0.248 NA
ATOM     37  C   UNL A   1      42.395  27.952  34.433  1.00  0.00     0.031 C 
ATOM     38  C   UNL A   1      42.008  31.538  30.943  1.00  0.00     0.029 A 
ATOM     39  N   UNL A   1      43.805  30.208  30.853  1.00  0.00    -0.354 N 
ATOM     40  C   UNL A   1      44.375  27.041  33.735  1.00  0.00     0.074 A 
ATOM     41  C   UNL A   1      43.294  27.015  34.697  1.00  0.00     0.031 C 
ATOM     42  C   UNL A   1      42.744  31.921  29.886  1.00  0.00     0.029 A 
ATOM     43  C   UNL A   1      43.950  31.096  29.816  1.00  0.00     0.049 A 
ATOM     44  H   UNL A   1      44.450  29.488  31.040  1.00  0.00     0.167 HD
ATOM     45  C   UNL A   1      45.409  26.167  33.723  1.00  0.00     0.037 A 
ATOM     46  C   UNL A   1      44.950  31.236  28.924  1.00  0.00     0.037 A 
ATOM     47  C   UNL A   1      46.483  26.191  32.767  1.00  0.00     0.049 A 
ATOM     48  C   UNL A   1      46.125  30.293  28.976  1.00  0.00     0.074 A 
ATOM     49  C   UNL A   1      47.565  25.335  32.660  1.00  0.00     0.029 A 
ATOM     50  N   UNL A   1      46.612  27.128  31.751  1.00  0.00    -0.354 N 
ATOM     51  N   UNL A   1      46.342  29.282  29.782  1.00  0.00    -0.248 NA
ATOM     52  C   UNL A   1      47.193  30.511  27.989  1.00  0.00     0.031 C 
ATOM     53  C   UNL A   1      48.374  25.783  31.609  1.00  0.00     0.029 A 
ATOM     54  C   UNL A   1      47.770  26.887  31.031  1.00  0.00     0.049 A 
ATOM     55  H   UNL A   1      45.974  27.855  31.570  1.00  0.00     0.167 HD
ATOM     56  C   UNL A   1      47.553  28.730  29.386  1.00  0.00     0.074 A 
ATOM     57  C   UNL A   1      48.020  29.510  28.259  1.00  0.00     0.031 C 
ATOM     58  C   UNL A   1      48.218  27.670  29.907  1.00  0.00     0.037 A 
BRANCH  45  59
ATOM     59  C   UNL A   1      45.442  25.121  34.799  1.00  0.00     0.064 A 
ATOM     60  C   UNL A   1      45.958  25.392  36.075  1.00  0.00     0.173 A 
ATOM     61  C   UNL A   1      44.920  23.842  34.559  1.00  0.00     0.173 A 
ATOM     62  F   UNL A   1      46.482  26.597  36.349  1.00  0.00    -0.203 F 
ATOM     63  C   UNL A   1      45.971  24.412  37.064  1.00  0.00     0.198 A 
ATOM     64  C   UNL A   1      44.911  22.872  35.559  1.00  0.00     0.198 A 
ATOM     65  F   UNL A   1      44.412  23.533  33.357  1.00  0.00    -0.203 F 
ATOM     66  F   UNL A   1      46.507  24.681  38.263  1.00  0.00    -0.200 F 
ATOM     67  C   UNL A   1      45.442  23.156  36.807  1.00  0.00     0.200 A 
ATOM     68  F   UNL A   1      44.390  21.662  35.312  1.00  0.00    -0.200 F 
ATOM     69  F   UNL A   1      45.451  22.217  37.762  1.00  0.00    -0.200 F 
ENDBRANCH  45  59
BRANCH  46  70
ATOM     70  C   UNL A   1      44.893  32.322  27.912  1.00  0.00     0.064 A 
ATOM     71  C   UNL A   1      44.205  32.152  26.704  1.00  0.00     0.173 A 
ATOM     72  C   UNL A   1      45.543  33.546  28.128  1.00  0.00     0.173 A 
ATOM     73  F   UNL A   1      43.592  30.988  26.440  1.00  0.00    -0.203 F 
ATOM     74  C   UNL A   1      44.180  33.160  25.742  1.00  0.00     0.198 A 
ATOM     75  C   UNL A   1      45.495  34.564  27.178  1.00  0.00     0.198 A 
ATOM     76  F   UNL A   1      46.219  33.757  29.267  1.00  0.00    -0.203 F 
ATOM     77  F   UNL A   1      43.552  32.956  24.576  1.00  0.00    -0.200 F 
ATOM     78  C   UNL A   1      44.820  34.367  25.982  1.00  0.00     0.200 A 
ATOM     79  F   UNL A   1      46.107  35.731  27.418  1.00  0.00    -0.200 F 
ATOM     80  F   UNL A   1      44.795  35.337  25.059  1.00  0.00    -0.200 F 
ENDBRANCH  46  70
BRANCH  58  81
ATOM     81  C   UNL A   1      49.505  27.269  29.247  1.00  0.00     0.064 A 
ATOM     82  C   UNL A   1      50.743  27.758  29.693  1.00  0.00     0.173 A 
ATOM     83  C   UNL A   1      49.505  26.350  28.187  1.00  0.00     0.173 A 
ATOM     84  F   UNL A   1      50.795  28.650  30.694  1.00  0.00    -0.203 F 
ATOM     85  C   UNL A   1      51.930  27.356  29.086  1.00  0.00     0.198 A 
ATOM     86  C   UNL A   1      50.695  25.930  27.602  1.00  0.00     0.198 A 
ATOM     87  F   UNL A   1      48.348  25.848  27.730  1.00  0.00    -0.203 F 
ATOM     88  F   UNL A   1      53.097  27.867  29.500  1.00  0.00    -0.200 F 
ATOM     89  C   UNL A   1      51.906  26.438  28.047  1.00  0.00     0.200 A 
ATOM     90  F   UNL A   1      50.671  25.033  26.606  1.00  0.00    -0.200 F 
ATOM     91  F   UNL A   1      53.050  26.047  27.470  1.00  0.00    -0.200 F 
ENDBRANCH  58  81
ENDBRANCH  32  33
ENDBRANCH  25  27
ENDBRANCH  24  25
ENDBRANCH  23  24
ENDBRANCH  22  23
ENDBRANCH  21  22
ENDBRANCH  20  21
ENDBRANCH   1  20
TORSDOF 19
ENDMDL
