MODEL 1
REMARK VINA RESULT:     -10.7      0.000      0.000
REMARK SMILES CCc1ccc(C(=O)N[C@H](C(=O)OCCOCCOC(=O)c2ccc(-c3c4nc(c(-c5c(F)c(F)c(F)c(F)c5F)c5ccc([nH]5)c(-c5c(F)c(F)c(F)c(F)c5F)c5nc(c(-c6c(F)c(F)c(F)c(F)c6F)c6ccc3[nH]6)C=C5)C=C4)cc2)[C@H](C)CC)o1
REMARK SMILES IDX 15 1 14 2 13 3 11 4 12 5 10 6 9 7 7 8 8 9 6 11 3 12 4 13
REMARK SMILES IDX 89 14 5 15 2 16 1 17 85 18 86 19 87 20 88 21 16 22 17 23
REMARK SMILES IDX 18 24 19 25 20 26 21 27 22 28 23 29 84 30 24 31 83 32 25 33
REMARK SMILES IDX 26 34 27 35 77 36 28 37 82 38 76 39 78 40 29 41 81 42 75 43
REMARK SMILES IDX 74 44 30 46 62 47 42 48 61 49 43 50 46 51 60 52 79 53 44 54
REMARK SMILES IDX 45 55 59 57 80 58 47 59 31 60 32 61 40 62 33 63 34 64 38 65
REMARK SMILES IDX 41 66 35 67 36 68 39 69 37 70 63 71 64 72 72 73 65 74 66 75
REMARK SMILES IDX 70 76 73 77 67 78 68 79 71 80 69 81 48 82 49 83 57 84 50 85
REMARK SMILES IDX 51 86 55 87 58 88 52 89 53 90 56 91 54 92
REMARK H PARENT 9 10 78 45 46 56
REMARK Flexibility Score: inf
ROOT
ATOM      1  C   UNL A   1      32.895  29.574  26.485  1.00  0.00     0.202 C 
ENDROOT
BRANCH   1   2
ATOM      2  C   UNL A   1      32.764  28.050  26.580  1.00  0.00     0.261 C 
BRANCH   2   3
ATOM      3  O   UNL A   1      31.433  27.536  26.479  1.00  0.00    -0.462 OA
BRANCH   3   4
ATOM      4  C   UNL A   1      31.092  27.097  25.229  1.00  0.00     0.329 C 
ATOM      5  O   UNL A   1      30.743  27.823  24.308  1.00  0.00    -0.250 OA
BRANCH   4   6
ATOM      6  C   UNL A   1      31.320  25.578  25.096  1.00  0.00     0.195 C 
BRANCH   6   7
ATOM      7  N   UNL A   1      30.585  24.722  26.030  1.00  0.00    -0.336 N 
ATOM      8  C   UNL A   1      30.936  23.574  26.710  1.00  0.00     0.287 C 
ATOM      9  O   UNL A   1      30.071  23.123  27.465  1.00  0.00    -0.266 OA
ATOM     10  H   UNL A   1      29.665  25.023  26.206  1.00  0.00     0.164 HD
BRANCH   8  11
ATOM     11  C   UNL A   1      32.206  22.903  26.485  1.00  0.00     0.191 A 
ATOM     12  C   UNL A   1      33.456  21.311  25.578  1.00  0.00     0.104 A 
ATOM     13  C   UNL A   1      34.321  22.140  26.250  1.00  0.00     0.046 A 
ATOM     14  O   UNL A   1      32.176  21.750  25.733  1.00  0.00    -0.456 OA
ATOM     15  C   UNL A   1      33.520  23.139  26.849  1.00  0.00     0.056 A 
BRANCH  12  16
ATOM     16  C   UNL A   1      33.664  20.077  24.780  1.00  0.00     0.072 C 
ATOM     17  C   UNL A   1      32.549  19.829  23.779  1.00  0.00     0.012 C 
ENDBRANCH  12  16
ENDBRANCH   8  11
ENDBRANCH   6   7
BRANCH   6  18
ATOM     18  C   UNL A   1      31.417  25.070  23.622  1.00  0.00     0.019 C 
ATOM     19  C   UNL A   1      30.441  23.946  23.254  1.00  0.00     0.010 C 
BRANCH  18  20
ATOM     20  C   UNL A   1      32.870  24.664  23.264  1.00  0.00     0.002 C 
ATOM     21  C   UNL A   1      33.732  25.869  22.889  1.00  0.00     0.004 C 
ENDBRANCH  18  20
ENDBRANCH   6  18
ENDBRANCH   4   6
ENDBRANCH   3   4
ENDBRANCH   2   3
ENDBRANCH   1   2
BRANCH   1  22
ATOM     22  O   UNL A   1      31.902  30.376  27.104  1.00  0.00    -0.374 OA
BRANCH  22  23
ATOM     23  C   UNL A   1      31.461  31.556  26.433  1.00  0.00     0.202 C 
BRANCH  23  24
ATOM     24  C   UNL A   1      31.987  32.898  26.949  1.00  0.00     0.261 C 
BRANCH  24  25
ATOM     25  O   UNL A   1      32.896  32.728  28.056  1.00  0.00    -0.460 OA
BRANCH  25  26
ATOM     26  C   UNL A   1      33.960  33.562  28.037  1.00  0.00     0.338 C 
ATOM     27  O   UNL A   1      33.948  34.784  28.015  1.00  0.00    -0.246 OA
BRANCH  26  28
ATOM     28  C   UNL A   1      35.215  32.812  28.195  1.00  0.00     0.060 A 
ATOM     29  C   UNL A   1      35.124  31.431  28.414  1.00  0.00     0.016 A 
ATOM     30  C   UNL A   1      36.434  33.479  28.326  1.00  0.00     0.016 A 
ATOM     31  C   UNL A   1      36.242  30.723  28.843  1.00  0.00     0.010 A 
ATOM     32  C   UNL A   1      37.554  32.768  28.766  1.00  0.00     0.010 A 
ATOM     33  C   UNL A   1      37.446  31.400  29.079  1.00  0.00    -0.014 A 
BRANCH  33  34
ATOM     34  C   UNL A   1      38.518  30.718  29.841  1.00  0.00     0.031 A 
ATOM     35  C   UNL A   1      38.711  31.066  31.292  1.00  0.00     0.074 A 
ATOM     36  C   UNL A   1      39.284  29.779  29.261  1.00  0.00     0.049 A 
ATOM     37  N   UNL A   1      39.581  30.602  32.151  1.00  0.00    -0.248 NA
ATOM     38  C   UNL A   1      37.799  32.079  31.848  1.00  0.00     0.031 C 
ATOM     39  C   UNL A   1      39.175  29.343  27.872  1.00  0.00     0.029 A 
ATOM     40  N   UNL A   1      40.312  29.031  29.776  1.00  0.00    -0.354 N 
ATOM     41  C   UNL A   1      39.328  31.269  33.343  1.00  0.00     0.074 A 
ATOM     42  C   UNL A   1      38.240  32.188  33.092  1.00  0.00     0.031 C 
ATOM     43  C   UNL A   1      40.118  28.414  27.636  1.00  0.00     0.029 A 
ATOM     44  C   UNL A   1      40.903  28.207  28.852  1.00  0.00     0.049 A 
ATOM     45  H   UNL A   1      40.598  29.081  30.717  1.00  0.00     0.167 HD
ATOM     46  C   UNL A   1      39.942  31.121  34.541  1.00  0.00     0.037 A 
ATOM     47  C   UNL A   1      41.970  27.395  28.974  1.00  0.00     0.037 A 
ATOM     48  C   UNL A   1      41.020  30.202  34.792  1.00  0.00     0.049 A 
ATOM     49  C   UNL A   1      42.658  27.271  30.307  1.00  0.00     0.074 A 
ATOM     50  C   UNL A   1      41.685  29.950  35.979  1.00  0.00     0.029 A 
ATOM     51  N   UNL A   1      41.598  29.388  33.828  1.00  0.00    -0.354 N 
ATOM     52  N   UNL A   1      42.385  27.871  31.440  1.00  0.00    -0.248 NA
ATOM     53  C   UNL A   1      43.799  26.346  30.379  1.00  0.00     0.031 C 
ATOM     54  C   UNL A   1      42.694  29.016  35.724  1.00  0.00     0.029 A 
ATOM     55  C   UNL A   1      42.629  28.652  34.389  1.00  0.00     0.049 A 
ATOM     56  H   UNL A   1      41.317  29.341  32.886  1.00  0.00     0.167 HD
ATOM     57  C   UNL A   1      43.304  27.387  32.363  1.00  0.00     0.074 A 
ATOM     58  C   UNL A   1      44.135  26.431  31.660  1.00  0.00     0.031 C 
ATOM     59  C   UNL A   1      43.447  27.706  33.672  1.00  0.00     0.037 A 
BRANCH  46  60
ATOM     60  C   UNL A   1      39.475  31.996  35.667  1.00  0.00     0.064 A 
ATOM     61  C   UNL A   1      39.988  33.287  35.860  1.00  0.00     0.173 A 
ATOM     62  C   UNL A   1      38.490  31.542  36.557  1.00  0.00     0.173 A 
ATOM     63  F   UNL A   1      40.943  33.763  35.046  1.00  0.00    -0.203 F 
ATOM     64  C   UNL A   1      39.553  34.080  36.918  1.00  0.00     0.198 A 
ATOM     65  C   UNL A   1      38.038  32.346  37.599  1.00  0.00     0.198 A 
ATOM     66  F   UNL A   1      37.965  30.316  36.415  1.00  0.00    -0.203 F 
ATOM     67  F   UNL A   1      40.091  35.292  37.112  1.00  0.00    -0.200 F 
ATOM     68  C   UNL A   1      38.576  33.611  37.784  1.00  0.00     0.200 A 
ATOM     69  F   UNL A   1      37.089  31.895  38.429  1.00  0.00    -0.200 F 
ATOM     70  F   UNL A   1      38.157  34.375  38.802  1.00  0.00    -0.200 F 
ENDBRANCH  46  60
BRANCH  47  71
ATOM     71  C   UNL A   1      42.453  26.642  27.790  1.00  0.00     0.064 A 
ATOM     72  C   UNL A   1      41.977  25.357  27.503  1.00  0.00     0.173 A 
ATOM     73  C   UNL A   1      43.397  27.202  26.916  1.00  0.00     0.173 A 
ATOM     74  F   UNL A   1      41.092  24.771  28.324  1.00  0.00    -0.203 F 
ATOM     75  C   UNL A   1      42.433  24.655  26.389  1.00  0.00     0.198 A 
ATOM     76  C   UNL A   1      43.835  26.510  25.791  1.00  0.00     0.198 A 
ATOM     77  F   UNL A   1      43.884  28.429  27.152  1.00  0.00    -0.203 F 
ATOM     78  F   UNL A   1      41.988  23.413  26.154  1.00  0.00    -0.200 F 
ATOM     79  C   UNL A   1      43.357  25.234  25.531  1.00  0.00     0.200 A 
ATOM     80  F   UNL A   1      44.720  27.076  24.960  1.00  0.00    -0.200 F 
ATOM     81  F   UNL A   1      43.789  24.561  24.456  1.00  0.00    -0.200 F 
ENDBRANCH  47  71
BRANCH  59  82
ATOM     82  C   UNL A   1      44.529  27.001  34.437  1.00  0.00     0.064 A 
ATOM     83  C   UNL A   1      44.302  25.760  35.051  1.00  0.00     0.173 A 
ATOM     84  C   UNL A   1      45.816  27.552  34.520  1.00  0.00     0.173 A 
ATOM     85  F   UNL A   1      43.084  25.200  35.011  1.00  0.00    -0.203 F 
ATOM     86  C   UNL A   1      45.321  25.108  35.740  1.00  0.00     0.198 A 
ATOM     87  C   UNL A   1      46.838  26.884  35.188  1.00  0.00     0.198 A 
ATOM     88  F   UNL A   1      46.085  28.733  33.943  1.00  0.00    -0.203 F 
ATOM     89  F   UNL A   1      45.072  23.943  36.356  1.00  0.00    -0.200 F 
ATOM     90  C   UNL A   1      46.589  25.666  35.803  1.00  0.00     0.200 A 
ATOM     91  F   UNL A   1      48.066  27.420  35.239  1.00  0.00    -0.200 F 
ATOM     92  F   UNL A   1      47.569  25.034  36.463  1.00  0.00    -0.200 F 
ENDBRANCH  59  82
ENDBRANCH  33  34
ENDBRANCH  26  28
ENDBRANCH  25  26
ENDBRANCH  24  25
ENDBRANCH  23  24
ENDBRANCH  22  23
ENDBRANCH   1  22
TORSDOF 19
ENDMDL
MODEL 2
REMARK VINA RESULT:     -10.5      1.506      2.030
REMARK SMILES CCc1ccc(C(=O)N[C@H](C(=O)OCCOCCOC(=O)c2ccc(-c3c4nc(c(-c5c(F)c(F)c(F)c(F)c5F)c5ccc([nH]5)c(-c5c(F)c(F)c(F)c(F)c5F)c5nc(c(-c6c(F)c(F)c(F)c(F)c6F)c6ccc3[nH]6)C=C5)C=C4)cc2)[C@H](C)CC)o1
REMARK SMILES IDX 15 1 14 2 13 3 11 4 12 5 10 6 9 7 7 8 8 9 6 11 3 12 4 13
REMARK SMILES IDX 89 14 5 15 2 16 1 17 85 18 86 19 87 20 88 21 16 22 17 23
REMARK SMILES IDX 18 24 19 25 20 26 21 27 22 28 23 29 84 30 24 31 83 32 25 33
REMARK SMILES IDX 26 34 27 35 77 36 28 37 82 38 76 39 78 40 29 41 81 42 75 43
REMARK SMILES IDX 74 44 30 46 62 47 42 48 61 49 43 50 46 51 60 52 79 53 44 54
REMARK SMILES IDX 45 55 59 57 80 58 47 59 31 60 32 61 40 62 33 63 34 64 38 65
REMARK SMILES IDX 41 66 35 67 36 68 39 69 37 70 63 71 64 72 72 73 65 74 66 75
REMARK SMILES IDX 70 76 73 77 67 78 68 79 71 80 69 81 48 82 49 83 57 84 50 85
REMARK SMILES IDX 51 86 55 87 58 88 52 89 53 90 56 91 54 92
REMARK H PARENT 9 10 78 45 46 56
REMARK Flexibility Score: inf
ROOT
ATOM      1  C   UNL A   1      32.117  29.836  25.657  1.00  0.00     0.202 C 
ENDROOT
BRANCH   1   2
ATOM      2  C   UNL A   1      33.505  29.280  25.321  1.00  0.00     0.261 C 
BRANCH   2   3
ATOM      3  O   UNL A   1      33.686  28.839  23.973  1.00  0.00    -0.462 OA
BRANCH   3   4
ATOM      4  C   UNL A   1      33.482  27.499  23.786  1.00  0.00     0.329 C 
ATOM      5  O   UNL A   1      34.104  26.615  24.359  1.00  0.00    -0.250 OA
BRANCH   4   6
ATOM      6  C   UNL A   1      32.284  27.248  22.848  1.00  0.00     0.195 C 
BRANCH   6   7
ATOM      7  N   UNL A   1      32.591  26.674  21.536  1.00  0.00    -0.336 N 
ATOM      8  C   UNL A   1      32.856  25.384  21.126  1.00  0.00     0.287 C 
ATOM      9  O   UNL A   1      33.035  25.243  19.913  1.00  0.00    -0.266 OA
ATOM     10  H   UNL A   1      32.614  27.336  20.808  1.00  0.00     0.164 HD
BRANCH   8  11
ATOM     11  C   UNL A   1      32.993  24.288  22.070  1.00  0.00     0.191 A 
ATOM     12  C   UNL A   1      34.189  22.966  23.390  1.00  0.00     0.104 A 
ATOM     13  C   UNL A   1      32.876  22.613  23.584  1.00  0.00     0.046 A 
ATOM     14  O   UNL A   1      34.272  23.960  22.462  1.00  0.00    -0.456 OA
ATOM     15  C   UNL A   1      32.117  23.438  22.723  1.00  0.00     0.056 A 
BRANCH  12  16
ATOM     16  C   UNL A   1      35.460  22.462  23.967  1.00  0.00     0.072 C 
ATOM     17  C   UNL A   1      36.685  22.966  23.223  1.00  0.00     0.012 C 
ENDBRANCH  12  16
ENDBRANCH   8  11
ENDBRANCH   6   7
BRANCH   6  18
ATOM     18  C   UNL A   1      31.013  26.693  23.566  1.00  0.00     0.019 C 
ATOM     19  C   UNL A   1      29.868  27.699  23.735  1.00  0.00     0.010 C 
BRANCH  18  20
ATOM     20  C   UNL A   1      31.375  26.052  24.930  1.00  0.00     0.002 C 
ATOM     21  C   UNL A   1      30.265  26.229  25.965  1.00  0.00     0.004 C 
ENDBRANCH  18  20
ENDBRANCH   6  18
ENDBRANCH   4   6
ENDBRANCH   3   4
ENDBRANCH   2   3
ENDBRANCH   1   2
BRANCH   1  22
ATOM     22  O   UNL A   1      31.960  30.573  26.860  1.00  0.00    -0.374 OA
BRANCH  22  23
ATOM     23  C   UNL A   1      31.390  31.880  26.790  1.00  0.00     0.202 C 
BRANCH  23  24
ATOM     24  C   UNL A   1      32.350  33.071  26.855  1.00  0.00     0.261 C 
BRANCH  24  25
ATOM     25  O   UNL A   1      32.555  33.522  28.209  1.00  0.00    -0.460 OA
BRANCH  25  26
ATOM     26  C   UNL A   1      33.695  34.226  28.396  1.00  0.00     0.338 C 
ATOM     27  O   UNL A   1      33.805  35.431  28.570  1.00  0.00    -0.246 OA
BRANCH  26  28
ATOM     28  C   UNL A   1      34.851  33.326  28.515  1.00  0.00     0.060 A 
ATOM     29  C   UNL A   1      34.630  32.051  29.050  1.00  0.00     0.016 A 
ATOM     30  C   UNL A   1      36.147  33.796  28.295  1.00  0.00     0.016 A 
ATOM     31  C   UNL A   1      35.711  31.267  29.443  1.00  0.00     0.010 A 
ATOM     32  C   UNL A   1      37.231  33.011  28.697  1.00  0.00     0.010 A 
ATOM     33  C   UNL A   1      37.013  31.770  29.323  1.00  0.00    -0.014 A 
BRANCH  33  34
ATOM     34  C   UNL A   1      38.117  31.085  30.036  1.00  0.00     0.031 A 
ATOM     35  C   UNL A   1      38.381  31.439  31.475  1.00  0.00     0.074 A 
ATOM     36  C   UNL A   1      38.848  30.138  29.425  1.00  0.00     0.049 A 
ATOM     37  N   UNL A   1      39.289  30.974  32.294  1.00  0.00    -0.248 NA
ATOM     38  C   UNL A   1      37.503  32.460  32.069  1.00  0.00     0.031 C 
ATOM     39  C   UNL A   1      38.671  29.697  28.045  1.00  0.00     0.029 A 
ATOM     40  N   UNL A   1      39.896  29.387  29.894  1.00  0.00    -0.354 N 
ATOM     41  C   UNL A   1      39.097  31.649  33.493  1.00  0.00     0.074 A 
ATOM     42  C   UNL A   1      38.003  32.573  33.290  1.00  0.00     0.031 C 
ATOM     43  C   UNL A   1      39.597  28.760  27.769  1.00  0.00     0.029 A 
ATOM     44  C   UNL A   1      40.438  28.555  28.947  1.00  0.00     0.049 A 
ATOM     45  H   UNL A   1      40.227  29.440  30.820  1.00  0.00     0.167 HD
ATOM     46  C   UNL A   1      39.766  31.503  34.661  1.00  0.00     0.037 A 
ATOM     47  C   UNL A   1      41.504  27.737  29.023  1.00  0.00     0.037 A 
ATOM     48  C   UNL A   1      40.850  30.578  34.865  1.00  0.00     0.049 A 
ATOM     49  C   UNL A   1      42.255  27.616  30.322  1.00  0.00     0.074 A 
ATOM     50  C   UNL A   1      41.570  30.329  36.019  1.00  0.00     0.029 A 
ATOM     51  N   UNL A   1      41.377  29.757  33.879  1.00  0.00    -0.354 N 
ATOM     52  N   UNL A   1      42.040  28.223  31.463  1.00  0.00    -0.248 NA
ATOM     53  C   UNL A   1      43.392  26.684  30.344  1.00  0.00     0.031 C 
ATOM     54  C   UNL A   1      42.561  29.387  35.721  1.00  0.00     0.029 A 
ATOM     55  C   UNL A   1      42.429  29.017  34.393  1.00  0.00     0.049 A 
ATOM     56  H   UNL A   1      41.050  29.707  32.951  1.00  0.00     0.167 HD
ATOM     57  C   UNL A   1      42.999  27.738  32.343  1.00  0.00     0.074 A 
ATOM     58  C   UNL A   1      43.790  26.774  31.607  1.00  0.00     0.031 C 
ATOM     59  C   UNL A   1      43.207  28.063  33.643  1.00  0.00     0.037 A 
BRANCH  46  60
ATOM     60  C   UNL A   1      39.359  32.386  35.803  1.00  0.00     0.064 A 
ATOM     61  C   UNL A   1      39.906  33.666  35.978  1.00  0.00     0.173 A 
ATOM     62  C   UNL A   1      38.398  31.951  36.728  1.00  0.00     0.173 A 
ATOM     63  F   UNL A   1      40.840  34.123  35.129  1.00  0.00    -0.203 F 
ATOM     64  C   UNL A   1      39.526  34.467  37.051  1.00  0.00     0.198 A 
ATOM     65  C   UNL A   1      38.002  32.764  37.786  1.00  0.00     0.198 A 
ATOM     66  F   UNL A   1      37.843  30.737  36.605  1.00  0.00    -0.203 F 
ATOM     67  F   UNL A   1      40.096  35.667  37.226  1.00  0.00    -0.200 F 
ATOM     68  C   UNL A   1      38.572  34.017  37.952  1.00  0.00     0.200 A 
ATOM     69  F   UNL A   1      37.074  32.332  38.651  1.00  0.00    -0.200 F 
ATOM     70  F   UNL A   1      38.206  34.789  38.985  1.00  0.00    -0.200 F 
ENDBRANCH  46  60
BRANCH  47  71
ATOM     71  C   UNL A   1      41.926  26.976  27.820  1.00  0.00     0.064 A 
ATOM     72  C   UNL A   1      41.418  25.699  27.555  1.00  0.00     0.173 A 
ATOM     73  C   UNL A   1      42.842  27.520  26.908  1.00  0.00     0.173 A 
ATOM     74  F   UNL A   1      40.559  25.128  28.413  1.00  0.00    -0.203 F 
ATOM     75  C   UNL A   1      41.816  24.988  26.425  1.00  0.00     0.198 A 
ATOM     76  C   UNL A   1      43.221  26.819  25.766  1.00  0.00     0.198 A 
ATOM     77  F   UNL A   1      43.358  28.740  27.121  1.00  0.00    -0.203 F 
ATOM     78  F   UNL A   1      41.342  23.753  26.210  1.00  0.00    -0.200 F 
ATOM     79  C   UNL A   1      42.713  25.552  25.528  1.00  0.00     0.200 A 
ATOM     80  F   UNL A   1      44.080  27.370  24.898  1.00  0.00    -0.200 F 
ATOM     81  F   UNL A   1      43.090  24.870  24.438  1.00  0.00    -0.200 F 
ENDBRANCH  47  71
BRANCH  59  82
ATOM     82  C   UNL A   1      44.319  27.355  34.359  1.00  0.00     0.064 A 
ATOM     83  C   UNL A   1      44.117  26.117  34.985  1.00  0.00     0.173 A 
ATOM     84  C   UNL A   1      45.611  27.901  34.381  1.00  0.00     0.173 A 
ATOM     85  F   UNL A   1      42.896  25.561  35.002  1.00  0.00    -0.203 F 
ATOM     86  C   UNL A   1      45.164  25.462  35.628  1.00  0.00     0.198 A 
ATOM     87  C   UNL A   1      46.661  27.231  35.003  1.00  0.00     0.198 A 
ATOM     88  F   UNL A   1      45.858  29.080  33.790  1.00  0.00    -0.203 F 
ATOM     89  F   UNL A   1      44.939  24.299  36.257  1.00  0.00    -0.200 F 
ATOM     90  C   UNL A   1      46.435  26.015  35.632  1.00  0.00     0.200 A 
ATOM     91  F   UNL A   1      47.891  27.762  34.996  1.00  0.00    -0.200 F 
ATOM     92  F   UNL A   1      47.443  25.381  36.247  1.00  0.00    -0.200 F 
ENDBRANCH  59  82
ENDBRANCH  33  34
ENDBRANCH  26  28
ENDBRANCH  25  26
ENDBRANCH  24  25
ENDBRANCH  23  24
ENDBRANCH  22  23
ENDBRANCH   1  22
TORSDOF 19
ENDMDL
MODEL 3
REMARK VINA RESULT:     -10.4      1.383      2.504
REMARK SMILES CCc1ccc(C(=O)N[C@H](C(=O)OCCOCCOC(=O)c2ccc(-c3c4nc(c(-c5c(F)c(F)c(F)c(F)c5F)c5ccc([nH]5)c(-c5c(F)c(F)c(F)c(F)c5F)c5nc(c(-c6c(F)c(F)c(F)c(F)c6F)c6ccc3[nH]6)C=C5)C=C4)cc2)[C@H](C)CC)o1
REMARK SMILES IDX 15 1 14 2 13 3 11 4 12 5 10 6 9 7 7 8 8 9 6 11 3 12 4 13
REMARK SMILES IDX 89 14 5 15 2 16 1 17 85 18 86 19 87 20 88 21 16 22 17 23
REMARK SMILES IDX 18 24 19 25 20 26 21 27 22 28 23 29 84 30 24 31 83 32 25 33
REMARK SMILES IDX 26 34 27 35 77 36 28 37 82 38 76 39 78 40 29 41 81 42 75 43
REMARK SMILES IDX 74 44 30 46 62 47 42 48 61 49 43 50 46 51 60 52 79 53 44 54
REMARK SMILES IDX 45 55 59 57 80 58 47 59 31 60 32 61 40 62 33 63 34 64 38 65
REMARK SMILES IDX 41 66 35 67 36 68 39 69 37 70 63 71 64 72 72 73 65 74 66 75
REMARK SMILES IDX 70 76 73 77 67 78 68 79 71 80 69 81 48 82 49 83 57 84 50 85
REMARK SMILES IDX 51 86 55 87 58 88 52 89 53 90 56 91 54 92
REMARK H PARENT 9 10 78 45 46 56
REMARK Flexibility Score: inf
ROOT
ATOM      1  C   UNL A   1      33.132  28.037  24.989  1.00  0.00     0.202 C 
ENDROOT
BRANCH   1   2
ATOM      2  C   UNL A   1      33.652  26.669  25.446  1.00  0.00     0.261 C 
BRANCH   2   3
ATOM      3  O   UNL A   1      33.138  25.542  24.733  1.00  0.00    -0.462 OA
BRANCH   3   4
ATOM      4  C   UNL A   1      34.099  24.728  24.197  1.00  0.00     0.329 C 
ATOM      5  O   UNL A   1      34.194  24.453  23.008  1.00  0.00    -0.250 OA
BRANCH   4   6
ATOM      6  C   UNL A   1      35.120  24.298  25.270  1.00  0.00     0.195 C 
BRANCH   6   7
ATOM      7  N   UNL A   1      34.572  23.704  26.491  1.00  0.00    -0.336 N 
ATOM      8  C   UNL A   1      33.892  22.526  26.726  1.00  0.00     0.287 C 
ATOM      9  O   UNL A   1      33.606  22.310  27.907  1.00  0.00    -0.266 OA
ATOM     10  H   UNL A   1      34.715  24.249  27.298  1.00  0.00     0.164 HD
BRANCH   8  11
ATOM     11  C   UNL A   1      33.473  21.649  25.646  1.00  0.00     0.191 A 
ATOM     12  C   UNL A   1      33.539  19.735  24.529  1.00  0.00     0.104 A 
ATOM     13  C   UNL A   1      32.561  20.492  23.932  1.00  0.00     0.046 A 
ATOM     14  O   UNL A   1      34.111  20.433  25.549  1.00  0.00    -0.456 OA
ATOM     15  C   UNL A   1      32.538  21.722  24.629  1.00  0.00     0.056 A 
BRANCH  12  16
ATOM     16  C   UNL A   1      34.066  18.375  24.251  1.00  0.00     0.072 C 
ATOM     17  C   UNL A   1      33.269  17.643  23.184  1.00  0.00     0.012 C 
ENDBRANCH  12  16
ENDBRANCH   8  11
ENDBRANCH   6   7
BRANCH   6  18
ATOM     18  C   UNL A   1      36.412  23.634  24.696  1.00  0.00     0.019 C 
ATOM     19  C   UNL A   1      36.176  22.575  23.613  1.00  0.00     0.010 C 
BRANCH  18  20
ATOM     20  C   UNL A   1      37.297  23.059  25.832  1.00  0.00     0.002 C 
ATOM     21  C   UNL A   1      38.309  24.079  26.350  1.00  0.00     0.004 C 
ENDBRANCH  18  20
ENDBRANCH   6  18
ENDBRANCH   4   6
ENDBRANCH   3   4
ENDBRANCH   2   3
ENDBRANCH   1   2
BRANCH   1  22
ATOM     22  O   UNL A   1      32.481  28.863  25.942  1.00  0.00    -0.374 OA
BRANCH  22  23
ATOM     23  C   UNL A   1      31.773  30.012  25.477  1.00  0.00     0.202 C 
BRANCH  23  24
ATOM     24  C   UNL A   1      31.752  31.242  26.389  1.00  0.00     0.261 C 
BRANCH  24  25
ATOM     25  O   UNL A   1      32.659  31.101  27.501  1.00  0.00    -0.460 OA
BRANCH  25  26
ATOM     26  C   UNL A   1      33.548  32.112  27.627  1.00  0.00     0.338 C 
ATOM     27  O   UNL A   1      33.310  33.308  27.706  1.00  0.00    -0.246 OA
BRANCH  26  28
ATOM     28  C   UNL A   1      34.910  31.589  27.810  1.00  0.00     0.060 A 
ATOM     29  C   UNL A   1      35.067  30.200  27.901  1.00  0.00     0.016 A 
ATOM     30  C   UNL A   1      35.974  32.449  28.086  1.00  0.00     0.016 A 
ATOM     31  C   UNL A   1      36.272  29.666  28.347  1.00  0.00     0.010 A 
ATOM     32  C   UNL A   1      37.181  31.912  28.542  1.00  0.00     0.010 A 
ATOM     33  C   UNL A   1      37.313  30.523  28.727  1.00  0.00    -0.014 A 
BRANCH  33  34
ATOM     34  C   UNL A   1      38.450  29.974  29.502  1.00  0.00     0.031 A 
ATOM     35  C   UNL A   1      38.662  30.449  30.914  1.00  0.00     0.074 A 
ATOM     36  C   UNL A   1      39.260  29.043  28.971  1.00  0.00     0.049 A 
ATOM     37  N   UNL A   1      39.586  30.112  31.777  1.00  0.00    -0.248 NA
ATOM     38  C   UNL A   1      37.701  31.443  31.421  1.00  0.00     0.031 C 
ATOM     39  C   UNL A   1      39.140  28.491  27.625  1.00  0.00     0.029 A 
ATOM     40  N   UNL A   1      40.350  28.406  29.507  1.00  0.00    -0.354 N 
ATOM     41  C   UNL A   1      39.324  30.855  32.921  1.00  0.00     0.074 A 
ATOM     42  C   UNL A   1      38.170  31.679  32.637  1.00  0.00     0.031 C 
ATOM     43  C   UNL A   1      40.136  27.609  27.429  1.00  0.00     0.029 A 
ATOM     44  C   UNL A   1      40.968  27.551  28.630  1.00  0.00     0.049 A 
ATOM     45  H   UNL A   1      40.660  28.549  30.431  1.00  0.00     0.167 HD
ATOM     46  C   UNL A   1      39.981  30.842  34.105  1.00  0.00     0.037 A 
ATOM     47  C   UNL A   1      42.089  26.821  28.779  1.00  0.00     0.037 A 
ATOM     48  C   UNL A   1      41.125  30.018  34.389  1.00  0.00     0.049 A 
ATOM     49  C   UNL A   1      42.823  26.849  30.093  1.00  0.00     0.074 A 
ATOM     50  C   UNL A   1      41.840  29.905  35.569  1.00  0.00     0.029 A 
ATOM     51  N   UNL A   1      41.728  29.169  33.473  1.00  0.00    -0.354 N 
ATOM     52  N   UNL A   1      42.544  27.519  31.184  1.00  0.00    -0.248 NA
ATOM     53  C   UNL A   1      44.025  26.008  30.197  1.00  0.00     0.031 C 
ATOM     54  C   UNL A   1      42.902  29.020  35.352  1.00  0.00     0.029 A 
ATOM     55  C   UNL A   1      42.822  28.547  34.053  1.00  0.00     0.049 A 
ATOM     56  H   UNL A   1      41.423  29.028  32.547  1.00  0.00     0.167 HD
ATOM     57  C   UNL A   1      43.520  27.170  32.109  1.00  0.00     0.074 A 
ATOM     58  C   UNL A   1      44.392  26.217  31.455  1.00  0.00     0.031 C 
ATOM     59  C   UNL A   1      43.680  27.602  33.384  1.00  0.00     0.037 A 
BRANCH  46  60
ATOM     60  C   UNL A   1      39.490  31.773  35.175  1.00  0.00     0.064 A 
ATOM     61  C   UNL A   1      38.611  31.343  36.181  1.00  0.00     0.173 A 
ATOM     62  C   UNL A   1      39.914  33.109  35.202  1.00  0.00     0.173 A 
ATOM     63  F   UNL A   1      38.164  30.078  36.191  1.00  0.00    -0.203 F 
ATOM     64  C   UNL A   1      38.155  32.223  37.158  1.00  0.00     0.198 A 
ATOM     65  C   UNL A   1      39.476  33.981  36.195  1.00  0.00     0.198 A 
ATOM     66  F   UNL A   1      40.755  33.570  34.264  1.00  0.00    -0.203 F 
ATOM     67  F   UNL A   1      37.279  31.803  38.081  1.00  0.00    -0.200 F 
ATOM     68  C   UNL A   1      38.590  33.540  37.166  1.00  0.00     0.200 A 
ATOM     69  F   UNL A   1      39.904  35.251  36.206  1.00  0.00    -0.200 F 
ATOM     70  F   UNL A   1      38.151  34.387  38.107  1.00  0.00    -0.200 F 
ENDBRANCH  46  60
BRANCH  47  71
ATOM     71  C   UNL A   1      42.587  26.009  27.640  1.00  0.00     0.064 A 
ATOM     72  C   UNL A   1      43.581  26.496  26.782  1.00  0.00     0.173 A 
ATOM     73  C   UNL A   1      42.081  24.724  27.396  1.00  0.00     0.173 A 
ATOM     74  F   UNL A   1      44.077  27.729  26.962  1.00  0.00    -0.203 F 
ATOM     75  C   UNL A   1      44.046  25.730  25.716  1.00  0.00     0.198 A 
ATOM     76  C   UNL A   1      42.563  23.950  26.344  1.00  0.00     0.198 A 
ATOM     77  F   UNL A   1      41.126  24.218  28.189  1.00  0.00    -0.203 F 
ATOM     78  F   UNL A   1      44.974  26.230  24.888  1.00  0.00    -0.200 F 
ATOM     79  C   UNL A   1      43.541  24.455  25.501  1.00  0.00     0.200 A 
ATOM     80  F   UNL A   1      42.079  22.717  26.145  1.00  0.00    -0.200 F 
ATOM     81  F   UNL A   1      43.994  23.716  24.479  1.00  0.00    -0.200 F 
ENDBRANCH  47  71
BRANCH  59  82
ATOM     82  C   UNL A   1      44.828  27.031  34.164  1.00  0.00     0.064 A 
ATOM     83  C   UNL A   1      44.701  25.834  34.885  1.00  0.00     0.173 A 
ATOM     84  C   UNL A   1      46.078  27.665  34.156  1.00  0.00     0.173 A 
ATOM     85  F   UNL A   1      43.522  25.197  34.934  1.00  0.00    -0.203 F 
ATOM     86  C   UNL A   1      45.781  25.305  35.587  1.00  0.00     0.198 A 
ATOM     87  C   UNL A   1      47.163  27.120  34.838  1.00  0.00     0.198 A 
ATOM     88  F   UNL A   1      46.253  28.809  33.476  1.00  0.00    -0.203 F 
ATOM     89  F   UNL A   1      45.627  24.183  36.303  1.00  0.00    -0.200 F 
ATOM     90  C   UNL A   1      47.011  25.945  35.558  1.00  0.00     0.200 A 
ATOM     91  F   UNL A   1      48.354  27.734  34.801  1.00  0.00    -0.200 F 
ATOM     92  F   UNL A   1      48.051  25.432  36.231  1.00  0.00    -0.200 F 
ENDBRANCH  59  82
ENDBRANCH  33  34
ENDBRANCH  26  28
ENDBRANCH  25  26
ENDBRANCH  24  25
ENDBRANCH  23  24
ENDBRANCH  22  23
ENDBRANCH   1  22
TORSDOF 19
ENDMDL
