MODEL 1
REMARK VINA RESULT:     -11.4      0.000      0.000
REMARK SMILES C[C@H]1[C@H](C(=O)OCCOCCOC(=O)c2ccc(-c3c4nc(c(-c5c(F)c(F)c(F)c(F)c5F)c5ccc([nH]5)c(-c5c(F)c(F)c(F)c(F)c5F)c5nc(c(-c6c(F)c(F)c(F)c(F)c6F)c6ccc3[nH]6)C=C5)C=C4)cc2)CCN1C(=O)COc1ccccc1F
REMARK SMILES IDX 8 1 7 2 6 3 4 4 5 5 3 6 1 7 2 8 80 9 78 10 79 11 81 12 82 13
REMARK SMILES IDX 83 14 84 15 85 16 86 17 90 18 87 19 89 20 91 21 88 22 9 23
REMARK SMILES IDX 10 24 11 25 12 26 13 27 14 28 15 29 16 30 77 31 17 32 76 33
REMARK SMILES IDX 18 34 19 35 20 36 70 37 21 38 75 39 69 40 71 41 22 42 74 43
REMARK SMILES IDX 68 44 67 45 23 47 55 48 35 49 54 50 36 51 39 52 53 53 72 54
REMARK SMILES IDX 37 55 38 56 52 58 73 59 40 60 24 61 25 62 33 63 26 64 27 65
REMARK SMILES IDX 31 66 34 67 28 68 29 69 32 70 30 71 56 72 57 73 65 74 58 75
REMARK SMILES IDX 59 76 63 77 66 78 60 79 61 80 64 81 62 82 41 83 42 84 50 85
REMARK SMILES IDX 43 86 44 87 48 88 51 89 45 90 46 91 49 92 47 93
REMARK H PARENT 71 46 39 57
REMARK Flexibility Score: inf
ROOT
ATOM      1  C   UNL A   1      41.225  21.683  26.143  1.00  0.00     0.202 C 
ENDROOT
BRANCH   1   2
ATOM      2  C   UNL A   1      39.982  20.790  26.114  1.00  0.00     0.261 C 
BRANCH   2   3
ATOM      3  O   UNL A   1      38.789  21.544  25.824  1.00  0.00    -0.463 OA
BRANCH   3   4
ATOM      4  C   UNL A   1      37.773  20.850  25.247  1.00  0.00     0.311 C 
ATOM      5  O   UNL A   1      37.909  19.851  24.552  1.00  0.00    -0.252 OA
BRANCH   4   6
ATOM      6  C   UNL A   1      36.423  21.476  25.497  1.00  0.00     0.123 C 
ATOM      7  C   UNL A   1      36.419  23.961  25.811  1.00  0.00     0.032 C 
ATOM      8  C   UNL A   1      36.149  22.836  24.810  1.00  0.00     0.096 C 
ATOM      9  N   UNL A   1      34.749  22.733  24.364  1.00  0.00    -0.336 N 
ATOM     10  C   UNL A   1      35.322  20.550  25.001  1.00  0.00     0.039 C 
ATOM     11  C   UNL A   1      34.153  21.488  24.814  1.00  0.00     0.121 C 
BRANCH   9  12
ATOM     12  C   UNL A   1      34.012  23.549  23.527  1.00  0.00     0.260 C 
ATOM     13  O   UNL A   1      34.419  23.845  22.397  1.00  0.00    -0.271 OA
BRANCH  12  14
ATOM     14  C   UNL A   1      32.663  24.108  23.992  1.00  0.00     0.329 C 
BRANCH  14  15
ATOM     15  O   UNL A   1      32.538  24.963  25.112  1.00  0.00    -0.481 OA
BRANCH  15  16
ATOM     16  C   UNL A   1      32.014  26.212  24.943  1.00  0.00     0.155 A 
ATOM     17  C   UNL A   1      31.151  26.340  23.849  1.00  0.00     0.049 A 
ATOM     18  C   UNL A   1      32.376  27.369  25.635  1.00  0.00     0.165 A 
ATOM     19  C   UNL A   1      30.651  27.593  23.472  1.00  0.00     0.004 A 
ATOM     20  C   UNL A   1      31.882  28.619  25.264  1.00  0.00     0.043 A 
ATOM     21  F   UNL A   1      33.274  27.352  26.623  1.00  0.00    -0.203 F 
ATOM     22  C   UNL A   1      31.020  28.733  24.179  1.00  0.00     0.003 A 
ENDBRANCH  15  16
ENDBRANCH  14  15
ENDBRANCH  12  14
ENDBRANCH   9  12
ENDBRANCH   4   6
ENDBRANCH   3   4
ENDBRANCH   2   3
ENDBRANCH   1   2
BRANCH   1  23
ATOM     23  O   UNL A   1      42.353  21.215  25.405  1.00  0.00    -0.374 OA
BRANCH  23  24
ATOM     24  C   UNL A   1      43.639  21.680  25.809  1.00  0.00     0.202 C 
BRANCH  24  25
ATOM     25  C   UNL A   1      44.387  22.561  24.803  1.00  0.00     0.261 C 
BRANCH  25  26
ATOM     26  O   UNL A   1      43.677  23.783  24.529  1.00  0.00    -0.460 OA
BRANCH  26  27
ATOM     27  C   UNL A   1      44.285  24.896  25.001  1.00  0.00     0.338 C 
ATOM     28  O   UNL A   1      45.403  25.308  24.712  1.00  0.00    -0.246 OA
BRANCH  27  29
ATOM     29  C   UNL A   1      43.363  25.692  25.830  1.00  0.00     0.060 A 
ATOM     30  C   UNL A   1      43.781  26.981  26.181  1.00  0.00     0.016 A 
ATOM     31  C   UNL A   1      42.182  25.161  26.356  1.00  0.00     0.016 A 
ATOM     32  C   UNL A   1      43.068  27.713  27.125  1.00  0.00     0.010 A 
ATOM     33  C   UNL A   1      41.466  25.899  27.309  1.00  0.00     0.010 A 
ATOM     34  C   UNL A   1      41.938  27.153  27.736  1.00  0.00    -0.014 A 
BRANCH  34  35
ATOM     35  C   UNL A   1      41.395  27.813  28.950  1.00  0.00     0.031 A 
ATOM     36  C   UNL A   1      42.134  27.660  30.252  1.00  0.00     0.074 A 
ATOM     37  C   UNL A   1      40.318  28.615  28.878  1.00  0.00     0.049 A 
ATOM     38  N   UNL A   1      41.898  28.213  31.414  1.00  0.00    -0.248 NA
ATOM     39  C   UNL A   1      43.302  26.763  30.241  1.00  0.00     0.031 C 
ATOM     40  C   UNL A   1      39.536  28.870  27.671  1.00  0.00     0.029 A 
ATOM     41  N   UNL A   1      39.707  29.373  29.845  1.00  0.00    -0.354 N 
ATOM     42  C   UNL A   1      42.886  27.738  32.267  1.00  0.00     0.074 A 
ATOM     43  C   UNL A   1      43.702  26.820  31.503  1.00  0.00     0.031 C 
ATOM     44  C   UNL A   1      38.547  29.732  27.968  1.00  0.00     0.029 A 
ATOM     45  C   UNL A   1      38.621  30.076  29.387  1.00  0.00     0.049 A 
ATOM     46  H   UNL A   1      40.018  29.409  30.779  1.00  0.00     0.167 HD
ATOM     47  C   UNL A   1      43.106  28.050  33.567  1.00  0.00     0.037 A 
ATOM     48  C   UNL A   1      37.784  30.903  30.042  1.00  0.00     0.037 A 
ATOM     49  C   UNL A   1      42.300  28.965  34.330  1.00  0.00     0.049 A 
ATOM     50  C   UNL A   1      38.022  31.199  31.500  1.00  0.00     0.074 A 
ATOM     51  C   UNL A   1      42.449  29.355  35.650  1.00  0.00     0.029 A 
ATOM     52  N   UNL A   1      41.188  29.632  33.840  1.00  0.00    -0.354 N 
ATOM     53  N   UNL A   1      38.979  30.771  32.287  1.00  0.00    -0.248 NA
ATOM     54  C   UNL A   1      37.069  32.106  32.155  1.00  0.00     0.031 C 
ATOM     55  C   UNL A   1      41.402  30.226  35.970  1.00  0.00     0.029 A 
ATOM     56  C   UNL A   1      40.629  30.416  34.836  1.00  0.00     0.049 A 
ATOM     57  H   UNL A   1      40.846  29.560  32.919  1.00  0.00     0.167 HD
ATOM     58  C   UNL A   1      38.760  31.376  33.519  1.00  0.00     0.074 A 
ATOM     59  C   UNL A   1      37.588  32.212  33.370  1.00  0.00     0.031 C 
ATOM     60  C   UNL A   1      39.467  31.250  34.670  1.00  0.00     0.037 A 
BRANCH  47  61
ATOM     61  C   UNL A   1      44.259  27.378  34.251  1.00  0.00     0.064 A 
ATOM     62  C   UNL A   1      44.120  26.125  34.867  1.00  0.00     0.173 A 
ATOM     63  C   UNL A   1      45.525  27.981  34.270  1.00  0.00     0.173 A 
ATOM     64  F   UNL A   1      42.926  25.513  34.890  1.00  0.00    -0.203 F 
ATOM     65  C   UNL A   1      45.200  25.513  35.497  1.00  0.00     0.198 A 
ATOM     66  C   UNL A   1      46.610  27.355  34.878  1.00  0.00     0.198 A 
ATOM     67  F   UNL A   1      45.712  29.178  33.694  1.00  0.00    -0.203 F 
ATOM     68  F   UNL A   1      45.034  24.336  36.118  1.00  0.00    -0.200 F 
ATOM     69  C   UNL A   1      46.445  26.125  35.497  1.00  0.00     0.200 A 
ATOM     70  F   UNL A   1      47.813  27.943  34.870  1.00  0.00    -0.200 F 
ATOM     71  F   UNL A   1      47.484  25.533  36.102  1.00  0.00    -0.200 F 
ENDBRANCH  47  61
BRANCH  48  72
ATOM     72  C   UNL A   1      36.642  31.524  29.321  1.00  0.00     0.064 A 
ATOM     73  C   UNL A   1      36.619  32.899  29.047  1.00  0.00     0.173 A 
ATOM     74  C   UNL A   1      35.542  30.757  28.911  1.00  0.00     0.173 A 
ATOM     75  F   UNL A   1      37.636  33.678  29.443  1.00  0.00    -0.203 F 
ATOM     76  C   UNL A   1      35.530  33.486  28.405  1.00  0.00     0.198 A 
ATOM     77  C   UNL A   1      34.467  31.341  28.246  1.00  0.00     0.198 A 
ATOM     78  F   UNL A   1      35.516  29.438  29.152  1.00  0.00    -0.203 F 
ATOM     79  F   UNL A   1      35.511  34.809  28.196  1.00  0.00    -0.200 F 
ATOM     80  C   UNL A   1      34.457  32.705  28.001  1.00  0.00     0.200 A 
ATOM     81  F   UNL A   1      33.436  30.581  27.849  1.00  0.00    -0.200 F 
ATOM     82  F   UNL A   1      33.411  33.270  27.383  1.00  0.00    -0.200 F 
ENDBRANCH  48  72
BRANCH  60  83
ATOM     83  C   UNL A   1      39.011  32.061  35.848  1.00  0.00     0.064 A 
ATOM     84  C   UNL A   1      38.197  31.511  36.849  1.00  0.00     0.173 A 
ATOM     85  C   UNL A   1      39.419  33.396  35.990  1.00  0.00     0.173 A 
ATOM     86  F   UNL A   1      37.769  30.244  36.752  1.00  0.00    -0.203 F 
ATOM     87  C   UNL A   1      37.782  32.279  37.934  1.00  0.00     0.198 A 
ATOM     88  C   UNL A   1      39.026  34.151  37.092  1.00  0.00     0.198 A 
ATOM     89  F   UNL A   1      40.205  33.966  35.065  1.00  0.00    -0.203 F 
ATOM     90  F   UNL A   1      36.963  31.749  38.854  1.00  0.00    -0.200 F 
ATOM     91  C   UNL A   1      38.202  33.596  38.058  1.00  0.00     0.200 A 
ATOM     92  F   UNL A   1      39.442  35.420  37.215  1.00  0.00    -0.200 F 
ATOM     93  F   UNL A   1      37.803  34.332  39.105  1.00  0.00    -0.200 F 
ENDBRANCH  60  83
ENDBRANCH  34  35
ENDBRANCH  27  29
ENDBRANCH  26  27
ENDBRANCH  25  26
ENDBRANCH  24  25
ENDBRANCH  23  24
ENDBRANCH   1  23
TORSDOF 18
ENDMDL
MODEL 2
REMARK VINA RESULT:     -11.3      3.154      8.733
REMARK SMILES C[C@H]1[C@H](C(=O)OCCOCCOC(=O)c2ccc(-c3c4nc(c(-c5c(F)c(F)c(F)c(F)c5F)c5ccc([nH]5)c(-c5c(F)c(F)c(F)c(F)c5F)c5nc(c(-c6c(F)c(F)c(F)c(F)c6F)c6ccc3[nH]6)C=C5)C=C4)cc2)CCN1C(=O)COc1ccccc1F
REMARK SMILES IDX 8 1 7 2 6 3 4 4 5 5 3 6 1 7 2 8 80 9 78 10 79 11 81 12 82 13
REMARK SMILES IDX 83 14 84 15 85 16 86 17 90 18 87 19 89 20 91 21 88 22 9 23
REMARK SMILES IDX 10 24 11 25 12 26 13 27 14 28 15 29 16 30 77 31 17 32 76 33
REMARK SMILES IDX 18 34 19 35 20 36 70 37 21 38 75 39 69 40 71 41 22 42 74 43
REMARK SMILES IDX 68 44 67 45 23 47 55 48 35 49 54 50 36 51 39 52 53 53 72 54
REMARK SMILES IDX 37 55 38 56 52 58 73 59 40 60 24 61 25 62 33 63 26 64 27 65
REMARK SMILES IDX 31 66 34 67 28 68 29 69 32 70 30 71 56 72 57 73 65 74 58 75
REMARK SMILES IDX 59 76 63 77 66 78 60 79 61 80 64 81 62 82 41 83 42 84 50 85
REMARK SMILES IDX 43 86 44 87 48 88 51 89 45 90 46 91 49 92 47 93
REMARK H PARENT 71 46 39 57
REMARK Flexibility Score: inf
ROOT
ATOM      1  C   UNL A   1      30.531  29.545  22.963  1.00  0.00     0.202 C 
ENDROOT
BRANCH   1   2
ATOM      2  C   UNL A   1      30.369  28.027  22.850  1.00  0.00     0.261 C 
BRANCH   2   3
ATOM      3  O   UNL A   1      31.559  27.402  22.332  1.00  0.00    -0.463 OA
BRANCH   3   4
ATOM      4  C   UNL A   1      31.837  26.162  22.815  1.00  0.00     0.311 C 
ATOM      5  O   UNL A   1      31.908  25.144  22.138  1.00  0.00    -0.252 OA
BRANCH   4   6
ATOM      6  C   UNL A   1      31.996  26.141  24.315  1.00  0.00     0.123 C 
ATOM      7  C   UNL A   1      29.918  25.634  25.620  1.00  0.00     0.032 C 
ATOM      8  C   UNL A   1      31.221  25.041  25.080  1.00  0.00     0.096 C 
ATOM      9  N   UNL A   1      32.168  24.595  26.117  1.00  0.00    -0.336 N 
ATOM     10  C   UNL A   1      33.457  25.927  24.680  1.00  0.00     0.039 C 
ATOM     11  C   UNL A   1      33.377  25.399  26.092  1.00  0.00     0.121 C 
BRANCH   9  12
ATOM     12  C   UNL A   1      32.118  23.510  26.971  1.00  0.00     0.260 C 
ATOM     13  O   UNL A   1      31.073  23.199  27.554  1.00  0.00    -0.271 OA
BRANCH  12  14
ATOM     14  C   UNL A   1      33.374  22.665  27.213  1.00  0.00     0.329 C 
BRANCH  14  15
ATOM     15  O   UNL A   1      33.785  21.641  26.327  1.00  0.00    -0.481 OA
BRANCH  15  16
ATOM     16  C   UNL A   1      34.651  21.944  25.316  1.00  0.00     0.155 A 
ATOM     17  C   UNL A   1      36.004  21.884  25.667  1.00  0.00     0.049 A 
ATOM     18  C   UNL A   1      34.320  22.448  24.057  1.00  0.00     0.165 A 
ATOM     19  C   UNL A   1      36.998  22.303  24.774  1.00  0.00     0.004 A 
ATOM     20  C   UNL A   1      35.305  22.867  23.163  1.00  0.00     0.043 A 
ATOM     21  F   UNL A   1      33.053  22.637  23.681  1.00  0.00    -0.203 F 
ATOM     22  C   UNL A   1      36.646  22.797  23.522  1.00  0.00     0.003 A 
ENDBRANCH  15  16
ENDBRANCH  14  15
ENDBRANCH  12  14
ENDBRANCH   9  12
ENDBRANCH   4   6
ENDBRANCH   3   4
ENDBRANCH   2   3
ENDBRANCH   1   2
BRANCH   1  23
ATOM     23  O   UNL A   1      30.465  30.088  24.282  1.00  0.00    -0.374 OA
BRANCH  23  24
ATOM     24  C   UNL A   1      31.328  29.523  25.267  1.00  0.00     0.202 C 
BRANCH  24  25
ATOM     25  C   UNL A   1      31.835  30.480  26.351  1.00  0.00     0.261 C 
BRANCH  25  26
ATOM     26  O   UNL A   1      33.272  30.487  26.432  1.00  0.00    -0.460 OA
BRANCH  26  27
ATOM     27  C   UNL A   1      33.773  31.363  27.332  1.00  0.00     0.338 C 
ATOM     28  O   UNL A   1      33.160  32.235  27.936  1.00  0.00    -0.246 OA
BRANCH  27  29
ATOM     29  C   UNL A   1      35.179  31.052  27.648  1.00  0.00     0.060 A 
ATOM     30  C   UNL A   1      35.531  29.699  27.701  1.00  0.00     0.016 A 
ATOM     31  C   UNL A   1      36.102  32.040  28.003  1.00  0.00     0.016 A 
ATOM     32  C   UNL A   1      36.776  29.320  28.192  1.00  0.00     0.010 A 
ATOM     33  C   UNL A   1      37.355  31.657  28.499  1.00  0.00     0.010 A 
ATOM     34  C   UNL A   1      37.674  30.294  28.647  1.00  0.00    -0.014 A 
BRANCH  34  35
ATOM     35  C   UNL A   1      38.843  29.855  29.449  1.00  0.00     0.031 A 
ATOM     36  C   UNL A   1      38.994  30.372  30.855  1.00  0.00     0.074 A 
ATOM     37  C   UNL A   1      39.703  28.938  28.974  1.00  0.00     0.049 A 
ATOM     38  N   UNL A   1      39.880  30.060  31.767  1.00  0.00    -0.248 NA
ATOM     39  C   UNL A   1      38.009  31.374  31.294  1.00  0.00     0.031 C 
ATOM     40  C   UNL A   1      39.646  28.338  27.643  1.00  0.00     0.029 A 
ATOM     41  N   UNL A   1      40.787  28.342  29.568  1.00  0.00    -0.354 N 
ATOM     42  C   UNL A   1      39.557  30.820  32.884  1.00  0.00     0.074 A 
ATOM     43  C   UNL A   1      38.419  31.638  32.526  1.00  0.00     0.031 C 
ATOM     44  C   UNL A   1      40.650  27.452  27.522  1.00  0.00     0.029 A 
ATOM     45  C   UNL A   1      41.427  27.435  28.761  1.00  0.00     0.049 A 
ATOM     46  H   UNL A   1      41.078  28.546  30.487  1.00  0.00     0.167 HD
ATOM     47  C   UNL A   1      40.143  30.825  34.105  1.00  0.00     0.037 A 
ATOM     48  C   UNL A   1      42.515  26.678  28.998  1.00  0.00     0.037 A 
ATOM     49  C   UNL A   1      41.272  30.010  34.467  1.00  0.00     0.049 A 
ATOM     50  C   UNL A   1      43.179  26.736  30.350  1.00  0.00     0.074 A 
ATOM     51  C   UNL A   1      41.931  29.936  35.681  1.00  0.00     0.029 A 
ATOM     52  N   UNL A   1      41.914  29.129  33.610  1.00  0.00    -0.354 N 
ATOM     53  N   UNL A   1      42.845  27.431  31.409  1.00  0.00    -0.248 NA
ATOM     54  C   UNL A   1      44.364  25.888  30.541  1.00  0.00     0.031 C 
ATOM     55  C   UNL A   1      42.998  29.039  35.547  1.00  0.00     0.029 A 
ATOM     56  C   UNL A   1      42.973  28.520  34.263  1.00  0.00     0.049 A 
ATOM     57  H   UNL A   1      41.654  28.959  32.675  1.00  0.00     0.167 HD
ATOM     58  C   UNL A   1      43.758  27.087  32.397  1.00  0.00     0.074 A 
ATOM     59  C   UNL A   1      44.653  26.108  31.816  1.00  0.00     0.031 C 
ATOM     60  C   UNL A   1      43.848  27.541  33.672  1.00  0.00     0.037 A 
BRANCH  47  61
ATOM     61  C   UNL A   1      39.581  31.758  35.136  1.00  0.00     0.064 A 
ATOM     62  C   UNL A   1      38.635  31.329  36.079  1.00  0.00     0.173 A 
ATOM     63  C   UNL A   1      40.013  33.091  35.200  1.00  0.00     0.173 A 
ATOM     64  F   UNL A   1      38.178  30.068  36.050  1.00  0.00    -0.203 F 
ATOM     65  C   UNL A   1      38.124  32.206  37.031  1.00  0.00     0.198 A 
ATOM     66  C   UNL A   1      39.520  33.959  36.170  1.00  0.00     0.198 A 
ATOM     67  F   UNL A   1      40.918  33.551  34.323  1.00  0.00    -0.203 F 
ATOM     68  F   UNL A   1      37.187  31.786  37.893  1.00  0.00    -0.200 F 
ATOM     69  C   UNL A   1      38.571  33.518  37.080  1.00  0.00     0.200 A 
ATOM     70  F   UNL A   1      39.958  35.224  36.221  1.00  0.00    -0.200 F 
ATOM     71  F   UNL A   1      38.080  34.361  37.999  1.00  0.00    -0.200 F 
ENDBRANCH  47  61
BRANCH  48  72
ATOM     72  C   UNL A   1      43.045  25.789  27.933  1.00  0.00     0.064 A 
ATOM     73  C   UNL A   1      43.949  26.265  26.973  1.00  0.00     0.173 A 
ATOM     74  C   UNL A   1      42.642  24.449  27.841  1.00  0.00     0.173 A 
ATOM     75  F   UNL A   1      44.344  27.546  27.003  1.00  0.00    -0.203 F 
ATOM     76  C   UNL A   1      44.415  25.440  25.952  1.00  0.00     0.198 A 
ATOM     77  C   UNL A   1      43.129  23.618  26.836  1.00  0.00     0.198 A 
ATOM     78  F   UNL A   1      41.776  23.946  28.735  1.00  0.00    -0.203 F 
ATOM     79  F   UNL A   1      45.243  25.932  25.020  1.00  0.00    -0.200 F 
ATOM     80  C   UNL A   1      44.009  24.115  25.887  1.00  0.00     0.200 A 
ATOM     81  F   UNL A   1      42.740  22.336  26.783  1.00  0.00    -0.200 F 
ATOM     82  F   UNL A   1      44.458  23.322  24.905  1.00  0.00    -0.200 F 
ENDBRANCH  48  72
BRANCH  60  83
ATOM     83  C   UNL A   1      44.931  26.957  34.534  1.00  0.00     0.064 A 
ATOM     84  C   UNL A   1      44.711  25.816  35.319  1.00  0.00     0.173 A 
ATOM     85  C   UNL A   1      46.211  27.531  34.551  1.00  0.00     0.173 A 
ATOM     86  F   UNL A   1      43.501  25.238  35.347  1.00  0.00    -0.203 F 
ATOM     87  C   UNL A   1      45.725  25.289  36.114  1.00  0.00     0.198 A 
ATOM     88  C   UNL A   1      47.230  26.984  35.325  1.00  0.00     0.198 A 
ATOM     89  F   UNL A   1      46.475  28.618  33.813  1.00  0.00    -0.203 F 
ATOM     90  F   UNL A   1      45.479  24.227  36.895  1.00  0.00    -0.200 F 
ATOM     91  C   UNL A   1      46.985  25.869  36.112  1.00  0.00     0.200 A 
ATOM     92  F   UNL A   1      48.451  27.539  35.314  1.00  0.00    -0.200 F 
ATOM     93  F   UNL A   1      47.961  25.359  36.876  1.00  0.00    -0.200 F 
ENDBRANCH  60  83
ENDBRANCH  34  35
ENDBRANCH  27  29
ENDBRANCH  26  27
ENDBRANCH  25  26
ENDBRANCH  24  25
ENDBRANCH  23  24
ENDBRANCH   1  23
TORSDOF 18
ENDMDL
MODEL 3
REMARK VINA RESULT:     -11.3      5.273     10.802
REMARK SMILES C[C@H]1[C@H](C(=O)OCCOCCOC(=O)c2ccc(-c3c4nc(c(-c5c(F)c(F)c(F)c(F)c5F)c5ccc([nH]5)c(-c5c(F)c(F)c(F)c(F)c5F)c5nc(c(-c6c(F)c(F)c(F)c(F)c6F)c6ccc3[nH]6)C=C5)C=C4)cc2)CCN1C(=O)COc1ccccc1F
REMARK SMILES IDX 8 1 7 2 6 3 4 4 5 5 3 6 1 7 2 8 80 9 78 10 79 11 81 12 82 13
REMARK SMILES IDX 83 14 84 15 85 16 86 17 90 18 87 19 89 20 91 21 88 22 9 23
REMARK SMILES IDX 10 24 11 25 12 26 13 27 14 28 15 29 16 30 77 31 17 32 76 33
REMARK SMILES IDX 18 34 19 35 20 36 70 37 21 38 75 39 69 40 71 41 22 42 74 43
REMARK SMILES IDX 68 44 67 45 23 47 55 48 35 49 54 50 36 51 39 52 53 53 72 54
REMARK SMILES IDX 37 55 38 56 52 58 73 59 40 60 24 61 25 62 33 63 26 64 27 65
REMARK SMILES IDX 31 66 34 67 28 68 29 69 32 70 30 71 56 72 57 73 65 74 58 75
REMARK SMILES IDX 59 76 63 77 66 78 60 79 61 80 64 81 62 82 41 83 42 84 50 85
REMARK SMILES IDX 43 86 44 87 48 88 51 89 45 90 46 91 49 92 47 93
REMARK H PARENT 71 46 39 57
REMARK Flexibility Score: inf
ROOT
ATOM      1  C   UNL A   1      33.363  35.070  29.933  1.00  0.00     0.202 C 
ENDROOT
BRANCH   1   2
ATOM      2  C   UNL A   1      34.428  34.199  29.262  1.00  0.00     0.261 C 
BRANCH   2   3
ATOM      3  O   UNL A   1      33.937  32.873  28.987  1.00  0.00    -0.463 OA
BRANCH   3   4
ATOM      4  C   UNL A   1      34.667  32.139  28.108  1.00  0.00     0.311 C 
ATOM      5  O   UNL A   1      35.686  32.523  27.547  1.00  0.00    -0.252 OA
BRANCH   4   6
ATOM      6  C   UNL A   1      34.059  30.787  27.829  1.00  0.00     0.123 C 
ATOM      7  C   UNL A   1      31.764  30.814  26.827  1.00  0.00     0.032 C 
ATOM      8  C   UNL A   1      33.252  30.646  26.516  1.00  0.00     0.096 C 
ATOM      9  N   UNL A   1      33.626  29.314  26.009  1.00  0.00    -0.336 N 
ATOM     10  C   UNL A   1      35.154  29.733  27.739  1.00  0.00     0.039 C 
ATOM     11  C   UNL A   1      34.492  28.628  26.952  1.00  0.00     0.121 C 
BRANCH   9  12
ATOM     12  C   UNL A   1      33.382  28.717  24.787  1.00  0.00     0.260 C 
ATOM     13  O   UNL A   1      33.649  29.295  23.727  1.00  0.00    -0.271 OA
BRANCH  12  14
ATOM     14  C   UNL A   1      32.768  27.314  24.726  1.00  0.00     0.329 C 
BRANCH  14  15
ATOM     15  O   UNL A   1      33.372  26.192  25.338  1.00  0.00    -0.481 OA
BRANCH  15  16
ATOM     16  C   UNL A   1      32.586  25.151  25.744  1.00  0.00     0.155 A 
ATOM     17  C   UNL A   1      31.210  25.398  25.683  1.00  0.00     0.049 A 
ATOM     18  C   UNL A   1      33.016  23.968  26.347  1.00  0.00     0.165 A 
ATOM     19  C   UNL A   1      30.291  24.476  26.197  1.00  0.00     0.004 A 
ATOM     20  C   UNL A   1      32.106  23.045  26.862  1.00  0.00     0.043 A 
ATOM     21  F   UNL A   1      34.310  23.701  26.541  1.00  0.00    -0.203 F 
ATOM     22  C   UNL A   1      30.740  23.300  26.790  1.00  0.00     0.003 A 
ENDBRANCH  15  16
ENDBRANCH  14  15
ENDBRANCH  12  14
ENDBRANCH   9  12
ENDBRANCH   4   6
ENDBRANCH   3   4
ENDBRANCH   2   3
ENDBRANCH   1   2
BRANCH   1  23
ATOM     23  O   UNL A   1      33.201  34.894  31.341  1.00  0.00    -0.374 OA
BRANCH  23  24
ATOM     24  C   UNL A   1      34.381  34.682  32.114  1.00  0.00     0.202 C 
BRANCH  24  25
ATOM     25  C   UNL A   1      34.314  33.559  33.155  1.00  0.00     0.261 C 
BRANCH  25  26
ATOM     26  O   UNL A   1      34.953  32.356  32.688  1.00  0.00    -0.460 OA
BRANCH  26  27
ATOM     27  C   UNL A   1      36.157  32.112  33.254  1.00  0.00     0.338 C 
ATOM     28  O   UNL A   1      36.515  32.405  34.388  1.00  0.00    -0.246 OA
BRANCH  27  29
ATOM     29  C   UNL A   1      36.996  31.279  32.374  1.00  0.00     0.060 A 
ATOM     30  C   UNL A   1      38.096  30.645  32.965  1.00  0.00     0.016 A 
ATOM     31  C   UNL A   1      36.796  31.211  30.993  1.00  0.00     0.016 A 
ATOM     32  C   UNL A   1      39.048  30.015  32.170  1.00  0.00     0.010 A 
ATOM     33  C   UNL A   1      37.757  30.577  30.193  1.00  0.00     0.010 A 
ATOM     34  C   UNL A   1      38.913  30.026  30.775  1.00  0.00    -0.014 A 
BRANCH  34  35
ATOM     35  C   UNL A   1      40.084  29.636  29.951  1.00  0.00     0.031 A 
ATOM     36  C   UNL A   1      41.198  30.630  29.756  1.00  0.00     0.074 A 
ATOM     37  C   UNL A   1      40.203  28.388  29.465  1.00  0.00     0.049 A 
ATOM     38  N   UNL A   1      42.351  30.482  29.154  1.00  0.00    -0.248 NA
ATOM     39  C   UNL A   1      40.984  31.973  30.320  1.00  0.00     0.031 C 
ATOM     40  C   UNL A   1      39.210  27.327  29.614  1.00  0.00     0.029 A 
ATOM     41  N   UNL A   1      41.223  27.802  28.758  1.00  0.00    -0.354 N 
ATOM     42  C   UNL A   1      42.998  31.705  29.271  1.00  0.00     0.074 A 
ATOM     43  C   UNL A   1      42.098  32.598  29.966  1.00  0.00     0.031 C 
ATOM     44  C   UNL A   1      39.673  26.213  29.019  1.00  0.00     0.029 A 
ATOM     45  C   UNL A   1      40.985  26.489  28.437  1.00  0.00     0.049 A 
ATOM     46  H   UNL A   1      42.047  28.278  28.505  1.00  0.00     0.167 HD
ATOM     47  C   UNL A   1      44.239  32.051  28.854  1.00  0.00     0.037 A 
ATOM     48  C   UNL A   1      41.743  25.612  27.752  1.00  0.00     0.037 A 
ATOM     49  C   UNL A   1      45.141  31.165  28.166  1.00  0.00     0.049 A 
ATOM     50  C   UNL A   1      43.102  26.035  27.257  1.00  0.00     0.074 A 
ATOM     51  C   UNL A   1      46.423  31.418  27.711  1.00  0.00     0.029 A 
ATOM     52  N   UNL A   1      44.850  29.852  27.829  1.00  0.00    -0.354 N 
ATOM     53  N   UNL A   1      43.719  27.181  27.404  1.00  0.00    -0.248 NA
ATOM     54  C   UNL A   1      43.877  25.031  26.513  1.00  0.00     0.031 C 
ATOM     55  C   UNL A   1      46.893  30.270  27.063  1.00  0.00     0.029 A 
ATOM     56  C   UNL A   1      45.921  29.288  27.155  1.00  0.00     0.049 A 
ATOM     57  H   UNL A   1      44.006  29.388  28.038  1.00  0.00     0.167 HD
ATOM     58  C   UNL A   1      44.959  27.030  26.796  1.00  0.00     0.074 A 
ATOM     59  C   UNL A   1      45.014  25.674  26.292  1.00  0.00     0.031 C 
ATOM     60  C   UNL A   1      45.963  27.933  26.667  1.00  0.00     0.037 A 
BRANCH  47  61
ATOM     61  C   UNL A   1      44.688  33.458  29.115  1.00  0.00     0.064 A 
ATOM     62  C   UNL A   1      45.316  33.818  30.317  1.00  0.00     0.173 A 
ATOM     63  C   UNL A   1      44.513  34.453  28.142  1.00  0.00     0.173 A 
ATOM     64  F   UNL A   1      45.493  32.906  31.286  1.00  0.00    -0.203 F 
ATOM     65  C   UNL A   1      45.728  35.128  30.545  1.00  0.00     0.198 A 
ATOM     66  C   UNL A   1      44.951  35.756  28.363  1.00  0.00     0.198 A 
ATOM     67  F   UNL A   1      43.921  34.160  26.975  1.00  0.00    -0.203 F 
ATOM     68  F   UNL A   1      46.285  35.460  31.719  1.00  0.00    -0.200 F 
ATOM     69  C   UNL A   1      45.551  36.094  29.566  1.00  0.00     0.200 A 
ATOM     70  F   UNL A   1      44.787  36.686  27.413  1.00  0.00    -0.200 F 
ATOM     71  F   UNL A   1      45.952  37.354  29.785  1.00  0.00    -0.200 F 
ENDBRANCH  47  61
BRANCH  48  72
ATOM     72  C   UNL A   1      41.240  24.237  27.500  1.00  0.00     0.064 A 
ATOM     73  C   UNL A   1      41.854  23.122  28.088  1.00  0.00     0.173 A 
ATOM     74  C   UNL A   1      40.149  24.010  26.650  1.00  0.00     0.173 A 
ATOM     75  F   UNL A   1      42.917  23.286  28.888  1.00  0.00    -0.203 F 
ATOM     76  C   UNL A   1      41.405  21.830  27.820  1.00  0.00     0.198 A 
ATOM     77  C   UNL A   1      39.685  22.721  26.404  1.00  0.00     0.198 A 
ATOM     78  F   UNL A   1      39.530  25.045  26.062  1.00  0.00    -0.203 F 
ATOM     79  F   UNL A   1      42.036  20.778  28.357  1.00  0.00    -0.200 F 
ATOM     80  C   UNL A   1      40.317  21.631  26.982  1.00  0.00     0.200 A 
ATOM     81  F   UNL A   1      38.628  22.533  25.601  1.00  0.00    -0.200 F 
ATOM     82  F   UNL A   1      39.885  20.389  26.725  1.00  0.00    -0.200 F 
ENDBRANCH  48  72
BRANCH  60  83
ATOM     83  C   UNL A   1      47.218  27.472  25.984  1.00  0.00     0.064 A 
ATOM     84  C   UNL A   1      48.278  26.900  26.702  1.00  0.00     0.173 A 
ATOM     85  C   UNL A   1      47.348  27.579  24.592  1.00  0.00     0.173 A 
ATOM     86  F   UNL A   1      48.208  26.788  28.036  1.00  0.00    -0.203 F 
ATOM     87  C   UNL A   1      49.436  26.479  26.052  1.00  0.00     0.198 A 
ATOM     88  C   UNL A   1      48.495  27.131  23.943  1.00  0.00     0.198 A 
ATOM     89  F   UNL A   1      46.359  28.111  23.858  1.00  0.00    -0.203 F 
ATOM     90  F   UNL A   1      50.458  25.981  26.764  1.00  0.00    -0.200 F 
ATOM     91  C   UNL A   1      49.541  26.590  24.674  1.00  0.00     0.200 A 
ATOM     92  F   UNL A   1      48.591  27.228  22.609  1.00  0.00    -0.200 F 
ATOM     93  F   UNL A   1      50.656  26.182  24.050  1.00  0.00    -0.200 F 
ENDBRANCH  60  83
ENDBRANCH  34  35
ENDBRANCH  27  29
ENDBRANCH  26  27
ENDBRANCH  25  26
ENDBRANCH  24  25
ENDBRANCH  23  24
ENDBRANCH   1  23
TORSDOF 18
ENDMDL
