MODEL 1
REMARK VINA RESULT:     -13.5      0.000      0.000
REMARK SMILES Cc1ccc(NC(=O)c2ccccc2NC(=O)[C@H]2CCCC[C@H]2C(=O)OCCOCCOC(=O)c2ccc(-c3c4nc(c(-c5c(F)c(F)c(F)c(F)c5F)c5ccc([nH]5)c(-c5c(F)c(F)c(F)c(F)c5F)c5nc(c(-c6c(F)c(F)c(F)c(F)c6F)c6ccc3[nH]6)C=C5)C=C4)cc2)cc1
REMARK SMILES IDX 28 1 27 2 26 3 24 4 25 5 23 6 18 7 19 8 20 9 22 10 21 11
REMARK SMILES IDX 16 12 15 13 17 15 14 16 9 17 10 18 11 19 13 20 12 21 7 22
REMARK SMILES IDX 6 23 8 25 5 26 1 27 2 28 3 29 99 30 4 31 98 32 29 33 30 34
REMARK SMILES IDX 31 35 32 36 33 37 34 38 35 39 36 40 97 41 37 42 96 43 38 44
REMARK SMILES IDX 39 45 40 46 90 47 41 48 95 49 89 50 91 51 42 52 94 53 88 54
REMARK SMILES IDX 87 55 43 57 75 58 55 59 74 60 56 61 59 62 73 63 92 64 57 65
REMARK SMILES IDX 58 66 72 68 93 69 60 70 44 71 45 72 53 73 46 74 47 75 51 76
REMARK SMILES IDX 54 77 48 78 49 79 52 80 50 81 76 82 77 83 85 84 78 85 79 86
REMARK SMILES IDX 83 87 86 88 80 89 81 90 84 91 82 92 61 93 62 94 70 95 63 96
REMARK SMILES IDX 64 97 68 98 71 99 65 100 66 101 69 102 67 103
REMARK H PARENT 15 14 6 24 91 56 59 67
REMARK Flexibility Score: inf
ROOT
ATOM      1  C   UNL A   1      38.972  20.777  25.761  1.00  0.00     0.202 C 
ENDROOT
BRANCH   1   2
ATOM      2  C   UNL A   1      38.358  22.132  25.752  1.00  0.00     0.261 C 
BRANCH   2   3
ATOM      3  O   UNL A   1      37.124  22.208  25.055  1.00  0.00    -0.463 OA
BRANCH   3   4
ATOM      4  C   UNL A   1      36.113  22.893  25.643  1.00  0.00     0.309 C 
ATOM      5  O   UNL A   1      36.133  24.056  25.984  1.00  0.00    -0.252 OA
BRANCH   4   6
ATOM      6  C   UNL A   1      34.918  21.975  25.773  1.00  0.00     0.111 C 
ATOM      7  C   UNL A   1      33.572  22.762  25.712  1.00  0.00     0.093 C 
ATOM      8  C   UNL A   1      32.392  21.786  25.759  1.00  0.00     0.014 C 
ATOM      9  C   UNL A   1      32.532  20.650  24.741  1.00  0.00     0.001 C 
ATOM     10  C   UNL A   1      35.043  20.799  24.809  1.00  0.00     0.016 C 
ATOM     11  C   UNL A   1      33.835  19.878  24.913  1.00  0.00     0.001 C 
BRANCH   7  12
ATOM     12  C   UNL A   1      33.364  23.670  24.490  1.00  0.00     0.228 C 
ATOM     13  N   UNL A   1      33.172  25.024  24.550  1.00  0.00    -0.325 N 
ATOM     14  H   UNL A   1      33.202  25.422  23.650  1.00  0.00     0.169 HD
ATOM     15  O   UNL A   1      33.416  23.184  23.353  1.00  0.00    -0.274 OA
BRANCH  13  16
ATOM     16  C   UNL A   1      32.941  26.021  25.537  1.00  0.00     0.054 A 
ATOM     17  C   UNL A   1      31.647  26.184  26.114  1.00  0.00     0.063 A 
ATOM     18  C   UNL A   1      31.378  27.336  26.892  1.00  0.00     0.016 A 
ATOM     19  C   UNL A   1      32.361  28.282  27.152  1.00  0.00     0.001 A 
ATOM     20  C   UNL A   1      33.937  26.933  25.911  1.00  0.00     0.027 A 
ATOM     21  C   UNL A   1      33.646  28.065  26.684  1.00  0.00     0.002 A 
BRANCH  17  22
ATOM     22  C   UNL A   1      30.428  25.343  25.889  1.00  0.00     0.257 C 
ATOM     23  N   UNL A   1      29.449  25.589  24.955  1.00  0.00    -0.322 N 
ATOM     24  H   UNL A   1      28.664  25.001  25.041  1.00  0.00     0.170 HD
ATOM     25  O   UNL A   1      30.258  24.368  26.626  1.00  0.00    -0.269 OA
BRANCH  23  26
ATOM     26  C   UNL A   1      29.348  26.509  23.907  1.00  0.00     0.041 A 
ATOM     27  C   UNL A   1      29.165  30.297  21.942  1.00  0.00     0.044 C 
ATOM     28  C   UNL A   1      29.178  28.903  22.492  1.00  0.00    -0.051 A 
ATOM     29  C   UNL A   1      30.358  28.152  22.468  1.00  0.00     0.005 A 
ATOM     30  C   UNL A   1      28.039  28.365  23.095  1.00  0.00     0.005 A 
ATOM     31  C   UNL A   1      30.437  26.941  23.158  1.00  0.00     0.026 A 
ATOM     32  C   UNL A   1      28.114  27.147  23.765  1.00  0.00     0.026 A 
ENDBRANCH  23  26
ENDBRANCH  17  22
ENDBRANCH  13  16
ENDBRANCH   7  12
ENDBRANCH   4   6
ENDBRANCH   3   4
ENDBRANCH   2   3
ENDBRANCH   1   2
BRANCH   1  33
ATOM     33  O   UNL A   1      40.313  20.868  26.199  1.00  0.00    -0.374 OA
BRANCH  33  34
ATOM     34  C   UNL A   1      41.007  19.629  26.146  1.00  0.00     0.202 C 
BRANCH  34  35
ATOM     35  C   UNL A   1      42.537  19.758  26.285  1.00  0.00     0.261 C 
BRANCH  35  36
ATOM     36  O   UNL A   1      43.088  20.408  25.116  1.00  0.00    -0.460 OA
BRANCH  36  37
ATOM     37  C   UNL A   1      44.028  21.372  25.339  1.00  0.00     0.338 C 
ATOM     38  O   UNL A   1      45.228  21.173  25.455  1.00  0.00    -0.246 OA
BRANCH  37  39
ATOM     39  C   UNL A   1      43.357  22.652  25.727  1.00  0.00     0.060 A 
ATOM     40  C   UNL A   1      43.375  23.770  24.867  1.00  0.00     0.016 A 
ATOM     41  C   UNL A   1      43.068  22.832  27.073  1.00  0.00     0.016 A 
ATOM     42  C   UNL A   1      43.268  25.074  25.389  1.00  0.00     0.010 A 
ATOM     43  C   UNL A   1      43.141  24.105  27.588  1.00  0.00     0.010 A 
ATOM     44  C   UNL A   1      43.255  25.244  26.767  1.00  0.00    -0.014 A 
BRANCH  44  45
ATOM     45  C   UNL A   1      43.444  26.494  27.528  1.00  0.00     0.031 A 
ATOM     46  C   UNL A   1      42.201  27.263  27.809  1.00  0.00     0.074 A 
ATOM     47  C   UNL A   1      44.587  26.794  28.212  1.00  0.00     0.049 A 
ATOM     48  N   UNL A   1      42.189  28.402  28.397  1.00  0.00    -0.248 NA
ATOM     49  C   UNL A   1      40.852  26.832  27.427  1.00  0.00     0.031 C 
ATOM     50  C   UNL A   1      44.740  27.666  29.388  1.00  0.00     0.029 A 
ATOM     51  N   UNL A   1      45.915  26.376  27.997  1.00  0.00    -0.354 N 
ATOM     52  C   UNL A   1      40.896  28.686  28.758  1.00  0.00     0.074 A 
ATOM     53  C   UNL A   1      40.091  27.741  28.039  1.00  0.00     0.031 C 
ATOM     54  C   UNL A   1      46.038  27.983  29.553  1.00  0.00     0.029 A 
ATOM     55  C   UNL A   1      46.756  27.421  28.427  1.00  0.00     0.049 A 
ATOM     56  H   UNL A   1      46.202  25.515  27.617  1.00  0.00     0.167 HD
ATOM     57  C   UNL A   1      40.712  29.635  29.714  1.00  0.00     0.037 A 
ATOM     58  C   UNL A   1      47.595  28.043  27.557  1.00  0.00     0.037 A 
ATOM     59  C   UNL A   1      41.977  30.343  29.956  1.00  0.00     0.049 A 
ATOM     60  C   UNL A   1      47.174  29.476  27.461  1.00  0.00     0.074 A 
ATOM     61  C   UNL A   1      42.898  30.348  30.988  1.00  0.00     0.029 A 
ATOM     62  N   UNL A   1      42.616  30.940  28.865  1.00  0.00    -0.354 N 
ATOM     63  N   UNL A   1      45.967  29.865  27.776  1.00  0.00    -0.248 NA
ATOM     64  C   UNL A   1      48.053  30.584  27.116  1.00  0.00     0.031 C 
ATOM     65  C   UNL A   1      44.121  30.879  30.474  1.00  0.00     0.029 A 
ATOM     66  C   UNL A   1      43.935  31.237  29.145  1.00  0.00     0.049 A 
ATOM     67  H   UNL A   1      42.179  31.126  28.003  1.00  0.00     0.167 HD
ATOM     68  C   UNL A   1      45.913  31.221  27.776  1.00  0.00     0.074 A 
ATOM     69  C   UNL A   1      47.231  31.630  27.319  1.00  0.00     0.031 C 
ATOM     70  C   UNL A   1      44.785  31.889  28.147  1.00  0.00     0.037 A 
BRANCH  57  71
ATOM     71  C   UNL A   1      39.449  29.855  30.524  1.00  0.00     0.064 A 
ATOM     72  C   UNL A   1      38.704  31.040  30.346  1.00  0.00     0.173 A 
ATOM     73  C   UNL A   1      38.955  29.006  31.540  1.00  0.00     0.173 A 
ATOM     74  F   UNL A   1      39.062  31.956  29.436  1.00  0.00    -0.203 F 
ATOM     75  C   UNL A   1      37.567  31.341  31.108  1.00  0.00     0.198 A 
ATOM     76  C   UNL A   1      37.793  29.285  32.269  1.00  0.00     0.198 A 
ATOM     77  F   UNL A   1      39.589  27.895  31.921  1.00  0.00    -0.203 F 
ATOM     78  F   UNL A   1      36.929  32.504  30.918  1.00  0.00    -0.200 F 
ATOM     79  C   UNL A   1      37.103  30.457  32.060  1.00  0.00     0.200 A 
ATOM     80  F   UNL A   1      37.366  28.412  33.193  1.00  0.00    -0.200 F 
ATOM     81  F   UNL A   1      36.011  30.738  32.782  1.00  0.00    -0.200 F 
ENDBRANCH  57  71
BRANCH  58  82
ATOM     82  C   UNL A   1      48.046  27.096  26.490  1.00  0.00     0.064 A 
ATOM     83  C   UNL A   1      47.471  27.307  25.214  1.00  0.00     0.173 A 
ATOM     84  C   UNL A   1      49.311  26.494  26.526  1.00  0.00     0.173 A 
ATOM     85  F   UNL A   1      46.249  27.858  25.113  1.00  0.00    -0.203 F 
ATOM     86  C   UNL A   1      48.229  27.168  24.054  1.00  0.00     0.198 A 
ATOM     87  C   UNL A   1      50.034  26.282  25.345  1.00  0.00     0.198 A 
ATOM     88  F   UNL A   1      49.914  26.258  27.699  1.00  0.00    -0.203 F 
ATOM     89  F   UNL A   1      47.768  27.641  22.890  1.00  0.00    -0.200 F 
ATOM     90  C   UNL A   1      49.519  26.683  24.121  1.00  0.00     0.200 A 
ATOM     91  F   UNL A   1      51.290  25.814  25.401  1.00  0.00    -0.200 F 
ATOM     92  F   UNL A   1      50.285  26.671  23.020  1.00  0.00    -0.200 F 
ENDBRANCH  58  82
BRANCH  70  93
ATOM     93  C   UNL A   1      44.428  33.254  27.622  1.00  0.00     0.064 A 
ATOM     94  C   UNL A   1      43.922  33.477  26.329  1.00  0.00     0.173 A 
ATOM     95  C   UNL A   1      44.409  34.376  28.483  1.00  0.00     0.173 A 
ATOM     96  F   UNL A   1      43.732  32.476  25.459  1.00  0.00    -0.203 F 
ATOM     97  C   UNL A   1      43.523  34.740  25.898  1.00  0.00     0.198 A 
ATOM     98  C   UNL A   1      43.925  35.616  28.075  1.00  0.00     0.198 A 
ATOM     99  F   UNL A   1      44.815  34.301  29.758  1.00  0.00    -0.203 F 
ATOM    100  F   UNL A   1      43.116  34.906  24.632  1.00  0.00    -0.200 F 
ATOM    101  C   UNL A   1      43.512  35.806  26.774  1.00  0.00     0.200 A 
ATOM    102  F   UNL A   1      43.841  36.617  28.961  1.00  0.00    -0.200 F 
ATOM    103  F   UNL A   1      43.077  37.006  26.372  1.00  0.00    -0.200 F 
ENDBRANCH  70  93
ENDBRANCH  44  45
ENDBRANCH  37  39
ENDBRANCH  36  37
ENDBRANCH  35  36
ENDBRANCH  34  35
ENDBRANCH  33  34
ENDBRANCH   1  33
TORSDOF 18
ENDMDL
MODEL 2
REMARK VINA RESULT:     -13.1      3.991     10.222
REMARK SMILES Cc1ccc(NC(=O)c2ccccc2NC(=O)[C@H]2CCCC[C@H]2C(=O)OCCOCCOC(=O)c2ccc(-c3c4nc(c(-c5c(F)c(F)c(F)c(F)c5F)c5ccc([nH]5)c(-c5c(F)c(F)c(F)c(F)c5F)c5nc(c(-c6c(F)c(F)c(F)c(F)c6F)c6ccc3[nH]6)C=C5)C=C4)cc2)cc1
REMARK SMILES IDX 28 1 27 2 26 3 24 4 25 5 23 6 18 7 19 8 20 9 22 10 21 11
REMARK SMILES IDX 16 12 15 13 17 15 14 16 9 17 10 18 11 19 13 20 12 21 7 22
REMARK SMILES IDX 6 23 8 25 5 26 1 27 2 28 3 29 99 30 4 31 98 32 29 33 30 34
REMARK SMILES IDX 31 35 32 36 33 37 34 38 35 39 36 40 97 41 37 42 96 43 38 44
REMARK SMILES IDX 39 45 40 46 90 47 41 48 95 49 89 50 91 51 42 52 94 53 88 54
REMARK SMILES IDX 87 55 43 57 75 58 55 59 74 60 56 61 59 62 73 63 92 64 57 65
REMARK SMILES IDX 58 66 72 68 93 69 60 70 44 71 45 72 53 73 46 74 47 75 51 76
REMARK SMILES IDX 54 77 48 78 49 79 52 80 50 81 76 82 77 83 85 84 78 85 79 86
REMARK SMILES IDX 83 87 86 88 80 89 81 90 84 91 82 92 61 93 62 94 70 95 63 96
REMARK SMILES IDX 64 97 68 98 71 99 65 100 66 101 69 102 67 103
REMARK H PARENT 15 14 6 24 91 56 59 67
REMARK Flexibility Score: inf
ROOT
ATOM      1  C   UNL A   1      32.078  30.604  26.529  1.00  0.00     0.202 C 
ENDROOT
BRANCH   1   2
ATOM      2  C   UNL A   1      32.991  29.769  25.703  1.00  0.00     0.261 C 
BRANCH   2   3
ATOM      3  O   UNL A   1      32.357  29.114  24.615  1.00  0.00    -0.463 OA
BRANCH   3   4
ATOM      4  C   UNL A   1      33.094  28.227  23.901  1.00  0.00     0.309 C 
ATOM      5  O   UNL A   1      34.263  28.338  23.603  1.00  0.00    -0.252 OA
BRANCH   4   6
ATOM      6  C   UNL A   1      32.223  27.037  23.563  1.00  0.00     0.111 C 
ATOM      7  C   UNL A   1      32.937  25.687  23.882  1.00  0.00     0.093 C 
ATOM      8  C   UNL A   1      31.989  24.515  23.607  1.00  0.00     0.014 C 
ATOM      9  C   UNL A   1      30.620  24.704  24.268  1.00  0.00     0.001 C 
ATOM     10  C   UNL A   1      30.830  27.209  24.161  1.00  0.00     0.016 C 
ATOM     11  C   UNL A   1      29.950  26.007  23.848  1.00  0.00     0.001 C 
BRANCH   7  12
ATOM     12  C   UNL A   1      33.470  25.516  25.313  1.00  0.00     0.228 C 
ATOM     13  N   UNL A   1      34.443  24.626  25.681  1.00  0.00    -0.325 N 
ATOM     14  H   UNL A   1      34.728  24.782  26.610  1.00  0.00     0.169 HD
ATOM     15  O   UNL A   1      33.048  26.253  26.214  1.00  0.00    -0.274 OA
BRANCH  13  16
ATOM     16  C   UNL A   1      35.159  23.538  25.107  1.00  0.00     0.054 A 
ATOM     17  C   UNL A   1      35.088  22.238  25.686  1.00  0.00     0.063 A 
ATOM     18  C   UNL A   1      36.001  21.242  25.261  1.00  0.00     0.016 A 
ATOM     19  C   UNL A   1      36.926  21.487  24.255  1.00  0.00     0.001 A 
ATOM     20  C   UNL A   1      36.025  23.718  24.020  1.00  0.00     0.027 A 
ATOM     21  C   UNL A   1      36.918  22.716  23.617  1.00  0.00     0.002 A 
BRANCH  17  22
ATOM     22  C   UNL A   1      34.239  21.789  26.837  1.00  0.00     0.257 C 
ATOM     23  N   UNL A   1      33.168  20.931  26.753  1.00  0.00    -0.322 N 
ATOM     24  H   UNL A   1      32.657  20.854  27.590  1.00  0.00     0.170 HD
ATOM     25  O   UNL A   1      34.490  22.256  27.952  1.00  0.00    -0.269 OA
BRANCH  23  26
ATOM     26  C   UNL A   1      32.663  20.145  25.713  1.00  0.00     0.041 A 
ATOM     27  C   UNL A   1      32.565  18.067  21.983  1.00  0.00     0.044 C 
ATOM     28  C   UNL A   1      32.440  18.775  23.297  1.00  0.00    -0.051 A 
ATOM     29  C   UNL A   1      32.626  18.072  24.492  1.00  0.00     0.005 A 
ATOM     30  C   UNL A   1      32.204  20.150  23.344  1.00  0.00     0.005 A 
ATOM     31  C   UNL A   1      32.716  18.755  25.706  1.00  0.00     0.026 A 
ATOM     32  C   UNL A   1      32.273  20.828  24.559  1.00  0.00     0.026 A 
ENDBRANCH  23  26
ENDBRANCH  17  22
ENDBRANCH  13  16
ENDBRANCH   7  12
ENDBRANCH   4   6
ENDBRANCH   3   4
ENDBRANCH   2   3
ENDBRANCH   1   2
BRANCH   1  33
ATOM     33  O   UNL A   1      32.820  31.619  27.176  1.00  0.00    -0.374 OA
BRANCH  33  34
ATOM     34  C   UNL A   1      32.140  32.865  27.229  1.00  0.00     0.202 C 
BRANCH  34  35
ATOM     35  C   UNL A   1      32.971  34.009  27.844  1.00  0.00     0.261 C 
BRANCH  35  36
ATOM     36  O   UNL A   1      34.330  33.570  28.070  1.00  0.00    -0.460 OA
BRANCH  36  37
ATOM     37  C   UNL A   1      34.678  33.298  29.361  1.00  0.00     0.338 C 
ATOM     38  O   UNL A   1      34.528  34.058  30.306  1.00  0.00    -0.246 OA
BRANCH  37  39
ATOM     39  C   UNL A   1      35.543  32.078  29.405  1.00  0.00     0.060 A 
ATOM     40  C   UNL A   1      35.601  31.271  30.562  1.00  0.00     0.016 A 
ATOM     41  C   UNL A   1      36.552  31.984  28.457  1.00  0.00     0.016 A 
ATOM     42  C   UNL A   1      36.748  30.503  30.838  1.00  0.00     0.010 A 
ATOM     43  C   UNL A   1      37.730  31.372  28.821  1.00  0.00     0.010 A 
ATOM     44  C   UNL A   1      37.858  30.635  30.015  1.00  0.00    -0.014 A 
BRANCH  44  45
ATOM     45  C   UNL A   1      39.236  30.172  30.267  1.00  0.00     0.031 A 
ATOM     46  C   UNL A   1      39.568  28.830  29.719  1.00  0.00     0.074 A 
ATOM     47  C   UNL A   1      40.244  30.997  30.679  1.00  0.00     0.049 A 
ATOM     48  N   UNL A   1      40.694  28.246  29.905  1.00  0.00    -0.248 NA
ATOM     49  C   UNL A   1      38.648  28.003  28.930  1.00  0.00     0.031 C 
ATOM     50  C   UNL A   1      41.692  30.839  30.465  1.00  0.00     0.029 A 
ATOM     51  N   UNL A   1      40.197  32.199  31.411  1.00  0.00    -0.354 N 
ATOM     52  C   UNL A   1      40.777  27.187  29.036  1.00  0.00     0.074 A 
ATOM     53  C   UNL A   1      39.445  27.009  28.533  1.00  0.00     0.031 C 
ATOM     54  C   UNL A   1      42.367  31.648  31.303  1.00  0.00     0.029 A 
ATOM     55  C   UNL A   1      41.385  32.275  32.165  1.00  0.00     0.049 A 
ATOM     56  H   UNL A   1      39.471  32.863  31.399  1.00  0.00     0.167 HD
ATOM     57  C   UNL A   1      42.014  26.678  28.792  1.00  0.00     0.037 A 
ATOM     58  C   UNL A   1      41.347  32.312  33.524  1.00  0.00     0.037 A 
ATOM     59  C   UNL A   1      42.975  27.236  29.755  1.00  0.00     0.049 A 
ATOM     60  C   UNL A   1      42.028  31.081  34.034  1.00  0.00     0.074 A 
ATOM     61  C   UNL A   1      44.002  28.159  29.669  1.00  0.00     0.029 A 
ATOM     62  N   UNL A   1      42.701  27.088  31.119  1.00  0.00    -0.354 N 
ATOM     63  N   UNL A   1      42.165  30.010  33.299  1.00  0.00    -0.248 NA
ATOM     64  C   UNL A   1      42.687  30.966  35.328  1.00  0.00     0.031 C 
ATOM     65  C   UNL A   1      44.279  28.622  30.992  1.00  0.00     0.029 A 
ATOM     66  C   UNL A   1      43.455  27.952  31.887  1.00  0.00     0.049 A 
ATOM     67  H   UNL A   1      42.050  26.447  31.485  1.00  0.00     0.167 HD
ATOM     68  C   UNL A   1      42.973  29.123  33.934  1.00  0.00     0.074 A 
ATOM     69  C   UNL A   1      43.245  29.747  35.218  1.00  0.00     0.031 C 
ATOM     70  C   UNL A   1      43.343  27.950  33.347  1.00  0.00     0.037 A 
BRANCH  57  71
ATOM     71  C   UNL A   1      42.402  25.785  27.630  1.00  0.00     0.064 A 
ATOM     72  C   UNL A   1      41.874  24.479  27.547  1.00  0.00     0.173 A 
ATOM     73  C   UNL A   1      43.335  26.099  26.617  1.00  0.00     0.173 A 
ATOM     74  F   UNL A   1      40.993  24.026  28.451  1.00  0.00    -0.203 F 
ATOM     75  C   UNL A   1      42.241  23.576  26.540  1.00  0.00     0.198 A 
ATOM     76  C   UNL A   1      43.667  25.213  25.585  1.00  0.00     0.198 A 
ATOM     77  F   UNL A   1      44.016  27.246  26.596  1.00  0.00    -0.203 F 
ATOM     78  F   UNL A   1      41.733  22.336  26.543  1.00  0.00    -0.200 F 
ATOM     79  C   UNL A   1      43.126  23.948  25.551  1.00  0.00     0.200 A 
ATOM     80  F   UNL A   1      44.536  25.596  24.637  1.00  0.00    -0.200 F 
ATOM     81  F   UNL A   1      43.470  23.091  24.581  1.00  0.00    -0.200 F 
ENDBRANCH  57  71
BRANCH  58  82
ATOM     82  C   UNL A   1      40.102  32.993  33.999  1.00  0.00     0.064 A 
ATOM     83  C   UNL A   1      39.129  32.139  34.572  1.00  0.00     0.173 A 
ATOM     84  C   UNL A   1      40.110  34.327  34.426  1.00  0.00     0.173 A 
ATOM     85  F   UNL A   1      39.054  30.855  34.185  1.00  0.00    -0.203 F 
ATOM     86  C   UNL A   1      38.397  32.536  35.689  1.00  0.00     0.198 A 
ATOM     87  C   UNL A   1      39.308  34.737  35.499  1.00  0.00     0.198 A 
ATOM     88  F   UNL A   1      40.999  35.194  33.923  1.00  0.00    -0.203 F 
ATOM     89  F   UNL A   1      37.699  31.634  36.388  1.00  0.00    -0.200 F 
ATOM     90  C   UNL A   1      38.507  33.825  36.170  1.00  0.00     0.200 A 
ATOM     91  F   UNL A   1      39.410  35.987  35.976  1.00  0.00    -0.200 F 
ATOM     92  F   UNL A   1      37.899  34.162  37.316  1.00  0.00    -0.200 F 
ENDBRANCH  58  82
BRANCH  70  93
ATOM     93  C   UNL A   1      43.681  26.711  34.131  1.00  0.00     0.064 A 
ATOM     94  C   UNL A   1      42.718  25.922  34.785  1.00  0.00     0.173 A 
ATOM     95  C   UNL A   1      44.986  26.167  34.094  1.00  0.00     0.173 A 
ATOM     96  F   UNL A   1      41.414  26.232  34.763  1.00  0.00    -0.203 F 
ATOM     97  C   UNL A   1      43.049  24.735  35.435  1.00  0.00     0.198 A 
ATOM     98  C   UNL A   1      45.294  24.936  34.668  1.00  0.00     0.198 A 
ATOM     99  F   UNL A   1      45.996  26.784  33.464  1.00  0.00    -0.203 F 
ATOM    100  F   UNL A   1      42.102  24.062  36.101  1.00  0.00    -0.200 F 
ATOM    101  C   UNL A   1      44.334  24.236  35.365  1.00  0.00     0.200 A 
ATOM    102  F   UNL A   1      46.524  24.426  34.518  1.00  0.00    -0.200 F 
ATOM    103  F   UNL A   1      44.637  23.068  35.945  1.00  0.00    -0.200 F 
ENDBRANCH  70  93
ENDBRANCH  44  45
ENDBRANCH  37  39
ENDBRANCH  36  37
ENDBRANCH  35  36
ENDBRANCH  34  35
ENDBRANCH  33  34
ENDBRANCH   1  33
TORSDOF 18
ENDMDL
MODEL 3
REMARK VINA RESULT:     -12.9      4.161      6.721
REMARK SMILES Cc1ccc(NC(=O)c2ccccc2NC(=O)[C@H]2CCCC[C@H]2C(=O)OCCOCCOC(=O)c2ccc(-c3c4nc(c(-c5c(F)c(F)c(F)c(F)c5F)c5ccc([nH]5)c(-c5c(F)c(F)c(F)c(F)c5F)c5nc(c(-c6c(F)c(F)c(F)c(F)c6F)c6ccc3[nH]6)C=C5)C=C4)cc2)cc1
REMARK SMILES IDX 28 1 27 2 26 3 24 4 25 5 23 6 18 7 19 8 20 9 22 10 21 11
REMARK SMILES IDX 16 12 15 13 17 15 14 16 9 17 10 18 11 19 13 20 12 21 7 22
REMARK SMILES IDX 6 23 8 25 5 26 1 27 2 28 3 29 99 30 4 31 98 32 29 33 30 34
REMARK SMILES IDX 31 35 32 36 33 37 34 38 35 39 36 40 97 41 37 42 96 43 38 44
REMARK SMILES IDX 39 45 40 46 90 47 41 48 95 49 89 50 91 51 42 52 94 53 88 54
REMARK SMILES IDX 87 55 43 57 75 58 55 59 74 60 56 61 59 62 73 63 92 64 57 65
REMARK SMILES IDX 58 66 72 68 93 69 60 70 44 71 45 72 53 73 46 74 47 75 51 76
REMARK SMILES IDX 54 77 48 78 49 79 52 80 50 81 76 82 77 83 85 84 78 85 79 86
REMARK SMILES IDX 83 87 86 88 80 89 81 90 84 91 82 92 61 93 62 94 70 95 63 96
REMARK SMILES IDX 64 97 68 98 71 99 65 100 66 101 69 102 67 103
REMARK H PARENT 15 14 6 24 91 56 59 67
REMARK Flexibility Score: inf
ROOT
ATOM      1  C   UNL A   1      38.930  23.792  26.606  1.00  0.00     0.202 C 
ENDROOT
BRANCH   1   2
ATOM      2  C   UNL A   1      37.689  24.078  25.838  1.00  0.00     0.261 C 
BRANCH   2   3
ATOM      3  O   UNL A   1      36.618  23.186  26.106  1.00  0.00    -0.463 OA
BRANCH   3   4
ATOM      4  C   UNL A   1      36.121  22.472  25.066  1.00  0.00     0.309 C 
ATOM      5  O   UNL A   1      36.607  22.378  23.960  1.00  0.00    -0.252 OA
BRANCH   4   6
ATOM      6  C   UNL A   1      34.863  21.767  25.520  1.00  0.00     0.111 C 
ATOM      7  C   UNL A   1      33.665  22.755  25.673  1.00  0.00     0.093 C 
ATOM      8  C   UNL A   1      32.395  21.987  26.049  1.00  0.00     0.014 C 
ATOM      9  C   UNL A   1      32.142  20.790  25.126  1.00  0.00     0.001 C 
ATOM     10  C   UNL A   1      34.601  20.535  24.658  1.00  0.00     0.016 C 
ATOM     11  C   UNL A   1      33.324  19.828  25.090  1.00  0.00     0.001 C 
BRANCH   7  12
ATOM     12  C   UNL A   1      33.330  23.618  24.446  1.00  0.00     0.228 C 
ATOM     13  N   UNL A   1      33.096  24.966  24.483  1.00  0.00    -0.325 N 
ATOM     14  H   UNL A   1      33.041  25.338  23.573  1.00  0.00     0.169 HD
ATOM     15  O   UNL A   1      33.310  23.100  23.322  1.00  0.00    -0.274 OA
BRANCH  13  16
ATOM     16  C   UNL A   1      32.908  25.986  25.458  1.00  0.00     0.054 A 
ATOM     17  C   UNL A   1      31.628  26.195  26.050  1.00  0.00     0.063 A 
ATOM     18  C   UNL A   1      31.404  27.366  26.813  1.00  0.00     0.016 A 
ATOM     19  C   UNL A   1      32.417  28.287  27.044  1.00  0.00     0.001 A 
ATOM     20  C   UNL A   1      33.935  26.874  25.803  1.00  0.00     0.027 A 
ATOM     21  C   UNL A   1      33.689  28.025  26.563  1.00  0.00     0.002 A 
BRANCH  17  22
ATOM     22  C   UNL A   1      30.381  25.387  25.854  1.00  0.00     0.257 C 
ATOM     23  N   UNL A   1      29.386  25.661  24.947  1.00  0.00    -0.322 N 
ATOM     24  H   UNL A   1      28.588  25.094  25.052  1.00  0.00     0.170 HD
ATOM     25  O   UNL A   1      30.205  24.416  26.595  1.00  0.00    -0.269 OA
BRANCH  23  26
ATOM     26  C   UNL A   1      29.283  26.584  23.902  1.00  0.00     0.041 A 
ATOM     27  C   UNL A   1      29.149  30.379  21.946  1.00  0.00     0.044 C 
ATOM     28  C   UNL A   1      29.140  28.985  22.495  1.00  0.00    -0.051 A 
ATOM     29  C   UNL A   1      30.299  28.203  22.441  1.00  0.00     0.005 A 
ATOM     30  C   UNL A   1      28.002  28.476  23.125  1.00  0.00     0.005 A 
ATOM     31  C   UNL A   1      30.364  26.989  23.127  1.00  0.00     0.026 A 
ATOM     32  C   UNL A   1      28.063  27.255  23.792  1.00  0.00     0.026 A 
ENDBRANCH  23  26
ENDBRANCH  17  22
ENDBRANCH  13  16
ENDBRANCH   7  12
ENDBRANCH   4   6
ENDBRANCH   3   4
ENDBRANCH   2   3
ENDBRANCH   1   2
BRANCH   1  33
ATOM     33  O   UNL A   1      39.799  24.905  26.534  1.00  0.00    -0.374 OA
BRANCH  33  34
ATOM     34  C   UNL A   1      41.145  24.589  26.860  1.00  0.00     0.202 C 
BRANCH  34  35
ATOM     35  C   UNL A   1      42.191  25.346  26.017  1.00  0.00     0.261 C 
BRANCH  35  36
ATOM     36  O   UNL A   1      42.437  26.652  26.589  1.00  0.00    -0.460 OA
BRANCH  36  37
ATOM     37  C   UNL A   1      42.162  27.728  25.796  1.00  0.00     0.338 C 
ATOM     38  O   UNL A   1      42.493  27.845  24.626  1.00  0.00    -0.246 OA
BRANCH  37  39
ATOM     39  C   UNL A   1      41.676  28.865  26.640  1.00  0.00     0.060 A 
ATOM     40  C   UNL A   1      42.569  29.602  27.448  1.00  0.00     0.016 A 
ATOM     41  C   UNL A   1      40.314  28.921  26.902  1.00  0.00     0.016 A 
ATOM     42  C   UNL A   1      42.107  30.252  28.609  1.00  0.00     0.010 A 
ATOM     43  C   UNL A   1      39.908  29.408  28.122  1.00  0.00     0.010 A 
ATOM     44  C   UNL A   1      40.789  30.067  29.001  1.00  0.00    -0.014 A 
BRANCH  44  45
ATOM     45  C   UNL A   1      40.175  30.395  30.302  1.00  0.00     0.031 A 
ATOM     46  C   UNL A   1      39.380  31.652  30.333  1.00  0.00     0.074 A 
ATOM     47  C   UNL A   1      40.051  29.497  31.325  1.00  0.00     0.049 A 
ATOM     48  N   UNL A   1      38.837  32.123  31.395  1.00  0.00    -0.248 NA
ATOM     49  C   UNL A   1      39.144  32.516  29.172  1.00  0.00     0.031 C 
ATOM     50  C   UNL A   1      39.050  29.482  32.404  1.00  0.00     0.029 A 
ATOM     51  N   UNL A   1      40.822  28.361  31.639  1.00  0.00    -0.354 N 
ATOM     52  C   UNL A   1      37.950  33.103  31.027  1.00  0.00     0.074 A 
ATOM     53  C   UNL A   1      38.257  33.388  29.654  1.00  0.00     0.031 C 
ATOM     54  C   UNL A   1      39.460  28.666  33.393  1.00  0.00     0.029 A 
ATOM     55  C   UNL A   1      40.790  28.211  33.040  1.00  0.00     0.049 A 
ATOM     56  H   UNL A   1      41.294  27.781  31.000  1.00  0.00     0.167 HD
ATOM     57  C   UNL A   1      37.002  33.457  31.934  1.00  0.00     0.037 A 
ATOM     58  C   UNL A   1      41.933  28.273  33.773  1.00  0.00     0.037 A 
ATOM     59  C   UNL A   1      37.326  32.867  33.241  1.00  0.00     0.049 A 
ATOM     60  C   UNL A   1      41.828  29.456  34.684  1.00  0.00     0.074 A 
ATOM     61  C   UNL A   1      36.793  31.834  33.992  1.00  0.00     0.029 A 
ATOM     62  N   UNL A   1      38.582  33.138  33.792  1.00  0.00    -0.354 N 
ATOM     63  N   UNL A   1      41.020  30.452  34.436  1.00  0.00    -0.248 NA
ATOM     64  C   UNL A   1      42.512  29.589  35.963  1.00  0.00     0.031 C 
ATOM     65  C   UNL A   1      37.782  31.438  34.945  1.00  0.00     0.029 A 
ATOM     66  C   UNL A   1      38.897  32.254  34.804  1.00  0.00     0.049 A 
ATOM     67  H   UNL A   1      39.169  33.870  33.495  1.00  0.00     0.167 HD
ATOM     68  C   UNL A   1      40.987  31.288  35.504  1.00  0.00     0.074 A 
ATOM     69  C   UNL A   1      41.966  30.730  36.422  1.00  0.00     0.031 C 
ATOM     70  C   UNL A   1      40.160  32.370  35.536  1.00  0.00     0.037 A 
BRANCH  57  71
ATOM     71  C   UNL A   1      35.724  34.219  31.642  1.00  0.00     0.064 A 
ATOM     72  C   UNL A   1      35.227  35.138  32.591  1.00  0.00     0.173 A 
ATOM     73  C   UNL A   1      34.895  34.048  30.511  1.00  0.00     0.173 A 
ATOM     74  F   UNL A   1      35.890  35.389  33.729  1.00  0.00    -0.203 F 
ATOM     75  C   UNL A   1      34.018  35.824  32.419  1.00  0.00     0.198 A 
ATOM     76  C   UNL A   1      33.711  34.769  30.317  1.00  0.00     0.198 A 
ATOM     77  F   UNL A   1      35.149  33.144  29.562  1.00  0.00    -0.203 F 
ATOM     78  F   UNL A   1      33.581  36.652  33.379  1.00  0.00    -0.200 F 
ATOM     79  C   UNL A   1      33.267  35.651  31.276  1.00  0.00     0.200 A 
ATOM     80  F   UNL A   1      32.995  34.578  29.199  1.00  0.00    -0.200 F 
ATOM     81  F   UNL A   1      32.116  36.315  31.104  1.00  0.00    -0.200 F 
ENDBRANCH  57  71
BRANCH  58  82
ATOM     82  C   UNL A   1      43.097  27.765  32.981  1.00  0.00     0.064 A 
ATOM     83  C   UNL A   1      43.891  28.765  32.368  1.00  0.00     0.173 A 
ATOM     84  C   UNL A   1      43.727  26.554  33.293  1.00  0.00     0.173 A 
ATOM     85  F   UNL A   1      43.338  29.939  32.021  1.00  0.00    -0.203 F 
ATOM     86  C   UNL A   1      45.278  28.648  32.319  1.00  0.00     0.198 A 
ATOM     87  C   UNL A   1      45.116  26.419  33.164  1.00  0.00     0.198 A 
ATOM     88  F   UNL A   1      43.037  25.561  33.870  1.00  0.00    -0.203 F 
ATOM     89  F   UNL A   1      46.029  29.709  32.003  1.00  0.00    -0.200 F 
ATOM     90  C   UNL A   1      45.893  27.488  32.743  1.00  0.00     0.200 A 
ATOM     91  F   UNL A   1      45.723  25.296  33.576  1.00  0.00    -0.200 F 
ATOM     92  F   UNL A   1      47.231  27.430  32.813  1.00  0.00    -0.200 F 
ENDBRANCH  58  82
BRANCH  70  93
ATOM     93  C   UNL A   1      40.469  33.618  36.320  1.00  0.00     0.064 A 
ATOM     94  C   UNL A   1      41.513  34.501  35.987  1.00  0.00     0.173 A 
ATOM     95  C   UNL A   1      39.595  34.068  37.335  1.00  0.00     0.173 A 
ATOM     96  F   UNL A   1      42.322  34.281  34.942  1.00  0.00    -0.203 F 
ATOM     97  C   UNL A   1      41.725  35.690  36.681  1.00  0.00     0.198 A 
ATOM     98  C   UNL A   1      39.759  35.299  37.965  1.00  0.00     0.198 A 
ATOM     99  F   UNL A   1      38.529  33.354  37.723  1.00  0.00    -0.203 F 
ATOM    100  F   UNL A   1      42.778  36.457  36.366  1.00  0.00    -0.200 F 
ATOM    101  C   UNL A   1      40.841  36.095  37.660  1.00  0.00     0.200 A 
ATOM    102  F   UNL A   1      38.845  35.715  38.852  1.00  0.00    -0.200 F 
ATOM    103  F   UNL A   1      41.018  37.264  38.288  1.00  0.00    -0.200 F 
ENDBRANCH  70  93
ENDBRANCH  44  45
ENDBRANCH  37  39
ENDBRANCH  36  37
ENDBRANCH  35  36
ENDBRANCH  34  35
ENDBRANCH  33  34
ENDBRANCH   1  33
TORSDOF 18
ENDMDL
