MODEL 1
REMARK VINA RESULT:     -12.7      0.000      0.000
REMARK SMILES Nc1ccc(-c2cc(Cl)cc3c2O[C@H](C(F)(F)F)C(C(=O)OCCOCCOC(=O)c2ccc(-c4c5nc(c(-c6c(F)c(F)c(F)c(F)c6F)c6ccc([nH]6)c(-c6c(F)c(F)c(F)c(F)c6F)c6nc(c(-c7c(F)c(F)c(F)c(F)c7F)c7ccc4[nH]7)C=C6)C=C5)cc2)=C3)cc1
REMARK SMILES IDX 25 1 24 2 23 3 22 4 20 5 21 6 19 7 6 8 7 9 12 10 8 11 11 12
REMARK SMILES IDX 13 13 9 14 10 15 94 16 14 17 5 18 2 19 3 20 96 21 4 22 95 23
REMARK SMILES IDX 1 24 15 27 16 28 17 29 18 30 26 31 27 32 28 33 29 34 30 35
REMARK SMILES IDX 31 36 32 37 93 38 33 39 92 40 34 41 35 42 36 43 86 44 37 45
REMARK SMILES IDX 91 46 85 47 87 48 38 49 90 50 84 51 83 52 39 54 71 55 51 56
REMARK SMILES IDX 70 57 52 58 55 59 69 60 88 61 53 62 54 63 68 65 89 66 56 67
REMARK SMILES IDX 40 68 41 69 49 70 42 71 43 72 47 73 50 74 44 75 45 76 48 77
REMARK SMILES IDX 46 78 72 79 73 80 81 81 74 82 75 83 79 84 82 85 76 86 77 87
REMARK SMILES IDX 80 88 78 89 57 90 58 91 66 92 59 93 60 94 64 95 67 96 61 97
REMARK SMILES IDX 62 98 65 99 63 100
REMARK H PARENT 1 25 1 26 87 53 55 64
REMARK Flexibility Score: inf
ROOT
ATOM      1  O   UNL A   1      32.440  29.305  23.701  1.00  0.00    -0.374 OA
ENDROOT
BRANCH   1   2
ATOM      2  C   UNL A   1      33.474  28.680  22.950  1.00  0.00     0.202 C 
BRANCH   2   3
ATOM      3  C   UNL A   1      33.162  27.344  22.268  1.00  0.00     0.261 C 
BRANCH   3   4
ATOM      4  O   UNL A   1      33.705  26.227  22.985  1.00  0.00    -0.460 OA
BRANCH   4   5
ATOM      5  C   UNL A   1      32.830  25.627  23.826  1.00  0.00     0.338 C 
ATOM      6  O   UNL A   1      31.702  26.005  24.100  1.00  0.00    -0.246 OA
BRANCH   5   7
ATOM      7  C   UNL A   1      33.386  24.344  24.296  1.00  0.00     0.087 C 
ATOM      8  C   UNL A   1      35.212  20.674  25.126  1.00  0.00     0.026 A 
ATOM      9  C   UNL A   1      36.598  20.667  25.372  1.00  0.00     0.033 A 
ATOM     10  C   UNL A   1      34.572  21.920  24.957  1.00  0.00     0.135 A 
ATOM     11  C   UNL A   1      37.317  21.858  25.451  1.00  0.00     0.042 A 
ATOM     12  C   UNL A   1      35.311  23.109  24.990  1.00  0.00     0.019 A 
ATOM     13  O   UNL A   1      33.210  21.915  24.791  1.00  0.00    -0.475 OA
ATOM     14  Cl  UNL A   1      39.012  21.818  25.747  1.00  0.00    -0.084 Cl
ATOM     15  C   UNL A   1      36.681  23.078  25.258  1.00  0.00     0.032 A 
ATOM     16  C   UNL A   1      34.671  24.371  24.665  1.00  0.00     0.027 C 
ATOM     17  C   UNL A   1      32.538  23.106  24.309  1.00  0.00     0.316 C 
BRANCH   8  18
ATOM     18  C   UNL A   1      34.495  19.392  24.989  1.00  0.00    -0.014 A 
ATOM     19  C   UNL A   1      33.147  16.907  24.754  1.00  0.00     0.031 A 
ATOM     20  C   UNL A   1      34.418  17.080  24.210  1.00  0.00     0.026 A 
ATOM     21  C   UNL A   1      32.572  17.968  25.455  1.00  0.00     0.026 A 
ATOM     22  C   UNL A   1      35.081  18.307  24.319  1.00  0.00     0.011 A 
ATOM     23  C   UNL A   1      33.230  19.199  25.562  1.00  0.00     0.011 A 
BRANCH  19  24
ATOM     24  N   UNL A   1      32.526  15.670  24.712  1.00  0.00    -0.399 N 
ATOM     25  H   UNL A   1      31.569  15.592  24.929  1.00  0.00     0.156 HD
ATOM     26  H   UNL A   1      33.041  14.868  24.465  1.00  0.00     0.156 HD
ENDBRANCH  19  24
ENDBRANCH   8  18
BRANCH  17  27
ATOM     27  C   UNL A   1      31.921  22.793  22.938  1.00  0.00     0.430 C 
ATOM     28  F   UNL A   1      31.811  21.457  22.740  1.00  0.00    -0.167 F 
ATOM     29  F   UNL A   1      30.672  23.303  22.820  1.00  0.00    -0.167 F 
ATOM     30  F   UNL A   1      32.662  23.293  21.924  1.00  0.00    -0.167 F 
ENDBRANCH  17  27
ENDBRANCH   5   7
ENDBRANCH   4   5
ENDBRANCH   3   4
ENDBRANCH   2   3
ENDBRANCH   1   2
BRANCH   1  31
ATOM     31  C   UNL A   1      32.527  29.306  25.125  1.00  0.00     0.202 C 
BRANCH  31  32
ATOM     32  C   UNL A   1      31.868  30.454  25.900  1.00  0.00     0.261 C 
BRANCH  32  33
ATOM     33  O   UNL A   1      32.425  30.639  27.212  1.00  0.00    -0.460 OA
BRANCH  33  34
ATOM     34  C   UNL A   1      33.207  31.738  27.345  1.00  0.00     0.338 C 
ATOM     35  O   UNL A   1      32.869  32.908  27.245  1.00  0.00    -0.246 OA
BRANCH  34  36
ATOM     36  C   UNL A   1      34.539  31.337  27.834  1.00  0.00     0.060 A 
ATOM     37  C   UNL A   1      35.555  32.274  28.016  1.00  0.00     0.016 A 
ATOM     38  C   UNL A   1      34.741  29.989  28.165  1.00  0.00     0.016 A 
ATOM     39  C   UNL A   1      36.770  31.861  28.569  1.00  0.00     0.010 A 
ATOM     40  C   UNL A   1      35.954  29.580  28.717  1.00  0.00     0.010 A 
ATOM     41  C   UNL A   1      36.969  30.518  28.948  1.00  0.00    -0.014 A 
BRANCH  41  42
ATOM     42  C   UNL A   1      38.176  30.138  29.721  1.00  0.00     0.031 A 
ATOM     43  C   UNL A   1      38.416  30.645  31.110  1.00  0.00     0.074 A 
ATOM     44  C   UNL A   1      39.073  29.322  29.136  1.00  0.00     0.049 A 
ATOM     45  N   UNL A   1      39.371  30.324  31.946  1.00  0.00    -0.248 NA
ATOM     46  C   UNL A   1      37.474  31.648  31.626  1.00  0.00     0.031 C 
ATOM     47  C   UNL A   1      38.971  28.813  27.767  1.00  0.00     0.029 A 
ATOM     48  N   UNL A   1      40.235  28.769  29.611  1.00  0.00    -0.354 N 
ATOM     49  C   UNL A   1      39.132  31.062  33.096  1.00  0.00     0.074 A 
ATOM     50  C   UNL A   1      37.976  31.893  32.830  1.00  0.00     0.031 C 
ATOM     51  C   UNL A   1      39.999  27.987  27.528  1.00  0.00     0.029 A 
ATOM     52  C   UNL A   1      40.850  27.931  28.714  1.00  0.00     0.049 A 
ATOM     53  H   UNL A   1      40.594  28.956  30.509  1.00  0.00     0.167 HD
ATOM     54  C   UNL A   1      39.804  31.025  34.272  1.00  0.00     0.037 A 
ATOM     55  C   UNL A   1      41.968  27.190  28.835  1.00  0.00     0.037 A 
ATOM     56  C   UNL A   1      40.965  30.206  34.520  1.00  0.00     0.049 A 
ATOM     57  C   UNL A   1      42.718  27.200  30.139  1.00  0.00     0.074 A 
ATOM     58  C   UNL A   1      41.687  30.070  35.693  1.00  0.00     0.029 A 
ATOM     59  N   UNL A   1      41.582  29.396  33.578  1.00  0.00    -0.354 N 
ATOM     60  N   UNL A   1      42.429  27.827  31.252  1.00  0.00    -0.248 NA
ATOM     61  C   UNL A   1      43.946  26.395  30.203  1.00  0.00     0.031 C 
ATOM     62  C   UNL A   1      42.775  29.228  35.445  1.00  0.00     0.029 A 
ATOM     63  C   UNL A   1      42.696  28.785  34.134  1.00  0.00     0.049 A 
ATOM     64  H   UNL A   1      41.275  29.272  32.650  1.00  0.00     0.167 HD
ATOM     65  C   UNL A   1      43.421  27.477  32.157  1.00  0.00     0.074 A 
ATOM     66  C   UNL A   1      44.313  26.568  31.467  1.00  0.00     0.031 C 
ATOM     67  C   UNL A   1      43.577  27.877  33.442  1.00  0.00     0.037 A 
BRANCH  54  68
ATOM     68  C   UNL A   1      39.300  31.880  35.399  1.00  0.00     0.064 A 
ATOM     69  C   UNL A   1      38.403  31.374  36.352  1.00  0.00     0.173 A 
ATOM     70  C   UNL A   1      39.786  33.184  35.585  1.00  0.00     0.173 A 
ATOM     71  F   UNL A   1      37.907  30.135  36.220  1.00  0.00    -0.203 F 
ATOM     72  C   UNL A   1      38.001  32.145  37.440  1.00  0.00     0.198 A 
ATOM     73  C   UNL A   1      39.405  33.941  36.690  1.00  0.00     0.198 A 
ATOM     74  F   UNL A   1      40.655  33.714  34.710  1.00  0.00    -0.203 F 
ATOM     75  F   UNL A   1      37.120  31.650  38.321  1.00  0.00    -0.200 F 
ATOM     76  C   UNL A   1      38.510  33.423  37.614  1.00  0.00     0.200 A 
ATOM     77  F   UNL A   1      39.913  35.169  36.866  1.00  0.00    -0.200 F 
ATOM     78  F   UNL A   1      38.138  34.156  38.673  1.00  0.00    -0.200 F 
ENDBRANCH  54  68
BRANCH  55  79
ATOM     79  C   UNL A   1      42.407  26.338  27.700  1.00  0.00     0.064 A 
ATOM     80  C   UNL A   1      43.359  26.801  26.781  1.00  0.00     0.173 A 
ATOM     81  C   UNL A   1      41.915  25.036  27.530  1.00  0.00     0.173 A 
ATOM     82  F   UNL A   1      43.848  28.044  26.892  1.00  0.00    -0.203 F 
ATOM     83  C   UNL A   1      43.796  25.995  25.730  1.00  0.00     0.198 A 
ATOM     84  C   UNL A   1      42.374  24.221  26.498  1.00  0.00     0.198 A 
ATOM     85  F   UNL A   1      41.008  24.544  28.386  1.00  0.00    -0.203 F 
ATOM     86  F   UNL A   1      44.682  26.473  24.848  1.00  0.00    -0.200 F 
ATOM     87  C   UNL A   1      43.310  24.704  25.595  1.00  0.00     0.200 A 
ATOM     88  F   UNL A   1      41.917  22.967  26.382  1.00  0.00    -0.200 F 
ATOM     89  F   UNL A   1      43.743  23.924  24.595  1.00  0.00    -0.200 F 
ENDBRANCH  55  79
BRANCH  67  90
ATOM     90  C   UNL A   1      44.746  27.328  34.210  1.00  0.00     0.064 A 
ATOM     91  C   UNL A   1      44.665  26.107  34.895  1.00  0.00     0.173 A 
ATOM     92  C   UNL A   1      45.986  27.985  34.183  1.00  0.00     0.173 A 
ATOM     93  F   UNL A   1      43.500  25.446  34.963  1.00  0.00    -0.203 F 
ATOM     94  C   UNL A   1      45.781  25.567  35.532  1.00  0.00     0.198 A 
ATOM     95  C   UNL A   1      47.106  27.427  34.793  1.00  0.00     0.198 A 
ATOM     96  F   UNL A   1      46.120  29.152  33.536  1.00  0.00    -0.203 F 
ATOM     97  F   UNL A   1      45.673  24.415  36.205  1.00  0.00    -0.200 F 
ATOM     98  C   UNL A   1      47.002  26.222  35.469  1.00  0.00     0.200 A 
ATOM     99  F   UNL A   1      48.290  28.052  34.716  1.00  0.00    -0.200 F 
ATOM    100  F   UNL A   1      48.080  25.689  36.061  1.00  0.00    -0.200 F 
ENDBRANCH  67  90
ENDBRANCH  41  42
ENDBRANCH  34  36
ENDBRANCH  33  34
ENDBRANCH  32  33
ENDBRANCH  31  32
ENDBRANCH   1  31
TORSDOF 17
ENDMDL
MODEL 2
REMARK VINA RESULT:     -12.5      4.374     10.044
REMARK SMILES Nc1ccc(-c2cc(Cl)cc3c2O[C@H](C(F)(F)F)C(C(=O)OCCOCCOC(=O)c2ccc(-c4c5nc(c(-c6c(F)c(F)c(F)c(F)c6F)c6ccc([nH]6)c(-c6c(F)c(F)c(F)c(F)c6F)c6nc(c(-c7c(F)c(F)c(F)c(F)c7F)c7ccc4[nH]7)C=C6)C=C5)cc2)=C3)cc1
REMARK SMILES IDX 25 1 24 2 23 3 22 4 20 5 21 6 19 7 6 8 7 9 12 10 8 11 11 12
REMARK SMILES IDX 13 13 9 14 10 15 94 16 14 17 5 18 2 19 3 20 96 21 4 22 95 23
REMARK SMILES IDX 1 24 15 27 16 28 17 29 18 30 26 31 27 32 28 33 29 34 30 35
REMARK SMILES IDX 31 36 32 37 93 38 33 39 92 40 34 41 35 42 36 43 86 44 37 45
REMARK SMILES IDX 91 46 85 47 87 48 38 49 90 50 84 51 83 52 39 54 71 55 51 56
REMARK SMILES IDX 70 57 52 58 55 59 69 60 88 61 53 62 54 63 68 65 89 66 56 67
REMARK SMILES IDX 40 68 41 69 49 70 42 71 43 72 47 73 50 74 44 75 45 76 48 77
REMARK SMILES IDX 46 78 72 79 73 80 81 81 74 82 75 83 79 84 82 85 76 86 77 87
REMARK SMILES IDX 80 88 78 89 57 90 58 91 66 92 59 93 60 94 64 95 67 96 61 97
REMARK SMILES IDX 62 98 65 99 63 100
REMARK H PARENT 1 25 1 26 87 53 55 64
REMARK Flexibility Score: inf
ROOT
ATOM      1  O   UNL A   1      35.216  21.245  26.090  1.00  0.00    -0.374 OA
ENDROOT
BRANCH   1   2
ATOM      2  C   UNL A   1      33.897  20.988  26.560  1.00  0.00     0.202 C 
BRANCH   2   3
ATOM      3  C   UNL A   1      32.790  21.973  26.170  1.00  0.00     0.261 C 
BRANCH   3   4
ATOM      4  O   UNL A   1      33.292  23.300  25.961  1.00  0.00    -0.460 OA
BRANCH   4   5
ATOM      5  C   UNL A   1      33.365  23.669  24.660  1.00  0.00     0.338 C 
ATOM      6  O   UNL A   1      33.532  22.934  23.700  1.00  0.00    -0.246 OA
BRANCH   5   7
ATOM      7  C   UNL A   1      33.086  25.111  24.531  1.00  0.00     0.087 C 
ATOM      8  C   UNL A   1      31.990  29.147  24.633  1.00  0.00     0.026 A 
ATOM      9  C   UNL A   1      32.593  29.971  25.602  1.00  0.00     0.033 A 
ATOM     10  C   UNL A   1      32.437  27.813  24.520  1.00  0.00     0.135 A 
ATOM     11  C   UNL A   1      33.608  29.483  26.424  1.00  0.00     0.042 A 
ATOM     12  C   UNL A   1      33.424  27.319  25.383  1.00  0.00     0.019 A 
ATOM     13  O   UNL A   1      31.892  27.044  23.523  1.00  0.00    -0.475 OA
ATOM     14  Cl  UNL A   1      34.322  30.512  27.604  1.00  0.00    -0.084 Cl
ATOM     15  C   UNL A   1      34.024  28.162  26.321  1.00  0.00     0.032 A 
ATOM     16  C   UNL A   1      33.769  25.909  25.360  1.00  0.00     0.027 C 
ATOM     17  C   UNL A   1      32.069  25.604  23.544  1.00  0.00     0.316 C 
BRANCH   8  18
ATOM     18  C   UNL A   1      30.878  29.678  23.822  1.00  0.00    -0.014 A 
ATOM     19  C   UNL A   1      28.759  30.742  22.264  1.00  0.00     0.031 A 
ATOM     20  C   UNL A   1      28.934  31.136  23.589  1.00  0.00     0.026 A 
ATOM     21  C   UNL A   1      29.675  29.848  21.709  1.00  0.00     0.026 A 
ATOM     22  C   UNL A   1      29.973  30.607  24.361  1.00  0.00     0.011 A 
ATOM     23  C   UNL A   1      30.714  29.312  22.480  1.00  0.00     0.011 A 
BRANCH  19  24
ATOM     24  N   UNL A   1      27.777  31.325  21.481  1.00  0.00    -0.399 N 
ATOM     25  H   UNL A   1      27.952  31.507  20.529  1.00  0.00     0.156 HD
ATOM     26  H   UNL A   1      26.906  31.556  21.875  1.00  0.00     0.156 HD
ENDBRANCH  19  24
ENDBRANCH   8  18
BRANCH  17  27
ATOM     27  C   UNL A   1      30.693  24.949  23.730  1.00  0.00     0.430 C 
ATOM     28  F   UNL A   1      29.692  25.807  23.417  1.00  0.00    -0.167 F 
ATOM     29  F   UNL A   1      30.538  23.869  22.929  1.00  0.00    -0.167 F 
ATOM     30  F   UNL A   1      30.495  24.543  25.003  1.00  0.00    -0.167 F 
ENDBRANCH  17  27
ENDBRANCH   5   7
ENDBRANCH   4   5
ENDBRANCH   3   4
ENDBRANCH   2   3
ENDBRANCH   1   2
BRANCH   1  31
ATOM     31  C   UNL A   1      35.735  20.450  25.026  1.00  0.00     0.202 C 
BRANCH  31  32
ATOM     32  C   UNL A   1      37.245  20.184  24.978  1.00  0.00     0.261 C 
BRANCH  32  33
ATOM     33  O   UNL A   1      38.031  21.344  25.297  1.00  0.00    -0.460 OA
BRANCH  33  34
ATOM     34  C   UNL A   1      39.151  21.089  26.016  1.00  0.00     0.338 C 
ATOM     35  O   UNL A   1      39.775  20.040  26.074  1.00  0.00    -0.246 OA
BRANCH  34  36
ATOM     36  C   UNL A   1      39.656  22.345  26.601  1.00  0.00     0.060 A 
ATOM     37  C   UNL A   1      40.676  22.340  27.552  1.00  0.00     0.016 A 
ATOM     38  C   UNL A   1      39.119  23.552  26.133  1.00  0.00     0.016 A 
ATOM     39  C   UNL A   1      41.185  23.559  28.008  1.00  0.00     0.010 A 
ATOM     40  C   UNL A   1      39.630  24.767  26.590  1.00  0.00     0.010 A 
ATOM     41  C   UNL A   1      40.685  24.779  27.512  1.00  0.00    -0.014 A 
BRANCH  41  42
ATOM     42  C   UNL A   1      41.372  26.051  27.844  1.00  0.00     0.031 A 
ATOM     43  C   UNL A   1      42.776  26.328  27.405  1.00  0.00     0.074 A 
ATOM     44  C   UNL A   1      40.699  26.964  28.571  1.00  0.00     0.049 A 
ATOM     45  N   UNL A   1      43.473  27.429  27.533  1.00  0.00    -0.248 NA
ATOM     46  C   UNL A   1      43.499  25.230  26.748  1.00  0.00     0.031 C 
ATOM     47  C   UNL A   1      39.347  26.777  29.102  1.00  0.00     0.029 A 
ATOM     48  N   UNL A   1      41.047  28.225  28.980  1.00  0.00    -0.354 N 
ATOM     49  C   UNL A   1      44.705  27.169  26.950  1.00  0.00     0.074 A 
ATOM     50  C   UNL A   1      44.682  25.786  26.521  1.00  0.00     0.031 C 
ATOM     51  C   UNL A   1      38.962  27.900  29.725  1.00  0.00     0.029 A 
ATOM     52  C   UNL A   1      40.050  28.874  29.666  1.00  0.00     0.049 A 
ATOM     53  H   UNL A   1      41.928  28.628  28.800  1.00  0.00     0.167 HD
ATOM     54  C   UNL A   1      45.745  28.019  26.770  1.00  0.00     0.037 A 
ATOM     55  C   UNL A   1      40.008  30.118  30.181  1.00  0.00     0.037 A 
ATOM     56  C   UNL A   1      45.763  29.389  27.217  1.00  0.00     0.049 A 
ATOM     57  C   UNL A   1      41.194  31.026  30.003  1.00  0.00     0.074 A 
ATOM     58  C   UNL A   1      46.755  30.338  27.043  1.00  0.00     0.029 A 
ATOM     59  N   UNL A   1      44.749  30.002  27.941  1.00  0.00    -0.354 N 
ATOM     60  N   UNL A   1      42.316  30.802  29.365  1.00  0.00    -0.248 NA
ATOM     61  C   UNL A   1      41.104  32.361  30.610  1.00  0.00     0.031 C 
ATOM     62  C   UNL A   1      46.370  31.504  27.712  1.00  0.00     0.029 A 
ATOM     63  C   UNL A   1      45.108  31.305  28.248  1.00  0.00     0.049 A 
ATOM     64  H   UNL A   1      43.899  29.575  28.197  1.00  0.00     0.167 HD
ATOM     65  C   UNL A   1      43.057  31.970  29.473  1.00  0.00     0.074 A 
ATOM     66  C   UNL A   1      42.248  32.909  30.223  1.00  0.00     0.031 C 
ATOM     67  C   UNL A   1      44.296  32.236  28.992  1.00  0.00     0.037 A 
BRANCH  54  68
ATOM     68  C   UNL A   1      46.954  27.506  26.042  1.00  0.00     0.064 A 
ATOM     69  C   UNL A   1      47.085  27.654  24.653  1.00  0.00     0.173 A 
ATOM     70  C   UNL A   1      48.034  26.950  26.745  1.00  0.00     0.173 A 
ATOM     71  F   UNL A   1      46.082  28.178  23.933  1.00  0.00    -0.203 F 
ATOM     72  C   UNL A   1      48.243  27.251  23.993  1.00  0.00     0.198 A 
ATOM     73  C   UNL A   1      49.203  26.575  26.086  1.00  0.00     0.198 A 
ATOM     74  F   UNL A   1      47.969  26.796  28.076  1.00  0.00    -0.203 F 
ATOM     75  F   UNL A   1      48.331  27.375  22.662  1.00  0.00    -0.200 F 
ATOM     76  C   UNL A   1      49.305  26.721  24.711  1.00  0.00     0.200 A 
ATOM     77  F   UNL A   1      50.235  26.081  26.785  1.00  0.00    -0.200 F 
ATOM     78  F   UNL A   1      50.427  26.353  24.077  1.00  0.00    -0.200 F 
ENDBRANCH  54  68
BRANCH  55  79
ATOM     79  C   UNL A   1      38.776  30.585  30.866  1.00  0.00     0.064 A 
ATOM     80  C   UNL A   1      38.659  30.515  32.261  1.00  0.00     0.173 A 
ATOM     81  C   UNL A   1      37.707  31.142  30.149  1.00  0.00     0.173 A 
ATOM     82  F   UNL A   1      39.647  29.976  32.990  1.00  0.00    -0.203 F 
ATOM     83  C   UNL A   1      37.516  30.978  32.912  1.00  0.00     0.198 A 
ATOM     84  C   UNL A   1      36.579  31.633  30.803  1.00  0.00     0.198 A 
ATOM     85  F   UNL A   1      37.772  31.238  28.813  1.00  0.00    -0.203 F 
ATOM     86  F   UNL A   1      37.417  30.870  34.243  1.00  0.00    -0.200 F 
ATOM     87  C   UNL A   1      36.482  31.545  32.183  1.00  0.00     0.200 A 
ATOM     88  F   UNL A   1      35.589  32.197  30.097  1.00  0.00    -0.200 F 
ATOM     89  F   UNL A   1      35.391  32.005  32.811  1.00  0.00    -0.200 F 
ENDBRANCH  55  79
BRANCH  67  90
ATOM     90  C   UNL A   1      44.864  33.605  29.242  1.00  0.00     0.064 A 
ATOM     91  C   UNL A   1      44.603  34.677  28.376  1.00  0.00     0.173 A 
ATOM     92  C   UNL A   1      45.602  33.867  30.407  1.00  0.00     0.173 A 
ATOM     93  F   UNL A   1      43.915  34.477  27.243  1.00  0.00    -0.203 F 
ATOM     94  C   UNL A   1      45.065  35.959  28.665  1.00  0.00     0.198 A 
ATOM     95  C   UNL A   1      46.035  35.155  30.707  1.00  0.00     0.198 A 
ATOM     96  F   UNL A   1      45.875  32.878  31.272  1.00  0.00    -0.203 F 
ATOM     97  F   UNL A   1      44.828  36.962  27.809  1.00  0.00    -0.200 F 
ATOM     98  C   UNL A   1      45.769  36.199  29.835  1.00  0.00     0.200 A 
ATOM     99  F   UNL A   1      46.700  35.388  31.848  1.00  0.00    -0.200 F 
ATOM    100  F   UNL A   1      46.192  37.438  30.123  1.00  0.00    -0.200 F 
ENDBRANCH  67  90
ENDBRANCH  41  42
ENDBRANCH  34  36
ENDBRANCH  33  34
ENDBRANCH  32  33
ENDBRANCH  31  32
ENDBRANCH   1  31
TORSDOF 17
ENDMDL
MODEL 3
REMARK VINA RESULT:     -12.5      0.753      2.136
REMARK SMILES Nc1ccc(-c2cc(Cl)cc3c2O[C@H](C(F)(F)F)C(C(=O)OCCOCCOC(=O)c2ccc(-c4c5nc(c(-c6c(F)c(F)c(F)c(F)c6F)c6ccc([nH]6)c(-c6c(F)c(F)c(F)c(F)c6F)c6nc(c(-c7c(F)c(F)c(F)c(F)c7F)c7ccc4[nH]7)C=C6)C=C5)cc2)=C3)cc1
REMARK SMILES IDX 25 1 24 2 23 3 22 4 20 5 21 6 19 7 6 8 7 9 12 10 8 11 11 12
REMARK SMILES IDX 13 13 9 14 10 15 94 16 14 17 5 18 2 19 3 20 96 21 4 22 95 23
REMARK SMILES IDX 1 24 15 27 16 28 17 29 18 30 26 31 27 32 28 33 29 34 30 35
REMARK SMILES IDX 31 36 32 37 93 38 33 39 92 40 34 41 35 42 36 43 86 44 37 45
REMARK SMILES IDX 91 46 85 47 87 48 38 49 90 50 84 51 83 52 39 54 71 55 51 56
REMARK SMILES IDX 70 57 52 58 55 59 69 60 88 61 53 62 54 63 68 65 89 66 56 67
REMARK SMILES IDX 40 68 41 69 49 70 42 71 43 72 47 73 50 74 44 75 45 76 48 77
REMARK SMILES IDX 46 78 72 79 73 80 81 81 74 82 75 83 79 84 82 85 76 86 77 87
REMARK SMILES IDX 80 88 78 89 57 90 58 91 66 92 59 93 60 94 64 95 67 96 61 97
REMARK SMILES IDX 62 98 65 99 63 100
REMARK H PARENT 1 25 1 26 87 53 55 64
REMARK Flexibility Score: inf
ROOT
ATOM      1  O   UNL A   1      32.458  27.655  27.014  1.00  0.00    -0.374 OA
ENDROOT
BRANCH   1   2
ATOM      2  C   UNL A   1      33.008  26.700  26.113  1.00  0.00     0.202 C 
BRANCH   2   3
ATOM      3  C   UNL A   1      33.027  27.047  24.621  1.00  0.00     0.261 C 
BRANCH   3   4
ATOM      4  O   UNL A   1      32.532  25.975  23.807  1.00  0.00    -0.460 OA
BRANCH   4   5
ATOM      5  C   UNL A   1      33.477  25.377  23.041  1.00  0.00     0.338 C 
ATOM      6  O   UNL A   1      33.983  25.822  22.024  1.00  0.00    -0.246 OA
BRANCH   5   7
ATOM      7  C   UNL A   1      33.921  24.125  23.680  1.00  0.00     0.087 C 
ATOM      8  C   UNL A   1      35.427  20.453  25.003  1.00  0.00     0.026 A 
ATOM      9  C   UNL A   1      36.808  20.358  25.257  1.00  0.00     0.033 A 
ATOM     10  C   UNL A   1      34.896  21.716  24.665  1.00  0.00     0.135 A 
ATOM     11  C   UNL A   1      37.628  21.483  25.182  1.00  0.00     0.042 A 
ATOM     12  C   UNL A   1      35.735  22.831  24.545  1.00  0.00     0.019 A 
ATOM     13  O   UNL A   1      33.538  21.807  24.492  1.00  0.00    -0.475 OA
ATOM     14  Cl  UNL A   1      39.314  21.335  25.492  1.00  0.00    -0.084 Cl
ATOM     15  C   UNL A   1      37.100  22.717  24.825  1.00  0.00     0.032 A 
ATOM     16  C   UNL A   1      35.206  24.089  24.052  1.00  0.00     0.027 C 
ATOM     17  C   UNL A   1      32.969  22.978  23.852  1.00  0.00     0.316 C 
BRANCH   8  18
ATOM     18  C   UNL A   1      34.600  19.232  25.032  1.00  0.00    -0.014 A 
ATOM     19  C   UNL A   1      32.978  16.904  25.058  1.00  0.00     0.031 A 
ATOM     20  C   UNL A   1      32.543  18.080  25.666  1.00  0.00     0.026 A 
ATOM     21  C   UNL A   1      34.208  16.910  24.399  1.00  0.00     0.026 A 
ATOM     22  C   UNL A   1      33.345  19.226  25.660  1.00  0.00     0.011 A 
ATOM     23  C   UNL A   1      35.015  18.055  24.394  1.00  0.00     0.011 A 
BRANCH  19  24
ATOM     24  N   UNL A   1      32.151  15.795  24.999  1.00  0.00    -0.399 N 
ATOM     25  H   UNL A   1      32.239  15.080  25.671  1.00  0.00     0.156 HD
ATOM     26  H   UNL A   1      31.477  15.720  24.287  1.00  0.00     0.156 HD
ENDBRANCH  19  24
ENDBRANCH   8  18
BRANCH  17  27
ATOM     27  C   UNL A   1      32.321  22.540  22.530  1.00  0.00     0.430 C 
ATOM     28  F   UNL A   1      32.176  21.195  22.475  1.00  0.00    -0.167 F 
ATOM     29  F   UNL A   1      31.083  23.067  22.379  1.00  0.00    -0.167 F 
ATOM     30  F   UNL A   1      33.056  22.914  21.459  1.00  0.00    -0.167 F 
ENDBRANCH  17  27
ENDBRANCH   5   7
ENDBRANCH   4   5
ENDBRANCH   3   4
ENDBRANCH   2   3
ENDBRANCH   1   2
BRANCH   1  31
ATOM     31  C   UNL A   1      31.608  28.678  26.499  1.00  0.00     0.202 C 
BRANCH  31  32
ATOM     32  C   UNL A   1      31.913  30.137  26.861  1.00  0.00     0.261 C 
BRANCH  32  33
ATOM     33  O   UNL A   1      33.249  30.536  26.510  1.00  0.00    -0.460 OA
BRANCH  33  34
ATOM     34  C   UNL A   1      33.759  31.535  27.271  1.00  0.00     0.338 C 
ATOM     35  O   UNL A   1      33.197  32.559  27.630  1.00  0.00    -0.246 OA
BRANCH  34  36
ATOM     36  C   UNL A   1      35.076  31.129  27.795  1.00  0.00     0.060 A 
ATOM     37  C   UNL A   1      36.063  32.072  28.080  1.00  0.00     0.016 A 
ATOM     38  C   UNL A   1      35.292  29.767  28.053  1.00  0.00     0.016 A 
ATOM     39  C   UNL A   1      37.260  31.648  28.661  1.00  0.00     0.010 A 
ATOM     40  C   UNL A   1      36.487  29.348  28.634  1.00  0.00     0.010 A 
ATOM     41  C   UNL A   1      37.471  30.288  28.967  1.00  0.00    -0.014 A 
BRANCH  41  42
ATOM     42  C   UNL A   1      38.650  29.884  29.770  1.00  0.00     0.031 A 
ATOM     43  C   UNL A   1      38.883  30.412  31.152  1.00  0.00     0.074 A 
ATOM     44  C   UNL A   1      39.529  29.026  29.218  1.00  0.00     0.049 A 
ATOM     45  N   UNL A   1      39.811  30.076  32.013  1.00  0.00    -0.248 NA
ATOM     46  C   UNL A   1      37.967  31.457  31.630  1.00  0.00     0.031 C 
ATOM     47  C   UNL A   1      39.434  28.492  27.858  1.00  0.00     0.029 A 
ATOM     48  N   UNL A   1      40.662  28.444  29.726  1.00  0.00    -0.354 N 
ATOM     49  C   UNL A   1      39.577  30.846  33.143  1.00  0.00     0.074 A 
ATOM     50  C   UNL A   1      38.455  31.710  32.838  1.00  0.00     0.031 C 
ATOM     51  C   UNL A   1      40.437  27.626  27.656  1.00  0.00     0.029 A 
ATOM     52  C   UNL A   1      41.264  27.566  28.859  1.00  0.00     0.049 A 
ATOM     53  H   UNL A   1      41.011  28.637  30.627  1.00  0.00     0.167 HD
ATOM     54  C   UNL A   1      40.227  30.810  34.331  1.00  0.00     0.037 A 
ATOM     55  C   UNL A   1      42.353  26.790  29.015  1.00  0.00     0.037 A 
ATOM     56  C   UNL A   1      41.353  29.958  34.618  1.00  0.00     0.049 A 
ATOM     57  C   UNL A   1      43.081  26.802  30.332  1.00  0.00     0.074 A 
ATOM     58  C   UNL A   1      42.050  29.822  35.806  1.00  0.00     0.029 A 
ATOM     59  N   UNL A   1      41.960  29.107  33.703  1.00  0.00    -0.354 N 
ATOM     60  N   UNL A   1      42.793  27.462  31.427  1.00  0.00    -0.248 NA
ATOM     61  C   UNL A   1      44.279  25.958  30.436  1.00  0.00     0.031 C 
ATOM     62  C   UNL A   1      43.112  28.939  35.595  1.00  0.00     0.029 A 
ATOM     63  C   UNL A   1      43.041  28.471  34.292  1.00  0.00     0.049 A 
ATOM     64  H   UNL A   1      41.665  28.975  32.773  1.00  0.00     0.167 HD
ATOM     65  C   UNL A   1      43.757  27.098  32.356  1.00  0.00     0.074 A 
ATOM     66  C   UNL A   1      44.628  26.144  31.702  1.00  0.00     0.031 C 
ATOM     67  C   UNL A   1      43.903  27.519  33.636  1.00  0.00     0.037 A 
BRANCH  54  68
ATOM     68  C   UNL A   1      39.732  31.706  35.431  1.00  0.00     0.064 A 
ATOM     69  C   UNL A   1      40.239  33.004  35.596  1.00  0.00     0.173 A 
ATOM     70  C   UNL A   1      38.678  31.305  36.266  1.00  0.00     0.173 A 
ATOM     71  F   UNL A   1      41.247  33.438  34.825  1.00  0.00    -0.203 F 
ATOM     72  C   UNL A   1      39.721  33.860  36.564  1.00  0.00     0.198 A 
ATOM     73  C   UNL A   1      38.142  32.173  37.214  1.00  0.00     0.198 A 
ATOM     74  F   UNL A   1      38.147  30.078  36.144  1.00  0.00    -0.203 F 
ATOM     75  F   UNL A   1      40.242  35.084  36.723  1.00  0.00    -0.200 F 
ATOM     76  C   UNL A   1      38.666  33.448  37.365  1.00  0.00     0.200 A 
ATOM     77  F   UNL A   1      37.110  31.779  37.974  1.00  0.00    -0.200 F 
ATOM     78  F   UNL A   1      38.155  34.280  38.283  1.00  0.00    -0.200 F 
ENDBRANCH  54  68
BRANCH  55  79
ATOM     79  C   UNL A   1      42.783  25.900  27.906  1.00  0.00     0.064 A 
ATOM     80  C   UNL A   1      42.215  24.628  27.744  1.00  0.00     0.173 A 
ATOM     81  C   UNL A   1      43.740  26.312  26.967  1.00  0.00     0.173 A 
ATOM     82  F   UNL A   1      41.308  24.183  28.625  1.00  0.00    -0.203 F 
ATOM     83  C   UNL A   1      42.594  23.801  26.689  1.00  0.00     0.198 A 
ATOM     84  C   UNL A   1      44.095  25.496  25.895  1.00  0.00     0.198 A 
ATOM     85  F   UNL A   1      44.307  27.522  27.074  1.00  0.00    -0.203 F 
ATOM     86  F   UNL A   1      42.060  22.578  26.575  1.00  0.00    -0.200 F 
ATOM     87  C   UNL A   1      43.527  24.239  25.761  1.00  0.00     0.200 A 
ATOM     88  F   UNL A   1      44.982  25.930  24.990  1.00  0.00    -0.200 F 
ATOM     89  F   UNL A   1      43.878  23.449  24.737  1.00  0.00    -0.200 F 
ENDBRANCH  55  79
BRANCH  67  90
ATOM     90  C   UNL A   1      45.038  26.947  34.437  1.00  0.00     0.064 A 
ATOM     91  C   UNL A   1      46.277  27.598  34.522  1.00  0.00     0.173 A 
ATOM     92  C   UNL A   1      44.854  25.782  35.200  1.00  0.00     0.173 A 
ATOM     93  F   UNL A   1      46.508  28.706  33.803  1.00  0.00    -0.203 F 
ATOM     94  C   UNL A   1      47.293  27.101  35.337  1.00  0.00     0.198 A 
ATOM     95  C   UNL A   1      45.861  25.307  36.036  1.00  0.00     0.198 A 
ATOM     96  F   UNL A   1      43.686  25.124  35.159  1.00  0.00    -0.203 F 
ATOM     97  F   UNL A   1      48.478  27.724  35.380  1.00  0.00    -0.200 F 
ATOM     98  C   UNL A   1      47.079  25.964  36.101  1.00  0.00     0.200 A 
ATOM     99  F   UNL A   1      45.645  24.218  36.789  1.00  0.00    -0.200 F 
ATOM    100  F   UNL A   1      48.048  25.502  36.903  1.00  0.00    -0.200 F 
ENDBRANCH  67  90
ENDBRANCH  41  42
ENDBRANCH  34  36
ENDBRANCH  33  34
ENDBRANCH  32  33
ENDBRANCH  31  32
ENDBRANCH   1  31
TORSDOF 17
ENDMDL
