MODEL 1
REMARK VINA RESULT:     -11.8      0.000      0.000
REMARK SMILES CCc1c(C(=O)NCC(=O)OCCOCCOC(=O)c2ccc(-c3c4nc(c(-c5c(F)c(F)c(F)c(F)c5F)c5ccc([nH]5)c(-c5c(F)c(F)c(F)c(F)c5F)c5nc(c(-c6c(F)c(F)c(F)c(F)c6F)c6ccc3[nH]6)C=C5)C=C4)cc2)nnn1-c1ccc(Cl)cc1Cl
REMARK SMILES IDX 13 1 12 2 11 3 9 4 10 5 8 6 7 7 5 8 6 9 4 11 3 12 85 13
REMARK SMILES IDX 83 14 84 15 2 16 1 17 86 18 87 19 92 20 88 21 91 22 93 23
REMARK SMILES IDX 89 24 90 25 14 26 15 27 16 28 17 29 18 30 19 31 20 32 21 33
REMARK SMILES IDX 82 34 22 35 81 36 23 37 24 38 25 39 75 40 26 41 80 42 74 43
REMARK SMILES IDX 76 44 27 45 79 46 73 47 72 48 28 50 60 51 40 52 59 53 41 54
REMARK SMILES IDX 44 55 58 56 77 57 42 58 43 59 57 61 78 62 45 63 29 64 30 65
REMARK SMILES IDX 38 66 31 67 32 68 36 69 39 70 33 71 34 72 37 73 35 74 61 75
REMARK SMILES IDX 62 76 70 77 63 78 64 79 68 80 71 81 65 82 66 83 69 84 67 85
REMARK SMILES IDX 46 86 47 87 55 88 48 89 49 90 53 91 56 92 50 93 51 94 54 95
REMARK SMILES IDX 52 96
REMARK H PARENT 7 10 76 49 44 60
REMARK Flexibility Score: inf
ROOT
ATOM      1  C   UNL A   1      40.376  21.445  26.181  1.00  0.00     0.202 C 
ENDROOT
BRANCH   1   2
ATOM      2  C   UNL A   1      38.866  21.632  26.008  1.00  0.00     0.261 C 
BRANCH   2   3
ATOM      3  O   UNL A   1      38.486  23.011  25.873  1.00  0.00    -0.462 OA
BRANCH   3   4
ATOM      4  C   UNL A   1      37.195  23.223  25.498  1.00  0.00     0.325 C 
ATOM      5  O   UNL A   1      36.446  24.050  26.007  1.00  0.00    -0.250 OA
BRANCH   4   6
ATOM      6  C   UNL A   1      36.825  22.454  24.227  1.00  0.00     0.239 C 
BRANCH   6   7
ATOM      7  N   UNL A   1      35.565  21.765  24.282  1.00  0.00    -0.340 N 
ATOM      8  C   UNL A   1      34.276  22.154  24.058  1.00  0.00     0.274 C 
ATOM      9  O   UNL A   1      33.475  21.214  24.131  1.00  0.00    -0.267 OA
ATOM     10  H   UNL A   1      35.648  20.817  24.533  1.00  0.00     0.164 HD
BRANCH   8  11
ATOM     11  C   UNL A   1      33.802  23.517  23.753  1.00  0.00     0.174 A 
ATOM     12  C   UNL A   1      32.823  24.419  24.196  1.00  0.00     0.077 A 
ATOM     13  N   UNL A   1      33.053  25.556  23.410  1.00  0.00    -0.215 N 
ATOM     14  N   UNL A   1      34.432  24.099  22.661  1.00  0.00    -0.124 NA
ATOM     15  N   UNL A   1      33.893  25.270  22.407  1.00  0.00    -0.061 NA
BRANCH  12  16
ATOM     16  C   UNL A   1      31.667  24.402  25.146  1.00  0.00     0.055 C 
ATOM     17  C   UNL A   1      32.074  24.382  26.614  1.00  0.00     0.011 C 
ENDBRANCH  12  16
BRANCH  13  18
ATOM     18  C   UNL A   1      32.336  26.772  23.399  1.00  0.00     0.085 A 
ATOM     19  C   UNL A   1      31.382  26.953  22.385  1.00  0.00     0.031 A 
ATOM     20  C   UNL A   1      32.488  27.731  24.407  1.00  0.00     0.068 A 
ATOM     21  C   UNL A   1      30.510  28.038  22.449  1.00  0.00     0.023 A 
ATOM     22  C   UNL A   1      31.599  28.805  24.475  1.00  0.00     0.043 A 
ATOM     23  Cl  UNL A   1      33.824  27.735  25.509  1.00  0.00    -0.082 Cl
ATOM     24  C   UNL A   1      30.605  28.942  23.507  1.00  0.00     0.042 A 
ATOM     25  Cl  UNL A   1      29.492  30.249  23.612  1.00  0.00    -0.084 Cl
ENDBRANCH  13  18
ENDBRANCH   8  11
ENDBRANCH   6   7
ENDBRANCH   4   6
ENDBRANCH   3   4
ENDBRANCH   2   3
ENDBRANCH   1   2
BRANCH   1  26
ATOM     26  O   UNL A   1      40.877  20.672  27.269  1.00  0.00    -0.374 OA
BRANCH  26  27
ATOM     27  C   UNL A   1      41.969  19.778  27.119  1.00  0.00     0.202 C 
BRANCH  27  28
ATOM     28  C   UNL A   1      42.566  19.511  25.743  1.00  0.00     0.261 C 
BRANCH  28  29
ATOM     29  O   UNL A   1      43.970  19.686  25.690  1.00  0.00    -0.460 OA
BRANCH  29  30
ATOM     30  C   UNL A   1      44.375  20.217  24.510  1.00  0.00     0.338 C 
ATOM     31  O   UNL A   1      44.600  19.618  23.476  1.00  0.00    -0.246 OA
BRANCH  30  32
ATOM     32  C   UNL A   1      44.695  21.634  24.700  1.00  0.00     0.060 A 
ATOM     33  C   UNL A   1      45.594  21.899  25.735  1.00  0.00     0.016 A 
ATOM     34  C   UNL A   1      43.850  22.616  24.167  1.00  0.00     0.016 A 
ATOM     35  C   UNL A   1      45.435  23.067  26.434  1.00  0.00     0.010 A 
ATOM     36  C   UNL A   1      43.684  23.779  24.876  1.00  0.00     0.010 A 
ATOM     37  C   UNL A   1      44.406  23.936  26.056  1.00  0.00    -0.014 A 
BRANCH  37  38
ATOM     38  C   UNL A   1      44.185  25.100  26.880  1.00  0.00     0.031 A 
ATOM     39  C   UNL A   1      45.254  26.101  26.698  1.00  0.00     0.074 A 
ATOM     40  C   UNL A   1      43.096  25.244  27.656  1.00  0.00     0.049 A 
ATOM     41  N   UNL A   1      46.165  26.429  27.549  1.00  0.00    -0.248 NA
ATOM     42  C   UNL A   1      45.467  26.635  25.343  1.00  0.00     0.031 C 
ATOM     43  C   UNL A   1      41.891  24.413  27.704  1.00  0.00     0.029 A 
ATOM     44  N   UNL A   1      42.805  26.250  28.522  1.00  0.00    -0.354 N 
ATOM     45  C   UNL A   1      46.947  27.373  26.900  1.00  0.00     0.074 A 
ATOM     46  C   UNL A   1      46.611  27.300  25.503  1.00  0.00     0.031 C 
ATOM     47  C   UNL A   1      40.917  25.080  28.368  1.00  0.00     0.029 A 
ATOM     48  C   UNL A   1      41.467  26.316  28.896  1.00  0.00     0.049 A 
ATOM     49  H   UNL A   1      43.484  26.880  28.856  1.00  0.00     0.167 HD
ATOM     50  C   UNL A   1      47.589  28.340  27.607  1.00  0.00     0.037 A 
ATOM     51  C   UNL A   1      40.877  27.381  29.501  1.00  0.00     0.037 A 
ATOM     52  C   UNL A   1      47.708  27.979  28.996  1.00  0.00     0.049 A 
ATOM     53  C   UNL A   1      41.963  28.196  30.112  1.00  0.00     0.074 A 
ATOM     54  C   UNL A   1      48.323  26.947  29.678  1.00  0.00     0.029 A 
ATOM     55  N   UNL A   1      46.801  28.520  29.872  1.00  0.00    -0.354 N 
ATOM     56  N   UNL A   1      42.679  27.799  31.127  1.00  0.00    -0.248 NA
ATOM     57  C   UNL A   1      42.569  29.232  29.287  1.00  0.00     0.031 C 
ATOM     58  C   UNL A   1      47.435  26.625  30.746  1.00  0.00     0.029 A 
ATOM     59  C   UNL A   1      46.366  27.520  30.704  1.00  0.00     0.049 A 
ATOM     60  H   UNL A   1      46.512  29.460  29.900  1.00  0.00     0.167 HD
ATOM     61  C   UNL A   1      43.973  28.191  30.817  1.00  0.00     0.074 A 
ATOM     62  C   UNL A   1      43.834  29.129  29.706  1.00  0.00     0.031 C 
ATOM     63  C   UNL A   1      45.047  27.490  31.287  1.00  0.00     0.037 A 
BRANCH  50  64
ATOM     64  C   UNL A   1      47.719  29.758  27.121  1.00  0.00     0.064 A 
ATOM     65  C   UNL A   1      48.969  30.397  27.212  1.00  0.00     0.173 A 
ATOM     66  C   UNL A   1      46.618  30.604  26.856  1.00  0.00     0.173 A 
ATOM     67  F   UNL A   1      50.076  29.692  27.495  1.00  0.00    -0.203 F 
ATOM     68  C   UNL A   1      49.093  31.784  27.112  1.00  0.00     0.198 A 
ATOM     69  C   UNL A   1      46.754  31.978  26.696  1.00  0.00     0.198 A 
ATOM     70  F   UNL A   1      45.356  30.161  26.861  1.00  0.00    -0.203 F 
ATOM     71  F   UNL A   1      50.281  32.361  27.333  1.00  0.00    -0.200 F 
ATOM     72  C   UNL A   1      47.986  32.573  26.856  1.00  0.00     0.200 A 
ATOM     73  F   UNL A   1      45.663  32.726  26.475  1.00  0.00    -0.200 F 
ATOM     74  F   UNL A   1      48.093  33.908  26.817  1.00  0.00    -0.200 F 
ENDBRANCH  50  64
BRANCH  51  75
ATOM     75  C   UNL A   1      39.526  27.943  29.248  1.00  0.00     0.064 A 
ATOM     76  C   UNL A   1      38.606  28.102  30.299  1.00  0.00     0.173 A 
ATOM     77  C   UNL A   1      39.217  28.610  28.046  1.00  0.00     0.173 A 
ATOM     78  F   UNL A   1      38.841  27.537  31.493  1.00  0.00    -0.203 F 
ATOM     79  C   UNL A   1      37.468  28.907  30.168  1.00  0.00     0.198 A 
ATOM     80  C   UNL A   1      38.079  29.408  27.914  1.00  0.00     0.198 A 
ATOM     81  F   UNL A   1      40.061  28.584  27.006  1.00  0.00    -0.203 F 
ATOM     82  F   UNL A   1      36.652  29.090  31.216  1.00  0.00    -0.200 F 
ATOM     83  C   UNL A   1      37.214  29.571  28.979  1.00  0.00     0.200 A 
ATOM     84  F   UNL A   1      37.863  30.072  26.769  1.00  0.00    -0.200 F 
ATOM     85  F   UNL A   1      36.163  30.396  28.872  1.00  0.00    -0.200 F 
ENDBRANCH  51  75
BRANCH  63  86
ATOM     86  C   UNL A   1      44.793  26.465  32.359  1.00  0.00     0.064 A 
ATOM     87  C   UNL A   1      44.473  25.118  32.110  1.00  0.00     0.173 A 
ATOM     88  C   UNL A   1      44.999  26.842  33.692  1.00  0.00     0.173 A 
ATOM     89  F   UNL A   1      44.364  24.653  30.859  1.00  0.00    -0.203 F 
ATOM     90  C   UNL A   1      44.309  24.210  33.157  1.00  0.00     0.198 A 
ATOM     91  C   UNL A   1      44.875  25.925  34.731  1.00  0.00     0.198 A 
ATOM     92  F   UNL A   1      45.363  28.100  33.986  1.00  0.00    -0.203 F 
ATOM     93  F   UNL A   1      43.979  22.936  32.896  1.00  0.00    -0.200 F 
ATOM     94  C   UNL A   1      44.516  24.614  34.465  1.00  0.00     0.200 A 
ATOM     95  F   UNL A   1      45.128  26.309  35.990  1.00  0.00    -0.200 F 
ATOM     96  F   UNL A   1      44.393  23.735  35.469  1.00  0.00    -0.200 F 
ENDBRANCH  63  86
ENDBRANCH  37  38
ENDBRANCH  30  32
ENDBRANCH  29  30
ENDBRANCH  28  29
ENDBRANCH  27  28
ENDBRANCH  26  27
ENDBRANCH   1  26
TORSDOF 18
ENDMDL
MODEL 2
REMARK VINA RESULT:     -11.7      5.625     11.369
REMARK SMILES CCc1c(C(=O)NCC(=O)OCCOCCOC(=O)c2ccc(-c3c4nc(c(-c5c(F)c(F)c(F)c(F)c5F)c5ccc([nH]5)c(-c5c(F)c(F)c(F)c(F)c5F)c5nc(c(-c6c(F)c(F)c(F)c(F)c6F)c6ccc3[nH]6)C=C5)C=C4)cc2)nnn1-c1ccc(Cl)cc1Cl
REMARK SMILES IDX 13 1 12 2 11 3 9 4 10 5 8 6 7 7 5 8 6 9 4 11 3 12 85 13
REMARK SMILES IDX 83 14 84 15 2 16 1 17 86 18 87 19 92 20 88 21 91 22 93 23
REMARK SMILES IDX 89 24 90 25 14 26 15 27 16 28 17 29 18 30 19 31 20 32 21 33
REMARK SMILES IDX 82 34 22 35 81 36 23 37 24 38 25 39 75 40 26 41 80 42 74 43
REMARK SMILES IDX 76 44 27 45 79 46 73 47 72 48 28 50 60 51 40 52 59 53 41 54
REMARK SMILES IDX 44 55 58 56 77 57 42 58 43 59 57 61 78 62 45 63 29 64 30 65
REMARK SMILES IDX 38 66 31 67 32 68 36 69 39 70 33 71 34 72 37 73 35 74 61 75
REMARK SMILES IDX 62 76 70 77 63 78 64 79 68 80 71 81 65 82 66 83 69 84 67 85
REMARK SMILES IDX 46 86 47 87 55 88 48 89 49 90 53 91 56 92 50 93 51 94 54 95
REMARK SMILES IDX 52 96
REMARK H PARENT 7 10 76 49 44 60
REMARK Flexibility Score: inf
ROOT
ATOM      1  C   UNL A   1      32.734  36.153  28.787  1.00  0.00     0.202 C 
ENDROOT
BRANCH   1   2
ATOM      2  C   UNL A   1      33.364  36.957  29.929  1.00  0.00     0.261 C 
BRANCH   2   3
ATOM      3  O   UNL A   1      32.609  36.878  31.148  1.00  0.00    -0.462 OA
BRANCH   3   4
ATOM      4  C   UNL A   1      33.285  37.240  32.273  1.00  0.00     0.325 C 
ATOM      5  O   UNL A   1      33.615  38.387  32.552  1.00  0.00    -0.250 OA
BRANCH   4   6
ATOM      6  C   UNL A   1      33.420  36.083  33.268  1.00  0.00     0.239 C 
BRANCH   6   7
ATOM      7  N   UNL A   1      33.453  34.775  32.673  1.00  0.00    -0.340 N 
ATOM      8  C   UNL A   1      34.276  33.698  32.831  1.00  0.00     0.274 C 
ATOM      9  O   UNL A   1      33.902  32.714  32.179  1.00  0.00    -0.267 OA
ATOM     10  H   UNL A   1      32.736  34.626  32.016  1.00  0.00     0.164 HD
BRANCH   8  11
ATOM     11  C   UNL A   1      35.488  33.623  33.666  1.00  0.00     0.174 A 
ATOM     12  C   UNL A   1      36.854  33.335  33.523  1.00  0.00     0.077 A 
ATOM     13  N   UNL A   1      37.363  33.533  34.814  1.00  0.00    -0.215 N 
ATOM     14  N   UNL A   1      35.251  33.818  35.021  1.00  0.00    -0.124 NA
ATOM     15  N   UNL A   1      36.364  33.650  35.698  1.00  0.00    -0.061 NA
BRANCH  12  16
ATOM     16  C   UNL A   1      37.761  32.835  32.444  1.00  0.00     0.055 C 
ATOM     17  C   UNL A   1      37.883  31.318  32.392  1.00  0.00     0.011 C 
ENDBRANCH  12  16
BRANCH  13  18
ATOM     18  C   UNL A   1      38.686  33.350  35.271  1.00  0.00     0.085 A 
ATOM     19  C   UNL A   1      39.574  34.429  35.134  1.00  0.00     0.031 A 
ATOM     20  C   UNL A   1      39.089  32.180  35.924  1.00  0.00     0.068 A 
ATOM     21  C   UNL A   1      40.823  34.372  35.750  1.00  0.00     0.023 A 
ATOM     22  C   UNL A   1      40.334  32.137  36.554  1.00  0.00     0.043 A 
ATOM     23  Cl  UNL A   1      38.173  30.711  35.875  1.00  0.00    -0.082 Cl
ATOM     24  C   UNL A   1      41.185  33.239  36.479  1.00  0.00     0.042 A 
ATOM     25  Cl  UNL A   1      42.704  33.194  37.283  1.00  0.00    -0.084 Cl
ENDBRANCH  13  18
ENDBRANCH   8  11
ENDBRANCH   6   7
ENDBRANCH   4   6
ENDBRANCH   3   4
ENDBRANCH   2   3
ENDBRANCH   1   2
BRANCH   1  26
ATOM     26  O   UNL A   1      32.577  34.742  28.912  1.00  0.00    -0.374 OA
BRANCH  26  27
ATOM     27  C   UNL A   1      33.380  33.827  28.182  1.00  0.00     0.202 C 
BRANCH  27  28
ATOM     28  C   UNL A   1      34.836  33.597  28.569  1.00  0.00     0.261 C 
BRANCH  28  29
ATOM     29  O   UNL A   1      35.562  32.838  27.619  1.00  0.00    -0.460 OA
BRANCH  29  30
ATOM     30  C   UNL A   1      35.372  31.505  27.779  1.00  0.00     0.338 C 
ATOM     31  O   UNL A   1      34.441  30.842  27.362  1.00  0.00    -0.246 OA
BRANCH  30  32
ATOM     32  C   UNL A   1      36.374  30.980  28.709  1.00  0.00     0.060 A 
ATOM     33  C   UNL A   1      37.527  31.758  28.831  1.00  0.00     0.016 A 
ATOM     34  C   UNL A   1      36.333  29.632  29.088  1.00  0.00     0.016 A 
ATOM     35  C   UNL A   1      38.714  31.111  29.053  1.00  0.00     0.010 A 
ATOM     36  C   UNL A   1      37.525  28.983  29.298  1.00  0.00     0.010 A 
ATOM     37  C   UNL A   1      38.701  29.717  29.172  1.00  0.00    -0.014 A 
BRANCH  37  38
ATOM     38  C   UNL A   1      39.975  29.050  29.287  1.00  0.00     0.031 A 
ATOM     39  C   UNL A   1      40.357  28.853  30.699  1.00  0.00     0.074 A 
ATOM     40  C   UNL A   1      40.668  28.620  28.217  1.00  0.00     0.049 A 
ATOM     41  N   UNL A   1      41.304  29.451  31.339  1.00  0.00    -0.248 NA
ATOM     42  C   UNL A   1      39.446  28.071  31.551  1.00  0.00     0.031 C 
ATOM     43  C   UNL A   1      40.247  28.564  26.816  1.00  0.00     0.029 A 
ATOM     44  N   UNL A   1      41.900  28.045  28.187  1.00  0.00    -0.354 N 
ATOM     45  C   UNL A   1      41.236  28.957  32.633  1.00  0.00     0.074 A 
ATOM     46  C   UNL A   1      39.966  28.293  32.758  1.00  0.00     0.031 C 
ATOM     47  C   UNL A   1      41.103  27.775  26.125  1.00  0.00     0.029 A 
ATOM     48  C   UNL A   1      42.192  27.379  27.001  1.00  0.00     0.049 A 
ATOM     49  H   UNL A   1      42.531  28.094  28.940  1.00  0.00     0.167 HD
ATOM     50  C   UNL A   1      42.355  28.879  33.401  1.00  0.00     0.037 A 
ATOM     51  C   UNL A   1      43.209  26.494  26.832  1.00  0.00     0.037 A 
ATOM     52  C   UNL A   1      43.396  29.735  32.894  1.00  0.00     0.049 A 
ATOM     53  C   UNL A   1      44.193  26.742  27.922  1.00  0.00     0.074 A 
ATOM     54  C   UNL A   1      43.518  31.097  32.696  1.00  0.00     0.029 A 
ATOM     55  N   UNL A   1      44.380  29.155  32.131  1.00  0.00    -0.354 N 
ATOM     56  N   UNL A   1      44.920  27.821  28.006  1.00  0.00    -0.248 NA
ATOM     57  C   UNL A   1      44.008  26.015  29.172  1.00  0.00     0.031 C 
ATOM     58  C   UNL A   1      44.249  31.232  31.479  1.00  0.00     0.029 A 
ATOM     59  C   UNL A   1      44.596  29.956  31.039  1.00  0.00     0.049 A 
ATOM     60  H   UNL A   1      44.847  28.313  32.332  1.00  0.00     0.167 HD
ATOM     61  C   UNL A   1      44.903  28.151  29.354  1.00  0.00     0.074 A 
ATOM     62  C   UNL A   1      44.385  26.965  30.032  1.00  0.00     0.031 C 
ATOM     63  C   UNL A   1      45.025  29.450  29.757  1.00  0.00     0.037 A 
BRANCH  50  64
ATOM     64  C   UNL A   1      42.629  27.730  34.334  1.00  0.00     0.064 A 
ATOM     65  C   UNL A   1      43.111  26.521  33.801  1.00  0.00     0.173 A 
ATOM     66  C   UNL A   1      42.159  27.668  35.665  1.00  0.00     0.173 A 
ATOM     67  F   UNL A   1      43.549  26.461  32.534  1.00  0.00    -0.203 F 
ATOM     68  C   UNL A   1      43.062  25.329  34.527  1.00  0.00     0.198 A 
ATOM     69  C   UNL A   1      42.168  26.491  36.406  1.00  0.00     0.198 A 
ATOM     70  F   UNL A   1      41.562  28.705  36.264  1.00  0.00    -0.203 F 
ATOM     71  F   UNL A   1      43.411  24.179  33.936  1.00  0.00    -0.200 F 
ATOM     72  C   UNL A   1      42.589  25.315  35.826  1.00  0.00     0.200 A 
ATOM     73  F   UNL A   1      41.681  26.496  37.655  1.00  0.00    -0.200 F 
ATOM     74  F   UNL A   1      42.488  24.163  36.503  1.00  0.00    -0.200 F 
ENDBRANCH  50  64
BRANCH  51  75
ATOM     75  C   UNL A   1      43.196  25.220  26.067  1.00  0.00     0.064 A 
ATOM     76  C   UNL A   1      44.226  24.918  25.159  1.00  0.00     0.173 A 
ATOM     77  C   UNL A   1      42.350  24.153  26.426  1.00  0.00     0.173 A 
ATOM     78  F   UNL A   1      45.103  25.865  24.795  1.00  0.00    -0.203 F 
ATOM     79  C   UNL A   1      44.419  23.621  24.669  1.00  0.00     0.198 A 
ATOM     80  C   UNL A   1      42.540  22.860  25.933  1.00  0.00     0.198 A 
ATOM     81  F   UNL A   1      41.383  24.315  27.338  1.00  0.00    -0.203 F 
ATOM     82  F   UNL A   1      45.455  23.358  23.860  1.00  0.00    -0.200 F 
ATOM     83  C   UNL A   1      43.584  22.590  25.069  1.00  0.00     0.200 A 
ATOM     84  F   UNL A   1      41.746  21.866  26.354  1.00  0.00    -0.200 F 
ATOM     85  F   UNL A   1      43.808  21.336  24.655  1.00  0.00    -0.200 F 
ENDBRANCH  51  75
BRANCH  63  86
ATOM     86  C   UNL A   1      45.448  30.461  28.727  1.00  0.00     0.064 A 
ATOM     87  C   UNL A   1      44.563  31.139  27.869  1.00  0.00     0.173 A 
ATOM     88  C   UNL A   1      46.795  30.840  28.691  1.00  0.00     0.173 A 
ATOM     89  F   UNL A   1      43.244  30.911  27.916  1.00  0.00    -0.203 F 
ATOM     90  C   UNL A   1      45.022  32.109  26.978  1.00  0.00     0.198 A 
ATOM     91  C   UNL A   1      47.244  31.837  27.830  1.00  0.00     0.198 A 
ATOM     92  F   UNL A   1      47.677  30.269  29.528  1.00  0.00    -0.203 F 
ATOM     93  F   UNL A   1      44.163  32.725  26.152  1.00  0.00    -0.200 F 
ATOM     94  C   UNL A   1      46.362  32.460  26.964  1.00  0.00     0.200 A 
ATOM     95  F   UNL A   1      48.532  32.208  27.858  1.00  0.00    -0.200 F 
ATOM     96  F   UNL A   1      46.800  33.415  26.132  1.00  0.00    -0.200 F 
ENDBRANCH  63  86
ENDBRANCH  37  38
ENDBRANCH  30  32
ENDBRANCH  29  30
ENDBRANCH  28  29
ENDBRANCH  27  28
ENDBRANCH  26  27
ENDBRANCH   1  26
TORSDOF 18
ENDMDL
MODEL 3
REMARK VINA RESULT:     -11.3      4.042      8.987
REMARK SMILES CCc1c(C(=O)NCC(=O)OCCOCCOC(=O)c2ccc(-c3c4nc(c(-c5c(F)c(F)c(F)c(F)c5F)c5ccc([nH]5)c(-c5c(F)c(F)c(F)c(F)c5F)c5nc(c(-c6c(F)c(F)c(F)c(F)c6F)c6ccc3[nH]6)C=C5)C=C4)cc2)nnn1-c1ccc(Cl)cc1Cl
REMARK SMILES IDX 13 1 12 2 11 3 9 4 10 5 8 6 7 7 5 8 6 9 4 11 3 12 85 13
REMARK SMILES IDX 83 14 84 15 2 16 1 17 86 18 87 19 92 20 88 21 91 22 93 23
REMARK SMILES IDX 89 24 90 25 14 26 15 27 16 28 17 29 18 30 19 31 20 32 21 33
REMARK SMILES IDX 82 34 22 35 81 36 23 37 24 38 25 39 75 40 26 41 80 42 74 43
REMARK SMILES IDX 76 44 27 45 79 46 73 47 72 48 28 50 60 51 40 52 59 53 41 54
REMARK SMILES IDX 44 55 58 56 77 57 42 58 43 59 57 61 78 62 45 63 29 64 30 65
REMARK SMILES IDX 38 66 31 67 32 68 36 69 39 70 33 71 34 72 37 73 35 74 61 75
REMARK SMILES IDX 62 76 70 77 63 78 64 79 68 80 71 81 65 82 66 83 69 84 67 85
REMARK SMILES IDX 46 86 47 87 55 88 48 89 49 90 53 91 56 92 50 93 51 94 54 95
REMARK SMILES IDX 52 96
REMARK H PARENT 7 10 76 49 44 60
REMARK Flexibility Score: inf
ROOT
ATOM      1  C   UNL A   1      34.503  31.474  27.445  1.00  0.00     0.202 C 
ENDROOT
BRANCH   1   2
ATOM      2  C   UNL A   1      33.985  30.043  27.275  1.00  0.00     0.261 C 
BRANCH   2   3
ATOM      3  O   UNL A   1      32.593  29.911  27.603  1.00  0.00    -0.462 OA
BRANCH   3   4
ATOM      4  C   UNL A   1      32.040  28.703  27.308  1.00  0.00     0.325 C 
ATOM      5  O   UNL A   1      31.314  28.063  28.061  1.00  0.00    -0.250 OA
BRANCH   4   6
ATOM      6  C   UNL A   1      32.254  28.307  25.844  1.00  0.00     0.239 C 
BRANCH   6   7
ATOM      7  N   UNL A   1      31.073  27.857  25.160  1.00  0.00    -0.340 N 
ATOM      8  C   UNL A   1      30.564  26.621  24.889  1.00  0.00     0.274 C 
ATOM      9  O   UNL A   1      29.456  26.671  24.339  1.00  0.00    -0.267 OA
ATOM     10  H   UNL A   1      30.516  28.592  24.816  1.00  0.00     0.164 HD
BRANCH   8  11
ATOM     11  C   UNL A   1      31.191  25.319  25.186  1.00  0.00     0.174 A 
ATOM     12  C   UNL A   1      31.792  24.254  24.499  1.00  0.00     0.077 A 
ATOM     13  N   UNL A   1      32.188  23.389  25.527  1.00  0.00    -0.215 N 
ATOM     14  N   UNL A   1      31.130  24.960  26.527  1.00  0.00    -0.124 NA
ATOM     15  N   UNL A   1      31.632  23.756  26.689  1.00  0.00    -0.061 NA
BRANCH  12  16
ATOM     16  C   UNL A   1      31.998  23.847  23.074  1.00  0.00     0.055 C 
ATOM     17  C   UNL A   1      33.330  24.295  22.489  1.00  0.00     0.011 C 
ENDBRANCH  12  16
BRANCH  13  18
ATOM     18  C   UNL A   1      32.815  22.129  25.418  1.00  0.00     0.085 A 
ATOM     19  C   UNL A   1      31.989  21.006  25.248  1.00  0.00     0.031 A 
ATOM     20  C   UNL A   1      34.207  21.995  25.383  1.00  0.00     0.068 A 
ATOM     21  C   UNL A   1      32.560  19.775  24.931  1.00  0.00     0.023 A 
ATOM     22  C   UNL A   1      34.772  20.763  25.048  1.00  0.00     0.043 A 
ATOM     23  Cl  UNL A   1      35.288  23.255  25.877  1.00  0.00    -0.082 Cl
ATOM     24  C   UNL A   1      33.946  19.666  24.806  1.00  0.00     0.042 A 
ATOM     25  Cl  UNL A   1      34.644  18.159  24.362  1.00  0.00    -0.084 Cl
ENDBRANCH  13  18
ENDBRANCH   8  11
ENDBRANCH   6   7
ENDBRANCH   4   6
ENDBRANCH   3   4
ENDBRANCH   2   3
ENDBRANCH   1   2
BRANCH   1  26
ATOM     26  O   UNL A   1      33.695  32.451  28.097  1.00  0.00    -0.374 OA
BRANCH  26  27
ATOM     27  C   UNL A   1      34.255  33.581  28.747  1.00  0.00     0.202 C 
BRANCH  27  28
ATOM     28  C   UNL A   1      34.480  33.574  30.254  1.00  0.00     0.261 C 
BRANCH  28  29
ATOM     29  O   UNL A   1      34.387  32.286  30.835  1.00  0.00    -0.460 OA
BRANCH  29  30
ATOM     30  C   UNL A   1      35.501  31.960  31.536  1.00  0.00     0.338 C 
ATOM     31  O   UNL A   1      35.759  32.264  32.685  1.00  0.00    -0.246 OA
BRANCH  30  32
ATOM     32  C   UNL A   1      36.471  31.329  30.638  1.00  0.00     0.060 A 
ATOM     33  C   UNL A   1      36.425  29.934  30.611  1.00  0.00     0.016 A 
ATOM     34  C   UNL A   1      37.586  32.053  30.198  1.00  0.00     0.016 A 
ATOM     35  C   UNL A   1      37.604  29.259  30.424  1.00  0.00     0.010 A 
ATOM     36  C   UNL A   1      38.768  31.377  30.024  1.00  0.00     0.010 A 
ATOM     37  C   UNL A   1      38.775  30.003  30.243  1.00  0.00    -0.014 A 
BRANCH  37  38
ATOM     38  C   UNL A   1      40.017  29.273  30.167  1.00  0.00     0.031 A 
ATOM     39  C   UNL A   1      40.631  29.109  31.499  1.00  0.00     0.074 A 
ATOM     40  C   UNL A   1      40.491  28.764  29.015  1.00  0.00     0.049 A 
ATOM     41  N   UNL A   1      41.703  29.678  31.936  1.00  0.00    -0.248 NA
ATOM     42  C   UNL A   1      39.848  28.412  32.532  1.00  0.00     0.031 C 
ATOM     43  C   UNL A   1      39.827  28.678  27.713  1.00  0.00     0.029 A 
ATOM     44  N   UNL A   1      41.668  28.121  28.798  1.00  0.00    -0.354 N 
ATOM     45  C   UNL A   1      41.840  29.239  33.245  1.00  0.00     0.074 A 
ATOM     46  C   UNL A   1      40.582  28.651  33.619  1.00  0.00     0.031 C 
ATOM     47  C   UNL A   1      40.510  27.816  26.922  1.00  0.00     0.029 A 
ATOM     48  C   UNL A   1      41.716  27.395  27.613  1.00  0.00     0.049 A 
ATOM     49  H   UNL A   1      42.424  28.164  29.428  1.00  0.00     0.167 HD
ATOM     50  C   UNL A   1      43.071  29.129  33.809  1.00  0.00     0.037 A 
ATOM     51  C   UNL A   1      42.645  26.449  27.313  1.00  0.00     0.037 A 
ATOM     52  C   UNL A   1      44.047  29.906  33.089  1.00  0.00     0.049 A 
ATOM     53  C   UNL A   1      43.815  26.685  28.203  1.00  0.00     0.074 A 
ATOM     54  C   UNL A   1      44.197  31.251  32.808  1.00  0.00     0.029 A 
ATOM     55  N   UNL A   1      44.852  29.244  32.196  1.00  0.00    -0.354 N 
ATOM     56  N   UNL A   1      44.596  27.725  28.108  1.00  0.00    -0.248 NA
ATOM     57  C   UNL A   1      43.818  26.018  29.498  1.00  0.00     0.031 C 
ATOM     58  C   UNL A   1      44.708  31.299  31.478  1.00  0.00     0.029 A 
ATOM     59  C   UNL A   1      44.911  29.989  31.046  1.00  0.00     0.049 A 
ATOM     60  H   UNL A   1      45.307  28.386  32.353  1.00  0.00     0.167 HD
ATOM     61  C   UNL A   1      44.832  28.107  29.421  1.00  0.00     0.074 A 
ATOM     62  C   UNL A   1      44.385  26.978  30.234  1.00  0.00     0.031 C 
ATOM     63  C   UNL A   1      45.084  29.411  29.735  1.00  0.00     0.037 A 
BRANCH  50  64
ATOM     64  C   UNL A   1      43.450  28.004  34.734  1.00  0.00     0.064 A 
ATOM     65  C   UNL A   1      43.948  28.312  36.013  1.00  0.00     0.173 A 
ATOM     66  C   UNL A   1      43.628  26.666  34.314  1.00  0.00     0.173 A 
ATOM     67  F   UNL A   1      43.861  29.562  36.495  1.00  0.00    -0.203 F 
ATOM     68  C   UNL A   1      44.630  27.367  36.781  1.00  0.00     0.198 A 
ATOM     69  C   UNL A   1      44.255  25.712  35.108  1.00  0.00     0.198 A 
ATOM     70  F   UNL A   1      43.317  26.254  33.080  1.00  0.00    -0.203 F 
ATOM     71  F   UNL A   1      45.199  27.738  37.936  1.00  0.00    -0.200 F 
ATOM     72  C   UNL A   1      44.785  26.070  36.328  1.00  0.00     0.200 A 
ATOM     73  F   UNL A   1      44.417  24.467  34.637  1.00  0.00    -0.200 F 
ATOM     74  F   UNL A   1      45.489  25.178  37.038  1.00  0.00    -0.200 F 
ENDBRANCH  50  64
BRANCH  51  75
ATOM     75  C   UNL A   1      42.437  25.150  26.623  1.00  0.00     0.064 A 
ATOM     76  C   UNL A   1      43.208  24.802  25.500  1.00  0.00     0.173 A 
ATOM     77  C   UNL A   1      41.702  24.107  27.220  1.00  0.00     0.173 A 
ATOM     78  F   UNL A   1      43.972  25.724  24.895  1.00  0.00    -0.203 F 
ATOM     79  C   UNL A   1      43.269  23.486  25.027  1.00  0.00     0.198 A 
ATOM     80  C   UNL A   1      41.759  22.796  26.744  1.00  0.00     0.198 A 
ATOM     81  F   UNL A   1      40.991  24.314  28.336  1.00  0.00    -0.203 F 
ATOM     82  F   UNL A   1      44.071  23.181  23.997  1.00  0.00    -0.200 F 
ATOM     83  C   UNL A   1      42.555  22.482  25.659  1.00  0.00     0.200 A 
ATOM     84  F   UNL A   1      41.089  21.827  27.385  1.00  0.00    -0.200 F 
ATOM     85  F   UNL A   1      42.664  21.210  25.250  1.00  0.00    -0.200 F 
ENDBRANCH  51  75
BRANCH  63  86
ATOM     86  C   UNL A   1      45.367  30.357  28.600  1.00  0.00     0.064 A 
ATOM     87  C   UNL A   1      44.377  31.015  27.848  1.00  0.00     0.173 A 
ATOM     88  C   UNL A   1      46.701  30.699  28.344  1.00  0.00     0.173 A 
ATOM     89  F   UNL A   1      43.075  30.825  28.102  1.00  0.00    -0.203 F 
ATOM     90  C   UNL A   1      44.715  31.925  26.847  1.00  0.00     0.198 A 
ATOM     91  C   UNL A   1      47.034  31.638  27.374  1.00  0.00     0.198 A 
ATOM     92  F   UNL A   1      47.686  30.148  29.070  1.00  0.00    -0.203 F 
ATOM     93  F   UNL A   1      43.754  32.521  26.126  1.00  0.00    -0.200 F 
ATOM     94  C   UNL A   1      46.044  32.239  26.615  1.00  0.00     0.200 A 
ATOM     95  F   UNL A   1      48.318  31.976  27.190  1.00  0.00    -0.200 F 
ATOM     96  F   UNL A   1      46.370  33.140  25.677  1.00  0.00    -0.200 F 
ENDBRANCH  63  86
ENDBRANCH  37  38
ENDBRANCH  30  32
ENDBRANCH  29  30
ENDBRANCH  28  29
ENDBRANCH  27  28
ENDBRANCH  26  27
ENDBRANCH   1  26
TORSDOF 18
ENDMDL
