MODEL 1
REMARK VINA RESULT:     -11.1      0.000      0.000
REMARK SMILES Cc1c(CC(=O)N[C@@H](CCO)C(=O)OCCOCCOC(=O)c2ccc(-c3c4nc(c(-c5c(F)c(F)c(F)c(F)c5F)c5ccc([nH]5)c(-c5c(F)c(F)c(F)c(F)c5F)c5nc(c(-c6c(F)c(F)c(F)c(F)c6F)c6ccc3[nH]6)C=C5)C=C4)cc2)cc(-c2ccc(S(C)(=O)=O)cc2)n1-c1ccc(F)cc1
REMARK SMILES IDX 15 1 14 2 12 3 13 4 8 5 7 6 5 7 6 8 4 10 3 11 1 12 2 13
REMARK SMILES IDX 98 14 86 15 87 16 99 17 100 18 105 19 101 20 104 21 102 22
REMARK SMILES IDX 103 23 88 24 89 25 97 26 90 27 96 28 91 29 92 30 93 31 94 32
REMARK SMILES IDX 95 33 9 34 10 35 11 36 16 38 17 39 18 40 19 41 20 42 21 43
REMARK SMILES IDX 22 44 23 45 24 46 85 47 25 48 84 49 26 50 27 51 28 52 78 53
REMARK SMILES IDX 29 54 83 55 77 56 79 57 30 58 82 59 76 60 75 61 31 63 63 64
REMARK SMILES IDX 43 65 62 66 44 67 47 68 61 69 80 70 45 71 46 72 60 74 81 75
REMARK SMILES IDX 48 76 32 77 33 78 41 79 34 80 35 81 39 82 42 83 36 84 37 85
REMARK SMILES IDX 40 86 38 87 64 88 65 89 73 90 66 91 67 92 71 93 74 94 68 95
REMARK SMILES IDX 69 96 72 97 70 98 49 99 50 100 58 101 51 102 52 103 56 104
REMARK SMILES IDX 59 105 53 106 54 107 57 108 55 109
REMARK H PARENT 7 9 11 37 79 62 47 73
REMARK Flexibility Score: inf
ROOT
ATOM      1  C   UNL A   1      31.270  26.652  25.547  1.00  0.00     0.261 C 
ENDROOT
BRANCH   1   2
ATOM      2  O   UNL A   1      29.888  26.310  25.349  1.00  0.00    -0.462 OA
BRANCH   2   3
ATOM      3  C   UNL A   1      29.464  26.310  24.052  1.00  0.00     0.328 C 
ATOM      4  O   UNL A   1      28.498  25.689  23.626  1.00  0.00    -0.250 OA
BRANCH   3   5
ATOM      5  C   UNL A   1      30.415  27.106  23.145  1.00  0.00     0.194 C 
BRANCH   5   6
ATOM      6  N   UNL A   1      31.006  26.360  22.022  1.00  0.00    -0.342 N 
ATOM      7  C   UNL A   1      32.300  25.980  21.811  1.00  0.00     0.225 C 
ATOM      8  O   UNL A   1      32.537  25.298  20.809  1.00  0.00    -0.275 OA
ATOM      9  H   UNL A   1      30.372  26.097  21.317  1.00  0.00     0.164 HD
BRANCH   7  10
ATOM     10  C   UNL A   1      33.400  26.298  22.816  1.00  0.00     0.137 C 
BRANCH  10  11
ATOM     11  C   UNL A   1      33.878  25.107  23.588  1.00  0.00    -0.017 A 
ATOM     12  C   UNL A   1      31.748  23.631  23.614  1.00  0.00     0.065 C 
ATOM     13  C   UNL A   1      33.189  23.935  23.867  1.00  0.00     0.024 A 
ATOM     14  N   UNL A   1      34.063  23.057  24.503  1.00  0.00    -0.314 N 
ATOM     15  C   UNL A   1      35.161  24.980  24.180  1.00  0.00     0.033 A 
ATOM     16  C   UNL A   1      35.296  23.693  24.662  1.00  0.00     0.053 A 
BRANCH  14  17
ATOM     17  C   UNL A   1      33.776  21.720  24.894  1.00  0.00     0.046 A 
ATOM     18  C   UNL A   1      33.471  20.763  23.915  1.00  0.00     0.029 A 
ATOM     19  C   UNL A   1      33.714  21.389  26.254  1.00  0.00     0.029 A 
ATOM     20  C   UNL A   1      33.103  19.476  24.299  1.00  0.00     0.041 A 
ATOM     21  C   UNL A   1      33.331  20.100  26.629  1.00  0.00     0.041 A 
ATOM     22  C   UNL A   1      33.030  19.158  25.650  1.00  0.00     0.123 A 
ATOM     23  F   UNL A   1      32.650  17.928  26.016  1.00  0.00    -0.207 F 
ENDBRANCH  14  17
BRANCH  16  24
ATOM     24  C   UNL A   1      36.536  23.046  25.109  1.00  0.00    -0.001 A 
ATOM     25  C   UNL A   1      37.352  23.661  26.073  1.00  0.00     0.011 A 
ATOM     26  C   UNL A   1      36.902  21.792  24.606  1.00  0.00     0.011 A 
ATOM     27  C   UNL A   1      38.540  23.060  26.492  1.00  0.00     0.021 A 
ATOM     28  C   UNL A   1      38.090  21.181  25.021  1.00  0.00     0.021 A 
ATOM     29  C   UNL A   1      38.910  21.828  25.949  1.00  0.00     0.067 A 
BRANCH  29  30
ATOM     30  S   UNL A   1      40.423  21.072  26.493  1.00  0.00     0.175 S 
ATOM     31  C   UNL A   1      40.901  22.035  27.905  1.00  0.00     0.163 C 
ATOM     32  O   UNL A   1      40.101  19.740  26.932  1.00  0.00    -0.224 OA
ATOM     33  O   UNL A   1      41.425  21.303  25.455  1.00  0.00    -0.224 OA
ENDBRANCH  29  30
ENDBRANCH  16  24
ENDBRANCH  10  11
ENDBRANCH   7  10
ENDBRANCH   5   6
BRANCH   5  34
ATOM     34  C   UNL A   1      29.715  28.369  22.628  1.00  0.00     0.065 C 
BRANCH  34  35
ATOM     35  C   UNL A   1      30.570  29.635  22.682  1.00  0.00     0.159 C 
BRANCH  35  36
ATOM     36  O   UNL A   1      30.598  30.305  21.432  1.00  0.00    -0.396 OA
ATOM     37  H   UNL A   1      30.454  29.665  20.718  1.00  0.00     0.210 HD
ENDBRANCH  35  36
ENDBRANCH  34  35
ENDBRANCH   5  34
ENDBRANCH   3   5
ENDBRANCH   2   3
ENDBRANCH   1   2
BRANCH   1  38
ATOM     38  C   UNL A   1      31.402  27.832  26.520  1.00  0.00     0.202 C 
BRANCH  38  39
ATOM     39  O   UNL A   1      31.987  29.010  25.970  1.00  0.00    -0.374 OA
BRANCH  39  40
ATOM     40  C   UNL A   1      31.918  30.204  26.760  1.00  0.00     0.202 C 
BRANCH  40  41
ATOM     41  C   UNL A   1      33.188  31.095  26.853  1.00  0.00     0.261 C 
BRANCH  41  42
ATOM     42  O   UNL A   1      33.260  32.166  27.869  1.00  0.00    -0.460 OA
BRANCH  42  43
ATOM     43  C   UNL A   1      34.485  32.779  28.009  1.00  0.00     0.338 C 
ATOM     44  O   UNL A   1      34.688  33.938  27.663  1.00  0.00    -0.246 OA
BRANCH  43  45
ATOM     45  C   UNL A   1      35.627  31.982  28.660  1.00  0.00     0.060 A 
ATOM     46  C   UNL A   1      36.933  32.408  28.458  1.00  0.00     0.016 A 
ATOM     47  C   UNL A   1      35.519  30.671  29.181  1.00  0.00     0.016 A 
ATOM     48  C   UNL A   1      38.059  31.580  28.805  1.00  0.00     0.010 A 
ATOM     49  C   UNL A   1      36.682  29.799  29.466  1.00  0.00     0.010 A 
ATOM     50  C   UNL A   1      38.013  30.214  29.277  1.00  0.00    -0.014 A 
BRANCH  50  51
ATOM     51  C   UNL A   1      39.381  29.316  29.110  1.00  0.00     0.031 A 
ATOM     52  C   UNL A   1      39.767  29.048  30.529  1.00  0.00     0.074 A 
ATOM     53  C   UNL A   1      40.324  28.814  28.196  1.00  0.00     0.049 A 
ATOM     54  N   UNL A   1      39.977  30.036  31.357  1.00  0.00    -0.248 NA
ATOM     55  C   UNL A   1      39.546  27.747  31.165  1.00  0.00     0.031 C 
ATOM     56  C   UNL A   1      40.395  29.031  26.740  1.00  0.00     0.029 A 
ATOM     57  N   UNL A   1      41.481  27.957  28.349  1.00  0.00    -0.354 N 
ATOM     58  C   UNL A   1      40.187  29.462  32.585  1.00  0.00     0.074 A 
ATOM     59  C   UNL A   1      39.687  28.101  32.446  1.00  0.00     0.031 C 
ATOM     60  C   UNL A   1      41.370  28.275  26.148  1.00  0.00     0.029 A 
ATOM     61  C   UNL A   1      42.124  27.498  27.132  1.00  0.00     0.049 A 
ATOM     62  H   UNL A   1      41.816  27.697  29.237  1.00  0.00     0.167 HD
ATOM     63  C   UNL A   1      41.290  29.886  33.263  1.00  0.00     0.037 A 
ATOM     64  C   UNL A   1      43.204  26.635  26.908  1.00  0.00     0.037 A 
ATOM     65  C   UNL A   1      42.366  28.940  33.175  1.00  0.00     0.049 A 
ATOM     66  C   UNL A   1      43.996  26.606  28.141  1.00  0.00     0.074 A 
ATOM     67  C   UNL A   1      42.420  27.568  33.307  1.00  0.00     0.029 A 
ATOM     68  N   UNL A   1      43.464  29.308  32.428  1.00  0.00    -0.354 N 
ATOM     69  N   UNL A   1      44.825  27.558  28.438  1.00  0.00    -0.248 NA
ATOM     70  C   UNL A   1      44.008  25.457  29.041  1.00  0.00     0.031 C 
ATOM     71  C   UNL A   1      43.177  27.145  32.192  1.00  0.00     0.029 A 
ATOM     72  C   UNL A   1      43.884  28.227  31.688  1.00  0.00     0.049 A 
ATOM     73  H   UNL A   1      43.880  30.201  32.423  1.00  0.00     0.167 HD
ATOM     74  C   UNL A   1      45.014  27.382  29.769  1.00  0.00     0.074 A 
ATOM     75  C   UNL A   1      44.759  25.976  30.015  1.00  0.00     0.031 C 
ATOM     76  C   UNL A   1      44.724  28.455  30.542  1.00  0.00     0.037 A 
BRANCH  63  77
ATOM     77  C   UNL A   1      41.474  31.374  33.278  1.00  0.00     0.064 A 
ATOM     78  C   UNL A   1      41.120  32.085  34.429  1.00  0.00     0.173 A 
ATOM     79  C   UNL A   1      41.869  32.119  32.150  1.00  0.00     0.173 A 
ATOM     80  F   UNL A   1      40.807  31.428  35.555  1.00  0.00    -0.203 F 
ATOM     81  C   UNL A   1      41.087  33.479  34.426  1.00  0.00     0.198 A 
ATOM     82  C   UNL A   1      41.769  33.505  32.127  1.00  0.00     0.198 A 
ATOM     83  F   UNL A   1      42.379  31.506  31.068  1.00  0.00    -0.203 F 
ATOM     84  F   UNL A   1      40.773  34.141  35.547  1.00  0.00    -0.200 F 
ATOM     85  C   UNL A   1      41.371  34.185  33.265  1.00  0.00     0.200 A 
ATOM     86  F   UNL A   1      42.063  34.178  31.006  1.00  0.00    -0.200 F 
ATOM     87  F   UNL A   1      41.288  35.522  33.250  1.00  0.00    -0.200 F 
ENDBRANCH  63  77
BRANCH  64  88
ATOM     88  C   UNL A   1      43.979  25.822  25.821  1.00  0.00     0.064 A 
ATOM     89  C   UNL A   1      45.340  26.149  25.464  1.00  0.00     0.173 A 
ATOM     90  C   UNL A   1      43.609  24.526  25.439  1.00  0.00     0.173 A 
ATOM     91  F   UNL A   1      45.858  27.360  25.708  1.00  0.00    -0.203 F 
ATOM     92  C   UNL A   1      46.256  25.235  24.911  1.00  0.00     0.198 A 
ATOM     93  C   UNL A   1      44.526  23.617  24.844  1.00  0.00     0.198 A 
ATOM     94  F   UNL A   1      42.379  24.077  25.715  1.00  0.00    -0.203 F 
ATOM     95  F   UNL A   1      47.541  25.587  24.735  1.00  0.00    -0.200 F 
ATOM     96  C   UNL A   1      45.852  23.957  24.617  1.00  0.00     0.200 A 
ATOM     97  F   UNL A   1      44.133  22.368  24.554  1.00  0.00    -0.200 F 
ATOM     98  F   UNL A   1      46.734  23.057  24.154  1.00  0.00    -0.200 F 
ENDBRANCH  64  88
BRANCH  76  99
ATOM     99  C   UNL A   1      45.175  29.808  30.019  1.00  0.00     0.064 A 
ATOM    100  C   UNL A   1      44.489  30.642  29.102  1.00  0.00     0.173 A 
ATOM    101  C   UNL A   1      46.445  30.248  30.416  1.00  0.00     0.173 A 
ATOM    102  F   UNL A   1      43.224  30.402  28.729  1.00  0.00    -0.203 F 
ATOM    103  C   UNL A   1      45.085  31.783  28.555  1.00  0.00     0.198 A 
ATOM    104  C   UNL A   1      47.013  31.418  29.914  1.00  0.00     0.198 A 
ATOM    105  F   UNL A   1      47.142  29.544  31.320  1.00  0.00    -0.203 F 
ATOM    106  F   UNL A   1      44.433  32.508  27.634  1.00  0.00    -0.200 F 
ATOM    107  C   UNL A   1      46.347  32.170  28.963  1.00  0.00     0.200 A 
ATOM    108  F   UNL A   1      48.214  31.812  30.357  1.00  0.00    -0.200 F 
ATOM    109  F   UNL A   1      46.913  33.275  28.458  1.00  0.00    -0.200 F 
ENDBRANCH  76  99
ENDBRANCH  50  51
ENDBRANCH  43  45
ENDBRANCH  42  43
ENDBRANCH  41  42
ENDBRANCH  40  41
ENDBRANCH  39  40
ENDBRANCH  38  39
ENDBRANCH   1  38
TORSDOF 23
ENDMDL
MODEL 2
REMARK VINA RESULT:     -10.9      3.469     10.174
REMARK SMILES Cc1c(CC(=O)N[C@@H](CCO)C(=O)OCCOCCOC(=O)c2ccc(-c3c4nc(c(-c5c(F)c(F)c(F)c(F)c5F)c5ccc([nH]5)c(-c5c(F)c(F)c(F)c(F)c5F)c5nc(c(-c6c(F)c(F)c(F)c(F)c6F)c6ccc3[nH]6)C=C5)C=C4)cc2)cc(-c2ccc(S(C)(=O)=O)cc2)n1-c1ccc(F)cc1
REMARK SMILES IDX 15 1 14 2 12 3 13 4 8 5 7 6 5 7 6 8 4 10 3 11 1 12 2 13
REMARK SMILES IDX 98 14 86 15 87 16 99 17 100 18 105 19 101 20 104 21 102 22
REMARK SMILES IDX 103 23 88 24 89 25 97 26 90 27 96 28 91 29 92 30 93 31 94 32
REMARK SMILES IDX 95 33 9 34 10 35 11 36 16 38 17 39 18 40 19 41 20 42 21 43
REMARK SMILES IDX 22 44 23 45 24 46 85 47 25 48 84 49 26 50 27 51 28 52 78 53
REMARK SMILES IDX 29 54 83 55 77 56 79 57 30 58 82 59 76 60 75 61 31 63 63 64
REMARK SMILES IDX 43 65 62 66 44 67 47 68 61 69 80 70 45 71 46 72 60 74 81 75
REMARK SMILES IDX 48 76 32 77 33 78 41 79 34 80 35 81 39 82 42 83 36 84 37 85
REMARK SMILES IDX 40 86 38 87 64 88 65 89 73 90 66 91 67 92 71 93 74 94 68 95
REMARK SMILES IDX 69 96 72 97 70 98 49 99 50 100 58 101 51 102 52 103 56 104
REMARK SMILES IDX 59 105 53 106 54 107 57 108 55 109
REMARK H PARENT 7 9 11 37 79 62 47 73
REMARK Flexibility Score: inf
ROOT
ATOM      1  C   UNL A   1      33.608  23.807  23.885  1.00  0.00     0.261 C 
ENDROOT
BRANCH   1   2
ATOM      2  O   UNL A   1      34.086  24.910  24.672  1.00  0.00    -0.462 OA
BRANCH   2   3
ATOM      3  C   UNL A   1      33.471  26.106  24.439  1.00  0.00     0.328 C 
ATOM      4  O   UNL A   1      33.437  26.684  23.360  1.00  0.00    -0.250 OA
BRANCH   3   5
ATOM      5  C   UNL A   1      32.904  26.713  25.733  1.00  0.00     0.194 C 
BRANCH   5   6
ATOM      6  N   UNL A   1      32.653  28.163  25.705  1.00  0.00    -0.342 N 
ATOM      7  C   UNL A   1      33.436  29.193  26.144  1.00  0.00     0.225 C 
ATOM      8  O   UNL A   1      33.026  30.342  25.950  1.00  0.00    -0.275 OA
ATOM      9  H   UNL A   1      31.792  28.431  25.312  1.00  0.00     0.164 HD
BRANCH   7  10
ATOM     10  C   UNL A   1      34.806  28.947  26.764  1.00  0.00     0.137 C 
BRANCH  10  11
ATOM     11  C   UNL A   1      35.259  30.039  27.682  1.00  0.00    -0.017 A 
ATOM     12  C   UNL A   1      37.829  29.934  27.364  1.00  0.00     0.065 C 
ATOM     13  C   UNL A   1      36.551  30.506  27.884  1.00  0.00     0.024 A 
ATOM     14  N   UNL A   1      36.487  31.609  28.732  1.00  0.00    -0.314 N 
ATOM     15  C   UNL A   1      34.411  30.800  28.527  1.00  0.00     0.033 A 
ATOM     16  C   UNL A   1      35.155  31.813  29.099  1.00  0.00     0.053 A 
BRANCH  14  17
ATOM     17  C   UNL A   1      37.580  32.426  29.133  1.00  0.00     0.046 A 
ATOM     18  C   UNL A   1      37.574  33.793  28.820  1.00  0.00     0.029 A 
ATOM     19  C   UNL A   1      38.691  31.846  29.760  1.00  0.00     0.029 A 
ATOM     20  C   UNL A   1      38.681  34.578  29.134  1.00  0.00     0.041 A 
ATOM     21  C   UNL A   1      39.801  32.638  30.057  1.00  0.00     0.041 A 
ATOM     22  C   UNL A   1      39.785  33.993  29.742  1.00  0.00     0.123 A 
ATOM     23  F   UNL A   1      40.859  34.745  30.018  1.00  0.00    -0.207 F 
ENDBRANCH  14  17
BRANCH  16  24
ATOM     24  C   UNL A   1      34.641  32.982  29.823  1.00  0.00    -0.001 A 
ATOM     25  C   UNL A   1      34.040  34.043  29.126  1.00  0.00     0.011 A 
ATOM     26  C   UNL A   1      34.710  33.037  31.221  1.00  0.00     0.011 A 
ATOM     27  C   UNL A   1      33.561  35.164  29.805  1.00  0.00     0.021 A 
ATOM     28  C   UNL A   1      34.233  34.156  31.910  1.00  0.00     0.021 A 
ATOM     29  C   UNL A   1      33.677  35.220  31.196  1.00  0.00     0.067 A 
BRANCH  29  30
ATOM     30  S   UNL A   1      33.061  36.652  32.049  1.00  0.00     0.175 S 
ATOM     31  C   UNL A   1      31.506  36.120  32.717  1.00  0.00     0.163 C 
ATOM     32  O   UNL A   1      33.962  36.921  33.139  1.00  0.00    -0.224 OA
ATOM     33  O   UNL A   1      32.772  37.670  31.041  1.00  0.00    -0.224 OA
ENDBRANCH  29  30
ENDBRANCH  16  24
ENDBRANCH  10  11
ENDBRANCH   7  10
ENDBRANCH   5   6
BRANCH   5  34
ATOM     34  C   UNL A   1      31.632  25.967  26.151  1.00  0.00     0.065 C 
BRANCH  34  35
ATOM     35  C   UNL A   1      30.599  25.798  25.037  1.00  0.00     0.159 C 
BRANCH  35  36
ATOM     36  O   UNL A   1      29.809  24.635  25.223  1.00  0.00    -0.396 OA
ATOM     37  H   UNL A   1      30.379  23.851  25.207  1.00  0.00     0.210 HD
ENDBRANCH  35  36
ENDBRANCH  34  35
ENDBRANCH   5  34
ENDBRANCH   3   5
ENDBRANCH   2   3
ENDBRANCH   1   2
BRANCH   1  38
ATOM     38  C   UNL A   1      34.775  23.096  23.183  1.00  0.00     0.202 C 
BRANCH  38  39
ATOM     39  O   UNL A   1      35.514  22.192  24.001  1.00  0.00    -0.374 OA
BRANCH  39  40
ATOM     40  C   UNL A   1      36.924  22.098  23.762  1.00  0.00     0.202 C 
BRANCH  40  41
ATOM     41  C   UNL A   1      37.804  21.398  24.835  1.00  0.00     0.261 C 
BRANCH  41  42
ATOM     42  O   UNL A   1      37.993  22.034  26.156  1.00  0.00    -0.460 OA
BRANCH  42  43
ATOM     43  C   UNL A   1      39.298  22.279  26.521  1.00  0.00     0.338 C 
ATOM     44  O   UNL A   1      40.149  21.398  26.566  1.00  0.00    -0.246 OA
BRANCH  43  45
ATOM     45  C   UNL A   1      39.702  23.726  26.848  1.00  0.00     0.060 A 
ATOM     46  C   UNL A   1      40.747  23.939  27.737  1.00  0.00     0.016 A 
ATOM     47  C   UNL A   1      38.916  24.874  26.593  1.00  0.00     0.016 A 
ATOM     48  C   UNL A   1      41.011  25.240  28.295  1.00  0.00     0.010 A 
ATOM     49  C   UNL A   1      39.151  26.192  27.227  1.00  0.00     0.010 A 
ATOM     50  C   UNL A   1      40.209  26.431  28.123  1.00  0.00    -0.014 A 
BRANCH  50  51
ATOM     51  C   UNL A   1      40.394  27.627  29.238  1.00  0.00     0.031 A 
ATOM     52  C   UNL A   1      41.512  28.435  28.662  1.00  0.00     0.074 A 
ATOM     53  C   UNL A   1      39.990  28.098  30.499  1.00  0.00     0.049 A 
ATOM     54  N   UNL A   1      42.666  27.880  28.403  1.00  0.00    -0.248 NA
ATOM     55  C   UNL A   1      41.284  29.722  28.001  1.00  0.00     0.031 C 
ATOM     56  C   UNL A   1      39.058  27.472  31.454  1.00  0.00     0.029 A 
ATOM     57  N   UNL A   1      40.317  29.288  31.256  1.00  0.00    -0.354 N 
ATOM     58  C   UNL A   1      43.417  28.845  27.780  1.00  0.00     0.074 A 
ATOM     59  C   UNL A   1      42.452  29.853  27.363  1.00  0.00     0.031 C 
ATOM     60  C   UNL A   1      38.792  28.280  32.527  1.00  0.00     0.029 A 
ATOM     61  C   UNL A   1      39.555  29.527  32.467  1.00  0.00     0.049 A 
ATOM     62  H   UNL A   1      41.025  29.906  30.962  1.00  0.00     0.167 HD
ATOM     63  C   UNL A   1      44.672  29.038  28.275  1.00  0.00     0.037 A 
ATOM     64  C   UNL A   1      39.564  30.580  33.390  1.00  0.00     0.037 A 
ATOM     65  C   UNL A   1      44.742  30.206  29.107  1.00  0.00     0.049 A 
ATOM     66  C   UNL A   1      40.863  31.249  33.267  1.00  0.00     0.074 A 
ATOM     67  C   UNL A   1      44.256  31.489  28.963  1.00  0.00     0.029 A 
ATOM     68  N   UNL A   1      44.926  30.003  30.457  1.00  0.00    -0.354 N 
ATOM     69  N   UNL A   1      41.933  30.764  33.817  1.00  0.00    -0.248 NA
ATOM     70  C   UNL A   1      41.017  32.559  32.642  1.00  0.00     0.031 C 
ATOM     71  C   UNL A   1      43.643  31.766  30.205  1.00  0.00     0.029 A 
ATOM     72  C   UNL A   1      44.121  30.874  31.155  1.00  0.00     0.049 A 
ATOM     73  H   UNL A   1      45.536  29.341  30.859  1.00  0.00     0.167 HD
ATOM     74  C   UNL A   1      42.925  31.398  33.146  1.00  0.00     0.074 A 
ATOM     75  C   UNL A   1      42.348  32.646  32.686  1.00  0.00     0.031 C 
ATOM     76  C   UNL A   1      43.818  30.587  32.532  1.00  0.00     0.037 A 
BRANCH  63  77
ATOM     77  C   UNL A   1      45.440  27.776  28.527  1.00  0.00     0.064 A 
ATOM     78  C   UNL A   1      46.486  27.440  27.663  1.00  0.00     0.173 A 
ATOM     79  C   UNL A   1      45.089  26.838  29.517  1.00  0.00     0.173 A 
ATOM     80  F   UNL A   1      46.914  28.324  26.749  1.00  0.00    -0.203 F 
ATOM     81  C   UNL A   1      47.100  26.190  27.735  1.00  0.00     0.198 A 
ATOM     82  C   UNL A   1      45.654  25.568  29.543  1.00  0.00     0.198 A 
ATOM     83  F   UNL A   1      44.210  27.156  30.483  1.00  0.00    -0.203 F 
ATOM     84  F   UNL A   1      48.120  25.900  26.916  1.00  0.00    -0.200 F 
ATOM     85  C   UNL A   1      46.656  25.242  28.646  1.00  0.00     0.200 A 
ATOM     86  F   UNL A   1      45.229  24.666  30.439  1.00  0.00    -0.200 F 
ATOM     87  F   UNL A   1      47.213  24.024  28.679  1.00  0.00    -0.200 F 
ENDBRANCH  63  77
BRANCH  64  88
ATOM     88  C   UNL A   1      38.808  31.219  34.600  1.00  0.00     0.064 A 
ATOM     89  C   UNL A   1      39.348  31.167  35.938  1.00  0.00     0.173 A 
ATOM     90  C   UNL A   1      37.830  32.209  34.442  1.00  0.00     0.173 A 
ATOM     91  F   UNL A   1      40.263  30.254  36.292  1.00  0.00    -0.203 F 
ATOM     92  C   UNL A   1      39.037  32.089  36.955  1.00  0.00     0.198 A 
ATOM     93  C   UNL A   1      37.489  33.115  35.484  1.00  0.00     0.198 A 
ATOM     94  F   UNL A   1      37.248  32.384  33.250  1.00  0.00    -0.203 F 
ATOM     95  F   UNL A   1      39.689  32.047  38.130  1.00  0.00    -0.200 F 
ATOM     96  C   UNL A   1      38.117  33.079  36.720  1.00  0.00     0.200 A 
ATOM     97  F   UNL A   1      36.588  34.082  35.257  1.00  0.00    -0.200 F 
ATOM     98  F   UNL A   1      37.863  34.005  37.659  1.00  0.00    -0.200 F 
ENDBRANCH  64  88
BRANCH  76  99
ATOM     99  C   UNL A   1      44.272  29.364  33.311  1.00  0.00     0.064 A 
ATOM    100  C   UNL A   1      43.588  28.129  33.435  1.00  0.00     0.173 A 
ATOM    101  C   UNL A   1      45.450  29.491  34.059  1.00  0.00     0.173 A 
ATOM    102  F   UNL A   1      42.515  27.830  32.691  1.00  0.00    -0.203 F 
ATOM    103  C   UNL A   1      44.015  27.138  34.325  1.00  0.00     0.198 A 
ATOM    104  C   UNL A   1      45.905  28.478  34.900  1.00  0.00     0.198 A 
ATOM    105  F   UNL A   1      46.184  30.609  33.959  1.00  0.00    -0.203 F 
ATOM    106  F   UNL A   1      43.301  26.011  34.471  1.00  0.00    -0.200 F 
ATOM    107  C   UNL A   1      45.174  27.314  35.056  1.00  0.00     0.200 A 
ATOM    108  F   UNL A   1      47.058  28.637  35.563  1.00  0.00    -0.200 F 
ATOM    109  F   UNL A   1      45.598  26.357  35.893  1.00  0.00    -0.200 F 
ENDBRANCH  76  99
ENDBRANCH  50  51
ENDBRANCH  43  45
ENDBRANCH  42  43
ENDBRANCH  41  42
ENDBRANCH  40  41
ENDBRANCH  39  40
ENDBRANCH  38  39
ENDBRANCH   1  38
TORSDOF 23
ENDMDL
MODEL 3
REMARK VINA RESULT:     -10.6      8.422     15.356
REMARK SMILES Cc1c(CC(=O)N[C@@H](CCO)C(=O)OCCOCCOC(=O)c2ccc(-c3c4nc(c(-c5c(F)c(F)c(F)c(F)c5F)c5ccc([nH]5)c(-c5c(F)c(F)c(F)c(F)c5F)c5nc(c(-c6c(F)c(F)c(F)c(F)c6F)c6ccc3[nH]6)C=C5)C=C4)cc2)cc(-c2ccc(S(C)(=O)=O)cc2)n1-c1ccc(F)cc1
REMARK SMILES IDX 15 1 14 2 12 3 13 4 8 5 7 6 5 7 6 8 4 10 3 11 1 12 2 13
REMARK SMILES IDX 98 14 86 15 87 16 99 17 100 18 105 19 101 20 104 21 102 22
REMARK SMILES IDX 103 23 88 24 89 25 97 26 90 27 96 28 91 29 92 30 93 31 94 32
REMARK SMILES IDX 95 33 9 34 10 35 11 36 16 38 17 39 18 40 19 41 20 42 21 43
REMARK SMILES IDX 22 44 23 45 24 46 85 47 25 48 84 49 26 50 27 51 28 52 78 53
REMARK SMILES IDX 29 54 83 55 77 56 79 57 30 58 82 59 76 60 75 61 31 63 63 64
REMARK SMILES IDX 43 65 62 66 44 67 47 68 61 69 80 70 45 71 46 72 60 74 81 75
REMARK SMILES IDX 48 76 32 77 33 78 41 79 34 80 35 81 39 82 42 83 36 84 37 85
REMARK SMILES IDX 40 86 38 87 64 88 65 89 73 90 66 91 67 92 71 93 74 94 68 95
REMARK SMILES IDX 69 96 72 97 70 98 49 99 50 100 58 101 51 102 52 103 56 104
REMARK SMILES IDX 59 105 53 106 54 107 57 108 55 109
REMARK H PARENT 7 9 11 37 79 62 47 73
REMARK Flexibility Score: inf
ROOT
ATOM      1  C   UNL A   1      47.173  40.950  21.938  1.00  0.00     0.261 C 
ENDROOT
BRANCH   1   2
ATOM      2  O   UNL A   1      46.890  41.972  20.967  1.00  0.00    -0.462 OA
BRANCH   2   3
ATOM      3  C   UNL A   1      45.600  42.416  20.941  1.00  0.00     0.328 C 
ATOM      4  O   UNL A   1      44.609  41.700  20.873  1.00  0.00    -0.250 OA
BRANCH   3   5
ATOM      5  C   UNL A   1      45.530  43.951  20.899  1.00  0.00     0.194 C 
BRANCH   5   6
ATOM      6  N   UNL A   1      46.379  44.658  21.871  1.00  0.00    -0.342 N 
ATOM      7  C   UNL A   1      46.045  45.243  23.059  1.00  0.00     0.225 C 
ATOM      8  O   UNL A   1      46.960  45.726  23.733  1.00  0.00    -0.275 OA
ATOM      9  H   UNL A   1      47.331  44.720  21.628  1.00  0.00     0.164 HD
BRANCH   7  10
ATOM     10  C   UNL A   1      44.616  45.222  23.587  1.00  0.00     0.137 C 
BRANCH  10  11
ATOM     11  C   UNL A   1      44.382  44.204  24.660  1.00  0.00    -0.017 A 
ATOM     12  C   UNL A   1      42.656  42.646  23.514  1.00  0.00     0.065 C 
ATOM     13  C   UNL A   1      43.595  43.062  24.599  1.00  0.00     0.024 A 
ATOM     14  N   UNL A   1      43.770  42.350  25.783  1.00  0.00    -0.314 N 
ATOM     15  C   UNL A   1      44.947  44.245  25.960  1.00  0.00     0.033 A 
ATOM     16  C   UNL A   1      44.638  43.066  26.610  1.00  0.00     0.053 A 
BRANCH  14  17
ATOM     17  C   UNL A   1      43.200  41.086  26.096  1.00  0.00     0.046 A 
ATOM     18  C   UNL A   1      41.804  40.947  26.134  1.00  0.00     0.029 A 
ATOM     19  C   UNL A   1      44.030  40.012  26.447  1.00  0.00     0.029 A 
ATOM     20  C   UNL A   1      41.242  39.733  26.525  1.00  0.00     0.041 A 
ATOM     21  C   UNL A   1      43.457  38.806  26.850  1.00  0.00     0.041 A 
ATOM     22  C   UNL A   1      42.072  38.678  26.885  1.00  0.00     0.123 A 
ATOM     23  F   UNL A   1      41.528  37.522  27.286  1.00  0.00    -0.207 F 
ENDBRANCH  14  17
BRANCH  16  24
ATOM     24  C   UNL A   1      45.228  42.569  27.859  1.00  0.00    -0.001 A 
ATOM     25  C   UNL A   1      44.503  42.623  29.060  1.00  0.00     0.011 A 
ATOM     26  C   UNL A   1      46.509  42.003  27.861  1.00  0.00     0.011 A 
ATOM     27  C   UNL A   1      45.063  42.166  30.254  1.00  0.00     0.021 A 
ATOM     28  C   UNL A   1      47.078  41.542  29.052  1.00  0.00     0.021 A 
ATOM     29  C   UNL A   1      46.358  41.642  30.244  1.00  0.00     0.067 A 
BRANCH  29  30
ATOM     30  S   UNL A   1      47.058  41.061  31.770  1.00  0.00     0.175 S 
ATOM     31  C   UNL A   1      46.589  39.351  31.835  1.00  0.00     0.163 C 
ATOM     32  O   UNL A   1      48.489  41.142  31.642  1.00  0.00    -0.224 OA
ATOM     33  O   UNL A   1      46.359  41.741  32.858  1.00  0.00    -0.224 OA
ENDBRANCH  29  30
ENDBRANCH  16  24
ENDBRANCH  10  11
ENDBRANCH   7  10
ENDBRANCH   5   6
BRANCH   5  34
ATOM     34  C   UNL A   1      45.824  44.452  19.481  1.00  0.00     0.065 C 
BRANCH  34  35
ATOM     35  C   UNL A   1      44.947  45.619  19.026  1.00  0.00     0.159 C 
BRANCH  35  36
ATOM     36  O   UNL A   1      45.078  46.742  19.883  1.00  0.00    -0.396 OA
ATOM     37  H   UNL A   1      44.979  46.458  20.805  1.00  0.00     0.210 HD
ENDBRANCH  35  36
ENDBRANCH  34  35
ENDBRANCH   5  34
ENDBRANCH   3   5
ENDBRANCH   2   3
ENDBRANCH   1   2
BRANCH   1  38
ATOM     38  C   UNL A   1      46.980  41.489  23.363  1.00  0.00     0.202 C 
BRANCH  38  39
ATOM     39  O   UNL A   1      46.362  40.584  24.275  1.00  0.00    -0.374 OA
BRANCH  39  40
ATOM     40  C   UNL A   1      47.228  39.746  25.052  1.00  0.00     0.202 C 
BRANCH  40  41
ATOM     41  C   UNL A   1      46.803  38.269  25.283  1.00  0.00     0.261 C 
BRANCH  41  42
ATOM     42  O   UNL A   1      46.822  37.707  26.650  1.00  0.00    -0.460 OA
BRANCH  42  43
ATOM     43  C   UNL A   1      46.604  36.350  26.743  1.00  0.00     0.338 C 
ATOM     44  O   UNL A   1      47.026  35.554  25.910  1.00  0.00    -0.246 OA
BRANCH  43  45
ATOM     45  C   UNL A   1      45.834  35.818  27.962  1.00  0.00     0.060 A 
ATOM     46  C   UNL A   1      45.234  34.568  27.875  1.00  0.00     0.016 A 
ATOM     47  C   UNL A   1      45.392  36.598  29.056  1.00  0.00     0.016 A 
ATOM     48  C   UNL A   1      44.284  34.117  28.858  1.00  0.00     0.010 A 
ATOM     49  C   UNL A   1      44.360  36.153  30.022  1.00  0.00     0.010 A 
ATOM     50  C   UNL A   1      43.747  34.889  29.957  1.00  0.00    -0.014 A 
BRANCH  50  51
ATOM     51  C   UNL A   1      42.331  34.371  30.616  1.00  0.00     0.031 A 
ATOM     52  C   UNL A   1      42.794  33.563  31.784  1.00  0.00     0.074 A 
ATOM     53  C   UNL A   1      40.936  34.322  30.452  1.00  0.00     0.049 A 
ATOM     54  N   UNL A   1      43.605  32.553  31.613  1.00  0.00    -0.248 NA
ATOM     55  C   UNL A   1      42.714  34.062  33.159  1.00  0.00     0.031 C 
ATOM     56  C   UNL A   1      40.126  34.830  29.330  1.00  0.00     0.029 A 
ATOM     57  N   UNL A   1      39.867  33.798  31.276  1.00  0.00    -0.354 N 
ATOM     58  C   UNL A   1      43.929  32.112  32.870  1.00  0.00     0.074 A 
ATOM     59  C   UNL A   1      43.545  33.202  33.756  1.00  0.00     0.031 C 
ATOM     60  C   UNL A   1      38.783  34.733  29.571  1.00  0.00     0.029 A 
ATOM     61  C   UNL A   1      38.510  34.091  30.858  1.00  0.00     0.049 A 
ATOM     62  H   UNL A   1      40.053  33.266  32.084  1.00  0.00     0.167 HD
ATOM     63  C   UNL A   1      43.802  30.771  33.085  1.00  0.00     0.037 A 
ATOM     64  C   UNL A   1      37.266  33.800  31.431  1.00  0.00     0.037 A 
ATOM     65  C   UNL A   1      42.602  30.460  33.810  1.00  0.00     0.049 A 
ATOM     66  C   UNL A   1      37.462  32.657  32.329  1.00  0.00     0.074 A 
ATOM     67  C   UNL A   1      42.009  31.018  34.923  1.00  0.00     0.029 A 
ATOM     68  N   UNL A   1      41.607  29.802  33.121  1.00  0.00    -0.354 N 
ATOM     69  N   UNL A   1      37.534  31.443  31.878  1.00  0.00    -0.248 NA
ATOM     70  C   UNL A   1      37.455  32.788  33.782  1.00  0.00     0.031 C 
ATOM     71  C   UNL A   1      40.654  31.163  34.555  1.00  0.00     0.029 A 
ATOM     72  C   UNL A   1      40.391  30.344  33.466  1.00  0.00     0.049 A 
ATOM     73  H   UNL A   1      41.745  29.063  32.483  1.00  0.00     0.167 HD
ATOM     74  C   UNL A   1      38.117  30.779  32.906  1.00  0.00     0.074 A 
ATOM     75  C   UNL A   1      37.779  31.532  34.097  1.00  0.00     0.031 C 
ATOM     76  C   UNL A   1      39.263  30.128  32.597  1.00  0.00     0.037 A 
BRANCH  63  77
ATOM     77  C   UNL A   1      44.379  29.913  32.001  1.00  0.00     0.064 A 
ATOM     78  C   UNL A   1      45.605  29.279  32.224  1.00  0.00     0.173 A 
ATOM     79  C   UNL A   1      43.816  29.804  30.714  1.00  0.00     0.173 A 
ATOM     80  F   UNL A   1      46.153  29.287  33.448  1.00  0.00    -0.203 F 
ATOM     81  C   UNL A   1      46.276  28.634  31.186  1.00  0.00     0.198 A 
ATOM     82  C   UNL A   1      44.517  29.220  29.665  1.00  0.00     0.198 A 
ATOM     83  F   UNL A   1      42.569  30.242  30.472  1.00  0.00    -0.203 F 
ATOM     84  F   UNL A   1      47.436  28.008  31.428  1.00  0.00    -0.200 F 
ATOM     85  C   UNL A   1      45.752  28.640  29.900  1.00  0.00     0.200 A 
ATOM     86  F   UNL A   1      43.993  29.217  28.432  1.00  0.00    -0.200 F 
ATOM     87  F   UNL A   1      46.423  28.064  28.894  1.00  0.00    -0.200 F 
ENDBRANCH  63  77
BRANCH  64  88
ATOM     88  C   UNL A   1      35.734  34.105  31.373  1.00  0.00     0.064 A 
ATOM     89  C   UNL A   1      35.110  35.013  32.306  1.00  0.00     0.173 A 
ATOM     90  C   UNL A   1      34.963  33.886  30.223  1.00  0.00     0.173 A 
ATOM     91  F   UNL A   1      35.677  35.309  33.483  1.00  0.00    -0.203 F 
ATOM     92  C   UNL A   1      33.919  35.718  32.051  1.00  0.00     0.198 A 
ATOM     93  C   UNL A   1      33.740  34.571  29.985  1.00  0.00     0.198 A 
ATOM     94  F   UNL A   1      35.420  33.076  29.261  1.00  0.00    -0.203 F 
ATOM     95  F   UNL A   1      33.481  36.645  32.920  1.00  0.00    -0.200 F 
ATOM     96  C   UNL A   1      33.241  35.510  30.876  1.00  0.00     0.200 A 
ATOM     97  F   UNL A   1      33.074  34.367  28.839  1.00  0.00    -0.200 F 
ATOM     98  F   UNL A   1      32.142  36.227  30.592  1.00  0.00    -0.200 F 
ENDBRANCH  64  88
BRANCH  76  99
ATOM     99  C   UNL A   1      39.284  29.379  31.276  1.00  0.00     0.064 A 
ATOM    100  C   UNL A   1      39.524  29.922  29.990  1.00  0.00     0.173 A 
ATOM    101  C   UNL A   1      38.946  28.019  31.315  1.00  0.00     0.173 A 
ATOM    102  F   UNL A   1      39.966  31.175  29.816  1.00  0.00    -0.203 F 
ATOM    103  C   UNL A   1      39.339  29.169  28.826  1.00  0.00     0.198 A 
ATOM    104  C   UNL A   1      38.820  27.255  30.156  1.00  0.00     0.198 A 
ATOM    105  F   UNL A   1      38.752  27.415  32.496  1.00  0.00    -0.203 F 
ATOM    106  F   UNL A   1      39.504  29.737  27.622  1.00  0.00    -0.200 F 
ATOM    107  C   UNL A   1      38.989  27.835  28.911  1.00  0.00     0.200 A 
ATOM    108  F   UNL A   1      38.533  25.950  30.253  1.00  0.00    -0.200 F 
ATOM    109  F   UNL A   1      38.833  27.103  27.799  1.00  0.00    -0.200 F 
ENDBRANCH  76  99
ENDBRANCH  50  51
ENDBRANCH  43  45
ENDBRANCH  42  43
ENDBRANCH  41  42
ENDBRANCH  40  41
ENDBRANCH  39  40
ENDBRANCH  38  39
ENDBRANCH   1  38
TORSDOF 23
ENDMDL
