MODEL 1
REMARK VINA RESULT:      -9.7      0.000      0.000
REMARK SMILES O=C(OCCOCCOC(=O)[C@H](F)SCC1CCCC1)c1ccc(-c2c3nc(c(-c4c(F)c(F)c(F)c(F)c4F)c4ccc([nH]4)c(-c4c(F)c(F)c(F)c(F)c4F)c4nc(c(-c5c(F)c(F)c(F)c(F)c5F)c5ccc2[nH]5)C=C4)C=C3)cc1
REMARK SMILES IDX 7 1 6 2 5 3 4 4 3 5 2 6 1 7 21 8 22 9 83 10 23 11 82 12
REMARK SMILES IDX 24 13 25 14 26 15 76 16 27 17 81 18 75 19 77 20 28 21 80 22
REMARK SMILES IDX 74 23 73 24 29 26 61 27 41 28 60 29 42 30 45 31 59 32 78 33
REMARK SMILES IDX 43 34 44 35 58 37 79 38 46 39 30 40 31 41 39 42 32 43 33 44
REMARK SMILES IDX 37 45 40 46 34 47 35 48 38 49 36 50 62 51 63 52 71 53 64 54
REMARK SMILES IDX 65 55 69 56 72 57 66 58 67 59 70 60 68 61 47 62 48 63 56 64
REMARK SMILES IDX 49 65 50 66 54 67 57 68 51 69 52 70 55 71 53 72 8 73 9 74
REMARK SMILES IDX 10 75 11 76 12 77 13 78 14 79 15 80 16 81 17 82 20 83 18 84
REMARK SMILES IDX 19 85
REMARK H PARENT 77 25 45 36
REMARK Flexibility Score: inf
ROOT
ATOM      1  C   UNL A   1      38.061  23.005  25.783  1.00  0.00     0.202 C 
ENDROOT
BRANCH   1   2
ATOM      2  O   UNL A   1      38.190  21.625  26.103  1.00  0.00    -0.374 OA
BRANCH   2   3
ATOM      3  C   UNL A   1      38.274  20.735  24.990  1.00  0.00     0.202 C 
BRANCH   3   4
ATOM      4  C   UNL A   1      38.783  19.322  25.329  1.00  0.00     0.261 C 
BRANCH   4   5
ATOM      5  O   UNL A   1      39.825  19.324  26.324  1.00  0.00    -0.460 OA
BRANCH   5   6
ATOM      6  C   UNL A   1      41.147  19.599  26.193  1.00  0.00     0.338 C 
ATOM      7  O   UNL A   1      41.888  18.704  25.787  1.00  0.00    -0.246 OA
BRANCH   6   8
ATOM      8  C   UNL A   1      41.777  20.912  26.545  1.00  0.00     0.060 A 
ATOM      9  C   UNL A   1      42.199  21.278  27.820  1.00  0.00     0.016 A 
ATOM     10  C   UNL A   1      42.006  21.826  25.497  1.00  0.00     0.016 A 
ATOM     11  C   UNL A   1      42.796  22.493  28.075  1.00  0.00     0.010 A 
ATOM     12  C   UNL A   1      42.595  23.073  25.743  1.00  0.00     0.010 A 
ATOM     13  C   UNL A   1      42.967  23.407  27.046  1.00  0.00    -0.014 A 
BRANCH  13  14
ATOM     14  C   UNL A   1      43.314  24.762  27.485  1.00  0.00     0.031 A 
ATOM     15  C   UNL A   1      44.678  25.263  27.127  1.00  0.00     0.074 A 
ATOM     16  C   UNL A   1      42.332  25.581  27.902  1.00  0.00     0.049 A 
ATOM     17  N   UNL A   1      45.208  26.437  27.321  1.00  0.00    -0.248 NA
ATOM     18  C   UNL A   1      45.554  24.318  26.406  1.00  0.00     0.031 C 
ATOM     19  C   UNL A   1      40.925  25.197  28.058  1.00  0.00     0.029 A 
ATOM     20  N   UNL A   1      42.352  26.912  28.209  1.00  0.00    -0.354 N 
ATOM     21  C   UNL A   1      46.476  26.369  26.759  1.00  0.00     0.074 A 
ATOM     22  C   UNL A   1      46.644  25.043  26.217  1.00  0.00     0.031 C 
ATOM     23  C   UNL A   1      40.217  26.276  28.429  1.00  0.00     0.029 A 
ATOM     24  C   UNL A   1      41.130  27.399  28.602  1.00  0.00     0.049 A 
ATOM     25  H   UNL A   1      43.163  27.467  28.154  1.00  0.00     0.167 HD
ATOM     26  C   UNL A   1      47.413  27.341  26.716  1.00  0.00     0.037 A 
ATOM     27  C   UNL A   1      40.817  28.612  29.092  1.00  0.00     0.037 A 
ATOM     28  C   UNL A   1      47.206  28.643  27.285  1.00  0.00     0.049 A 
ATOM     29  C   UNL A   1      41.932  29.623  29.186  1.00  0.00     0.074 A 
ATOM     30  C   UNL A   1      48.103  29.682  27.432  1.00  0.00     0.029 A 
ATOM     31  N   UNL A   1      45.992  29.076  27.809  1.00  0.00    -0.354 N 
ATOM     32  N   UNL A   1      43.173  29.530  28.767  1.00  0.00    -0.248 NA
ATOM     33  C   UNL A   1      41.612  30.899  29.832  1.00  0.00     0.031 C 
ATOM     34  C   UNL A   1      47.444  30.726  28.091  1.00  0.00     0.029 A 
ATOM     35  C   UNL A   1      46.120  30.362  28.297  1.00  0.00     0.049 A 
ATOM     36  H   UNL A   1      45.164  28.545  27.828  1.00  0.00     0.167 HD
ATOM     37  C   UNL A   1      43.777  30.737  29.080  1.00  0.00     0.074 A 
ATOM     38  C   UNL A   1      42.752  31.558  29.695  1.00  0.00     0.031 C 
ATOM     39  C   UNL A   1      45.061  31.136  28.894  1.00  0.00     0.037 A 
BRANCH  26  40
ATOM     40  C   UNL A   1      48.743  26.986  26.125  1.00  0.00     0.064 A 
ATOM     41  C   UNL A   1      49.798  26.489  26.905  1.00  0.00     0.173 A 
ATOM     42  C   UNL A   1      48.979  27.185  24.757  1.00  0.00     0.173 A 
ATOM     43  F   UNL A   1      49.638  26.317  28.227  1.00  0.00    -0.203 F 
ATOM     44  C   UNL A   1      51.044  26.223  26.341  1.00  0.00     0.198 A 
ATOM     45  C   UNL A   1      50.217  26.896  24.190  1.00  0.00     0.198 A 
ATOM     46  F   UNL A   1      48.010  27.678  23.970  1.00  0.00    -0.203 F 
ATOM     47  F   UNL A   1      52.054  25.801  27.114  1.00  0.00    -0.200 F 
ATOM     48  C   UNL A   1      51.250  26.421  24.983  1.00  0.00     0.200 A 
ATOM     49  F   UNL A   1      50.414  27.090  22.879  1.00  0.00    -0.200 F 
ATOM     50  F   UNL A   1      52.451  26.170  24.442  1.00  0.00    -0.200 F 
ENDBRANCH  26  40
BRANCH  27  51
ATOM     51  C   UNL A   1      39.453  28.899  29.615  1.00  0.00     0.064 A 
ATOM     52  C   UNL A   1      38.465  29.492  28.817  1.00  0.00     0.173 A 
ATOM     53  C   UNL A   1      39.130  28.647  30.959  1.00  0.00     0.173 A 
ATOM     54  F   UNL A   1      38.723  29.773  27.531  1.00  0.00    -0.203 F 
ATOM     55  C   UNL A   1      37.228  29.857  29.349  1.00  0.00     0.198 A 
ATOM     56  C   UNL A   1      37.881  28.977  31.481  1.00  0.00     0.198 A 
ATOM     57  F   UNL A   1      40.033  28.087  31.778  1.00  0.00    -0.203 F 
ATOM     58  F   UNL A   1      36.333  30.491  28.581  1.00  0.00    -0.200 F 
ATOM     59  C   UNL A   1      36.936  29.597  30.681  1.00  0.00     0.200 A 
ATOM     60  F   UNL A   1      37.602  28.709  32.764  1.00  0.00    -0.200 F 
ATOM     61  F   UNL A   1      35.754  29.962  31.195  1.00  0.00    -0.200 F 
ENDBRANCH  27  51
BRANCH  39  62
ATOM     62  C   UNL A   1      45.398  32.529  29.333  1.00  0.00     0.064 A 
ATOM     63  C   UNL A   1      45.230  33.630  28.483  1.00  0.00     0.173 A 
ATOM     64  C   UNL A   1      45.865  32.762  30.636  1.00  0.00     0.173 A 
ATOM     65  F   UNL A   1      44.799  33.452  27.225  1.00  0.00    -0.203 F 
ATOM     66  C   UNL A   1      45.553  34.913  28.908  1.00  0.00     0.198 A 
ATOM     67  C   UNL A   1      46.149  34.051  31.069  1.00  0.00     0.198 A 
ATOM     68  F   UNL A   1      46.031  31.740  31.489  1.00  0.00    -0.203 F 
ATOM     69  F   UNL A   1      45.447  35.944  28.058  1.00  0.00    -0.200 F 
ATOM     70  C   UNL A   1      46.005  35.124  30.202  1.00  0.00     0.200 A 
ATOM     71  F   UNL A   1      46.567  34.256  32.327  1.00  0.00    -0.200 F 
ATOM     72  F   UNL A   1      46.311  36.362  30.612  1.00  0.00    -0.200 F 
ENDBRANCH  39  62
ENDBRANCH  13  14
ENDBRANCH   6   8
ENDBRANCH   5   6
ENDBRANCH   4   5
ENDBRANCH   3   4
ENDBRANCH   2   3
ENDBRANCH   1   2
BRANCH   1  73
ATOM     73  C   UNL A   1      37.000  23.292  24.742  1.00  0.00     0.261 C 
BRANCH  73  74
ATOM     74  O   UNL A   1      35.663  23.240  25.246  1.00  0.00    -0.460 OA
BRANCH  74  75
ATOM     75  C   UNL A   1      34.789  22.501  24.489  1.00  0.00     0.351 C 
ATOM     76  O   UNL A   1      34.330  22.837  23.409  1.00  0.00    -0.248 OA
BRANCH  75  77
ATOM     77  C   UNL A   1      34.423  21.225  25.214  1.00  0.00     0.333 C 
ATOM     78  F   UNL A   1      35.052  20.128  24.699  1.00  0.00    -0.223 F 
BRANCH  77  79
ATOM     79  S   UNL A   1      32.615  20.971  25.132  1.00  0.00    -0.113 SA
BRANCH  79  80
ATOM     80  C   UNL A   1      32.513  19.805  23.724  1.00  0.00     0.076 C 
BRANCH  80  81
ATOM     81  C   UNL A   1      32.540  18.279  23.961  1.00  0.00    -0.001 C 
ATOM     82  C   UNL A   1      33.612  17.426  23.285  1.00  0.00     0.004 C 
ATOM     83  C   UNL A   1      32.553  17.871  25.447  1.00  0.00     0.004 C 
ATOM     84  C   UNL A   1      33.688  16.168  24.144  1.00  0.00     0.000 C 
ATOM     85  C   UNL A   1      33.462  16.652  25.568  1.00  0.00     0.000 C 
ENDBRANCH  80  81
ENDBRANCH  79  80
ENDBRANCH  77  79
ENDBRANCH  75  77
ENDBRANCH  74  75
ENDBRANCH  73  74
ENDBRANCH   1  73
TORSDOF 17
ENDMDL
MODEL 2
REMARK VINA RESULT:      -9.6      5.879     11.145
REMARK SMILES O=C(OCCOCCOC(=O)[C@H](F)SCC1CCCC1)c1ccc(-c2c3nc(c(-c4c(F)c(F)c(F)c(F)c4F)c4ccc([nH]4)c(-c4c(F)c(F)c(F)c(F)c4F)c4nc(c(-c5c(F)c(F)c(F)c(F)c5F)c5ccc2[nH]5)C=C4)C=C3)cc1
REMARK SMILES IDX 7 1 6 2 5 3 4 4 3 5 2 6 1 7 21 8 22 9 83 10 23 11 82 12
REMARK SMILES IDX 24 13 25 14 26 15 76 16 27 17 81 18 75 19 77 20 28 21 80 22
REMARK SMILES IDX 74 23 73 24 29 26 61 27 41 28 60 29 42 30 45 31 59 32 78 33
REMARK SMILES IDX 43 34 44 35 58 37 79 38 46 39 30 40 31 41 39 42 32 43 33 44
REMARK SMILES IDX 37 45 40 46 34 47 35 48 38 49 36 50 62 51 63 52 71 53 64 54
REMARK SMILES IDX 65 55 69 56 72 57 66 58 67 59 70 60 68 61 47 62 48 63 56 64
REMARK SMILES IDX 49 65 50 66 54 67 57 68 51 69 52 70 55 71 53 72 8 73 9 74
REMARK SMILES IDX 10 75 11 76 12 77 13 78 14 79 15 80 16 81 17 82 20 83 18 84
REMARK SMILES IDX 19 85
REMARK H PARENT 77 25 45 36
REMARK Flexibility Score: inf
ROOT
ATOM      1  C   UNL A   1      32.849  30.216  25.939  1.00  0.00     0.202 C 
ENDROOT
BRANCH   1   2
ATOM      2  O   UNL A   1      31.560  30.795  25.779  1.00  0.00    -0.374 OA
BRANCH   2   3
ATOM      3  C   UNL A   1      31.296  31.951  26.572  1.00  0.00     0.202 C 
BRANCH   3   4
ATOM      4  C   UNL A   1      32.521  32.524  27.307  1.00  0.00     0.261 C 
BRANCH   4   5
ATOM      5  O   UNL A   1      32.370  33.914  27.652  1.00  0.00    -0.460 OA
BRANCH   5   6
ATOM      6  C   UNL A   1      33.043  34.658  28.566  1.00  0.00     0.338 C 
ATOM      7  O   UNL A   1      32.637  35.796  28.800  1.00  0.00    -0.246 OA
BRANCH   6   8
ATOM      8  C   UNL A   1      34.275  34.202  29.286  1.00  0.00     0.060 A 
ATOM      9  C   UNL A   1      35.579  34.377  28.829  1.00  0.00     0.016 A 
ATOM     10  C   UNL A   1      34.105  33.593  30.546  1.00  0.00     0.016 A 
ATOM     11  C   UNL A   1      36.673  33.957  29.552  1.00  0.00     0.010 A 
ATOM     12  C   UNL A   1      35.206  33.143  31.285  1.00  0.00     0.010 A 
ATOM     13  C   UNL A   1      36.491  33.310  30.765  1.00  0.00    -0.014 A 
BRANCH  13  14
ATOM     14  C   UNL A   1      37.686  32.637  31.283  1.00  0.00     0.031 A 
ATOM     15  C   UNL A   1      38.113  32.987  32.674  1.00  0.00     0.074 A 
ATOM     16  C   UNL A   1      38.152  31.553  30.637  1.00  0.00     0.049 A 
ATOM     17  N   UNL A   1      39.077  32.489  33.396  1.00  0.00    -0.248 NA
ATOM     18  C   UNL A   1      37.309  34.013  33.367  1.00  0.00     0.031 C 
ATOM     19  C   UNL A   1      37.620  31.033  29.373  1.00  0.00     0.029 A 
ATOM     20  N   UNL A   1      39.129  30.663  30.981  1.00  0.00    -0.354 N 
ATOM     21  C   UNL A   1      39.002  33.146  34.617  1.00  0.00     0.074 A 
ATOM     22  C   UNL A   1      37.905  34.079  34.547  1.00  0.00     0.031 C 
ATOM     23  C   UNL A   1      38.279  29.908  29.053  1.00  0.00     0.029 A 
ATOM     24  C   UNL A   1      39.318  29.674  30.047  1.00  0.00     0.049 A 
ATOM     25  H   UNL A   1      39.647  30.724  31.815  1.00  0.00     0.167 HD
ATOM     26  C   UNL A   1      39.798  32.976  35.695  1.00  0.00     0.037 A 
ATOM     27  C   UNL A   1      40.267  28.722  29.999  1.00  0.00     0.037 A 
ATOM     28  C   UNL A   1      40.891  32.045  35.713  1.00  0.00     0.049 A 
ATOM     29  C   UNL A   1      41.247  28.671  31.144  1.00  0.00     0.074 A 
ATOM     30  C   UNL A   1      41.858  31.856  36.680  1.00  0.00     0.029 A 
ATOM     31  N   UNL A   1      41.153  31.138  34.691  1.00  0.00    -0.354 N 
ATOM     32  N   UNL A   1      41.260  29.370  32.255  1.00  0.00    -0.248 NA
ATOM     33  C   UNL A   1      42.349  27.712  31.026  1.00  0.00     0.031 C 
ATOM     34  C   UNL A   1      42.737  30.869  36.218  1.00  0.00     0.029 A 
ATOM     35  C   UNL A   1      42.280  30.398  34.995  1.00  0.00     0.049 A 
ATOM     36  H   UNL A   1      40.616  31.039  33.873  1.00  0.00     0.167 HD
ATOM     37  C   UNL A   1      42.357  28.927  32.976  1.00  0.00     0.074 A 
ATOM     38  C   UNL A   1      42.964  27.872  32.188  1.00  0.00     0.031 C 
ATOM     39  C   UNL A   1      42.836  29.352  34.173  1.00  0.00     0.037 A 
BRANCH  26  40
ATOM     40  C   UNL A   1      39.562  33.876  36.870  1.00  0.00     0.064 A 
ATOM     41  C   UNL A   1      40.129  35.157  36.954  1.00  0.00     0.173 A 
ATOM     42  C   UNL A   1      38.787  33.430  37.950  1.00  0.00     0.173 A 
ATOM     43  F   UNL A   1      40.913  35.616  35.966  1.00  0.00    -0.203 F 
ATOM     44  C   UNL A   1      39.942  35.949  38.085  1.00  0.00     0.198 A 
ATOM     45  C   UNL A   1      38.581  34.234  39.069  1.00  0.00     0.198 A 
ATOM     46  F   UNL A   1      38.239  32.206  37.928  1.00  0.00    -0.203 F 
ATOM     47  F   UNL A   1      40.538  37.147  38.170  1.00  0.00    -0.200 F 
ATOM     48  C   UNL A   1      39.164  35.489  39.138  1.00  0.00     0.200 A 
ATOM     49  F   UNL A   1      37.831  33.786  40.085  1.00  0.00    -0.200 F 
ATOM     50  F   UNL A   1      38.990  36.251  40.228  1.00  0.00    -0.200 F 
ENDBRANCH  26  40
BRANCH  27  51
ATOM     51  C   UNL A   1      40.401  27.833  28.812  1.00  0.00     0.064 A 
ATOM     52  C   UNL A   1      41.127  28.219  27.677  1.00  0.00     0.173 A 
ATOM     53  C   UNL A   1      39.739  26.595  28.763  1.00  0.00     0.173 A 
ATOM     54  F   UNL A   1      41.764  29.399  27.659  1.00  0.00    -0.203 F 
ATOM     55  C   UNL A   1      41.152  27.425  26.531  1.00  0.00     0.198 A 
ATOM     56  C   UNL A   1      39.796  25.783  27.632  1.00  0.00     0.198 A 
ATOM     57  F   UNL A   1      39.022  26.170  29.814  1.00  0.00    -0.203 F 
ATOM     58  F   UNL A   1      41.791  27.855  25.435  1.00  0.00    -0.200 F 
ATOM     59  C   UNL A   1      40.489  26.206  26.509  1.00  0.00     0.200 A 
ATOM     60  F   UNL A   1      39.164  24.602  27.624  1.00  0.00    -0.200 F 
ATOM     61  F   UNL A   1      40.501  25.451  25.403  1.00  0.00    -0.200 F 
ENDBRANCH  27  51
BRANCH  39  62
ATOM     62  C   UNL A   1      44.049  28.645  34.697  1.00  0.00     0.064 A 
ATOM     63  C   UNL A   1      43.945  27.480  35.470  1.00  0.00     0.173 A 
ATOM     64  C   UNL A   1      45.331  29.126  34.392  1.00  0.00     0.173 A 
ATOM     65  F   UNL A   1      42.739  26.993  35.798  1.00  0.00    -0.203 F 
ATOM     66  C   UNL A   1      45.083  26.842  35.951  1.00  0.00     0.198 A 
ATOM     67  C   UNL A   1      46.466  28.463  34.842  1.00  0.00     0.198 A 
ATOM     68  F   UNL A   1      45.480  30.232  33.646  1.00  0.00    -0.203 F 
ATOM     69  F   UNL A   1      44.961  25.768  36.743  1.00  0.00    -0.200 F 
ATOM     70  C   UNL A   1      46.342  27.329  35.631  1.00  0.00     0.200 A 
ATOM     71  F   UNL A   1      47.682  28.923  34.515  1.00  0.00    -0.200 F 
ATOM     72  F   UNL A   1      47.436  26.710  36.090  1.00  0.00    -0.200 F 
ENDBRANCH  39  62
ENDBRANCH  13  14
ENDBRANCH   6   8
ENDBRANCH   5   6
ENDBRANCH   4   5
ENDBRANCH   3   4
ENDBRANCH   2   3
ENDBRANCH   1   2
BRANCH   1  73
ATOM     73  C   UNL A   1      32.849  28.703  25.875  1.00  0.00     0.261 C 
BRANCH  73  74
ATOM     74  O   UNL A   1      31.627  28.142  25.394  1.00  0.00    -0.460 OA
BRANCH  74  75
ATOM     75  C   UNL A   1      31.219  27.003  26.042  1.00  0.00     0.351 C 
ATOM     76  O   UNL A   1      30.924  26.930  27.224  1.00  0.00    -0.248 OA
BRANCH  75  77
ATOM     77  C   UNL A   1      31.239  25.827  25.091  1.00  0.00     0.333 C 
ATOM     78  F   UNL A   1      29.993  25.324  24.849  1.00  0.00    -0.223 F 
BRANCH  77  79
ATOM     79  S   UNL A   1      32.296  24.503  25.777  1.00  0.00    -0.113 SA
BRANCH  79  80
ATOM     80  C   UNL A   1      33.509  24.316  24.419  1.00  0.00     0.076 C 
BRANCH  80  81
ATOM     81  C   UNL A   1      34.767  23.439  24.602  1.00  0.00    -0.001 C 
ATOM     82  C   UNL A   1      35.622  23.077  23.389  1.00  0.00     0.004 C 
ATOM     83  C   UNL A   1      35.749  23.959  25.669  1.00  0.00     0.004 C 
ATOM     84  C   UNL A   1      36.985  22.734  23.979  1.00  0.00     0.000 C 
ATOM     85  C   UNL A   1      37.158  23.690  25.149  1.00  0.00     0.000 C 
ENDBRANCH  80  81
ENDBRANCH  79  80
ENDBRANCH  77  79
ENDBRANCH  75  77
ENDBRANCH  74  75
ENDBRANCH  73  74
ENDBRANCH   1  73
TORSDOF 17
ENDMDL
MODEL 3
REMARK VINA RESULT:      -9.6      5.446      8.461
REMARK SMILES O=C(OCCOCCOC(=O)[C@H](F)SCC1CCCC1)c1ccc(-c2c3nc(c(-c4c(F)c(F)c(F)c(F)c4F)c4ccc([nH]4)c(-c4c(F)c(F)c(F)c(F)c4F)c4nc(c(-c5c(F)c(F)c(F)c(F)c5F)c5ccc2[nH]5)C=C4)C=C3)cc1
REMARK SMILES IDX 7 1 6 2 5 3 4 4 3 5 2 6 1 7 21 8 22 9 83 10 23 11 82 12
REMARK SMILES IDX 24 13 25 14 26 15 76 16 27 17 81 18 75 19 77 20 28 21 80 22
REMARK SMILES IDX 74 23 73 24 29 26 61 27 41 28 60 29 42 30 45 31 59 32 78 33
REMARK SMILES IDX 43 34 44 35 58 37 79 38 46 39 30 40 31 41 39 42 32 43 33 44
REMARK SMILES IDX 37 45 40 46 34 47 35 48 38 49 36 50 62 51 63 52 71 53 64 54
REMARK SMILES IDX 65 55 69 56 72 57 66 58 67 59 70 60 68 61 47 62 48 63 56 64
REMARK SMILES IDX 49 65 50 66 54 67 57 68 51 69 52 70 55 71 53 72 8 73 9 74
REMARK SMILES IDX 10 75 11 76 12 77 13 78 14 79 15 80 16 81 17 82 20 83 18 84
REMARK SMILES IDX 19 85
REMARK H PARENT 77 25 45 36
REMARK Flexibility Score: inf
ROOT
ATOM      1  C   UNL A   1      45.583  20.390  25.359  1.00  0.00     0.202 C 
ENDROOT
BRANCH   1   2
ATOM      2  O   UNL A   1      46.154  21.390  24.525  1.00  0.00    -0.374 OA
BRANCH   2   3
ATOM      3  C   UNL A   1      45.230  22.287  23.909  1.00  0.00     0.202 C 
BRANCH   3   4
ATOM      4  C   UNL A   1      44.374  23.107  24.891  1.00  0.00     0.261 C 
BRANCH   4   5
ATOM      5  O   UNL A   1      44.194  24.474  24.473  1.00  0.00    -0.460 OA
BRANCH   5   6
ATOM      6  C   UNL A   1      44.590  25.623  25.075  1.00  0.00     0.338 C 
ATOM      7  O   UNL A   1      45.691  26.085  24.776  1.00  0.00    -0.246 OA
BRANCH   6   8
ATOM      8  C   UNL A   1      43.792  26.354  26.112  1.00  0.00     0.060 A 
ATOM      9  C   UNL A   1      44.068  27.638  26.573  1.00  0.00     0.016 A 
ATOM     10  C   UNL A   1      42.646  25.712  26.623  1.00  0.00     0.016 A 
ATOM     11  C   UNL A   1      43.279  28.266  27.512  1.00  0.00     0.010 A 
ATOM     12  C   UNL A   1      41.844  26.329  27.591  1.00  0.00     0.010 A 
ATOM     13  C   UNL A   1      42.185  27.603  28.048  1.00  0.00    -0.014 A 
BRANCH  13  14
ATOM     14  C   UNL A   1      41.618  28.232  29.245  1.00  0.00     0.031 A 
ATOM     15  C   UNL A   1      42.455  28.204  30.487  1.00  0.00     0.074 A 
ATOM     16  C   UNL A   1      40.555  29.045  29.111  1.00  0.00     0.049 A 
ATOM     17  N   UNL A   1      42.232  28.747  31.650  1.00  0.00    -0.248 NA
ATOM     18  C   UNL A   1      43.749  27.500  30.388  1.00  0.00     0.031 C 
ATOM     19  C   UNL A   1      39.831  29.283  27.858  1.00  0.00     0.029 A 
ATOM     20  N   UNL A   1      39.941  29.864  30.014  1.00  0.00    -0.354 N 
ATOM     21  C   UNL A   1      43.346  28.442  32.420  1.00  0.00     0.074 A 
ATOM     22  C   UNL A   1      44.246  27.668  31.603  1.00  0.00     0.031 C 
ATOM     23  C   UNL A   1      38.870  30.195  28.077  1.00  0.00     0.029 A 
ATOM     24  C   UNL A   1      38.870  30.546  29.491  1.00  0.00     0.049 A 
ATOM     25  H   UNL A   1      40.236  29.957  30.949  1.00  0.00     0.167 HD
ATOM     26  C   UNL A   1      43.578  28.784  33.706  1.00  0.00     0.037 A 
ATOM     27  C   UNL A   1      37.972  31.326  30.118  1.00  0.00     0.037 A 
ATOM     28  C   UNL A   1      42.642  29.544  34.488  1.00  0.00     0.049 A 
ATOM     29  C   UNL A   1      38.169  31.549  31.596  1.00  0.00     0.074 A 
ATOM     30  C   UNL A   1      42.680  29.854  35.832  1.00  0.00     0.029 A 
ATOM     31  N   UNL A   1      41.485  30.115  33.970  1.00  0.00    -0.354 N 
ATOM     32  N   UNL A   1      39.161  31.165  32.367  1.00  0.00    -0.248 NA
ATOM     33  C   UNL A   1      37.122  32.299  32.296  1.00  0.00     0.031 C 
ATOM     34  C   UNL A   1      41.517  30.570  36.139  1.00  0.00     0.029 A 
ATOM     35  C   UNL A   1      40.788  30.761  34.973  1.00  0.00     0.049 A 
ATOM     36  H   UNL A   1      41.203  30.066  33.029  1.00  0.00     0.167 HD
ATOM     37  C   UNL A   1      38.868  31.639  33.636  1.00  0.00     0.074 A 
ATOM     38  C   UNL A   1      37.620  32.369  33.521  1.00  0.00     0.031 C 
ATOM     39  C   UNL A   1      39.551  31.481  34.798  1.00  0.00     0.037 A 
BRANCH  26  40
ATOM     40  C   UNL A   1      44.828  28.255  34.342  1.00  0.00     0.064 A 
ATOM     41  C   UNL A   1      44.879  26.993  34.951  1.00  0.00     0.173 A 
ATOM     42  C   UNL A   1      45.985  29.046  34.376  1.00  0.00     0.173 A 
ATOM     43  F   UNL A   1      43.787  26.212  34.982  1.00  0.00    -0.203 F 
ATOM     44  C   UNL A   1      46.037  26.551  35.588  1.00  0.00     0.198 A 
ATOM     45  C   UNL A   1      47.149  28.592  34.990  1.00  0.00     0.198 A 
ATOM     46  F   UNL A   1      45.983  30.270  33.825  1.00  0.00    -0.203 F 
ATOM     47  F   UNL A   1      46.047  25.365  36.212  1.00  0.00    -0.200 F 
ATOM     48  C   UNL A   1      47.172  27.348  35.601  1.00  0.00     0.200 A 
ATOM     49  F   UNL A   1      48.243  29.366  35.004  1.00  0.00    -0.200 F 
ATOM     50  F   UNL A   1      48.285  26.924  36.218  1.00  0.00    -0.200 F 
ENDBRANCH  26  40
BRANCH  27  51
ATOM     51  C   UNL A   1      36.780  31.854  29.399  1.00  0.00     0.064 A 
ATOM     52  C   UNL A   1      36.623  33.220  29.131  1.00  0.00     0.173 A 
ATOM     53  C   UNL A   1      35.730  30.999  29.023  1.00  0.00     0.173 A 
ATOM     54  F   UNL A   1      37.584  34.087  29.485  1.00  0.00    -0.203 F 
ATOM     55  C   UNL A   1      35.452  33.715  28.556  1.00  0.00     0.198 A 
ATOM     56  C   UNL A   1      34.576  31.488  28.413  1.00  0.00     0.198 A 
ATOM     57  F   UNL A   1      35.815  29.680  29.256  1.00  0.00    -0.203 F 
ATOM     58  F   UNL A   1      35.299  35.034  28.383  1.00  0.00    -0.200 F 
ATOM     59  C   UNL A   1      34.430  32.848  28.195  1.00  0.00     0.200 A 
ATOM     60  F   UNL A   1      33.601  30.643  28.055  1.00  0.00    -0.200 F 
ATOM     61  F   UNL A   1      33.300  33.325  27.657  1.00  0.00    -0.200 F 
ENDBRANCH  27  51
BRANCH  39  62
ATOM     62  C   UNL A   1      38.969  32.142  36.011  1.00  0.00     0.064 A 
ATOM     63  C   UNL A   1      38.157  31.441  36.913  1.00  0.00     0.173 A 
ATOM     64  C   UNL A   1      39.257  33.488  36.286  1.00  0.00     0.173 A 
ATOM     65  F   UNL A   1      37.845  30.157  36.683  1.00  0.00    -0.203 F 
ATOM     66  C   UNL A   1      37.623  32.075  38.029  1.00  0.00     0.198 A 
ATOM     67  C   UNL A   1      38.753  34.106  37.423  1.00  0.00     0.198 A 
ATOM     68  F   UNL A   1      40.039  34.195  35.456  1.00  0.00    -0.203 F 
ATOM     69  F   UNL A   1      36.796  31.405  38.845  1.00  0.00    -0.200 F 
ATOM     70  C   UNL A   1      37.927  33.403  38.287  1.00  0.00     0.200 A 
ATOM     71  F   UNL A   1      39.064  35.384  37.682  1.00  0.00    -0.200 F 
ATOM     72  F   UNL A   1      37.416  34.010  39.367  1.00  0.00    -0.200 F 
ENDBRANCH  39  62
ENDBRANCH  13  14
ENDBRANCH   6   8
ENDBRANCH   5   6
ENDBRANCH   4   5
ENDBRANCH   3   4
ENDBRANCH   2   3
ENDBRANCH   1   2
BRANCH   1  73
ATOM     73  C   UNL A   1      44.569  19.515  24.653  1.00  0.00     0.261 C 
BRANCH  73  74
ATOM     74  O   UNL A   1      43.210  19.843  24.952  1.00  0.00    -0.460 OA
BRANCH  74  75
ATOM     75  C   UNL A   1      42.542  18.908  25.701  1.00  0.00     0.351 C 
ATOM     76  O   UNL A   1      42.858  17.734  25.813  1.00  0.00    -0.248 OA
BRANCH  75  77
ATOM     77  C   UNL A   1      41.312  19.526  26.329  1.00  0.00     0.333 C 
ATOM     78  F   UNL A   1      40.171  19.256  25.630  1.00  0.00    -0.223 F 
BRANCH  77  79
ATOM     79  S   UNL A   1      41.528  21.337  26.444  1.00  0.00    -0.113 SA
BRANCH  79  80
ATOM     80  C   UNL A   1      42.513  21.452  27.983  1.00  0.00     0.076 C 
BRANCH  80  81
ATOM     81  C   UNL A   1      43.075  22.810  28.459  1.00  0.00    -0.001 C 
ATOM     82  C   UNL A   1      43.048  23.162  29.946  1.00  0.00     0.004 C 
ATOM     83  C   UNL A   1      44.511  23.100  27.984  1.00  0.00     0.004 C 
ATOM     84  C   UNL A   1      44.130  24.225  30.099  1.00  0.00     0.000 C 
ATOM     85  C   UNL A   1      45.225  23.812  29.129  1.00  0.00     0.000 C 
ENDBRANCH  80  81
ENDBRANCH  79  80
ENDBRANCH  77  79
ENDBRANCH  75  77
ENDBRANCH  74  75
ENDBRANCH  73  74
ENDBRANCH   1  73
TORSDOF 17
ENDMDL
