MODEL 1
REMARK VINA RESULT:     -11.2      0.000      0.000
REMARK SMILES C[C@@H](C(=O)OCCOCCOC(=O)c1ccc(-c2c3nc(c(-c4c(F)c(F)c(F)c(F)c4F)c4ccc([nH]4)c(-c4c(F)c(F)c(F)c(F)c4F)c4nc(c(-c5c(F)c(F)c(F)c(F)c5F)c5ccc2[nH]5)C=C4)C=C3)cc1)c1ccc(Cc2ccsc2)cc1F
REMARK SMILES IDX 7 1 6 2 5 3 3 4 4 5 2 6 1 7 77 8 78 9 88 10 79 11 87 12
REMARK SMILES IDX 89 13 80 14 81 15 82 16 83 17 86 18 84 19 85 20 8 21 9 22
REMARK SMILES IDX 10 23 11 24 12 25 13 26 14 27 15 28 76 29 16 30 75 31 17 32
REMARK SMILES IDX 18 33 19 34 69 35 20 36 74 37 68 38 70 39 21 40 73 41 67 42
REMARK SMILES IDX 66 43 22 45 54 46 34 47 53 48 35 49 38 50 52 51 71 52 36 53
REMARK SMILES IDX 37 54 51 56 72 57 39 58 23 59 24 60 32 61 25 62 26 63 30 64
REMARK SMILES IDX 33 65 27 66 28 67 31 68 29 69 55 70 56 71 64 72 57 73 58 74
REMARK SMILES IDX 62 75 65 76 59 77 60 78 63 79 61 80 40 81 41 82 49 83 42 84
REMARK SMILES IDX 43 85 47 86 50 87 44 88 45 89 48 90 46 91
REMARK H PARENT 70 44 38 55
REMARK Flexibility Score: inf
ROOT
ATOM      1  C   UNL A   1      40.622  19.967  26.071  1.00  0.00     0.202 C 
ENDROOT
BRANCH   1   2
ATOM      2  C   UNL A   1      39.921  21.327  26.119  1.00  0.00     0.261 C 
BRANCH   2   3
ATOM      3  O   UNL A   1      38.546  21.206  25.719  1.00  0.00    -0.463 OA
BRANCH   3   4
ATOM      4  C   UNL A   1      37.865  22.378  25.614  1.00  0.00     0.313 C 
ATOM      5  O   UNL A   1      38.221  23.422  26.152  1.00  0.00    -0.252 OA
BRANCH   4   6
ATOM      6  C   UNL A   1      36.627  22.275  24.706  1.00  0.00     0.129 C 
ATOM      7  C   UNL A   1      36.971  22.524  23.232  1.00  0.00     0.025 C 
BRANCH   6   8
ATOM      8  C   UNL A   1      35.433  23.047  25.272  1.00  0.00     0.002 A 
ATOM      9  C   UNL A   1      35.209  24.363  24.830  1.00  0.00     0.008 A 
ATOM     10  C   UNL A   1      34.550  22.557  26.243  1.00  0.00     0.127 A 
ATOM     11  C   UNL A   1      34.144  25.130  25.310  1.00  0.00     0.004 A 
ATOM     12  C   UNL A   1      33.507  23.339  26.764  1.00  0.00     0.043 A 
ATOM     13  F   UNL A   1      34.669  21.307  26.712  1.00  0.00    -0.207 F 
ATOM     14  C   UNL A   1      33.290  24.644  26.306  1.00  0.00    -0.041 A 
BRANCH  14  15
ATOM     15  C   UNL A   1      32.143  25.482  26.825  1.00  0.00     0.072 C 
BRANCH  15  16
ATOM     16  C   UNL A   1      31.320  25.924  25.644  1.00  0.00    -0.033 A 
ATOM     17  C   UNL A   1      31.186  27.281  25.181  1.00  0.00     0.015 A 
ATOM     18  C   UNL A   1      30.639  25.067  24.796  1.00  0.00     0.068 A 
ATOM     19  C   UNL A   1      30.381  27.397  24.070  1.00  0.00     0.065 A 
ATOM     20  S   UNL A   1      29.824  25.879  23.529  1.00  0.00    -0.152 S 
ENDBRANCH  15  16
ENDBRANCH  14  15
ENDBRANCH   6   8
ENDBRANCH   4   6
ENDBRANCH   3   4
ENDBRANCH   2   3
ENDBRANCH   1   2
BRANCH   1  21
ATOM     21  O   UNL A   1      41.975  19.974  25.616  1.00  0.00    -0.374 OA
BRANCH  21  22
ATOM     22  C   UNL A   1      42.891  20.852  26.274  1.00  0.00     0.202 C 
BRANCH  22  23
ATOM     23  C   UNL A   1      43.749  21.748  25.371  1.00  0.00     0.261 C 
BRANCH  23  24
ATOM     24  O   UNL A   1      43.022  22.884  24.864  1.00  0.00    -0.460 OA
BRANCH  24  25
ATOM     25  C   UNL A   1      43.681  24.065  24.948  1.00  0.00     0.338 C 
ATOM     26  O   UNL A   1      44.655  24.421  24.300  1.00  0.00    -0.246 OA
BRANCH  25  27
ATOM     27  C   UNL A   1      42.961  24.996  25.836  1.00  0.00     0.060 A 
ATOM     28  C   UNL A   1      43.510  26.272  26.016  1.00  0.00     0.016 A 
ATOM     29  C   UNL A   1      41.831  24.603  26.557  1.00  0.00     0.016 A 
ATOM     30  C   UNL A   1      42.962  27.144  26.956  1.00  0.00     0.010 A 
ATOM     31  C   UNL A   1      41.288  25.476  27.508  1.00  0.00     0.010 A 
ATOM     32  C   UNL A   1      41.873  26.735  27.737  1.00  0.00    -0.014 A 
BRANCH  32  33
ATOM     33  C   UNL A   1      41.455  27.568  28.891  1.00  0.00     0.031 A 
ATOM     34  C   UNL A   1      42.235  27.482  30.175  1.00  0.00     0.074 A 
ATOM     35  C   UNL A   1      40.423  28.423  28.788  1.00  0.00     0.049 A 
ATOM     36  N   UNL A   1      42.043  28.107  31.309  1.00  0.00    -0.248 NA
ATOM     37  C   UNL A   1      43.387  26.566  30.179  1.00  0.00     0.031 C 
ATOM     38  C   UNL A   1      39.614  28.628  27.590  1.00  0.00     0.029 A 
ATOM     39  N   UNL A   1      39.877  29.277  29.715  1.00  0.00    -0.354 N 
ATOM     40  C   UNL A   1      43.050  27.664  32.158  1.00  0.00     0.074 A 
ATOM     41  C   UNL A   1      43.830  26.693  31.422  1.00  0.00     0.031 C 
ATOM     42  C   UNL A   1      38.665  29.543  27.856  1.00  0.00     0.029 A 
ATOM     43  C   UNL A   1      38.785  29.966  29.250  1.00  0.00     0.049 A 
ATOM     44  H   UNL A   1      40.236  29.385  30.625  1.00  0.00     0.167 HD
ATOM     45  C   UNL A   1      43.306  28.041  33.433  1.00  0.00     0.037 A 
ATOM     46  C   UNL A   1      37.966  30.827  29.886  1.00  0.00     0.037 A 
ATOM     47  C   UNL A   1      42.530  29.004  34.169  1.00  0.00     0.049 A 
ATOM     48  C   UNL A   1      38.231  31.179  31.326  1.00  0.00     0.074 A 
ATOM     49  C   UNL A   1      42.718  29.459  35.463  1.00  0.00     0.029 A 
ATOM     50  N   UNL A   1      41.412  29.658  33.674  1.00  0.00    -0.354 N 
ATOM     51  N   UNL A   1      39.196  30.772  32.114  1.00  0.00    -0.248 NA
ATOM     52  C   UNL A   1      37.293  32.114  31.965  1.00  0.00     0.031 C 
ATOM     53  C   UNL A   1      41.688  30.355  35.766  1.00  0.00     0.029 A 
ATOM     54  C   UNL A   1      40.885  30.494  34.645  1.00  0.00     0.049 A 
ATOM     55  H   UNL A   1      41.046  29.544  32.768  1.00  0.00     0.167 HD
ATOM     56  C   UNL A   1      38.998  31.417  33.328  1.00  0.00     0.074 A 
ATOM     57  C   UNL A   1      37.827  32.253  33.170  1.00  0.00     0.031 C 
ATOM     58  C   UNL A   1      39.721  31.326  34.470  1.00  0.00     0.037 A 
BRANCH  45  59
ATOM     59  C   UNL A   1      44.468  27.391  34.124  1.00  0.00     0.064 A 
ATOM     60  C   UNL A   1      45.753  27.952  34.085  1.00  0.00     0.173 A 
ATOM     61  C   UNL A   1      44.287  26.211  34.861  1.00  0.00     0.173 A 
ATOM     62  F   UNL A   1      45.980  29.072  33.382  1.00  0.00    -0.203 F 
ATOM     63  C   UNL A   1      46.820  27.342  34.740  1.00  0.00     0.198 A 
ATOM     64  C   UNL A   1      45.351  25.618  35.535  1.00  0.00     0.198 A 
ATOM     65  F   UNL A   1      43.077  25.637  34.932  1.00  0.00    -0.203 F 
ATOM     66  F   UNL A   1      48.047  27.873  34.655  1.00  0.00    -0.200 F 
ATOM     67  C   UNL A   1      46.616  26.181  35.470  1.00  0.00     0.200 A 
ATOM     68  F   UNL A   1      45.152  24.501  36.248  1.00  0.00    -0.200 F 
ATOM     69  F   UNL A   1      47.644  25.598  36.104  1.00  0.00    -0.200 F 
ENDBRANCH  45  59
BRANCH  46  70
ATOM     70  C   UNL A   1      36.803  31.409  29.166  1.00  0.00     0.064 A 
ATOM     71  C   UNL A   1      36.783  32.759  28.793  1.00  0.00     0.173 A 
ATOM     72  C   UNL A   1      35.681  30.627  28.854  1.00  0.00     0.173 A 
ATOM     73  F   UNL A   1      37.820  33.552  29.094  1.00  0.00    -0.203 F 
ATOM     74  C   UNL A   1      35.677  33.310  28.148  1.00  0.00     0.198 A 
ATOM     75  C   UNL A   1      34.587  31.172  28.185  1.00  0.00     0.198 A 
ATOM     76  F   UNL A   1      35.651  29.330  29.195  1.00  0.00    -0.203 F 
ATOM     77  F   UNL A   1      35.664  34.614  27.840  1.00  0.00    -0.200 F 
ATOM     78  C   UNL A   1      34.583  32.514  27.839  1.00  0.00     0.200 A 
ATOM     79  F   UNL A   1      33.536  30.398  27.882  1.00  0.00    -0.200 F 
ATOM     80  F   UNL A   1      33.521  33.044  27.217  1.00  0.00    -0.200 F 
ENDBRANCH  46  70
BRANCH  58  81
ATOM     81  C   UNL A   1      39.289  32.172  35.632  1.00  0.00     0.064 A 
ATOM     82  C   UNL A   1      38.403  31.686  36.605  1.00  0.00     0.173 A 
ATOM     83  C   UNL A   1      39.801  33.468  35.797  1.00  0.00     0.173 A 
ATOM     84  F   UNL A   1      37.875  30.460  36.485  1.00  0.00    -0.203 F 
ATOM     85  C   UNL A   1      38.030  32.477  37.690  1.00  0.00     0.198 A 
ATOM     86  C   UNL A   1      39.446  34.245  36.896  1.00  0.00     0.198 A 
ATOM     87  F   UNL A   1      40.657  33.976  34.897  1.00  0.00    -0.203 F 
ATOM     88  F   UNL A   1      37.150  32.009  38.585  1.00  0.00    -0.200 F 
ATOM     89  C   UNL A   1      38.557  33.751  37.838  1.00  0.00     0.200 A 
ATOM     90  F   UNL A   1      39.966  35.472  37.044  1.00  0.00    -0.200 F 
ATOM     91  F   UNL A   1      38.201  34.507  38.886  1.00  0.00    -0.200 F 
ENDBRANCH  58  81
ENDBRANCH  32  33
ENDBRANCH  25  27
ENDBRANCH  24  25
ENDBRANCH  23  24
ENDBRANCH  22  23
ENDBRANCH  21  22
ENDBRANCH   1  21
TORSDOF 17
ENDMDL
MODEL 2
REMARK VINA RESULT:     -11.1      3.394      8.785
REMARK SMILES C[C@@H](C(=O)OCCOCCOC(=O)c1ccc(-c2c3nc(c(-c4c(F)c(F)c(F)c(F)c4F)c4ccc([nH]4)c(-c4c(F)c(F)c(F)c(F)c4F)c4nc(c(-c5c(F)c(F)c(F)c(F)c5F)c5ccc2[nH]5)C=C4)C=C3)cc1)c1ccc(Cc2ccsc2)cc1F
REMARK SMILES IDX 7 1 6 2 5 3 3 4 4 5 2 6 1 7 77 8 78 9 88 10 79 11 87 12
REMARK SMILES IDX 89 13 80 14 81 15 82 16 83 17 86 18 84 19 85 20 8 21 9 22
REMARK SMILES IDX 10 23 11 24 12 25 13 26 14 27 15 28 76 29 16 30 75 31 17 32
REMARK SMILES IDX 18 33 19 34 69 35 20 36 74 37 68 38 70 39 21 40 73 41 67 42
REMARK SMILES IDX 66 43 22 45 54 46 34 47 53 48 35 49 38 50 52 51 71 52 36 53
REMARK SMILES IDX 37 54 51 56 72 57 39 58 23 59 24 60 32 61 25 62 26 63 30 64
REMARK SMILES IDX 33 65 27 66 28 67 31 68 29 69 55 70 56 71 64 72 57 73 58 74
REMARK SMILES IDX 62 75 65 76 59 77 60 78 63 79 61 80 40 81 41 82 49 83 42 84
REMARK SMILES IDX 43 85 47 86 50 87 44 88 45 89 48 90 46 91
REMARK H PARENT 70 44 38 55
REMARK Flexibility Score: inf
ROOT
ATOM      1  C   UNL A   1      33.541  29.712  26.610  1.00  0.00     0.202 C 
ENDROOT
BRANCH   1   2
ATOM      2  C   UNL A   1      33.533  28.182  26.573  1.00  0.00     0.261 C 
BRANCH   2   3
ATOM      3  O   UNL A   1      33.006  27.706  25.325  1.00  0.00    -0.463 OA
BRANCH   3   4
ATOM      4  C   UNL A   1      33.303  26.413  25.023  1.00  0.00     0.313 C 
ATOM      5  O   UNL A   1      34.029  25.703  25.711  1.00  0.00    -0.252 OA
BRANCH   4   6
ATOM      6  C   UNL A   1      32.592  25.913  23.754  1.00  0.00     0.129 C 
ATOM      7  C   UNL A   1      33.547  25.814  22.557  1.00  0.00     0.025 C 
BRANCH   6   8
ATOM      8  C   UNL A   1      31.265  26.637  23.513  1.00  0.00     0.002 A 
ATOM      9  C   UNL A   1      31.246  27.736  22.636  1.00  0.00     0.008 A 
ATOM     10  C   UNL A   1      30.054  26.318  24.139  1.00  0.00     0.127 A 
ATOM     11  C   UNL A   1      30.073  28.451  22.377  1.00  0.00     0.004 A 
ATOM     12  C   UNL A   1      28.882  27.061  23.919  1.00  0.00     0.043 A 
ATOM     13  F   UNL A   1      29.966  25.275  24.976  1.00  0.00    -0.207 F 
ATOM     14  C   UNL A   1      28.877  28.145  23.034  1.00  0.00    -0.041 A 
BRANCH  14  15
ATOM     15  C   UNL A   1      27.613  28.927  22.753  1.00  0.00     0.072 C 
BRANCH  15  16
ATOM     16  C   UNL A   1      27.999  30.361  22.506  1.00  0.00    -0.033 A 
ATOM     17  C   UNL A   1      28.016  31.013  21.222  1.00  0.00     0.015 A 
ATOM     18  C   UNL A   1      28.318  31.271  23.500  1.00  0.00     0.068 A 
ATOM     19  C   UNL A   1      28.397  32.334  21.290  1.00  0.00     0.065 A 
ATOM     20  S   UNL A   1      28.682  32.831  22.897  1.00  0.00    -0.152 S 
ENDBRANCH  15  16
ENDBRANCH  14  15
ENDBRANCH   6   8
ENDBRANCH   4   6
ENDBRANCH   3   4
ENDBRANCH   2   3
ENDBRANCH   1   2
BRANCH   1  21
ATOM     21  O   UNL A   1      32.414  30.331  27.230  1.00  0.00    -0.374 OA
BRANCH  21  22
ATOM     22  C   UNL A   1      31.725  31.344  26.493  1.00  0.00     0.202 C 
BRANCH  22  23
ATOM     23  C   UNL A   1      32.033  32.798  26.876  1.00  0.00     0.261 C 
BRANCH  23  24
ATOM     24  O   UNL A   1      32.803  32.903  28.090  1.00  0.00    -0.460 OA
BRANCH  24  25
ATOM     25  C   UNL A   1      33.910  33.678  27.996  1.00  0.00     0.338 C 
ATOM     26  O   UNL A   1      33.958  34.884  27.801  1.00  0.00    -0.246 OA
BRANCH  25  27
ATOM     27  C   UNL A   1      35.114  32.900  28.339  1.00  0.00     0.060 A 
ATOM     28  C   UNL A   1      34.926  31.607  28.846  1.00  0.00     0.016 A 
ATOM     29  C   UNL A   1      36.395  33.452  28.267  1.00  0.00     0.016 A 
ATOM     30  C   UNL A   1      36.013  30.879  29.328  1.00  0.00     0.010 A 
ATOM     31  C   UNL A   1      37.484  32.724  28.762  1.00  0.00     0.010 A 
ATOM     32  C   UNL A   1      37.292  31.450  29.328  1.00  0.00    -0.014 A 
BRANCH  32  33
ATOM     33  C   UNL A   1      38.389  30.771  30.059  1.00  0.00     0.031 A 
ATOM     34  C   UNL A   1      38.623  31.111  31.506  1.00  0.00     0.074 A 
ATOM     35  C   UNL A   1      39.142  29.832  29.460  1.00  0.00     0.049 A 
ATOM     36  N   UNL A   1      39.527  30.652  32.334  1.00  0.00    -0.248 NA
ATOM     37  C   UNL A   1      37.714  32.105  32.098  1.00  0.00     0.031 C 
ATOM     38  C   UNL A   1      38.990  29.385  28.078  1.00  0.00     0.029 A 
ATOM     39  N   UNL A   1      40.190  29.087  29.943  1.00  0.00    -0.354 N 
ATOM     40  C   UNL A   1      39.293  31.296  33.542  1.00  0.00     0.074 A 
ATOM     41  C   UNL A   1      38.185  32.202  33.333  1.00  0.00     0.031 C 
ATOM     42  C   UNL A   1      39.919  28.449  27.818  1.00  0.00     0.029 A 
ATOM     43  C   UNL A   1      40.747  28.252  29.007  1.00  0.00     0.049 A 
ATOM     44  H   UNL A   1      40.510  29.146  30.872  1.00  0.00     0.167 HD
ATOM     45  C   UNL A   1      39.939  31.137  34.722  1.00  0.00     0.037 A 
ATOM     46  C   UNL A   1      41.815  27.436  29.098  1.00  0.00     0.037 A 
ATOM     47  C   UNL A   1      41.043  30.238  34.933  1.00  0.00     0.049 A 
ATOM     48  C   UNL A   1      42.559  27.328  30.403  1.00  0.00     0.074 A 
ATOM     49  C   UNL A   1      41.754  30.001  36.096  1.00  0.00     0.029 A 
ATOM     50  N   UNL A   1      41.598  29.431  33.952  1.00  0.00    -0.354 N 
ATOM     51  N   UNL A   1      42.319  27.923  31.545  1.00  0.00    -0.248 NA
ATOM     52  C   UNL A   1      43.723  26.429  30.432  1.00  0.00     0.031 C 
ATOM     53  C   UNL A   1      42.770  29.083  35.808  1.00  0.00     0.029 A 
ATOM     54  C   UNL A   1      42.660  28.713  34.477  1.00  0.00     0.049 A 
ATOM     55  H   UNL A   1      41.286  29.378  33.020  1.00  0.00     0.167 HD
ATOM     56  C   UNL A   1      43.280  27.456  32.432  1.00  0.00     0.074 A 
ATOM     57  C   UNL A   1      44.102  26.516  31.699  1.00  0.00     0.031 C 
ATOM     58  C   UNL A   1      43.465  27.776  33.736  1.00  0.00     0.037 A 
BRANCH  45  59
ATOM     59  C   UNL A   1      39.475  31.974  35.879  1.00  0.00     0.064 A 
ATOM     60  C   UNL A   1      38.427  31.558  36.712  1.00  0.00     0.173 A 
ATOM     61  C   UNL A   1      40.110  33.189  36.175  1.00  0.00     0.173 A 
ATOM     62  F   UNL A   1      37.780  30.410  36.462  1.00  0.00    -0.203 F 
ATOM     63  C   UNL A   1      38.016  32.341  37.789  1.00  0.00     0.198 A 
ATOM     64  C   UNL A   1      39.712  33.956  37.266  1.00  0.00     0.198 A 
ATOM     65  F   UNL A   1      41.120  33.629  35.410  1.00  0.00    -0.203 F 
ATOM     66  F   UNL A   1      36.985  31.944  38.548  1.00  0.00    -0.200 F 
ATOM     67  C   UNL A   1      38.663  33.535  38.068  1.00  0.00     0.200 A 
ATOM     68  F   UNL A   1      40.345  35.105  37.541  1.00  0.00    -0.200 F 
ATOM     69  F   UNL A   1      38.269  34.284  39.107  1.00  0.00    -0.200 F 
ENDBRANCH  45  59
BRANCH  46  70
ATOM     70  C   UNL A   1      42.257  26.662  27.908  1.00  0.00     0.064 A 
ATOM     71  C   UNL A   1      41.796  25.360  27.678  1.00  0.00     0.173 A 
ATOM     72  C   UNL A   1      43.165  27.207  26.988  1.00  0.00     0.173 A 
ATOM     73  F   UNL A   1      40.949  24.786  28.544  1.00  0.00    -0.203 F 
ATOM     74  C   UNL A   1      42.238  24.624  26.579  1.00  0.00     0.198 A 
ATOM     75  C   UNL A   1      43.586  26.481  25.876  1.00  0.00     0.198 A 
ATOM     76  F   UNL A   1      43.640  28.448  27.168  1.00  0.00    -0.203 F 
ATOM     77  F   UNL A   1      41.815  23.365  26.405  1.00  0.00    -0.200 F 
ATOM     78  C   UNL A   1      43.127  25.188  25.677  1.00  0.00     0.200 A 
ATOM     79  F   UNL A   1      44.438  27.032  25.002  1.00  0.00    -0.200 F 
ATOM     80  F   UNL A   1      43.550  24.481  24.619  1.00  0.00    -0.200 F 
ENDBRANCH  46  70
BRANCH  58  81
ATOM     81  C   UNL A   1      44.579  27.084  34.466  1.00  0.00     0.064 A 
ATOM     82  C   UNL A   1      44.399  25.826  35.059  1.00  0.00     0.173 A 
ATOM     83  C   UNL A   1      45.854  27.666  34.533  1.00  0.00     0.173 A 
ATOM     84  F   UNL A   1      43.196  25.234  35.034  1.00  0.00    -0.203 F 
ATOM     85  C   UNL A   1      45.450  25.187  35.713  1.00  0.00     0.198 A 
ATOM     86  C   UNL A   1      46.909  27.013  35.164  1.00  0.00     0.198 A 
ATOM     87  F   UNL A   1      46.080  28.865  33.975  1.00  0.00    -0.203 F 
ATOM     88  F   UNL A   1      45.245  24.004  36.309  1.00  0.00    -0.200 F 
ATOM     89  C   UNL A   1      46.704  25.777  35.758  1.00  0.00     0.200 A 
ATOM     90  F   UNL A   1      48.124  27.578  35.197  1.00  0.00    -0.200 F 
ATOM     91  F   UNL A   1      47.716  25.157  36.382  1.00  0.00    -0.200 F 
ENDBRANCH  58  81
ENDBRANCH  32  33
ENDBRANCH  25  27
ENDBRANCH  24  25
ENDBRANCH  23  24
ENDBRANCH  22  23
ENDBRANCH  21  22
ENDBRANCH   1  21
TORSDOF 17
ENDMDL
MODEL 3
REMARK VINA RESULT:     -11.0      3.689      8.857
REMARK SMILES C[C@@H](C(=O)OCCOCCOC(=O)c1ccc(-c2c3nc(c(-c4c(F)c(F)c(F)c(F)c4F)c4ccc([nH]4)c(-c4c(F)c(F)c(F)c(F)c4F)c4nc(c(-c5c(F)c(F)c(F)c(F)c5F)c5ccc2[nH]5)C=C4)C=C3)cc1)c1ccc(Cc2ccsc2)cc1F
REMARK SMILES IDX 7 1 6 2 5 3 3 4 4 5 2 6 1 7 77 8 78 9 88 10 79 11 87 12
REMARK SMILES IDX 89 13 80 14 81 15 82 16 83 17 86 18 84 19 85 20 8 21 9 22
REMARK SMILES IDX 10 23 11 24 12 25 13 26 14 27 15 28 76 29 16 30 75 31 17 32
REMARK SMILES IDX 18 33 19 34 69 35 20 36 74 37 68 38 70 39 21 40 73 41 67 42
REMARK SMILES IDX 66 43 22 45 54 46 34 47 53 48 35 49 38 50 52 51 71 52 36 53
REMARK SMILES IDX 37 54 51 56 72 57 39 58 23 59 24 60 32 61 25 62 26 63 30 64
REMARK SMILES IDX 33 65 27 66 28 67 31 68 29 69 55 70 56 71 64 72 57 73 58 74
REMARK SMILES IDX 62 75 65 76 59 77 60 78 63 79 61 80 40 81 41 82 49 83 42 84
REMARK SMILES IDX 43 85 47 86 50 87 44 88 45 89 48 90 46 91
REMARK H PARENT 70 44 38 55
REMARK Flexibility Score: inf
ROOT
ATOM      1  C   UNL A   1      33.066  29.375  26.397  1.00  0.00     0.202 C 
ENDROOT
BRANCH   1   2
ATOM      2  C   UNL A   1      32.259  28.282  25.694  1.00  0.00     0.261 C 
BRANCH   2   3
ATOM      3  O   UNL A   1      31.486  28.833  24.616  1.00  0.00    -0.463 OA
BRANCH   3   4
ATOM      4  C   UNL A   1      31.941  28.548  23.367  1.00  0.00     0.313 C 
ATOM      5  O   UNL A   1      33.021  28.935  22.932  1.00  0.00    -0.252 OA
BRANCH   4   6
ATOM      6  C   UNL A   1      30.985  27.644  22.569  1.00  0.00     0.129 C 
ATOM      7  C   UNL A   1      29.513  27.988  22.831  1.00  0.00     0.025 C 
BRANCH   6   8
ATOM      8  C   UNL A   1      31.372  26.167  22.668  1.00  0.00     0.002 A 
ATOM      9  C   UNL A   1      30.591  25.317  23.470  1.00  0.00     0.008 A 
ATOM     10  C   UNL A   1      32.487  25.588  22.048  1.00  0.00     0.127 A 
ATOM     11  C   UNL A   1      30.891  23.959  23.615  1.00  0.00     0.004 A 
ATOM     12  C   UNL A   1      32.821  24.236  22.226  1.00  0.00     0.043 A 
ATOM     13  F   UNL A   1      33.282  26.312  21.247  1.00  0.00    -0.207 F 
ATOM     14  C   UNL A   1      32.026  23.400  23.020  1.00  0.00    -0.041 A 
BRANCH  14  15
ATOM     15  C   UNL A   1      32.348  21.931  23.185  1.00  0.00     0.072 C 
BRANCH  15  16
ATOM     16  C   UNL A   1      33.171  21.775  24.437  1.00  0.00    -0.033 A 
ATOM     17  C   UNL A   1      34.604  21.890  24.514  1.00  0.00     0.015 A 
ATOM     18  C   UNL A   1      32.645  21.575  25.702  1.00  0.00     0.068 A 
ATOM     19  C   UNL A   1      35.094  21.714  25.789  1.00  0.00     0.065 A 
ATOM     20  S   UNL A   1      33.842  21.470  26.921  1.00  0.00    -0.152 S 
ENDBRANCH  15  16
ENDBRANCH  14  15
ENDBRANCH   6   8
ENDBRANCH   4   6
ENDBRANCH   3   4
ENDBRANCH   2   3
ENDBRANCH   1   2
BRANCH   1  21
ATOM     21  O   UNL A   1      32.724  30.720  26.065  1.00  0.00    -0.374 OA
BRANCH  21  22
ATOM     22  C   UNL A   1      31.699  31.353  26.834  1.00  0.00     0.202 C 
BRANCH  22  23
ATOM     23  C   UNL A   1      31.790  32.879  26.973  1.00  0.00     0.261 C 
BRANCH  23  24
ATOM     24  O   UNL A   1      33.147  33.362  26.919  1.00  0.00    -0.460 OA
BRANCH  24  25
ATOM     25  C   UNL A   1      33.655  33.765  28.108  1.00  0.00     0.338 C 
ATOM     26  O   UNL A   1      33.144  34.528  28.915  1.00  0.00    -0.246 OA
BRANCH  25  27
ATOM     27  C   UNL A   1      34.885  33.015  28.423  1.00  0.00     0.060 A 
ATOM     28  C   UNL A   1      34.742  31.686  28.845  1.00  0.00     0.016 A 
ATOM     29  C   UNL A   1      36.143  33.621  28.409  1.00  0.00     0.016 A 
ATOM     30  C   UNL A   1      35.850  30.973  29.300  1.00  0.00     0.010 A 
ATOM     31  C   UNL A   1      37.253  32.906  28.877  1.00  0.00     0.010 A 
ATOM     32  C   UNL A   1      37.105  31.593  29.359  1.00  0.00    -0.014 A 
BRANCH  32  33
ATOM     33  C   UNL A   1      38.217  30.913  30.066  1.00  0.00     0.031 A 
ATOM     34  C   UNL A   1      38.469  31.238  31.513  1.00  0.00     0.074 A 
ATOM     35  C   UNL A   1      38.968  29.987  29.445  1.00  0.00     0.049 A 
ATOM     36  N   UNL A   1      39.388  30.774  32.322  1.00  0.00    -0.248 NA
ATOM     37  C   UNL A   1      37.561  32.217  32.130  1.00  0.00     0.031 C 
ATOM     38  C   UNL A   1      38.799  29.556  28.059  1.00  0.00     0.029 A 
ATOM     39  N   UNL A   1      40.028  29.244  29.904  1.00  0.00    -0.354 N 
ATOM     40  C   UNL A   1      39.167  31.402  33.542  1.00  0.00     0.074 A 
ATOM     41  C   UNL A   1      38.049  32.303  33.360  1.00  0.00     0.031 C 
ATOM     42  C   UNL A   1      39.732  28.630  27.775  1.00  0.00     0.029 A 
ATOM     43  C   UNL A   1      40.577  28.424  28.950  1.00  0.00     0.049 A 
ATOM     44  H   UNL A   1      40.361  29.294  30.828  1.00  0.00     0.167 HD
ATOM     45  C   UNL A   1      39.830  31.234  34.711  1.00  0.00     0.037 A 
ATOM     46  C   UNL A   1      41.652  27.615  29.015  1.00  0.00     0.037 A 
ATOM     47  C   UNL A   1      40.943  30.341  34.895  1.00  0.00     0.049 A 
ATOM     48  C   UNL A   1      42.416  27.497  30.308  1.00  0.00     0.074 A 
ATOM     49  C   UNL A   1      41.673  30.094  36.044  1.00  0.00     0.029 A 
ATOM     50  N   UNL A   1      41.491  29.550  33.896  1.00  0.00    -0.354 N 
ATOM     51  N   UNL A   1      42.188  28.077  31.461  1.00  0.00    -0.248 NA
ATOM     52  C   UNL A   1      43.587  26.607  30.310  1.00  0.00     0.031 C 
ATOM     53  C   UNL A   1      42.691  29.187  35.731  1.00  0.00     0.029 A 
ATOM     54  C   UNL A   1      42.565  28.833  34.397  1.00  0.00     0.049 A 
ATOM     55  H   UNL A   1      41.165  29.505  32.968  1.00  0.00     0.167 HD
ATOM     56  C   UNL A   1      43.165  27.606  32.328  1.00  0.00     0.074 A 
ATOM     57  C   UNL A   1      43.983  26.681  31.572  1.00  0.00     0.031 C 
ATOM     58  C   UNL A   1      43.366  27.911  33.633  1.00  0.00     0.037 A 
BRANCH  45  59
ATOM     59  C   UNL A   1      39.377  32.053  35.884  1.00  0.00     0.064 A 
ATOM     60  C   UNL A   1      39.881  33.340  36.119  1.00  0.00     0.173 A 
ATOM     61  C   UNL A   1      38.404  31.556  36.763  1.00  0.00     0.173 A 
ATOM     62  F   UNL A   1      40.823  33.854  35.315  1.00  0.00    -0.203 F 
ATOM     63  C   UNL A   1      39.442  34.092  37.206  1.00  0.00     0.198 A 
ATOM     64  C   UNL A   1      37.950  32.320  37.834  1.00  0.00     0.198 A 
ATOM     65  F   UNL A   1      37.888  30.331  36.579  1.00  0.00    -0.203 F 
ATOM     66  F   UNL A   1      39.967  35.304  37.436  1.00  0.00    -0.200 F 
ATOM     67  C   UNL A   1      38.473  33.584  38.058  1.00  0.00     0.200 A 
ATOM     68  F   UNL A   1      37.007  31.833  38.651  1.00  0.00    -0.200 F 
ATOM     69  F   UNL A   1      38.049  34.312  39.101  1.00  0.00    -0.200 F 
ENDBRANCH  45  59
BRANCH  46  70
ATOM     70  C   UNL A   1      42.083  26.859  27.810  1.00  0.00     0.064 A 
ATOM     71  C   UNL A   1      41.588  25.577  27.543  1.00  0.00     0.173 A 
ATOM     72  C   UNL A   1      43.014  27.401  26.911  1.00  0.00     0.173 A 
ATOM     73  F   UNL A   1      40.717  25.006  28.388  1.00  0.00    -0.203 F 
ATOM     74  C   UNL A   1      42.018  24.856  26.430  1.00  0.00     0.198 A 
ATOM     75  C   UNL A   1      43.424  26.691  25.785  1.00  0.00     0.198 A 
ATOM     76  F   UNL A   1      43.522  28.624  27.126  1.00  0.00    -0.203 F 
ATOM     77  F   UNL A   1      41.562  23.615  26.220  1.00  0.00    -0.200 F 
ATOM     78  C   UNL A   1      42.931  25.417  25.549  1.00  0.00     0.200 A 
ATOM     79  F   UNL A   1      44.300  27.240  24.932  1.00  0.00    -0.200 F 
ATOM     80  F   UNL A   1      43.344  24.726  24.478  1.00  0.00    -0.200 F 
ENDBRANCH  46  70
BRANCH  58  81
ATOM     81  C   UNL A   1      44.495  27.218  34.339  1.00  0.00     0.064 A 
ATOM     82  C   UNL A   1      45.770  27.795  34.429  1.00  0.00     0.173 A 
ATOM     83  C   UNL A   1      44.287  25.983  34.971  1.00  0.00     0.173 A 
ATOM     84  F   UNL A   1      46.023  28.968  33.830  1.00  0.00    -0.203 F 
ATOM     85  C   UNL A   1      46.801  27.149  35.107  1.00  0.00     0.198 A 
ATOM     86  C   UNL A   1      45.312  25.353  35.670  1.00  0.00     0.198 A 
ATOM     87  F   UNL A   1      43.083  25.392  34.920  1.00  0.00    -0.203 F 
ATOM     88  F   UNL A   1      48.023  27.699  35.145  1.00  0.00    -0.200 F 
ATOM     89  C   UNL A   1      46.570  25.934  35.733  1.00  0.00     0.200 A 
ATOM     90  F   UNL A   1      45.084  24.183  36.285  1.00  0.00    -0.200 F 
ATOM     91  F   UNL A   1      47.562  25.317  36.391  1.00  0.00    -0.200 F 
ENDBRANCH  58  81
ENDBRANCH  32  33
ENDBRANCH  25  27
ENDBRANCH  24  25
ENDBRANCH  23  24
ENDBRANCH  22  23
ENDBRANCH  21  22
ENDBRANCH   1  21
TORSDOF 17
ENDMDL
