MODEL 1
REMARK VINA RESULT:     -12.2      0.000      0.000
REMARK SMILES Cn1c(=O)c(=O)n(C)c2cc(S(=O)(=O)N3CCC[C@H]3C(=O)OCCOCCOC(=O)c3ccc(-c4c5nc(c(-c6c(F)c(F)c(F)c(F)c6F)c6ccc([nH]6)c(-c6c(F)c(F)c(F)c(F)c6F)c6nc(c(-c7c(F)c(F)c(F)c(F)c7F)c7ccc4[nH]7)C=C6)C=C5)cc3)ccc21
REMARK SMILES IDX 25 1 24 2 23 3 22 4 20 5 21 6 19 7 15 8 16 9 17 10 18 11
REMARK SMILES IDX 12 12 13 13 14 14 11 15 1 16 2 17 3 18 96 19 4 20 5 21 9 22
REMARK SMILES IDX 95 23 6 24 7 25 10 26 94 27 8 28 26 29 27 30 28 31 29 32
REMARK SMILES IDX 30 33 31 34 32 35 93 36 33 37 92 38 34 39 35 40 36 41 86 42
REMARK SMILES IDX 37 43 91 44 85 45 87 46 38 47 90 48 84 49 83 50 39 52 71 53
REMARK SMILES IDX 51 54 70 55 52 56 55 57 69 58 88 59 53 60 54 61 68 63 89 64
REMARK SMILES IDX 56 65 40 66 41 67 49 68 42 69 43 70 47 71 50 72 44 73 45 74
REMARK SMILES IDX 48 75 46 76 72 77 73 78 81 79 74 80 75 81 79 82 82 83 76 84
REMARK SMILES IDX 77 85 80 86 78 87 57 88 58 89 66 90 59 91 60 92 64 93 67 94
REMARK SMILES IDX 61 95 62 96 65 97 63 98
REMARK H PARENT 87 51 55 62
REMARK Flexibility Score: inf
ROOT
ATOM      1  O   UNL A   1      32.411  29.753  24.624  1.00  0.00    -0.374 OA
ENDROOT
BRANCH   1   2
ATOM      2  C   UNL A   1      33.500  28.833  24.646  1.00  0.00     0.202 C 
BRANCH   2   3
ATOM      3  C   UNL A   1      34.067  28.403  23.290  1.00  0.00     0.261 C 
BRANCH   3   4
ATOM      4  O   UNL A   1      33.017  27.956  22.413  1.00  0.00    -0.462 OA
BRANCH   4   5
ATOM      5  C   UNL A   1      32.895  26.604  22.268  1.00  0.00     0.324 C 
ATOM      6  O   UNL A   1      33.813  25.855  21.962  1.00  0.00    -0.250 OA
BRANCH   5   7
ATOM      7  C   UNL A   1      31.460  26.165  22.565  1.00  0.00     0.183 C 
ATOM      8  N   UNL A   1      31.341  25.767  23.984  1.00  0.00    -0.184 NA
ATOM      9  C   UNL A   1      30.673  26.794  24.775  1.00  0.00     0.103 C 
ATOM     10  C   UNL A   1      29.774  27.503  23.779  1.00  0.00     0.019 C 
ATOM     11  C   UNL A   1      30.407  27.280  22.405  1.00  0.00     0.034 C 
BRANCH   8  12
ATOM     12  S   UNL A   1      31.390  24.162  24.437  1.00  0.00     0.243 S 
ATOM     13  O   UNL A   1      31.046  23.367  23.278  1.00  0.00    -0.207 OA
ATOM     14  O   UNL A   1      30.709  24.024  25.703  1.00  0.00    -0.207 OA
BRANCH  12  15
ATOM     15  C   UNL A   1      33.105  23.811  24.783  1.00  0.00     0.084 A 
ATOM     16  C   UNL A   1      38.059  23.957  26.001  1.00  0.00     0.154 C 
ATOM     17  N   UNL A   1      37.145  22.892  25.612  1.00  0.00    -0.305 N 
ATOM     18  C   UNL A   1      37.650  21.600  25.507  1.00  0.00     0.316 A 
ATOM     19  C   UNL A   1      35.786  23.181  25.334  1.00  0.00     0.068 A 
ATOM     20  O   UNL A   1      38.826  21.316  25.718  1.00  0.00    -0.263 OA
ATOM     21  C   UNL A   1      36.677  20.480  25.110  1.00  0.00     0.316 A 
ATOM     22  C   UNL A   1      34.902  22.171  24.911  1.00  0.00     0.069 A 
ATOM     23  C   UNL A   1      35.305  24.485  25.488  1.00  0.00     0.030 A 
ATOM     24  O   UNL A   1      37.099  19.327  25.074  1.00  0.00    -0.263 OA
ATOM     25  N   UNL A   1      35.361  20.830  24.810  1.00  0.00    -0.305 N 
ATOM     26  C   UNL A   1      33.565  22.504  24.613  1.00  0.00     0.050 A 
ATOM     27  C   UNL A   1      33.976  24.789  25.235  1.00  0.00     0.024 A 
ATOM     28  C   UNL A   1      34.443  19.767  24.429  1.00  0.00     0.154 C 
ENDBRANCH  12  15
ENDBRANCH   8  12
ENDBRANCH   5   7
ENDBRANCH   4   5
ENDBRANCH   3   4
ENDBRANCH   2   3
ENDBRANCH   1   2
BRANCH   1  29
ATOM     29  C   UNL A   1      31.762  30.062  25.855  1.00  0.00     0.202 C 
BRANCH  29  30
ATOM     30  C   UNL A   1      31.872  31.515  26.342  1.00  0.00     0.261 C 
BRANCH  30  31
ATOM     31  O   UNL A   1      32.567  31.616  27.601  1.00  0.00    -0.460 OA
BRANCH  31  32
ATOM     32  C   UNL A   1      33.472  32.623  27.671  1.00  0.00     0.338 C 
ATOM     33  O   UNL A   1      33.257  33.819  27.591  1.00  0.00    -0.246 OA
BRANCH  32  34
ATOM     34  C   UNL A   1      34.789  32.085  28.066  1.00  0.00     0.060 A 
ATOM     35  C   UNL A   1      35.943  32.872  28.079  1.00  0.00     0.016 A 
ATOM     36  C   UNL A   1      34.831  30.757  28.508  1.00  0.00     0.016 A 
ATOM     37  C   UNL A   1      37.132  32.337  28.590  1.00  0.00     0.010 A 
ATOM     38  C   UNL A   1      36.017  30.222  29.007  1.00  0.00     0.010 A 
ATOM     39  C   UNL A   1      37.168  31.018  29.084  1.00  0.00    -0.014 A 
BRANCH  39  40
ATOM     40  C   UNL A   1      38.332  30.516  29.856  1.00  0.00     0.031 A 
ATOM     41  C   UNL A   1      39.267  29.490  29.298  1.00  0.00     0.074 A 
ATOM     42  C   UNL A   1      38.479  30.941  31.124  1.00  0.00     0.049 A 
ATOM     43  N   UNL A   1      40.310  28.934  29.862  1.00  0.00    -0.248 NA
ATOM     44  C   UNL A   1      38.996  29.019  27.934  1.00  0.00     0.031 C 
ATOM     45  C   UNL A   1      37.601  31.903  31.792  1.00  0.00     0.029 A 
ATOM     46  N   UNL A   1      39.404  30.611  32.083  1.00  0.00    -0.354 N 
ATOM     47  C   UNL A   1      40.835  28.062  28.919  1.00  0.00     0.074 A 
ATOM     48  C   UNL A   1      39.965  28.129  27.760  1.00  0.00     0.031 C 
ATOM     49  C   UNL A   1      38.036  32.096  33.045  1.00  0.00     0.029 A 
ATOM     50  C   UNL A   1      39.204  31.252  33.279  1.00  0.00     0.049 A 
ATOM     51  H   UNL A   1      40.139  29.975  31.927  1.00  0.00     0.167 HD
ATOM     52  C   UNL A   1      41.947  27.293  29.010  1.00  0.00     0.037 A 
ATOM     53  C   UNL A   1      39.884  31.171  34.438  1.00  0.00     0.037 A 
ATOM     54  C   UNL A   1      42.786  27.202  30.179  1.00  0.00     0.049 A 
ATOM     55  C   UNL A   1      41.081  30.271  34.530  1.00  0.00     0.074 A 
ATOM     56  C   UNL A   1      43.946  26.465  30.355  1.00  0.00     0.029 A 
ATOM     57  N   UNL A   1      42.547  27.855  31.381  1.00  0.00    -0.354 N 
ATOM     58  N   UNL A   1      41.607  29.501  33.610  1.00  0.00    -0.248 NA
ATOM     59  C   UNL A   1      41.785  30.236  35.819  1.00  0.00     0.031 C 
ATOM     60  C   UNL A   1      44.379  26.632  31.675  1.00  0.00     0.029 A 
ATOM     61  C   UNL A   1      43.524  27.520  32.308  1.00  0.00     0.049 A 
ATOM     62  H   UNL A   1      41.794  28.466  31.551  1.00  0.00     0.167 HD
ATOM     63  C   UNL A   1      42.717  28.909  34.197  1.00  0.00     0.074 A 
ATOM     64  C   UNL A   1      42.794  29.418  35.551  1.00  0.00     0.031 C 
ATOM     65  C   UNL A   1      43.592  28.025  33.658  1.00  0.00     0.037 A 
BRANCH  52  66
ATOM     66  C   UNL A   1      42.330  26.482  27.803  1.00  0.00     0.064 A 
ATOM     67  C   UNL A   1      43.275  26.956  26.878  1.00  0.00     0.173 A 
ATOM     68  C   UNL A   1      41.799  25.201  27.598  1.00  0.00     0.173 A 
ATOM     69  F   UNL A   1      43.807  28.179  27.024  1.00  0.00    -0.203 F 
ATOM     70  C   UNL A   1      43.655  26.186  25.783  1.00  0.00     0.198 A 
ATOM     71  C   UNL A   1      42.203  24.422  26.516  1.00  0.00     0.198 A 
ATOM     72  F   UNL A   1      40.898  24.696  28.454  1.00  0.00    -0.203 F 
ATOM     73  F   UNL A   1      44.529  26.677  24.893  1.00  0.00    -0.200 F 
ATOM     74  C   UNL A   1      43.126  24.916  25.607  1.00  0.00     0.200 A 
ATOM     75  F   UNL A   1      41.700  23.190  26.354  1.00  0.00    -0.200 F 
ATOM     76  F   UNL A   1      43.500  24.173  24.557  1.00  0.00    -0.200 F 
ENDBRANCH  52  66
BRANCH  53  77
ATOM     77  C   UNL A   1      39.465  32.019  35.582  1.00  0.00     0.064 A 
ATOM     78  C   UNL A   1      38.523  31.549  36.506  1.00  0.00     0.173 A 
ATOM     79  C   UNL A   1      40.037  33.278  35.808  1.00  0.00     0.173 A 
ATOM     80  F   UNL A   1      37.939  30.356  36.320  1.00  0.00    -0.203 F 
ATOM     81  C   UNL A   1      38.168  32.309  37.619  1.00  0.00     0.198 A 
ATOM     82  C   UNL A   1      39.699  34.027  36.934  1.00  0.00     0.198 A 
ATOM     83  F   UNL A   1      40.950  33.765  34.955  1.00  0.00    -0.203 F 
ATOM     84  F   UNL A   1      37.252  31.845  38.478  1.00  0.00    -0.200 F 
ATOM     85  C   UNL A   1      38.764  33.542  37.836  1.00  0.00     0.200 A 
ATOM     86  F   UNL A   1      40.290  35.209  37.152  1.00  0.00    -0.200 F 
ATOM     87  F   UNL A   1      38.439  34.262  38.919  1.00  0.00    -0.200 F 
ENDBRANCH  53  77
BRANCH  65  88
ATOM     88  C   UNL A   1      44.730  27.567  34.524  1.00  0.00     0.064 A 
ATOM     89  C   UNL A   1      45.938  28.277  34.593  1.00  0.00     0.173 A 
ATOM     90  C   UNL A   1      44.597  26.420  35.324  1.00  0.00     0.173 A 
ATOM     91  F   UNL A   1      46.122  29.369  33.838  1.00  0.00    -0.203 F 
ATOM     92  C   UNL A   1      46.979  27.843  35.411  1.00  0.00     0.198 A 
ATOM     93  C   UNL A   1      45.629  26.006  36.162  1.00  0.00     0.198 A 
ATOM     94  F   UNL A   1      43.461  25.707  35.300  1.00  0.00    -0.203 F 
ATOM     95  F   UNL A   1      48.141  28.509  35.424  1.00  0.00    -0.200 F 
ATOM     96  C   UNL A   1      46.821  26.712  36.200  1.00  0.00     0.200 A 
ATOM     97  F   UNL A   1      45.470  24.921  36.934  1.00  0.00    -0.200 F 
ATOM     98  F   UNL A   1      47.821  26.301  36.990  1.00  0.00    -0.200 F 
ENDBRANCH  65  88
ENDBRANCH  39  40
ENDBRANCH  32  34
ENDBRANCH  31  32
ENDBRANCH  30  31
ENDBRANCH  29  30
ENDBRANCH   1  29
TORSDOF 16
ENDMDL
MODEL 2
REMARK VINA RESULT:     -12.0      1.228      7.351
REMARK SMILES Cn1c(=O)c(=O)n(C)c2cc(S(=O)(=O)N3CCC[C@H]3C(=O)OCCOCCOC(=O)c3ccc(-c4c5nc(c(-c6c(F)c(F)c(F)c(F)c6F)c6ccc([nH]6)c(-c6c(F)c(F)c(F)c(F)c6F)c6nc(c(-c7c(F)c(F)c(F)c(F)c7F)c7ccc4[nH]7)C=C6)C=C5)cc3)ccc21
REMARK SMILES IDX 25 1 24 2 23 3 22 4 20 5 21 6 19 7 15 8 16 9 17 10 18 11
REMARK SMILES IDX 12 12 13 13 14 14 11 15 1 16 2 17 3 18 96 19 4 20 5 21 9 22
REMARK SMILES IDX 95 23 6 24 7 25 10 26 94 27 8 28 26 29 27 30 28 31 29 32
REMARK SMILES IDX 30 33 31 34 32 35 93 36 33 37 92 38 34 39 35 40 36 41 86 42
REMARK SMILES IDX 37 43 91 44 85 45 87 46 38 47 90 48 84 49 83 50 39 52 71 53
REMARK SMILES IDX 51 54 70 55 52 56 55 57 69 58 88 59 53 60 54 61 68 63 89 64
REMARK SMILES IDX 56 65 40 66 41 67 49 68 42 69 43 70 47 71 50 72 44 73 45 74
REMARK SMILES IDX 48 75 46 76 72 77 73 78 81 79 74 80 75 81 79 82 82 83 76 84
REMARK SMILES IDX 77 85 80 86 78 87 57 88 58 89 66 90 59 91 60 92 64 93 67 94
REMARK SMILES IDX 61 95 62 96 65 97 63 98
REMARK H PARENT 87 51 55 62
REMARK Flexibility Score: inf
ROOT
ATOM      1  O   UNL A   1      31.631  30.563  26.873  1.00  0.00    -0.374 OA
ENDROOT
BRANCH   1   2
ATOM      2  C   UNL A   1      32.988  30.141  26.987  1.00  0.00     0.202 C 
BRANCH   2   3
ATOM      3  C   UNL A   1      33.574  29.370  25.800  1.00  0.00     0.261 C 
BRANCH   3   4
ATOM      4  O   UNL A   1      32.903  29.724  24.577  1.00  0.00    -0.462 OA
BRANCH   4   5
ATOM      5  C   UNL A   1      32.030  28.796  24.086  1.00  0.00     0.324 C 
ATOM      6  O   UNL A   1      30.846  29.010  23.860  1.00  0.00    -0.250 OA
BRANCH   5   7
ATOM      7  C   UNL A   1      32.749  27.468  23.840  1.00  0.00     0.183 C 
ATOM      8  N   UNL A   1      31.795  26.347  23.980  1.00  0.00    -0.184 NA
ATOM      9  C   UNL A   1      31.399  25.814  22.682  1.00  0.00     0.103 C 
ATOM     10  C   UNL A   1      32.585  26.108  21.783  1.00  0.00     0.019 C 
ATOM     11  C   UNL A   1      33.307  27.301  22.412  1.00  0.00     0.034 C 
BRANCH   8  12
ATOM     12  S   UNL A   1      31.708  25.460  25.390  1.00  0.00     0.243 S 
ATOM     13  O   UNL A   1      30.532  24.620  25.310  1.00  0.00    -0.207 OA
ATOM     14  O   UNL A   1      31.955  26.346  26.503  1.00  0.00    -0.207 OA
BRANCH  12  15
ATOM     15  C   UNL A   1      33.106  24.353  25.350  1.00  0.00     0.084 A 
ATOM     16  C   UNL A   1      37.710  22.154  25.505  1.00  0.00     0.154 C 
ATOM     17  N   UNL A   1      36.362  21.659  25.266  1.00  0.00    -0.305 N 
ATOM     18  C   UNL A   1      36.199  20.304  24.994  1.00  0.00     0.316 A 
ATOM     19  C   UNL A   1      35.258  22.547  25.294  1.00  0.00     0.068 A 
ATOM     20  O   UNL A   1      37.134  19.510  24.939  1.00  0.00    -0.263 OA
ATOM     21  C   UNL A   1      34.772  19.788  24.757  1.00  0.00     0.316 A 
ATOM     22  C   UNL A   1      33.955  22.093  25.018  1.00  0.00     0.069 A 
ATOM     23  C   UNL A   1      35.455  23.895  25.609  1.00  0.00     0.030 A 
ATOM     24  O   UNL A   1      34.611  18.583  24.577  1.00  0.00    -0.263 OA
ATOM     25  N   UNL A   1      33.730  20.714  24.758  1.00  0.00    -0.305 N 
ATOM     26  C   UNL A   1      32.887  23.012  25.024  1.00  0.00     0.050 A 
ATOM     27  C   UNL A   1      34.389  24.780  25.656  1.00  0.00     0.024 A 
ATOM     28  C   UNL A   1      32.381  20.221  24.528  1.00  0.00     0.154 C 
ENDBRANCH  12  15
ENDBRANCH   8  12
ENDBRANCH   5   7
ENDBRANCH   4   5
ENDBRANCH   3   4
ENDBRANCH   2   3
ENDBRANCH   1   2
BRANCH   1  29
ATOM     29  C   UNL A   1      31.367  31.954  26.710  1.00  0.00     0.202 C 
BRANCH  29  30
ATOM     30  C   UNL A   1      32.559  32.905  26.897  1.00  0.00     0.261 C 
BRANCH  30  31
ATOM     31  O   UNL A   1      32.438  33.702  28.091  1.00  0.00    -0.460 OA
BRANCH  31  32
ATOM     32  C   UNL A   1      33.516  34.476  28.370  1.00  0.00     0.338 C 
ATOM     33  O   UNL A   1      33.549  35.689  28.474  1.00  0.00    -0.246 OA
BRANCH  32  34
ATOM     34  C   UNL A   1      34.662  33.622  28.739  1.00  0.00     0.060 A 
ATOM     35  C   UNL A   1      35.977  33.951  28.400  1.00  0.00     0.016 A 
ATOM     36  C   UNL A   1      34.393  32.492  29.520  1.00  0.00     0.016 A 
ATOM     37  C   UNL A   1      37.028  33.169  28.895  1.00  0.00     0.010 A 
ATOM     38  C   UNL A   1      35.438  31.709  30.003  1.00  0.00     0.010 A 
ATOM     39  C   UNL A   1      36.766  32.061  29.724  1.00  0.00    -0.014 A 
BRANCH  39  40
ATOM     40  C   UNL A   1      37.857  31.375  30.460  1.00  0.00     0.031 A 
ATOM     41  C   UNL A   1      38.208  31.735  31.870  1.00  0.00     0.074 A 
ATOM     42  C   UNL A   1      38.598  30.471  29.793  1.00  0.00     0.049 A 
ATOM     43  N   UNL A   1      39.153  31.245  32.633  1.00  0.00    -0.248 NA
ATOM     44  C   UNL A   1      37.402  32.785  32.504  1.00  0.00     0.031 C 
ATOM     45  C   UNL A   1      38.380  30.075  28.401  1.00  0.00     0.029 A 
ATOM     46  N   UNL A   1      39.689  29.736  30.183  1.00  0.00    -0.354 N 
ATOM     47  C   UNL A   1      39.045  31.910  33.846  1.00  0.00     0.074 A 
ATOM     48  C   UNL A   1      37.971  32.873  33.701  1.00  0.00     0.031 C 
ATOM     49  C   UNL A   1      39.298  29.160  28.058  1.00  0.00     0.029 A 
ATOM     50  C   UNL A   1      40.184  28.926  29.193  1.00  0.00     0.049 A 
ATOM     51  H   UNL A   1      40.077  29.786  31.086  1.00  0.00     0.167 HD
ATOM     52  C   UNL A   1      39.767  31.719  34.978  1.00  0.00     0.037 A 
ATOM     53  C   UNL A   1      41.238  28.088  29.197  1.00  0.00     0.037 A 
ATOM     54  C   UNL A   1      40.860  30.786  35.104  1.00  0.00     0.049 A 
ATOM     55  C   UNL A   1      42.055  27.934  30.446  1.00  0.00     0.074 A 
ATOM     56  C   UNL A   1      41.636  30.509  36.218  1.00  0.00     0.029 A 
ATOM     57  N   UNL A   1      41.347  29.989  34.076  1.00  0.00    -0.354 N 
ATOM     58  N   UNL A   1      41.903  28.519  31.609  1.00  0.00    -0.248 NA
ATOM     59  C   UNL A   1      43.184  26.996  30.386  1.00  0.00     0.031 C 
ATOM     60  C   UNL A   1      42.620  29.585  35.852  1.00  0.00     0.029 A 
ATOM     61  C   UNL A   1      42.425  29.239  34.524  1.00  0.00     0.049 A 
ATOM     62  H   UNL A   1      40.981  29.961  33.162  1.00  0.00     0.167 HD
ATOM     63  C   UNL A   1      42.898  28.003  32.427  1.00  0.00     0.074 A 
ATOM     64  C   UNL A   1      43.641  27.049  31.630  1.00  0.00     0.031 C 
ATOM     65  C   UNL A   1      43.167  28.295  33.724  1.00  0.00     0.037 A 
BRANCH  52  66
ATOM     66  C   UNL A   1      39.396  32.537  36.183  1.00  0.00     0.064 A 
ATOM     67  C   UNL A   1      38.450  32.075  37.112  1.00  0.00     0.173 A 
ATOM     68  C   UNL A   1      40.031  33.759  36.447  1.00  0.00     0.173 A 
ATOM     69  F   UNL A   1      37.809  30.916  36.902  1.00  0.00    -0.203 F 
ATOM     70  C   UNL A   1      38.139  32.818  38.247  1.00  0.00     0.198 A 
ATOM     71  C   UNL A   1      39.736  34.486  37.598  1.00  0.00     0.198 A 
ATOM     72  F   UNL A   1      40.948  34.243  35.596  1.00  0.00    -0.203 F 
ATOM     73  F   UNL A   1      37.202  32.375  39.098  1.00  0.00    -0.200 F 
ATOM     74  C   UNL A   1      38.787  34.019  38.494  1.00  0.00     0.200 A 
ATOM     75  F   UNL A   1      40.373  35.640  37.841  1.00  0.00    -0.200 F 
ATOM     76  F   UNL A   1      38.492  34.728  39.592  1.00  0.00    -0.200 F 
ENDBRANCH  52  66
BRANCH  53  77
ATOM     77  C   UNL A   1      41.531  27.292  27.978  1.00  0.00     0.064 A 
ATOM     78  C   UNL A   1      42.404  27.787  27.001  1.00  0.00     0.173 A 
ATOM     79  C   UNL A   1      41.001  26.008  27.797  1.00  0.00     0.173 A 
ATOM     80  F   UNL A   1      42.922  29.018  27.127  1.00  0.00    -0.203 F 
ATOM     81  C   UNL A   1      42.737  27.025  25.884  1.00  0.00     0.198 A 
ATOM     82  C   UNL A   1      41.354  25.236  26.692  1.00  0.00     0.198 A 
ATOM     83  F   UNL A   1      40.168  25.489  28.712  1.00  0.00    -0.203 F 
ATOM     84  F   UNL A   1      43.559  27.528  24.954  1.00  0.00    -0.200 F 
ATOM     85  C   UNL A   1      42.220  25.746  25.736  1.00  0.00     0.200 A 
ATOM     86  F   UNL A   1      40.867  23.995  26.561  1.00  0.00    -0.200 F 
ATOM     87  F   UNL A   1      42.559  25.004  24.672  1.00  0.00    -0.200 F 
ENDBRANCH  53  77
BRANCH  65  88
ATOM     88  C   UNL A   1      44.299  27.556  34.376  1.00  0.00     0.064 A 
ATOM     89  C   UNL A   1      44.115  26.300  34.974  1.00  0.00     0.173 A 
ATOM     90  C   UNL A   1      45.596  28.096  34.372  1.00  0.00     0.173 A 
ATOM     91  F   UNL A   1      42.894  25.748  35.018  1.00  0.00    -0.203 F 
ATOM     92  C   UNL A   1      45.180  25.624  35.564  1.00  0.00     0.198 A 
ATOM     93  C   UNL A   1      46.664  27.404  34.938  1.00  0.00     0.198 A 
ATOM     94  F   UNL A   1      45.829  29.291  33.810  1.00  0.00    -0.203 F 
ATOM     95  F   UNL A   1      44.970  24.448  36.172  1.00  0.00    -0.200 F 
ATOM     96  C   UNL A   1      46.454  26.173  35.540  1.00  0.00     0.200 A 
ATOM     97  F   UNL A   1      47.896  27.929  34.902  1.00  0.00    -0.200 F 
ATOM     98  F   UNL A   1      47.477  25.517  36.104  1.00  0.00    -0.200 F 
ENDBRANCH  65  88
ENDBRANCH  39  40
ENDBRANCH  32  34
ENDBRANCH  31  32
ENDBRANCH  30  31
ENDBRANCH  29  30
ENDBRANCH   1  29
TORSDOF 16
ENDMDL
MODEL 3
REMARK VINA RESULT:     -12.0      0.777      7.234
REMARK SMILES Cn1c(=O)c(=O)n(C)c2cc(S(=O)(=O)N3CCC[C@H]3C(=O)OCCOCCOC(=O)c3ccc(-c4c5nc(c(-c6c(F)c(F)c(F)c(F)c6F)c6ccc([nH]6)c(-c6c(F)c(F)c(F)c(F)c6F)c6nc(c(-c7c(F)c(F)c(F)c(F)c7F)c7ccc4[nH]7)C=C6)C=C5)cc3)ccc21
REMARK SMILES IDX 25 1 24 2 23 3 22 4 20 5 21 6 19 7 15 8 16 9 17 10 18 11
REMARK SMILES IDX 12 12 13 13 14 14 11 15 1 16 2 17 3 18 96 19 4 20 5 21 9 22
REMARK SMILES IDX 95 23 6 24 7 25 10 26 94 27 8 28 26 29 27 30 28 31 29 32
REMARK SMILES IDX 30 33 31 34 32 35 93 36 33 37 92 38 34 39 35 40 36 41 86 42
REMARK SMILES IDX 37 43 91 44 85 45 87 46 38 47 90 48 84 49 83 50 39 52 71 53
REMARK SMILES IDX 51 54 70 55 52 56 55 57 69 58 88 59 53 60 54 61 68 63 89 64
REMARK SMILES IDX 56 65 40 66 41 67 49 68 42 69 43 70 47 71 50 72 44 73 45 74
REMARK SMILES IDX 48 75 46 76 72 77 73 78 81 79 74 80 75 81 79 82 82 83 76 84
REMARK SMILES IDX 77 85 80 86 78 87 57 88 58 89 66 90 59 91 60 92 64 93 67 94
REMARK SMILES IDX 61 95 62 96 65 97 63 98
REMARK H PARENT 87 51 55 62
REMARK Flexibility Score: inf
ROOT
ATOM      1  O   UNL A   1      32.227  29.372  24.249  1.00  0.00    -0.374 OA
ENDROOT
BRANCH   1   2
ATOM      2  C   UNL A   1      33.162  28.301  24.143  1.00  0.00     0.202 C 
BRANCH   2   3
ATOM      3  C   UNL A   1      33.608  27.912  22.730  1.00  0.00     0.261 C 
BRANCH   3   4
ATOM      4  O   UNL A   1      32.707  26.949  22.154  1.00  0.00    -0.462 OA
BRANCH   4   5
ATOM      5  C   UNL A   1      32.956  25.641  22.459  1.00  0.00     0.324 C 
ATOM      6  O   UNL A   1      34.039  25.091  22.315  1.00  0.00    -0.250 OA
BRANCH   5   7
ATOM      7  C   UNL A   1      31.698  24.980  23.026  1.00  0.00     0.183 C 
ATOM      8  N   UNL A   1      31.962  24.491  24.396  1.00  0.00    -0.184 NA
ATOM      9  C   UNL A   1      31.366  25.363  25.401  1.00  0.00     0.103 C 
ATOM     10  C   UNL A   1      30.176  25.985  24.694  1.00  0.00     0.019 C 
ATOM     11  C   UNL A   1      30.500  25.934  23.200  1.00  0.00     0.034 C 
BRANCH   8  12
ATOM     12  S   UNL A   1      32.324  22.889  24.685  1.00  0.00     0.243 S 
ATOM     13  O   UNL A   1      32.167  22.169  23.439  1.00  0.00    -0.207 OA
ATOM     14  O   UNL A   1      31.665  22.484  25.905  1.00  0.00    -0.207 OA
BRANCH  12  15
ATOM     15  C   UNL A   1      34.069  22.849  25.058  1.00  0.00     0.084 A 
ATOM     16  C   UNL A   1      38.892  23.865  26.385  1.00  0.00     0.154 C 
ATOM     17  N   UNL A   1      38.196  22.663  25.948  1.00  0.00    -0.305 N 
ATOM     18  C   UNL A   1      38.933  21.490  25.819  1.00  0.00     0.316 A 
ATOM     19  C   UNL A   1      36.811  22.706  25.649  1.00  0.00     0.068 A 
ATOM     20  O   UNL A   1      40.137  21.420  26.047  1.00  0.00    -0.263 OA
ATOM     21  C   UNL A   1      38.189  20.223  25.371  1.00  0.00     0.316 A 
ATOM     22  C   UNL A   1      36.136  21.564  25.180  1.00  0.00     0.069 A 
ATOM     23  C   UNL A   1      36.096  23.894  25.828  1.00  0.00     0.030 A 
ATOM     24  O   UNL A   1      38.816  19.168  25.312  1.00  0.00    -0.263 OA
ATOM     25  N   UNL A   1      36.835  20.333  25.053  1.00  0.00    -0.305 N 
ATOM     26  C   UNL A   1      34.765  21.654  24.863  1.00  0.00     0.050 A 
ATOM     27  C   UNL A   1      34.738  23.956  25.554  1.00  0.00     0.024 A 
ATOM     28  C   UNL A   1      36.136  19.132  24.624  1.00  0.00     0.154 C 
ENDBRANCH  12  15
ENDBRANCH   8  12
ENDBRANCH   5   7
ENDBRANCH   4   5
ENDBRANCH   3   4
ENDBRANCH   2   3
ENDBRANCH   1   2
BRANCH   1  29
ATOM     29  C   UNL A   1      31.562  29.567  25.494  1.00  0.00     0.202 C 
BRANCH  29  30
ATOM     30  C   UNL A   1      31.724  30.947  26.149  1.00  0.00     0.261 C 
BRANCH  30  31
ATOM     31  O   UNL A   1      32.572  30.903  27.313  1.00  0.00    -0.460 OA
BRANCH  31  32
ATOM     32  C   UNL A   1      33.392  31.973  27.460  1.00  0.00     0.338 C 
ATOM     33  O   UNL A   1      33.091  33.151  27.385  1.00  0.00    -0.246 OA
BRANCH  32  34
ATOM     34  C   UNL A   1      34.717  31.527  27.936  1.00  0.00     0.060 A 
ATOM     35  C   UNL A   1      35.771  32.418  28.148  1.00  0.00     0.016 A 
ATOM     36  C   UNL A   1      34.861  30.170  28.246  1.00  0.00     0.016 A 
ATOM     37  C   UNL A   1      36.959  31.950  28.725  1.00  0.00     0.010 A 
ATOM     38  C   UNL A   1      36.046  29.703  28.811  1.00  0.00     0.010 A 
ATOM     39  C   UNL A   1      37.091  30.596  29.087  1.00  0.00    -0.014 A 
BRANCH  39  40
ATOM     40  C   UNL A   1      38.225  30.129  29.923  1.00  0.00     0.031 A 
ATOM     41  C   UNL A   1      38.440  30.630  31.317  1.00  0.00     0.074 A 
ATOM     42  C   UNL A   1      39.127  29.303  29.359  1.00  0.00     0.049 A 
ATOM     43  N   UNL A   1      39.401  30.337  32.157  1.00  0.00    -0.248 NA
ATOM     44  C   UNL A   1      37.456  31.588  31.834  1.00  0.00     0.031 C 
ATOM     45  C   UNL A   1      39.048  28.788  27.992  1.00  0.00     0.029 A 
ATOM     46  N   UNL A   1      40.288  28.766  29.853  1.00  0.00    -0.354 N 
ATOM     47  C   UNL A   1      39.130  31.057  33.312  1.00  0.00     0.074 A 
ATOM     48  C   UNL A   1      37.937  31.839  33.046  1.00  0.00     0.031 C 
ATOM     49  C   UNL A   1      40.106  27.999  27.760  1.00  0.00     0.029 A 
ATOM     50  C   UNL A   1      40.952  27.975  28.950  1.00  0.00     0.049 A 
ATOM     51  H   UNL A   1      40.613  28.933  30.767  1.00  0.00     0.167 HD
ATOM     52  C   UNL A   1      39.806  31.051  34.487  1.00  0.00     0.037 A 
ATOM     53  C   UNL A   1      42.113  27.304  29.065  1.00  0.00     0.037 A 
ATOM     54  C   UNL A   1      41.013  30.301  34.732  1.00  0.00     0.049 A 
ATOM     55  C   UNL A   1      42.872  27.356  30.359  1.00  0.00     0.074 A 
ATOM     56  C   UNL A   1      41.756  30.216  35.899  1.00  0.00     0.029 A 
ATOM     57  N   UNL A   1      41.668  29.519  33.790  1.00  0.00    -0.354 N 
ATOM     58  N   UNL A   1      42.571  27.987  31.467  1.00  0.00    -0.248 NA
ATOM     59  C   UNL A   1      44.126  26.594  30.421  1.00  0.00     0.031 C 
ATOM     60  C   UNL A   1      42.883  29.427  35.648  1.00  0.00     0.029 A 
ATOM     61  C   UNL A   1      42.816  28.969  34.342  1.00  0.00     0.049 A 
ATOM     62  H   UNL A   1      41.363  29.377  32.864  1.00  0.00     0.167 HD
ATOM     63  C   UNL A   1      43.582  27.681  32.366  1.00  0.00     0.074 A 
ATOM     64  C   UNL A   1      44.499  26.797  31.677  1.00  0.00     0.031 C 
ATOM     65  C   UNL A   1      43.731  28.095  33.649  1.00  0.00     0.037 A 
BRANCH  52  66
ATOM     66  C   UNL A   1      39.252  31.883  35.610  1.00  0.00     0.064 A 
ATOM     67  C   UNL A   1      38.352  31.341  36.541  1.00  0.00     0.173 A 
ATOM     68  C   UNL A   1      39.667  33.209  35.796  1.00  0.00     0.173 A 
ATOM     69  F   UNL A   1      37.917  30.079  36.403  1.00  0.00    -0.203 F 
ATOM     70  C   UNL A   1      37.872  32.104  37.602  1.00  0.00     0.198 A 
ATOM     71  C   UNL A   1      39.206  33.960  36.875  1.00  0.00     0.198 A 
ATOM     72  F   UNL A   1      40.532  33.774  34.940  1.00  0.00    -0.203 F 
ATOM     73  F   UNL A   1      36.982  31.576  38.454  1.00  0.00    -0.200 F 
ATOM     74  C   UNL A   1      38.305  33.410  37.773  1.00  0.00     0.200 A 
ATOM     75  F   UNL A   1      39.636  35.219  37.046  1.00  0.00    -0.200 F 
ATOM     76  F   UNL A   1      37.849  34.139  38.800  1.00  0.00    -0.200 F 
ENDBRANCH  52  66
BRANCH  53  77
ATOM     77  C   UNL A   1      42.588  26.482  27.923  1.00  0.00     0.064 A 
ATOM     78  C   UNL A   1      43.410  27.043  26.938  1.00  0.00     0.173 A 
ATOM     79  C   UNL A   1      42.285  25.117  27.828  1.00  0.00     0.173 A 
ATOM     80  F   UNL A   1      43.712  28.349  26.982  1.00  0.00    -0.203 F 
ATOM     81  C   UNL A   1      43.914  26.267  25.896  1.00  0.00     0.198 A 
ATOM     82  C   UNL A   1      42.808  24.337  26.799  1.00  0.00     0.198 A 
ATOM     83  F   UNL A   1      41.508  24.534  28.754  1.00  0.00    -0.203 F 
ATOM     84  F   UNL A   1      44.683  26.832  24.956  1.00  0.00    -0.200 F 
ATOM     85  C   UNL A   1      43.621  24.913  25.834  1.00  0.00     0.200 A 
ATOM     86  F   UNL A   1      42.539  23.025  26.752  1.00  0.00    -0.200 F 
ATOM     87  F   UNL A   1      44.124  24.163  24.844  1.00  0.00    -0.200 F 
ENDBRANCH  53  77
BRANCH  65  88
ATOM     88  C   UNL A   1      44.920  27.576  34.406  1.00  0.00     0.064 A 
ATOM     89  C   UNL A   1      44.866  26.379  35.135  1.00  0.00     0.173 A 
ATOM     90  C   UNL A   1      46.140  28.269  34.373  1.00  0.00     0.173 A 
ATOM     91  F   UNL A   1      43.720  25.687  35.212  1.00  0.00    -0.203 F 
ATOM     92  C   UNL A   1      45.982  25.908  35.823  1.00  0.00     0.198 A 
ATOM     93  C   UNL A   1      47.262  27.781  35.037  1.00  0.00     0.198 A 
ATOM     94  F   UNL A   1      46.248  29.417  33.687  1.00  0.00    -0.203 F 
ATOM     95  F   UNL A   1      45.894  24.788  36.553  1.00  0.00    -0.200 F 
ATOM     96  C   UNL A   1      47.181  26.605  35.768  1.00  0.00     0.200 A 
ATOM     97  F   UNL A   1      48.423  28.448  34.972  1.00  0.00    -0.200 F 
ATOM     98  F   UNL A   1      48.254  26.147  36.425  1.00  0.00    -0.200 F 
ENDBRANCH  65  88
ENDBRANCH  39  40
ENDBRANCH  32  34
ENDBRANCH  31  32
ENDBRANCH  30  31
ENDBRANCH  29  30
ENDBRANCH   1  29
TORSDOF 16
ENDMDL
