MODEL 1
REMARK VINA RESULT:     -12.7      0.000      0.000
REMARK SMILES O=C(OCCOCCOC(=O)[C@@H](Cc1c[nH]c2ccccc12)NC(=O)c1ccc(F)cc1F)c1ccc(-c2c3nc(c(-c4c(F)c(F)c(F)c(F)c4F)c4ccc([nH]4)c(-c4c(F)c(F)c(F)c(F)c4F)c4nc(c(-c5c(F)c(F)c(F)c(F)c5F)c5ccc2[nH]5)C=C4)C=C3)cc1
REMARK SMILES IDX 6 1 5 2 4 3 3 4 2 5 1 6 34 7 35 8 96 9 36 10 95 11 37 12
REMARK SMILES IDX 38 13 39 14 89 15 40 16 94 17 88 18 90 19 41 20 93 21 87 22
REMARK SMILES IDX 86 23 42 25 74 26 54 27 73 28 55 29 58 30 72 31 91 32 56 33
REMARK SMILES IDX 57 34 71 36 92 37 59 38 43 39 44 40 52 41 45 42 46 43 50 44
REMARK SMILES IDX 53 45 47 46 48 47 51 48 49 49 75 50 76 51 84 52 77 53 78 54
REMARK SMILES IDX 82 55 85 56 79 57 80 58 83 59 81 60 60 61 61 62 69 63 62 64
REMARK SMILES IDX 63 65 67 66 70 67 64 68 65 69 68 70 66 71 7 72 8 73 9 74
REMARK SMILES IDX 10 75 11 76 12 77 13 78 14 79 15 80 22 81 16 82 17 83 21 84
REMARK SMILES IDX 18 86 20 87 19 88 23 89 24 90 25 92 26 93 27 94 32 95 28 96
REMARK SMILES IDX 31 97 33 98 29 99 30 100
REMARK H PARENT 90 24 58 35 16 85 23 91
REMARK Flexibility Score: inf
ROOT
ATOM      1  O   UNL A   1      31.722  29.332  26.931  1.00  0.00    -0.374 OA
ENDROOT
BRANCH   1   2
ATOM      2  C   UNL A   1      32.423  30.538  26.623  1.00  0.00     0.202 C 
BRANCH   2   3
ATOM      3  C   UNL A   1      31.704  31.863  26.931  1.00  0.00     0.261 C 
BRANCH   3   4
ATOM      4  O   UNL A   1      32.625  32.971  26.977  1.00  0.00    -0.460 OA
BRANCH   4   5
ATOM      5  C   UNL A   1      33.238  33.500  28.066  1.00  0.00     0.338 C 
ATOM      6  O   UNL A   1      32.703  34.437  28.657  1.00  0.00    -0.246 OA
BRANCH   5   7
ATOM      7  C   UNL A   1      34.533  32.979  28.588  1.00  0.00     0.060 A 
ATOM      8  C   UNL A   1      34.690  31.695  29.093  1.00  0.00     0.016 A 
ATOM      9  C   UNL A   1      35.671  33.797  28.520  1.00  0.00     0.016 A 
ATOM     10  C   UNL A   1      35.878  31.252  29.620  1.00  0.00     0.010 A 
ATOM     11  C   UNL A   1      36.910  33.335  28.985  1.00  0.00     0.010 A 
ATOM     12  C   UNL A   1      37.001  32.061  29.555  1.00  0.00    -0.014 A 
BRANCH  12  13
ATOM     13  C   UNL A   1      38.191  31.508  30.215  1.00  0.00     0.031 A 
ATOM     14  C   UNL A   1      38.333  31.715  31.687  1.00  0.00     0.074 A 
ATOM     15  C   UNL A   1      38.916  30.593  29.544  1.00  0.00     0.049 A 
ATOM     16  N   UNL A   1      39.220  31.222  32.504  1.00  0.00    -0.248 NA
ATOM     17  C   UNL A   1      37.318  32.566  32.334  1.00  0.00     0.031 C 
ATOM     18  C   UNL A   1      38.682  30.204  28.147  1.00  0.00     0.029 A 
ATOM     19  N   UNL A   1      39.911  29.753  29.959  1.00  0.00    -0.354 N 
ATOM     20  C   UNL A   1      38.899  31.735  33.752  1.00  0.00     0.074 A 
ATOM     21  C   UNL A   1      37.724  32.560  33.594  1.00  0.00     0.031 C 
ATOM     22  C   UNL A   1      39.452  29.149  27.851  1.00  0.00     0.029 A 
ATOM     23  C   UNL A   1      40.303  28.853  28.996  1.00  0.00     0.049 A 
ATOM     24  H   UNL A   1      40.309  29.790  30.859  1.00  0.00     0.167 HD
ATOM     25  C   UNL A   1      39.555  31.539  34.915  1.00  0.00     0.037 A 
ATOM     26  C   UNL A   1      41.264  27.913  29.039  1.00  0.00     0.037 A 
ATOM     27  C   UNL A   1      40.712  30.695  35.023  1.00  0.00     0.049 A 
ATOM     28  C   UNL A   1      42.047  27.788  30.316  1.00  0.00     0.074 A 
ATOM     29  C   UNL A   1      41.537  30.489  36.110  1.00  0.00     0.029 A 
ATOM     30  N   UNL A   1      41.199  29.905  33.987  1.00  0.00    -0.354 N 
ATOM     31  N   UNL A   1      41.836  28.381  31.468  1.00  0.00    -0.248 NA
ATOM     32  C   UNL A   1      43.219  26.908  30.295  1.00  0.00     0.031 C 
ATOM     33  C   UNL A   1      42.550  29.609  35.717  1.00  0.00     0.029 A 
ATOM     34  C   UNL A   1      42.329  29.227  34.401  1.00  0.00     0.049 A 
ATOM     35  H   UNL A   1      40.798  29.840  33.090  1.00  0.00     0.167 HD
ATOM     36  C   UNL A   1      42.850  27.958  32.309  1.00  0.00     0.074 A 
ATOM     37  C   UNL A   1      43.663  27.033  31.541  1.00  0.00     0.031 C 
ATOM     38  C   UNL A   1      43.100  28.311  33.594  1.00  0.00     0.037 A 
BRANCH  25  39
ATOM     39  C   UNL A   1      39.095  32.332  36.099  1.00  0.00     0.064 A 
ATOM     40  C   UNL A   1      38.203  31.756  37.017  1.00  0.00     0.173 A 
ATOM     41  C   UNL A   1      39.564  33.627  36.363  1.00  0.00     0.173 A 
ATOM     42  F   UNL A   1      37.738  30.514  36.819  1.00  0.00    -0.203 F 
ATOM     43  C   UNL A   1      37.798  32.447  38.156  1.00  0.00     0.198 A 
ATOM     44  C   UNL A   1      39.176  34.306  37.516  1.00  0.00     0.198 A 
ATOM     45  F   UNL A   1      40.448  34.206  35.537  1.00  0.00    -0.203 F 
ATOM     46  F   UNL A   1      36.947  31.874  39.018  1.00  0.00    -0.200 F 
ATOM     47  C   UNL A   1      38.291  33.718  38.409  1.00  0.00     0.200 A 
ATOM     48  F   UNL A   1      39.682  35.519  37.780  1.00  0.00    -0.200 F 
ATOM     49  F   UNL A   1      37.930  34.368  39.523  1.00  0.00    -0.200 F 
ENDBRANCH  25  39
BRANCH  26  50
ATOM     50  C   UNL A   1      41.556  27.094  27.833  1.00  0.00     0.064 A 
ATOM     51  C   UNL A   1      41.064  25.782  27.714  1.00  0.00     0.173 A 
ATOM     52  C   UNL A   1      42.372  27.572  26.800  1.00  0.00     0.173 A 
ATOM     53  F   UNL A   1      40.272  25.273  28.669  1.00  0.00    -0.203 F 
ATOM     54  C   UNL A   1      41.410  24.971  26.636  1.00  0.00     0.198 A 
ATOM     55  C   UNL A   1      42.693  26.769  25.704  1.00  0.00     0.198 A 
ATOM     56  F   UNL A   1      42.849  28.825  26.849  1.00  0.00    -0.203 F 
ATOM     57  F   UNL A   1      40.967  23.708  26.581  1.00  0.00    -0.200 F 
ATOM     58  C   UNL A   1      42.223  25.466  25.629  1.00  0.00     0.200 A 
ATOM     59  F   UNL A   1      43.459  27.259  24.719  1.00  0.00    -0.200 F 
ATOM     60  F   UNL A   1      42.553  24.689  24.589  1.00  0.00    -0.200 F 
ENDBRANCH  26  50
BRANCH  38  61
ATOM     61  C   UNL A   1      44.297  27.698  34.248  1.00  0.00     0.064 A 
ATOM     62  C   UNL A   1      45.552  28.315  34.143  1.00  0.00     0.173 A 
ATOM     63  C   UNL A   1      44.218  26.446  34.871  1.00  0.00     0.173 A 
ATOM     64  F   UNL A   1      45.671  29.509  33.545  1.00  0.00    -0.203 F 
ATOM     65  C   UNL A   1      46.694  27.682  34.619  1.00  0.00     0.198 A 
ATOM     66  C   UNL A   1      45.360  25.827  35.367  1.00  0.00     0.198 A 
ATOM     67  F   UNL A   1      43.034  25.829  35.000  1.00  0.00    -0.203 F 
ATOM     68  F   UNL A   1      47.892  28.266  34.470  1.00  0.00    -0.200 F 
ATOM     69  C   UNL A   1      46.598  26.439  35.228  1.00  0.00     0.200 A 
ATOM     70  F   UNL A   1      45.266  24.635  35.971  1.00  0.00    -0.200 F 
ATOM     71  F   UNL A   1      47.702  25.828  35.680  1.00  0.00    -0.200 F 
ENDBRANCH  38  61
ENDBRANCH  12  13
ENDBRANCH   5   7
ENDBRANCH   4   5
ENDBRANCH   3   4
ENDBRANCH   2   3
ENDBRANCH   1   2
BRANCH   1  72
ATOM     72  C   UNL A   1      31.567  28.392  25.860  1.00  0.00     0.202 C 
BRANCH  72  73
ATOM     73  C   UNL A   1      31.175  27.019  26.399  1.00  0.00     0.261 C 
BRANCH  73  74
ATOM     74  O   UNL A   1      31.540  26.041  25.417  1.00  0.00    -0.462 OA
BRANCH  74  75
ATOM     75  C   UNL A   1      31.254  24.758  25.735  1.00  0.00     0.329 C 
ATOM     76  O   UNL A   1      30.454  24.414  26.601  1.00  0.00    -0.250 OA
BRANCH  75  77
ATOM     77  C   UNL A   1      32.112  23.750  24.965  1.00  0.00     0.197 C 
BRANCH  77  78
ATOM     78  C   UNL A   1      31.674  22.275  24.794  1.00  0.00     0.074 C 
BRANCH  78  79
ATOM     79  C   UNL A   1      32.714  21.200  24.904  1.00  0.00    -0.020 A 
ATOM     80  C   UNL A   1      33.779  21.164  25.788  1.00  0.00     0.087 A 
ATOM     81  C   UNL A   1      32.817  20.017  24.110  1.00  0.00     0.003 A 
ATOM     82  N   UNL A   1      34.393  19.946  25.684  1.00  0.00    -0.361 N 
ATOM     83  C   UNL A   1      33.821  19.224  24.666  1.00  0.00     0.046 A 
ATOM     84  C   UNL A   1      32.125  19.533  22.985  1.00  0.00     0.010 A 
ATOM     85  H   UNL A   1      35.134  19.634  26.251  1.00  0.00     0.166 HD
ATOM     86  C   UNL A   1      34.120  17.941  24.197  1.00  0.00     0.026 A 
ATOM     87  C   UNL A   1      32.416  18.258  22.495  1.00  0.00     0.001 A 
ATOM     88  C   UNL A   1      33.389  17.470  23.103  1.00  0.00     0.002 A 
ENDBRANCH  78  79
ENDBRANCH  77  78
BRANCH  77  89
ATOM     89  N   UNL A   1      32.516  24.383  23.706  1.00  0.00    -0.338 N 
ATOM     90  C   UNL A   1      33.775  24.610  23.218  1.00  0.00     0.254 C 
ATOM     91  H   UNL A   1      31.777  24.687  23.131  1.00  0.00     0.164 HD
ATOM     92  O   UNL A   1      33.922  25.323  22.226  1.00  0.00    -0.269 OA
BRANCH  90  93
ATOM     93  C   UNL A   1      34.947  23.986  23.855  1.00  0.00     0.075 A 
ATOM     94  C   UNL A   1      35.645  22.947  23.220  1.00  0.00     0.020 A 
ATOM     95  C   UNL A   1      35.390  24.467  25.088  1.00  0.00     0.138 A 
ATOM     96  C   UNL A   1      36.743  22.364  23.856  1.00  0.00     0.040 A 
ATOM     97  C   UNL A   1      36.498  23.902  25.712  1.00  0.00     0.079 A 
ATOM     98  F   UNL A   1      34.748  25.466  25.709  1.00  0.00    -0.206 F 
ATOM     99  C   UNL A   1      37.158  22.848  25.093  1.00  0.00     0.126 A 
ATOM    100  F   UNL A   1      38.216  22.290  25.694  1.00  0.00    -0.207 F 
ENDBRANCH  90  93
ENDBRANCH  77  89
ENDBRANCH  75  77
ENDBRANCH  74  75
ENDBRANCH  73  74
ENDBRANCH  72  73
ENDBRANCH   1  72
TORSDOF 18
ENDMDL
MODEL 2
REMARK VINA RESULT:     -12.6      1.420      2.235
REMARK SMILES O=C(OCCOCCOC(=O)[C@@H](Cc1c[nH]c2ccccc12)NC(=O)c1ccc(F)cc1F)c1ccc(-c2c3nc(c(-c4c(F)c(F)c(F)c(F)c4F)c4ccc([nH]4)c(-c4c(F)c(F)c(F)c(F)c4F)c4nc(c(-c5c(F)c(F)c(F)c(F)c5F)c5ccc2[nH]5)C=C4)C=C3)cc1
REMARK SMILES IDX 6 1 5 2 4 3 3 4 2 5 1 6 34 7 35 8 96 9 36 10 95 11 37 12
REMARK SMILES IDX 38 13 39 14 89 15 40 16 94 17 88 18 90 19 41 20 93 21 87 22
REMARK SMILES IDX 86 23 42 25 74 26 54 27 73 28 55 29 58 30 72 31 91 32 56 33
REMARK SMILES IDX 57 34 71 36 92 37 59 38 43 39 44 40 52 41 45 42 46 43 50 44
REMARK SMILES IDX 53 45 47 46 48 47 51 48 49 49 75 50 76 51 84 52 77 53 78 54
REMARK SMILES IDX 82 55 85 56 79 57 80 58 83 59 81 60 60 61 61 62 69 63 62 64
REMARK SMILES IDX 63 65 67 66 70 67 64 68 65 69 68 70 66 71 7 72 8 73 9 74
REMARK SMILES IDX 10 75 11 76 12 77 13 78 14 79 15 80 22 81 16 82 17 83 21 84
REMARK SMILES IDX 18 86 20 87 19 88 23 89 24 90 25 92 26 93 27 94 32 95 28 96
REMARK SMILES IDX 31 97 33 98 29 99 30 100
REMARK H PARENT 90 24 58 35 16 85 23 91
REMARK Flexibility Score: inf
ROOT
ATOM      1  O   UNL A   1      30.890  29.423  23.606  1.00  0.00    -0.374 OA
ENDROOT
BRANCH   1   2
ATOM      2  C   UNL A   1      31.096  29.964  24.912  1.00  0.00     0.202 C 
BRANCH   2   3
ATOM      3  C   UNL A   1      32.481  29.753  25.548  1.00  0.00     0.261 C 
BRANCH   3   4
ATOM      4  O   UNL A   1      32.546  30.301  26.879  1.00  0.00    -0.460 OA
BRANCH   4   5
ATOM      5  C   UNL A   1      33.343  31.304  27.329  1.00  0.00     0.338 C 
ATOM      6  O   UNL A   1      32.930  32.462  27.283  1.00  0.00    -0.246 OA
BRANCH   5   7
ATOM      7  C   UNL A   1      34.699  31.056  27.895  1.00  0.00     0.060 A 
ATOM      8  C   UNL A   1      35.136  29.805  28.310  1.00  0.00     0.016 A 
ATOM      9  C   UNL A   1      35.610  32.122  27.965  1.00  0.00     0.016 A 
ATOM     10  C   UNL A   1      36.369  29.608  28.879  1.00  0.00     0.010 A 
ATOM     11  C   UNL A   1      36.901  31.924  28.476  1.00  0.00     0.010 A 
ATOM     12  C   UNL A   1      37.268  30.661  28.951  1.00  0.00    -0.014 A 
BRANCH  12  13
ATOM     13  C   UNL A   1      38.523  30.345  29.645  1.00  0.00     0.031 A 
ATOM     14  C   UNL A   1      38.653  30.757  31.074  1.00  0.00     0.074 A 
ATOM     15  C   UNL A   1      39.348  29.446  29.077  1.00  0.00     0.049 A 
ATOM     16  N   UNL A   1      39.603  30.484  31.925  1.00  0.00    -0.248 NA
ATOM     17  C   UNL A   1      37.548  31.555  31.635  1.00  0.00     0.031 C 
ATOM     18  C   UNL A   1      39.149  28.854  27.747  1.00  0.00     0.029 A 
ATOM     19  N   UNL A   1      40.443  28.793  29.569  1.00  0.00    -0.354 N 
ATOM     20  C   UNL A   1      39.234  31.112  33.104  1.00  0.00     0.074 A 
ATOM     21  C   UNL A   1      37.965  31.762  32.873  1.00  0.00     0.031 C 
ATOM     22  C   UNL A   1      40.041  27.871  27.568  1.00  0.00     0.029 A 
ATOM     23  C   UNL A   1      40.933  27.830  28.719  1.00  0.00     0.049 A 
ATOM     24  H   UNL A   1      40.843  28.994  30.446  1.00  0.00     0.167 HD
ATOM     25  C   UNL A   1      39.921  31.148  34.266  1.00  0.00     0.037 A 
ATOM     26  C   UNL A   1      42.003  27.026  28.856  1.00  0.00     0.037 A 
ATOM     27  C   UNL A   1      41.174  30.471  34.450  1.00  0.00     0.049 A 
ATOM     28  C   UNL A   1      42.809  27.163  30.117  1.00  0.00     0.074 A 
ATOM     29  C   UNL A   1      42.030  30.509  35.533  1.00  0.00     0.029 A 
ATOM     30  N   UNL A   1      41.744  29.619  33.510  1.00  0.00    -0.354 N 
ATOM     31  N   UNL A   1      42.538  27.870  31.190  1.00  0.00    -0.248 NA
ATOM     32  C   UNL A   1      44.080  26.436  30.178  1.00  0.00     0.031 C 
ATOM     33  C   UNL A   1      43.139  29.714  35.229  1.00  0.00     0.029 A 
ATOM     34  C   UNL A   1      42.953  29.141  33.978  1.00  0.00     0.049 A 
ATOM     35  H   UNL A   1      41.345  29.390  32.640  1.00  0.00     0.167 HD
ATOM     36  C   UNL A   1      43.605  27.685  32.051  1.00  0.00     0.074 A 
ATOM     37  C   UNL A   1      44.518  26.773  31.386  1.00  0.00     0.031 C 
ATOM     38  C   UNL A   1      43.823  28.229  33.274  1.00  0.00     0.037 A 
BRANCH  25  39
ATOM     39  C   UNL A   1      39.379  32.027  35.351  1.00  0.00     0.064 A 
ATOM     40  C   UNL A   1      38.553  31.476  36.343  1.00  0.00     0.173 A 
ATOM     41  C   UNL A   1      39.707  33.386  35.450  1.00  0.00     0.173 A 
ATOM     42  F   UNL A   1      38.223  30.176  36.302  1.00  0.00    -0.203 F 
ATOM     43  C   UNL A   1      38.077  32.253  37.395  1.00  0.00     0.198 A 
ATOM     44  C   UNL A   1      39.249  34.156  36.518  1.00  0.00     0.198 A 
ATOM     45  F   UNL A   1      40.525  33.951  34.549  1.00  0.00    -0.203 F 
ATOM     46  F   UNL A   1      37.291  31.703  38.330  1.00  0.00    -0.200 F 
ATOM     47  C   UNL A   1      38.432  33.590  37.486  1.00  0.00     0.200 A 
ATOM     48  F   UNL A   1      39.624  35.438  36.628  1.00  0.00    -0.200 F 
ATOM     49  F   UNL A   1      38.003  34.329  38.519  1.00  0.00    -0.200 F 
ENDBRANCH  25  39
BRANCH  26  50
ATOM     50  C   UNL A   1      42.381  26.099  27.756  1.00  0.00     0.064 A 
ATOM     51  C   UNL A   1      43.351  26.463  26.806  1.00  0.00     0.173 A 
ATOM     52  C   UNL A   1      41.752  24.859  27.592  1.00  0.00     0.173 A 
ATOM     53  F   UNL A   1      43.992  27.636  26.916  1.00  0.00    -0.203 F 
ATOM     54  C   UNL A   1      43.643  25.646  25.716  1.00  0.00     0.198 A 
ATOM     55  C   UNL A   1      42.068  24.027  26.517  1.00  0.00     0.198 A 
ATOM     56  F   UNL A   1      40.836  24.449  28.482  1.00  0.00    -0.203 F 
ATOM     57  F   UNL A   1      44.534  26.049  24.800  1.00  0.00    -0.200 F 
ATOM     58  C   UNL A   1      43.003  24.426  25.573  1.00  0.00     0.200 A 
ATOM     59  F   UNL A   1      41.464  22.836  26.394  1.00  0.00    -0.200 F 
ATOM     60  F   UNL A   1      43.287  23.637  24.528  1.00  0.00    -0.200 F 
ENDBRANCH  26  50
BRANCH  38  61
ATOM     61  C   UNL A   1      45.093  27.854  33.969  1.00  0.00     0.064 A 
ATOM     62  C   UNL A   1      46.258  28.608  33.766  1.00  0.00     0.173 A 
ATOM     63  C   UNL A   1      45.179  26.686  34.736  1.00  0.00     0.173 A 
ATOM     64  F   UNL A   1      46.218  29.729  33.029  1.00  0.00    -0.203 F 
ATOM     65  C   UNL A   1      47.475  28.187  34.287  1.00  0.00     0.198 A 
ATOM     66  C   UNL A   1      46.395  26.280  35.276  1.00  0.00     0.198 A 
ATOM     67  F   UNL A   1      44.085  25.944  34.962  1.00  0.00    -0.203 F 
ATOM     68  F   UNL A   1      48.586  28.895  34.045  1.00  0.00    -0.200 F 
ATOM     69  C   UNL A   1      47.543  27.023  35.040  1.00  0.00     0.200 A 
ATOM     70  F   UNL A   1      46.458  25.166  36.017  1.00  0.00    -0.200 F 
ATOM     71  F   UNL A   1      48.719  26.615  35.536  1.00  0.00    -0.200 F 
ENDBRANCH  38  61
ENDBRANCH  12  13
ENDBRANCH   5   7
ENDBRANCH   4   5
ENDBRANCH   3   4
ENDBRANCH   2   3
ENDBRANCH   1   2
BRANCH   1  72
ATOM     72  C   UNL A   1      29.538  29.389  23.134  1.00  0.00     0.202 C 
BRANCH  72  73
ATOM     73  C   UNL A   1      28.998  27.961  23.144  1.00  0.00     0.261 C 
BRANCH  73  74
ATOM     74  O   UNL A   1      30.117  27.068  23.080  1.00  0.00    -0.462 OA
BRANCH  74  75
ATOM     75  C   UNL A   1      30.070  26.011  23.922  1.00  0.00     0.329 C 
ATOM     76  O   UNL A   1      29.339  25.933  24.906  1.00  0.00    -0.250 OA
BRANCH  75  77
ATOM     77  C   UNL A   1      31.108  24.937  23.585  1.00  0.00     0.197 C 
BRANCH  77  78
ATOM     78  C   UNL A   1      30.712  23.449  23.422  1.00  0.00     0.074 C 
BRANCH  78  79
ATOM     79  C   UNL A   1      31.630  22.398  23.970  1.00  0.00    -0.020 A 
ATOM     80  C   UNL A   1      32.138  21.304  23.290  1.00  0.00     0.087 A 
ATOM     81  C   UNL A   1      32.143  22.310  25.301  1.00  0.00     0.003 A 
ATOM     82  N   UNL A   1      33.061  20.683  24.086  1.00  0.00    -0.361 N 
ATOM     83  C   UNL A   1      33.085  21.282  25.321  1.00  0.00     0.046 A 
ATOM     84  C   UNL A   1      31.912  23.034  26.485  1.00  0.00     0.010 A 
ATOM     85  H   UNL A   1      33.623  19.922  23.816  1.00  0.00     0.166 HD
ATOM     86  C   UNL A   1      33.861  20.988  26.447  1.00  0.00     0.026 A 
ATOM     87  C   UNL A   1      32.670  22.748  27.623  1.00  0.00     0.001 A 
ATOM     88  C   UNL A   1      33.640  21.749  27.597  1.00  0.00     0.002 A 
ENDBRANCH  78  79
ENDBRANCH  77  78
BRANCH  77  89
ATOM     89  N   UNL A   1      31.925  25.443  22.478  1.00  0.00    -0.338 N 
ATOM     90  C   UNL A   1      33.287  25.555  22.391  1.00  0.00     0.254 C 
ATOM     91  H   UNL A   1      31.423  25.743  21.686  1.00  0.00     0.164 HD
ATOM     92  O   UNL A   1      33.786  26.177  21.454  1.00  0.00    -0.269 OA
BRANCH  90  93
ATOM     93  C   UNL A   1      34.156  24.915  23.393  1.00  0.00     0.075 A 
ATOM     94  C   UNL A   1      34.922  23.785  23.068  1.00  0.00     0.020 A 
ATOM     95  C   UNL A   1      34.246  25.470  24.670  1.00  0.00     0.138 A 
ATOM     96  C   UNL A   1      35.724  23.191  24.044  1.00  0.00     0.040 A 
ATOM     97  C   UNL A   1      35.062  24.892  25.638  1.00  0.00     0.079 A 
ATOM     98  F   UNL A   1      33.534  26.556  25.003  1.00  0.00    -0.206 F 
ATOM     99  C   UNL A   1      35.786  23.751  25.317  1.00  0.00     0.126 A 
ATOM    100  F   UNL A   1      36.564  23.181  26.245  1.00  0.00    -0.207 F 
ENDBRANCH  90  93
ENDBRANCH  77  89
ENDBRANCH  75  77
ENDBRANCH  74  75
ENDBRANCH  73  74
ENDBRANCH  72  73
ENDBRANCH   1  72
TORSDOF 18
ENDMDL
MODEL 3
REMARK VINA RESULT:     -12.4      4.226      9.727
REMARK SMILES O=C(OCCOCCOC(=O)[C@@H](Cc1c[nH]c2ccccc12)NC(=O)c1ccc(F)cc1F)c1ccc(-c2c3nc(c(-c4c(F)c(F)c(F)c(F)c4F)c4ccc([nH]4)c(-c4c(F)c(F)c(F)c(F)c4F)c4nc(c(-c5c(F)c(F)c(F)c(F)c5F)c5ccc2[nH]5)C=C4)C=C3)cc1
REMARK SMILES IDX 6 1 5 2 4 3 3 4 2 5 1 6 34 7 35 8 96 9 36 10 95 11 37 12
REMARK SMILES IDX 38 13 39 14 89 15 40 16 94 17 88 18 90 19 41 20 93 21 87 22
REMARK SMILES IDX 86 23 42 25 74 26 54 27 73 28 55 29 58 30 72 31 91 32 56 33
REMARK SMILES IDX 57 34 71 36 92 37 59 38 43 39 44 40 52 41 45 42 46 43 50 44
REMARK SMILES IDX 53 45 47 46 48 47 51 48 49 49 75 50 76 51 84 52 77 53 78 54
REMARK SMILES IDX 82 55 85 56 79 57 80 58 83 59 81 60 60 61 61 62 69 63 62 64
REMARK SMILES IDX 63 65 67 66 70 67 64 68 65 69 68 70 66 71 7 72 8 73 9 74
REMARK SMILES IDX 10 75 11 76 12 77 13 78 14 79 15 80 22 81 16 82 17 83 21 84
REMARK SMILES IDX 18 86 20 87 19 88 23 89 24 90 25 92 26 93 27 94 32 95 28 96
REMARK SMILES IDX 31 97 33 98 29 99 30 100
REMARK H PARENT 90 24 58 35 16 85 23 91
REMARK Flexibility Score: inf
ROOT
ATOM      1  O   UNL A   1      34.270  21.237  25.425  1.00  0.00    -0.374 OA
ENDROOT
BRANCH   1   2
ATOM      2  C   UNL A   1      35.329  20.387  24.982  1.00  0.00     0.202 C 
BRANCH   2   3
ATOM      3  C   UNL A   1      36.655  21.064  24.597  1.00  0.00     0.261 C 
BRANCH   3   4
ATOM      4  O   UNL A   1      37.345  21.582  25.752  1.00  0.00    -0.460 OA
BRANCH   4   5
ATOM      5  C   UNL A   1      38.682  21.607  25.984  1.00  0.00     0.338 C 
ATOM      6  O   UNL A   1      39.361  20.631  25.669  1.00  0.00    -0.246 OA
BRANCH   5   7
ATOM      7  C   UNL A   1      39.367  22.782  26.592  1.00  0.00     0.060 A 
ATOM      8  C   UNL A   1      38.971  24.095  26.372  1.00  0.00     0.016 A 
ATOM      9  C   UNL A   1      40.434  22.562  27.478  1.00  0.00     0.016 A 
ATOM     10  C   UNL A   1      39.650  25.165  26.898  1.00  0.00     0.010 A 
ATOM     11  C   UNL A   1      41.092  23.642  28.083  1.00  0.00     0.010 A 
ATOM     12  C   UNL A   1      40.704  24.948  27.771  1.00  0.00    -0.014 A 
BRANCH  12  13
ATOM     13  C   UNL A   1      41.396  26.168  28.209  1.00  0.00     0.031 A 
ATOM     14  C   UNL A   1      42.746  26.448  27.637  1.00  0.00     0.074 A 
ATOM     15  C   UNL A   1      40.671  27.111  28.839  1.00  0.00     0.049 A 
ATOM     16  N   UNL A   1      43.491  27.510  27.771  1.00  0.00    -0.248 NA
ATOM     17  C   UNL A   1      43.324  25.409  26.766  1.00  0.00     0.031 C 
ATOM     18  C   UNL A   1      39.267  26.955  29.241  1.00  0.00     0.029 A 
ATOM     19  N   UNL A   1      40.963  28.408  29.156  1.00  0.00    -0.354 N 
ATOM     20  C   UNL A   1      44.641  27.248  27.042  1.00  0.00     0.074 A 
ATOM     21  C   UNL A   1      44.492  25.941  26.446  1.00  0.00     0.031 C 
ATOM     22  C   UNL A   1      38.801  28.134  29.672  1.00  0.00     0.029 A 
ATOM     23  C   UNL A   1      39.893  29.099  29.673  1.00  0.00     0.049 A 
ATOM     24  H   UNL A   1      41.854  28.809  29.026  1.00  0.00     0.167 HD
ATOM     25  C   UNL A   1      45.728  28.039  26.910  1.00  0.00     0.037 A 
ATOM     26  C   UNL A   1      39.823  30.366  30.120  1.00  0.00     0.037 A 
ATOM     27  C   UNL A   1      45.822  29.340  27.511  1.00  0.00     0.049 A 
ATOM     28  C   UNL A   1      41.078  31.188  30.055  1.00  0.00     0.074 A 
ATOM     29  C   UNL A   1      46.899  30.202  27.550  1.00  0.00     0.029 A 
ATOM     30  N   UNL A   1      44.774  29.966  28.177  1.00  0.00    -0.354 N 
ATOM     31  N   UNL A   1      42.224  30.892  29.487  1.00  0.00    -0.248 NA
ATOM     32  C   UNL A   1      41.055  32.494  30.722  1.00  0.00     0.031 C 
ATOM     33  C   UNL A   1      46.516  31.332  28.280  1.00  0.00     0.029 A 
ATOM     34  C   UNL A   1      45.186  31.197  28.653  1.00  0.00     0.049 A 
ATOM     35  H   UNL A   1      43.872  29.589  28.294  1.00  0.00     0.167 HD
ATOM     36  C   UNL A   1      43.064  31.964  29.733  1.00  0.00     0.074 A 
ATOM     37  C   UNL A   1      42.284  32.934  30.481  1.00  0.00     0.031 C 
ATOM     38  C   UNL A   1      44.366  32.128  29.390  1.00  0.00     0.037 A 
BRANCH  25  39
ATOM     39  C   UNL A   1      46.907  27.460  26.191  1.00  0.00     0.064 A 
ATOM     40  C   UNL A   1      47.045  27.662  24.808  1.00  0.00     0.173 A 
ATOM     41  C   UNL A   1      47.923  26.760  26.857  1.00  0.00     0.173 A 
ATOM     42  F   UNL A   1      46.108  28.340  24.128  1.00  0.00    -0.203 F 
ATOM     43  C   UNL A   1      48.156  27.183  24.120  1.00  0.00     0.198 A 
ATOM     44  C   UNL A   1      49.046  26.304  26.168  1.00  0.00     0.198 A 
ATOM     45  F   UNL A   1      47.857  26.576  28.183  1.00  0.00    -0.203 F 
ATOM     46  F   UNL A   1      48.264  27.390  22.800  1.00  0.00    -0.200 F 
ATOM     47  C   UNL A   1      49.159  26.513  24.801  1.00  0.00     0.200 A 
ATOM     48  F   UNL A   1      50.034  25.690  26.834  1.00  0.00    -0.200 F 
ATOM     49  F   UNL A   1      50.247  26.085  24.145  1.00  0.00    -0.200 F 
ENDBRANCH  25  39
BRANCH  26  50
ATOM     50  C   UNL A   1      38.556  30.876  30.708  1.00  0.00     0.064 A 
ATOM     51  C   UNL A   1      37.570  31.467  29.899  1.00  0.00     0.173 A 
ATOM     52  C   UNL A   1      38.319  30.838  32.088  1.00  0.00     0.173 A 
ATOM     53  F   UNL A   1      37.739  31.525  28.570  1.00  0.00    -0.203 F 
ATOM     54  C   UNL A   1      36.424  32.036  30.448  1.00  0.00     0.198 A 
ATOM     55  C   UNL A   1      37.155  31.381  32.635  1.00  0.00     0.198 A 
ATOM     56  F   UNL A   1      39.214  30.264  32.906  1.00  0.00    -0.203 F 
ATOM     57  F   UNL A   1      35.530  32.640  29.652  1.00  0.00    -0.200 F 
ATOM     58  C   UNL A   1      36.215  31.991  31.817  1.00  0.00     0.200 A 
ATOM     59  F   UNL A   1      36.944  31.314  33.958  1.00  0.00    -0.200 F 
ATOM     60  F   UNL A   1      35.110  32.533  32.347  1.00  0.00    -0.200 F 
ENDBRANCH  26  50
BRANCH  38  61
ATOM     61  C   UNL A   1      45.026  33.400  29.817  1.00  0.00     0.064 A 
ATOM     62  C   UNL A   1      45.621  33.495  31.084  1.00  0.00     0.173 A 
ATOM     63  C   UNL A   1      44.963  34.550  29.021  1.00  0.00     0.173 A 
ATOM     64  F   UNL A   1      45.692  32.417  31.880  1.00  0.00    -0.203 F 
ATOM     65  C   UNL A   1      46.107  34.711  31.549  1.00  0.00     0.198 A 
ATOM     66  C   UNL A   1      45.472  35.760  29.481  1.00  0.00     0.198 A 
ATOM     67  F   UNL A   1      44.412  34.497  27.799  1.00  0.00    -0.203 F 
ATOM     68  F   UNL A   1      46.631  34.793  32.780  1.00  0.00    -0.200 F 
ATOM     69  C   UNL A   1      46.031  35.842  30.749  1.00  0.00     0.200 A 
ATOM     70  F   UNL A   1      45.414  36.848  28.703  1.00  0.00    -0.200 F 
ATOM     71  F   UNL A   1      46.494  37.014  31.202  1.00  0.00    -0.200 F 
ENDBRANCH  38  61
ENDBRANCH  12  13
ENDBRANCH   5   7
ENDBRANCH   4   5
ENDBRANCH   3   4
ENDBRANCH   2   3
ENDBRANCH   1   2
BRANCH   1  72
ATOM     72  C   UNL A   1      32.966  20.959  24.900  1.00  0.00     0.202 C 
BRANCH  72  73
ATOM     73  C   UNL A   1      31.899  21.741  25.663  1.00  0.00     0.261 C 
BRANCH  73  74
ATOM     74  O   UNL A   1      32.554  22.795  26.379  1.00  0.00    -0.462 OA
BRANCH  74  75
ATOM     75  C   UNL A   1      31.784  23.864  26.681  1.00  0.00     0.329 C 
ATOM     76  O   UNL A   1      30.672  23.801  27.200  1.00  0.00    -0.250 OA
BRANCH  75  77
ATOM     77  C   UNL A   1      32.397  25.188  26.215  1.00  0.00     0.197 C 
BRANCH  77  78
ATOM     78  C   UNL A   1      32.069  26.527  26.920  1.00  0.00     0.074 C 
BRANCH  78  79
ATOM     79  C   UNL A   1      31.828  27.743  26.077  1.00  0.00    -0.020 A 
ATOM     80  C   UNL A   1      32.348  29.010  26.282  1.00  0.00     0.087 A 
ATOM     81  C   UNL A   1      31.006  27.834  24.912  1.00  0.00     0.003 A 
ATOM     82  N   UNL A   1      32.027  29.793  25.207  1.00  0.00    -0.361 N 
ATOM     83  C   UNL A   1      31.210  29.096  24.353  1.00  0.00     0.046 A 
ATOM     84  C   UNL A   1      30.128  26.946  24.264  1.00  0.00     0.010 A 
ATOM     85  H   UNL A   1      32.336  30.718  25.067  1.00  0.00     0.166 HD
ATOM     86  C   UNL A   1      30.635  29.488  23.139  1.00  0.00     0.026 A 
ATOM     87  C   UNL A   1      29.537  27.323  23.056  1.00  0.00     0.001 A 
ATOM     88  C   UNL A   1      29.800  28.571  22.497  1.00  0.00     0.002 A 
ENDBRANCH  78  79
ENDBRANCH  77  78
BRANCH  77  89
ATOM     89  N   UNL A   1      33.833  24.969  26.028  1.00  0.00    -0.338 N 
ATOM     90  C   UNL A   1      34.535  24.780  24.867  1.00  0.00     0.254 C 
ATOM     91  H   UNL A   1      34.369  24.956  26.854  1.00  0.00     0.164 HD
ATOM     92  O   UNL A   1      35.712  24.425  24.919  1.00  0.00    -0.269 OA
BRANCH  90  93
ATOM     93  C   UNL A   1      33.899  25.025  23.561  1.00  0.00     0.075 A 
ATOM     94  C   UNL A   1      33.418  23.961  22.782  1.00  0.00     0.020 A 
ATOM     95  C   UNL A   1      33.738  26.339  23.118  1.00  0.00     0.138 A 
ATOM     96  C   UNL A   1      32.835  24.224  21.541  1.00  0.00     0.040 A 
ATOM     97  C   UNL A   1      33.136  26.603  21.891  1.00  0.00     0.079 A 
ATOM     98  F   UNL A   1      34.178  27.372  23.848  1.00  0.00    -0.206 F 
ATOM     99  C   UNL A   1      32.700  25.541  21.110  1.00  0.00     0.126 A 
ATOM    100  F   UNL A   1      32.132  25.786  19.922  1.00  0.00    -0.207 F 
ENDBRANCH  90  93
ENDBRANCH  77  89
ENDBRANCH  75  77
ENDBRANCH  74  75
ENDBRANCH  73  74
ENDBRANCH  72  73
ENDBRANCH   1  72
TORSDOF 18
ENDMDL
