MODEL 1
REMARK VINA RESULT:      -9.8      0.000      0.000
REMARK SMILES CC(C)(C)N(CC(=O)OCCOCCOC(=O)c1ccc(-c2c3nc(c(-c4c(F)c(F)c(F)c(F)c4F)c4ccc([nH]4)c(-c4c(F)c(F)c(F)c(F)c4F)c4nc(c(-c5c(F)c(F)c(F)c(F)c5F)c5ccc2[nH]5)C=C4)C=C3)cc1)C(=O)N(CCO)C1CC1
REMARK SMILES IDX 10 1 9 2 7 3 8 4 6 5 5 6 2 7 1 8 3 9 4 10 81 11 82 12 83 13
REMARK SMILES IDX 84 14 85 15 86 16 87 18 88 19 89 20 11 21 12 22 13 23 14 24
REMARK SMILES IDX 15 25 16 26 17 27 18 28 19 29 80 30 20 31 79 32 21 33 22 34
REMARK SMILES IDX 23 35 73 36 24 37 78 38 72 39 74 40 25 41 77 42 71 43 70 44
REMARK SMILES IDX 26 46 58 47 38 48 57 49 39 50 42 51 56 52 75 53 40 54 41 55
REMARK SMILES IDX 55 57 76 58 43 59 27 60 28 61 36 62 29 63 30 64 34 65 37 66
REMARK SMILES IDX 31 67 32 68 35 69 33 70 59 71 60 72 68 73 61 74 62 75 66 76
REMARK SMILES IDX 69 77 63 78 64 79 67 80 65 81 44 82 45 83 53 84 46 85 47 86
REMARK SMILES IDX 51 87 54 88 48 89 49 90 52 91 50 92
REMARK H PARENT 86 17 74 45 42 56
REMARK Flexibility Score: inf
ROOT
ATOM      1  C   UNL A   1      31.504  26.847  26.851  1.00  0.00     0.261 C 
ENDROOT
BRANCH   1   2
ATOM      2  O   UNL A   1      31.021  26.142  25.678  1.00  0.00    -0.462 OA
BRANCH   2   3
ATOM      3  C   UNL A   1      30.647  24.843  25.833  1.00  0.00     0.325 C 
ATOM      4  O   UNL A   1      30.389  24.334  26.920  1.00  0.00    -0.250 OA
BRANCH   3   5
ATOM      5  C   UNL A   1      30.661  24.016  24.523  1.00  0.00     0.244 C 
BRANCH   5   6
ATOM      6  N   UNL A   1      31.901  23.422  23.966  1.00  0.00    -0.309 N 
BRANCH   6   7
ATOM      7  C   UNL A   1      32.756  24.358  23.084  1.00  0.00     0.037 C 
ATOM      8  C   UNL A   1      33.577  23.652  21.965  1.00  0.00     0.034 C 
ATOM      9  C   UNL A   1      33.812  25.117  23.930  1.00  0.00     0.034 C 
ATOM     10  C   UNL A   1      31.853  25.366  22.319  1.00  0.00     0.034 C 
ENDBRANCH   6   7
BRANCH   6  11
ATOM     11  C   UNL A   1      32.494  22.188  24.288  1.00  0.00     0.321 C 
ATOM     12  O   UNL A   1      31.954  21.167  23.836  1.00  0.00    -0.248 OA
BRANCH  11  13
ATOM     13  N   UNL A   1      33.619  21.985  25.098  1.00  0.00    -0.319 N 
BRANCH  13  14
ATOM     14  C   UNL A   1      35.042  21.723  24.743  1.00  0.00     0.150 C 
BRANCH  14  15
ATOM     15  C   UNL A   1      35.623  20.344  25.115  1.00  0.00     0.177 C 
BRANCH  15  16
ATOM     16  O   UNL A   1      34.786  19.265  24.723  1.00  0.00    -0.395 OA
ATOM     17  H   UNL A   1      34.610  19.321  23.770  1.00  0.00     0.210 HD
ENDBRANCH  15  16
ENDBRANCH  14  15
ENDBRANCH  13  14
BRANCH  13  18
ATOM     18  C   UNL A   1      33.322  21.625  26.523  1.00  0.00     0.087 C 
ATOM     19  C   UNL A   1      34.272  21.850  27.686  1.00  0.00     0.027 C 
ATOM     20  C   UNL A   1      33.019  22.647  27.609  1.00  0.00     0.027 C 
ENDBRANCH  13  18
ENDBRANCH  11  13
ENDBRANCH   6  11
ENDBRANCH   5   6
ENDBRANCH   3   5
ENDBRANCH   2   3
ENDBRANCH   1   2
BRANCH   1  21
ATOM     21  C   UNL A   1      32.200  28.169  26.465  1.00  0.00     0.202 C 
BRANCH  21  22
ATOM     22  O   UNL A   1      31.434  29.348  26.734  1.00  0.00    -0.374 OA
BRANCH  22  23
ATOM     23  C   UNL A   1      31.808  30.438  25.894  1.00  0.00     0.202 C 
BRANCH  23  24
ATOM     24  C   UNL A   1      31.983  31.731  26.648  1.00  0.00     0.261 C 
BRANCH  24  25
ATOM     25  O   UNL A   1      33.048  31.540  27.562  1.00  0.00    -0.460 OA
BRANCH  25  26
ATOM     26  C   UNL A   1      33.744  32.652  27.832  1.00  0.00     0.338 C 
ATOM     27  O   UNL A   1      33.350  33.797  27.919  1.00  0.00    -0.246 OA
BRANCH  26  28
ATOM     28  C   UNL A   1      35.056  32.168  28.258  1.00  0.00     0.060 A 
ATOM     29  C   UNL A   1      35.132  30.824  28.615  1.00  0.00     0.016 A 
ATOM     30  C   UNL A   1      36.188  32.997  28.234  1.00  0.00     0.016 A 
ATOM     31  C   UNL A   1      36.344  30.316  29.035  1.00  0.00     0.010 A 
ATOM     32  C   UNL A   1      37.410  32.480  28.634  1.00  0.00     0.010 A 
ATOM     33  C   UNL A   1      37.467  31.155  29.083  1.00  0.00    -0.014 A 
BRANCH  33  34
ATOM     34  C   UNL A   1      38.654  30.656  29.785  1.00  0.00     0.031 A 
ATOM     35  C   UNL A   1      38.843  31.063  31.213  1.00  0.00     0.074 A 
ATOM     36  C   UNL A   1      39.454  29.778  29.164  1.00  0.00     0.049 A 
ATOM     37  N   UNL A   1      39.701  30.617  32.089  1.00  0.00    -0.248 NA
ATOM     38  C   UNL A   1      37.944  32.110  31.731  1.00  0.00     0.031 C 
ATOM     39  C   UNL A   1      39.316  29.354  27.770  1.00  0.00     0.029 A 
ATOM     40  N   UNL A   1      40.520  29.066  29.633  1.00  0.00    -0.354 N 
ATOM     41  C   UNL A   1      39.440  31.320  33.257  1.00  0.00     0.074 A 
ATOM     42  C   UNL A   1      38.375  32.254  32.974  1.00  0.00     0.031 C 
ATOM     43  C   UNL A   1      40.259  28.437  27.499  1.00  0.00     0.029 A 
ATOM     44  C   UNL A   1      41.061  28.219  28.700  1.00  0.00     0.049 A 
ATOM     45  H   UNL A   1      40.867  29.152  30.551  1.00  0.00     0.167 HD
ATOM     46  C   UNL A   1      40.034  31.176  34.461  1.00  0.00     0.037 A 
ATOM     47  C   UNL A   1      42.087  27.360  28.825  1.00  0.00     0.037 A 
ATOM     48  C   UNL A   1      41.086  30.228  34.708  1.00  0.00     0.049 A 
ATOM     49  C   UNL A   1      42.725  27.220  30.181  1.00  0.00     0.074 A 
ATOM     50  C   UNL A   1      41.748  29.957  35.889  1.00  0.00     0.029 A 
ATOM     51  N   UNL A   1      41.629  29.397  33.737  1.00  0.00    -0.354 N 
ATOM     52  N   UNL A   1      42.430  27.836  31.302  1.00  0.00    -0.248 NA
ATOM     53  C   UNL A   1      43.822  26.253  30.296  1.00  0.00     0.031 C 
ATOM     54  C   UNL A   1      42.729  28.996  35.620  1.00  0.00     0.029 A 
ATOM     55  C   UNL A   1      42.642  28.631  34.284  1.00  0.00     0.049 A 
ATOM     56  H   UNL A   1      41.336  29.358  32.797  1.00  0.00     0.167 HD
ATOM     57  C   UNL A   1      43.294  27.326  32.259  1.00  0.00     0.074 A 
ATOM     58  C   UNL A   1      44.100  26.323  31.589  1.00  0.00     0.031 C 
ATOM     59  C   UNL A   1      43.423  27.653  33.569  1.00  0.00     0.037 A 
BRANCH  46  60
ATOM     60  C   UNL A   1      39.581  32.073  35.574  1.00  0.00     0.064 A 
ATOM     61  C   UNL A   1      40.132  33.348  35.770  1.00  0.00     0.173 A 
ATOM     62  C   UNL A   1      38.566  31.654  36.447  1.00  0.00     0.173 A 
ATOM     63  F   UNL A   1      41.123  33.786  34.978  1.00  0.00    -0.203 F 
ATOM     64  C   UNL A   1      39.694  34.166  36.810  1.00  0.00     0.198 A 
ATOM     65  C   UNL A   1      38.114  32.484  37.469  1.00  0.00     0.198 A 
ATOM     66  F   UNL A   1      38.012  30.441  36.308  1.00  0.00    -0.203 F 
ATOM     67  F   UNL A   1      40.262  35.364  37.005  1.00  0.00    -0.200 F 
ATOM     68  C   UNL A   1      38.680  33.736  37.653  1.00  0.00     0.200 A 
ATOM     69  F   UNL A   1      37.130  32.069  38.281  1.00  0.00    -0.200 F 
ATOM     70  F   UNL A   1      38.253  34.527  38.648  1.00  0.00    -0.200 F 
ENDBRANCH  46  60
BRANCH  47  71
ATOM     71  C   UNL A   1      42.547  26.574  27.652  1.00  0.00     0.064 A 
ATOM     72  C   UNL A   1      42.011  25.314  27.359  1.00  0.00     0.173 A 
ATOM     73  C   UNL A   1      43.538  27.075  26.795  1.00  0.00     0.173 A 
ATOM     74  F   UNL A   1      41.068  24.785  28.153  1.00  0.00    -0.203 F 
ATOM     75  C   UNL A   1      42.467  24.572  26.270  1.00  0.00     0.198 A 
ATOM     76  C   UNL A   1      43.972  26.346  25.689  1.00  0.00     0.198 A 
ATOM     77  F   UNL A   1      44.077  28.283  27.022  1.00  0.00    -0.203 F 
ATOM     78  F   UNL A   1      41.971  23.349  26.040  1.00  0.00    -0.200 F 
ATOM     79  C   UNL A   1      43.445  25.091  25.434  1.00  0.00     0.200 A 
ATOM     80  F   UNL A   1      44.903  26.861  24.874  1.00  0.00    -0.200 F 
ATOM     81  F   UNL A   1      43.881  24.380  24.386  1.00  0.00    -0.200 F 
ENDBRANCH  47  71
BRANCH  59  82
ATOM     82  C   UNL A   1      44.473  26.914  34.343  1.00  0.00     0.064 A 
ATOM     83  C   UNL A   1      44.190  25.694  34.973  1.00  0.00     0.173 A 
ATOM     84  C   UNL A   1      45.777  27.422  34.435  1.00  0.00     0.173 A 
ATOM     85  F   UNL A   1      42.952  25.179  34.922  1.00  0.00    -0.203 F 
ATOM     86  C   UNL A   1      45.167  25.025  35.701  1.00  0.00     0.198 A 
ATOM     87  C   UNL A   1      46.760  26.733  35.136  1.00  0.00     0.198 A 
ATOM     88  F   UNL A   1      46.096  28.580  33.839  1.00  0.00    -0.203 F 
ATOM     89  F   UNL A   1      44.860  23.892  36.347  1.00  0.00    -0.200 F 
ATOM     90  C   UNL A   1      46.453  25.542  35.778  1.00  0.00     0.200 A 
ATOM     91  F   UNL A   1      48.005  27.225  35.197  1.00  0.00    -0.200 F 
ATOM     92  F   UNL A   1      47.393  24.896  36.480  1.00  0.00    -0.200 F 
ENDBRANCH  59  82
ENDBRANCH  33  34
ENDBRANCH  26  28
ENDBRANCH  25  26
ENDBRANCH  24  25
ENDBRANCH  23  24
ENDBRANCH  22  23
ENDBRANCH  21  22
ENDBRANCH   1  21
TORSDOF 22
ENDMDL
MODEL 2
REMARK VINA RESULT:      -9.4      4.095      9.962
REMARK SMILES CC(C)(C)N(CC(=O)OCCOCCOC(=O)c1ccc(-c2c3nc(c(-c4c(F)c(F)c(F)c(F)c4F)c4ccc([nH]4)c(-c4c(F)c(F)c(F)c(F)c4F)c4nc(c(-c5c(F)c(F)c(F)c(F)c5F)c5ccc2[nH]5)C=C4)C=C3)cc1)C(=O)N(CCO)C1CC1
REMARK SMILES IDX 10 1 9 2 7 3 8 4 6 5 5 6 2 7 1 8 3 9 4 10 81 11 82 12 83 13
REMARK SMILES IDX 84 14 85 15 86 16 87 18 88 19 89 20 11 21 12 22 13 23 14 24
REMARK SMILES IDX 15 25 16 26 17 27 18 28 19 29 80 30 20 31 79 32 21 33 22 34
REMARK SMILES IDX 23 35 73 36 24 37 78 38 72 39 74 40 25 41 77 42 71 43 70 44
REMARK SMILES IDX 26 46 58 47 38 48 57 49 39 50 42 51 56 52 75 53 40 54 41 55
REMARK SMILES IDX 55 57 76 58 43 59 27 60 28 61 36 62 29 63 30 64 34 65 37 66
REMARK SMILES IDX 31 67 32 68 35 69 33 70 59 71 60 72 68 73 61 74 62 75 66 76
REMARK SMILES IDX 69 77 63 78 64 79 67 80 65 81 44 82 45 83 53 84 46 85 47 86
REMARK SMILES IDX 51 87 54 88 48 89 49 90 52 91 50 92
REMARK H PARENT 86 17 74 45 42 56
REMARK Flexibility Score: inf
ROOT
ATOM      1  C   UNL A   1      33.938  22.759  27.282  1.00  0.00     0.261 C 
ENDROOT
BRANCH   1   2
ATOM      2  O   UNL A   1      32.490  22.785  27.192  1.00  0.00    -0.462 OA
BRANCH   2   3
ATOM      3  C   UNL A   1      31.935  23.420  26.124  1.00  0.00     0.325 C 
ATOM      4  O   UNL A   1      31.120  22.898  25.370  1.00  0.00    -0.250 OA
BRANCH   3   5
ATOM      5  C   UNL A   1      32.489  24.846  25.875  1.00  0.00     0.244 C 
BRANCH   5   6
ATOM      6  N   UNL A   1      32.013  25.704  24.762  1.00  0.00    -0.309 N 
BRANCH   6   7
ATOM      7  C   UNL A   1      32.582  25.369  23.366  1.00  0.00     0.037 C 
ATOM      8  C   UNL A   1      32.508  26.524  22.323  1.00  0.00     0.034 C 
ATOM      9  C   UNL A   1      31.809  24.195  22.710  1.00  0.00     0.034 C 
ATOM     10  C   UNL A   1      34.096  25.034  23.459  1.00  0.00     0.034 C 
ENDBRANCH   6   7
BRANCH   6  11
ATOM     11  C   UNL A   1      30.974  26.652  24.779  1.00  0.00     0.321 C 
ATOM     12  O   UNL A   1      29.833  26.244  24.515  1.00  0.00    -0.248 OA
BRANCH  11  13
ATOM     13  N   UNL A   1      31.096  28.025  25.032  1.00  0.00    -0.319 N 
BRANCH  13  14
ATOM     14  C   UNL A   1      30.698  29.206  24.216  1.00  0.00     0.150 C 
BRANCH  14  15
ATOM     15  C   UNL A   1      29.649  28.981  23.109  1.00  0.00     0.177 C 
BRANCH  15  16
ATOM     16  O   UNL A   1      28.494  29.794  23.264  1.00  0.00    -0.395 OA
ATOM     17  H   UNL A   1      28.243  30.167  22.404  1.00  0.00     0.210 HD
ENDBRANCH  15  16
ENDBRANCH  14  15
ENDBRANCH  13  14
BRANCH  13  18
ATOM     18  C   UNL A   1      32.076  28.390  26.106  1.00  0.00     0.087 C 
ATOM     19  C   UNL A   1      32.165  29.754  26.768  1.00  0.00     0.027 C 
ATOM     20  C   UNL A   1      31.698  28.590  27.567  1.00  0.00     0.027 C 
ENDBRANCH  13  18
ENDBRANCH  11  13
ENDBRANCH   6  11
ENDBRANCH   5   6
ENDBRANCH   3   5
ENDBRANCH   2   3
ENDBRANCH   1   2
BRANCH   1  21
ATOM     21  C   UNL A   1      34.551  21.842  26.203  1.00  0.00     0.202 C 
BRANCH  21  22
ATOM     22  O   UNL A   1      35.280  22.527  25.180  1.00  0.00    -0.374 OA
BRANCH  22  23
ATOM     23  C   UNL A   1      36.330  21.729  24.638  1.00  0.00     0.202 C 
BRANCH  23  24
ATOM     24  C   UNL A   1      37.276  21.206  25.687  1.00  0.00     0.261 C 
BRANCH  24  25
ATOM     25  O   UNL A   1      38.584  21.583  25.295  1.00  0.00    -0.460 OA
BRANCH  25  26
ATOM     26  C   UNL A   1      39.546  21.178  26.134  1.00  0.00     0.338 C 
ATOM     27  O   UNL A   1      40.060  20.082  26.235  1.00  0.00    -0.246 OA
BRANCH  26  28
ATOM     28  C   UNL A   1      40.041  22.411  26.745  1.00  0.00     0.060 A 
ATOM     29  C   UNL A   1      39.453  23.595  26.308  1.00  0.00     0.016 A 
ATOM     30  C   UNL A   1      41.000  22.390  27.768  1.00  0.00     0.016 A 
ATOM     31  C   UNL A   1      39.889  24.789  26.842  1.00  0.00     0.010 A 
ATOM     32  C   UNL A   1      41.422  23.588  28.321  1.00  0.00     0.010 A 
ATOM     33  C   UNL A   1      40.900  24.785  27.815  1.00  0.00    -0.014 A 
BRANCH  33  34
ATOM     34  C   UNL A   1      41.518  26.070  28.154  1.00  0.00     0.031 A 
ATOM     35  C   UNL A   1      42.884  26.353  27.611  1.00  0.00     0.074 A 
ATOM     36  C   UNL A   1      40.801  26.976  28.835  1.00  0.00     0.049 A 
ATOM     37  N   UNL A   1      43.558  27.470  27.618  1.00  0.00    -0.248 NA
ATOM     38  C   UNL A   1      43.589  25.230  26.968  1.00  0.00     0.031 C 
ATOM     39  C   UNL A   1      39.467  26.747  29.392  1.00  0.00     0.029 A 
ATOM     40  N   UNL A   1      41.083  28.274  29.147  1.00  0.00    -0.354 N 
ATOM     41  C   UNL A   1      44.756  27.186  26.978  1.00  0.00     0.074 A 
ATOM     42  C   UNL A   1      44.742  25.785  26.631  1.00  0.00     0.031 C 
ATOM     43  C   UNL A   1      39.036  27.881  29.968  1.00  0.00     0.029 A 
ATOM     44  C   UNL A   1      40.068  28.904  29.820  1.00  0.00     0.049 A 
ATOM     45  H   UNL A   1      41.932  28.716  28.914  1.00  0.00     0.167 HD
ATOM     46  C   UNL A   1      45.765  28.037  26.694  1.00  0.00     0.037 A 
ATOM     47  C   UNL A   1      39.994  30.175  30.252  1.00  0.00     0.037 A 
ATOM     48  C   UNL A   1      45.740  29.430  27.048  1.00  0.00     0.049 A 
ATOM     49  C   UNL A   1      41.133  31.099  29.917  1.00  0.00     0.074 A 
ATOM     50  C   UNL A   1      46.680  30.407  26.789  1.00  0.00     0.029 A 
ATOM     51  N   UNL A   1      44.705  30.037  27.749  1.00  0.00    -0.354 N 
ATOM     52  N   UNL A   1      42.235  30.846  29.249  1.00  0.00    -0.248 NA
ATOM     53  C   UNL A   1      41.012  32.487  30.374  1.00  0.00     0.031 C 
ATOM     54  C   UNL A   1      46.237  31.597  27.379  1.00  0.00     0.029 A 
ATOM     55  C   UNL A   1      44.997  31.372  27.959  1.00  0.00     0.049 A 
ATOM     56  H   UNL A   1      43.884  29.584  28.052  1.00  0.00     0.167 HD
ATOM     57  C   UNL A   1      42.934  32.042  29.194  1.00  0.00     0.074 A 
ATOM     58  C   UNL A   1      42.111  33.028  29.868  1.00  0.00     0.031 C 
ATOM     59  C   UNL A   1      44.147  32.310  28.648  1.00  0.00     0.037 A 
BRANCH  46  60
ATOM     60  C   UNL A   1      46.972  27.481  26.001  1.00  0.00     0.064 A 
ATOM     61  C   UNL A   1      47.153  27.601  24.615  1.00  0.00     0.173 A 
ATOM     62  C   UNL A   1      47.973  26.831  26.740  1.00  0.00     0.173 A 
ATOM     63  F   UNL A   1      46.214  28.191  23.860  1.00  0.00    -0.203 F 
ATOM     64  C   UNL A   1      48.284  27.078  23.991  1.00  0.00     0.198 A 
ATOM     65  C   UNL A   1      49.113  26.332  26.116  1.00  0.00     0.198 A 
ATOM     66  F   UNL A   1      47.844  26.681  28.066  1.00  0.00    -0.203 F 
ATOM     67  F   UNL A   1      48.418  27.168  22.660  1.00  0.00    -0.200 F 
ATOM     68  C   UNL A   1      49.266  26.451  24.744  1.00  0.00     0.200 A 
ATOM     69  F   UNL A   1      50.063  25.730  26.846  1.00  0.00    -0.200 F 
ATOM     70  F   UNL A   1      50.358  25.955  24.144  1.00  0.00    -0.200 F 
ENDBRANCH  46  60
BRANCH  47  71
ATOM     71  C   UNL A   1      38.808  30.633  31.020  1.00  0.00     0.064 A 
ATOM     72  C   UNL A   1      37.667  31.131  30.378  1.00  0.00     0.173 A 
ATOM     73  C   UNL A   1      38.794  30.576  32.422  1.00  0.00     0.173 A 
ATOM     74  F   UNL A   1      37.633  31.214  29.040  1.00  0.00    -0.203 F 
ATOM     75  C   UNL A   1      36.568  31.582  31.108  1.00  0.00     0.198 A 
ATOM     76  C   UNL A   1      37.684  30.999  33.150  1.00  0.00     0.198 A 
ATOM     77  F   UNL A   1      39.855  30.097  33.087  1.00  0.00    -0.203 F 
ATOM     78  F   UNL A   1      35.508  32.098  30.471  1.00  0.00    -0.200 F 
ATOM     79  C   UNL A   1      36.576  31.512  32.494  1.00  0.00     0.200 A 
ATOM     80  F   UNL A   1      37.689  30.911  34.488  1.00  0.00    -0.200 F 
ATOM     81  F   UNL A   1      35.519  31.942  33.195  1.00  0.00    -0.200 F 
ENDBRANCH  47  71
BRANCH  59  82
ATOM     82  C   UNL A   1      44.636  33.722  28.766  1.00  0.00     0.064 A 
ATOM     83  C   UNL A   1      45.427  34.130  29.849  1.00  0.00     0.173 A 
ATOM     84  C   UNL A   1      44.327  34.666  27.776  1.00  0.00     0.173 A 
ATOM     85  F   UNL A   1      45.734  33.263  30.826  1.00  0.00    -0.203 F 
ATOM     86  C   UNL A   1      45.862  35.447  29.956  1.00  0.00     0.198 A 
ATOM     87  C   UNL A   1      44.792  35.973  27.870  1.00  0.00     0.198 A 
ATOM     88  F   UNL A   1      43.582  34.317  26.716  1.00  0.00    -0.203 F 
ATOM     89  F   UNL A   1      46.565  35.832  31.030  1.00  0.00    -0.200 F 
ATOM     90  C   UNL A   1      45.549  36.366  28.965  1.00  0.00     0.200 A 
ATOM     91  F   UNL A   1      44.502  36.856  26.904  1.00  0.00    -0.200 F 
ATOM     92  F   UNL A   1      45.968  37.633  29.070  1.00  0.00    -0.200 F 
ENDBRANCH  59  82
ENDBRANCH  33  34
ENDBRANCH  26  28
ENDBRANCH  25  26
ENDBRANCH  24  25
ENDBRANCH  23  24
ENDBRANCH  22  23
ENDBRANCH  21  22
ENDBRANCH   1  21
TORSDOF 22
ENDMDL
MODEL 3
REMARK VINA RESULT:      -9.3      4.304      7.591
REMARK SMILES CC(C)(C)N(CC(=O)OCCOCCOC(=O)c1ccc(-c2c3nc(c(-c4c(F)c(F)c(F)c(F)c4F)c4ccc([nH]4)c(-c4c(F)c(F)c(F)c(F)c4F)c4nc(c(-c5c(F)c(F)c(F)c(F)c5F)c5ccc2[nH]5)C=C4)C=C3)cc1)C(=O)N(CCO)C1CC1
REMARK SMILES IDX 10 1 9 2 7 3 8 4 6 5 5 6 2 7 1 8 3 9 4 10 81 11 82 12 83 13
REMARK SMILES IDX 84 14 85 15 86 16 87 18 88 19 89 20 11 21 12 22 13 23 14 24
REMARK SMILES IDX 15 25 16 26 17 27 18 28 19 29 80 30 20 31 79 32 21 33 22 34
REMARK SMILES IDX 23 35 73 36 24 37 78 38 72 39 74 40 25 41 77 42 71 43 70 44
REMARK SMILES IDX 26 46 58 47 38 48 57 49 39 50 42 51 56 52 75 53 40 54 41 55
REMARK SMILES IDX 55 57 76 58 43 59 27 60 28 61 36 62 29 63 30 64 34 65 37 66
REMARK SMILES IDX 31 67 32 68 35 69 33 70 59 71 60 72 68 73 61 74 62 75 66 76
REMARK SMILES IDX 69 77 63 78 64 79 67 80 65 81 44 82 45 83 53 84 46 85 47 86
REMARK SMILES IDX 51 87 54 88 48 89 49 90 52 91 50 92
REMARK H PARENT 86 17 74 45 42 56
REMARK Flexibility Score: inf
ROOT
ATOM      1  C   UNL A   1      34.386  23.424  26.895  1.00  0.00     0.261 C 
ENDROOT
BRANCH   1   2
ATOM      2  O   UNL A   1      33.184  24.113  26.464  1.00  0.00    -0.462 OA
BRANCH   2   3
ATOM      3  C   UNL A   1      33.336  25.277  25.775  1.00  0.00     0.325 C 
ATOM      4  O   UNL A   1      34.409  25.665  25.323  1.00  0.00    -0.250 OA
BRANCH   3   5
ATOM      5  C   UNL A   1      32.048  26.134  25.683  1.00  0.00     0.244 C 
BRANCH   5   6
ATOM      6  N   UNL A   1      32.074  27.584  25.369  1.00  0.00    -0.309 N 
BRANCH   6   7
ATOM      7  C   UNL A   1      32.377  28.522  26.557  1.00  0.00     0.037 C 
ATOM      8  C   UNL A   1      31.717  28.118  27.908  1.00  0.00     0.034 C 
ATOM      9  C   UNL A   1      31.866  29.961  26.282  1.00  0.00     0.034 C 
ATOM     10  C   UNL A   1      33.900  28.541  26.866  1.00  0.00     0.034 C 
ENDBRANCH   6   7
BRANCH   6  11
ATOM     11  C   UNL A   1      32.050  28.199  24.104  1.00  0.00     0.321 C 
ATOM     12  O   UNL A   1      33.032  28.888  23.792  1.00  0.00    -0.248 OA
BRANCH  11  13
ATOM     13  N   UNL A   1      31.011  28.144  23.166  1.00  0.00    -0.319 N 
BRANCH  13  14
ATOM     14  C   UNL A   1      30.430  26.993  22.420  1.00  0.00     0.150 C 
BRANCH  14  15
ATOM     15  C   UNL A   1      31.416  25.981  21.801  1.00  0.00     0.177 C 
BRANCH  15  16
ATOM     16  O   UNL A   1      31.666  26.220  20.423  1.00  0.00    -0.395 OA
ATOM     17  H   UNL A   1      30.823  26.303  19.951  1.00  0.00     0.210 HD
ENDBRANCH  15  16
ENDBRANCH  14  15
ENDBRANCH  13  14
BRANCH  13  18
ATOM     18  C   UNL A   1      30.644  29.458  22.542  1.00  0.00     0.087 C 
ATOM     19  C   UNL A   1      29.396  29.703  21.713  1.00  0.00     0.027 C 
ATOM     20  C   UNL A   1      29.520  30.352  23.046  1.00  0.00     0.027 C 
ENDBRANCH  13  18
ENDBRANCH  11  13
ENDBRANCH   6  11
ENDBRANCH   5   6
ENDBRANCH   3   5
ENDBRANCH   2   3
ENDBRANCH   1   2
BRANCH   1  21
ATOM     21  C   UNL A   1      34.540  22.063  26.185  1.00  0.00     0.202 C 
BRANCH  21  22
ATOM     22  O   UNL A   1      35.636  21.987  25.269  1.00  0.00    -0.374 OA
BRANCH  22  23
ATOM     23  C   UNL A   1      35.991  20.641  24.962  1.00  0.00     0.202 C 
BRANCH  23  24
ATOM     24  C   UNL A   1      37.478  20.400  24.994  1.00  0.00     0.261 C 
BRANCH  24  25
ATOM     25  O   UNL A   1      38.059  21.475  25.709  1.00  0.00    -0.460 OA
BRANCH  25  26
ATOM     26  C   UNL A   1      39.243  21.186  26.266  1.00  0.00     0.338 C 
ATOM     27  O   UNL A   1      39.853  20.137  26.259  1.00  0.00    -0.246 OA
BRANCH  26  28
ATOM     28  C   UNL A   1      39.781  22.483  26.675  1.00  0.00     0.060 A 
ATOM     29  C   UNL A   1      39.167  23.606  26.128  1.00  0.00     0.016 A 
ATOM     30  C   UNL A   1      40.808  22.585  27.625  1.00  0.00     0.016 A 
ATOM     31  C   UNL A   1      39.641  24.855  26.471  1.00  0.00     0.010 A 
ATOM     32  C   UNL A   1      41.269  23.840  27.987  1.00  0.00     0.010 A 
ATOM     33  C   UNL A   1      40.716  24.966  27.365  1.00  0.00    -0.014 A 
BRANCH  33  34
ATOM     34  C   UNL A   1      41.359  26.278  27.491  1.00  0.00     0.031 A 
ATOM     35  C   UNL A   1      40.606  27.360  28.200  1.00  0.00     0.074 A 
ATOM     36  C   UNL A   1      42.624  26.424  27.070  1.00  0.00     0.049 A 
ATOM     37  N   UNL A   1      41.023  28.532  28.592  1.00  0.00    -0.248 NA
ATOM     38  C   UNL A   1      39.192  27.087  28.517  1.00  0.00     0.031 C 
ATOM     39  C   UNL A   1      43.400  25.402  26.367  1.00  0.00     0.029 A 
ATOM     40  N   UNL A   1      43.483  27.477  27.198  1.00  0.00    -0.354 N 
ATOM     41  C   UNL A   1      39.930  29.130  29.205  1.00  0.00     0.074 A 
ATOM     42  C   UNL A   1      38.818  28.215  29.099  1.00  0.00     0.031 C 
ATOM     43  C   UNL A   1      44.636  25.875  26.138  1.00  0.00     0.029 A 
ATOM     44  C   UNL A   1      44.727  27.230  26.676  1.00  0.00     0.049 A 
ATOM     45  H   UNL A   1      43.235  28.330  27.622  1.00  0.00     0.167 HD
ATOM     46  C   UNL A   1      39.880  30.333  29.816  1.00  0.00     0.037 A 
ATOM     47  C   UNL A   1      45.812  28.022  26.653  1.00  0.00     0.037 A 
ATOM     48  C   UNL A   1      41.012  31.213  29.911  1.00  0.00     0.049 A 
ATOM     49  C   UNL A   1      45.725  29.354  27.347  1.00  0.00     0.074 A 
ATOM     50  C   UNL A   1      41.104  32.442  30.532  1.00  0.00     0.029 A 
ATOM     51  N   UNL A   1      42.255  30.945  29.353  1.00  0.00    -0.354 N 
ATOM     52  N   UNL A   1      44.710  29.889  27.988  1.00  0.00    -0.248 NA
ATOM     53  C   UNL A   1      46.933  30.185  27.334  1.00  0.00     0.031 C 
ATOM     54  C   UNL A   1      42.392  32.943  30.307  1.00  0.00     0.029 A 
ATOM     55  C   UNL A   1      43.116  32.001  29.590  1.00  0.00     0.049 A 
ATOM     56  H   UNL A   1      42.491  30.124  28.861  1.00  0.00     0.167 HD
ATOM     57  C   UNL A   1      45.159  31.111  28.465  1.00  0.00     0.074 A 
ATOM     58  C   UNL A   1      46.550  31.220  28.067  1.00  0.00     0.031 C 
ATOM     59  C   UNL A   1      44.491  32.065  29.161  1.00  0.00     0.037 A 
BRANCH  46  60
ATOM     60  C   UNL A   1      38.567  30.765  30.396  1.00  0.00     0.064 A 
ATOM     61  C   UNL A   1      37.545  31.302  29.598  1.00  0.00     0.173 A 
ATOM     62  C   UNL A   1      38.321  30.623  31.770  1.00  0.00     0.173 A 
ATOM     63  F   UNL A   1      37.738  31.482  28.282  1.00  0.00    -0.203 F 
ATOM     64  C   UNL A   1      36.330  31.695  30.157  1.00  0.00     0.198 A 
ATOM     65  C   UNL A   1      37.098  30.994  32.321  1.00  0.00     0.198 A 
ATOM     66  F   UNL A   1      39.268  30.124  32.577  1.00  0.00    -0.203 F 
ATOM     67  F   UNL A   1      35.383  32.244  29.384  1.00  0.00    -0.200 F 
ATOM     68  C   UNL A   1      36.106  31.534  31.517  1.00  0.00     0.200 A 
ATOM     69  F   UNL A   1      36.880  30.833  33.634  1.00  0.00    -0.200 F 
ATOM     70  F   UNL A   1      34.934  31.905  32.052  1.00  0.00    -0.200 F 
ENDBRANCH  46  60
BRANCH  47  71
ATOM     71  C   UNL A   1      47.052  27.567  25.974  1.00  0.00     0.064 A 
ATOM     72  C   UNL A   1      47.207  27.671  24.586  1.00  0.00     0.173 A 
ATOM     73  C   UNL A   1      48.115  27.019  26.709  1.00  0.00     0.173 A 
ATOM     74  F   UNL A   1      46.218  28.179  23.837  1.00  0.00    -0.203 F 
ATOM     75  C   UNL A   1      48.365  27.218  23.954  1.00  0.00     0.198 A 
ATOM     76  C   UNL A   1      49.284  26.595  26.081  1.00  0.00     0.198 A 
ATOM     77  F   UNL A   1      48.024  26.909  28.043  1.00  0.00    -0.203 F 
ATOM     78  F   UNL A   1      48.468  27.285  22.620  1.00  0.00    -0.200 F 
ATOM     79  C   UNL A   1      49.403  26.684  24.703  1.00  0.00     0.200 A 
ATOM     80  F   UNL A   1      50.292  26.098  26.811  1.00  0.00    -0.200 F 
ATOM     81  F   UNL A   1      50.518  26.252  24.096  1.00  0.00    -0.200 F 
ENDBRANCH  47  71
BRANCH  59  82
ATOM     82  C   UNL A   1      45.268  33.294  29.525  1.00  0.00     0.064 A 
ATOM     83  C   UNL A   1      45.291  34.416  28.684  1.00  0.00     0.173 A 
ATOM     84  C   UNL A   1      45.975  33.356  30.734  1.00  0.00     0.173 A 
ATOM     85  F   UNL A   1      44.640  34.394  27.511  1.00  0.00    -0.203 F 
ATOM     86  C   UNL A   1      46.028  35.545  29.024  1.00  0.00     0.198 A 
ATOM     87  C   UNL A   1      46.682  34.500  31.086  1.00  0.00     0.198 A 
ATOM     88  F   UNL A   1      45.972  32.311  31.575  1.00  0.00    -0.203 F 
ATOM     89  F   UNL A   1      46.087  36.583  28.178  1.00  0.00    -0.200 F 
ATOM     90  C   UNL A   1      46.718  35.589  30.226  1.00  0.00     0.200 A 
ATOM     91  F   UNL A   1      47.338  34.547  32.254  1.00  0.00    -0.200 F 
ATOM     92  F   UNL A   1      47.428  36.677  30.552  1.00  0.00    -0.200 F 
ENDBRANCH  59  82
ENDBRANCH  33  34
ENDBRANCH  26  28
ENDBRANCH  25  26
ENDBRANCH  24  25
ENDBRANCH  23  24
ENDBRANCH  22  23
ENDBRANCH  21  22
ENDBRANCH   1  21
TORSDOF 22
ENDMDL
