MODEL 1
REMARK VINA RESULT:     -11.1      0.000      0.000
REMARK SMILES Cc1nc(CN(C)C(=O)NCc2ccc(C(=O)OCCOCCOC(=O)c3ccc(-c4c5nc(c(-c6c(F)c(F)c(F)c(F)c6F)c6ccc([nH]6)c(-c6c(F)c(F)c(F)c(F)c6F)c6nc(c(-c7c(F)c(F)c(F)c(F)c7F)c7ccc4[nH]7)C=C6)C=C5)cc3)o2)n[nH]1
REMARK SMILES IDX 19 1 18 2 16 3 17 4 15 5 12 6 13 7 90 8 14 9 11 10 10 11
REMARK SMILES IDX 8 12 9 13 6 15 7 16 5 17 4 18 1 19 2 20 3 21 92 22 91 23
REMARK SMILES IDX 20 25 21 26 22 27 23 28 24 29 25 30 26 31 27 32 28 33 89 34
REMARK SMILES IDX 29 35 88 36 30 37 31 38 32 39 82 40 33 41 87 42 81 43 83 44
REMARK SMILES IDX 34 45 86 46 80 47 79 48 35 50 67 51 47 52 66 53 48 54 51 55
REMARK SMILES IDX 65 56 84 57 49 58 50 59 64 61 85 62 52 63 36 64 37 65 45 66
REMARK SMILES IDX 38 67 39 68 43 69 46 70 40 71 41 72 44 73 42 74 68 75 69 76
REMARK SMILES IDX 77 77 70 78 71 79 75 80 78 81 72 82 73 83 76 84 74 85 53 86
REMARK SMILES IDX 54 87 62 88 55 89 56 90 60 91 63 92 57 93 58 94 61 95 59 96
REMARK H PARENT 10 14 92 24 83 49 51 60
REMARK Flexibility Score: inf
ROOT
ATOM      1  C   UNL A   1      31.406  28.547  27.465  1.00  0.00     0.261 C 
ENDROOT
BRANCH   1   2
ATOM      2  O   UNL A   1      31.488  27.163  27.080  1.00  0.00    -0.457 OA
BRANCH   2   3
ATOM      3  C   UNL A   1      31.496  26.917  25.738  1.00  0.00     0.374 C 
ATOM      4  O   UNL A   1      30.714  27.402  24.933  1.00  0.00    -0.242 OA
BRANCH   3   5
ATOM      5  C   UNL A   1      32.649  26.110  25.414  1.00  0.00     0.211 A 
ATOM      6  C   UNL A   1      33.693  24.545  24.257  1.00  0.00     0.124 A 
ATOM      7  C   UNL A   1      34.657  25.184  25.010  1.00  0.00     0.048 A 
ATOM      8  O   UNL A   1      32.470  25.081  24.527  1.00  0.00    -0.452 OA
ATOM      9  C   UNL A   1      33.991  26.197  25.741  1.00  0.00     0.058 A 
BRANCH   6  10
ATOM     10  C   UNL A   1      33.707  23.484  23.217  1.00  0.00     0.193 C 
BRANCH  10  11
ATOM     11  N   UNL A   1      34.503  22.368  23.665  1.00  0.00    -0.331 N 
ATOM     12  C   UNL A   1      34.434  21.473  24.662  1.00  0.00     0.317 C 
ATOM     13  O   UNL A   1      35.458  20.800  24.816  1.00  0.00    -0.249 OA
ATOM     14  H   UNL A   1      35.294  22.228  23.096  1.00  0.00     0.165 HD
BRANCH  12  15
ATOM     15  N   UNL A   1      33.333  21.315  25.452  1.00  0.00    -0.320 N 
ATOM     16  C   UNL A   1      33.124  21.840  26.787  1.00  0.00     0.149 C 
BRANCH  15  17
ATOM     17  C   UNL A   1      32.158  20.708  24.809  1.00  0.00     0.200 C 
BRANCH  17  18
ATOM     18  C   UNL A   1      32.326  19.230  24.604  1.00  0.00     0.170 A 
ATOM     19  C   UNL A   1      33.052  15.931  25.751  1.00  0.00     0.089 C 
ATOM     20  C   UNL A   1      32.716  17.211  25.095  1.00  0.00     0.121 A 
ATOM     21  N   UNL A   1      32.521  18.377  25.666  1.00  0.00    -0.215 NA
ATOM     22  N   UNL A   1      32.586  17.353  23.744  1.00  0.00    -0.263 N 
ATOM     23  N   UNL A   1      32.296  18.620  23.406  1.00  0.00    -0.157 NA
ATOM     24  H   UNL A   1      32.690  16.618  23.098  1.00  0.00     0.192 HD
ENDBRANCH  17  18
ENDBRANCH  15  17
ENDBRANCH  12  15
ENDBRANCH  10  11
ENDBRANCH   6  10
ENDBRANCH   3   5
ENDBRANCH   2   3
ENDBRANCH   1   2
BRANCH   1  25
ATOM     25  C   UNL A   1      32.744  29.239  27.189  1.00  0.00     0.202 C 
BRANCH  25  26
ATOM     26  O   UNL A   1      32.636  30.369  26.319  1.00  0.00    -0.374 OA
BRANCH  26  27
ATOM     27  C   UNL A   1      31.450  31.157  26.453  1.00  0.00     0.202 C 
BRANCH  27  28
ATOM     28  C   UNL A   1      31.694  32.566  27.001  1.00  0.00     0.261 C 
BRANCH  28  29
ATOM     29  O   UNL A   1      33.086  32.919  26.886  1.00  0.00    -0.460 OA
BRANCH  29  30
ATOM     30  C   UNL A   1      33.621  33.496  27.988  1.00  0.00     0.338 C 
ATOM     31  O   UNL A   1      33.124  34.362  28.686  1.00  0.00    -0.246 OA
BRANCH  30  32
ATOM     32  C   UNL A   1      34.878  32.810  28.351  1.00  0.00     0.060 A 
ATOM     33  C   UNL A   1      34.779  31.479  28.774  1.00  0.00     0.016 A 
ATOM     34  C   UNL A   1      36.118  33.457  28.336  1.00  0.00     0.016 A 
ATOM     35  C   UNL A   1      35.907  30.807  29.238  1.00  0.00     0.010 A 
ATOM     36  C   UNL A   1      37.250  32.781  28.806  1.00  0.00     0.010 A 
ATOM     37  C   UNL A   1      37.142  31.468  29.293  1.00  0.00    -0.014 A 
BRANCH  37  38
ATOM     38  C   UNL A   1      38.272  30.824  30.006  1.00  0.00     0.031 A 
ATOM     39  C   UNL A   1      38.510  31.165  31.451  1.00  0.00     0.074 A 
ATOM     40  C   UNL A   1      39.044  29.911  29.392  1.00  0.00     0.049 A 
ATOM     41  N   UNL A   1      39.416  30.702  32.276  1.00  0.00    -0.248 NA
ATOM     42  C   UNL A   1      37.605  32.160  32.047  1.00  0.00     0.031 C 
ATOM     43  C   UNL A   1      38.897  29.475  28.006  1.00  0.00     0.029 A 
ATOM     44  N   UNL A   1      40.108  29.184  29.865  1.00  0.00    -0.354 N 
ATOM     45  C   UNL A   1      39.188  31.347  33.485  1.00  0.00     0.074 A 
ATOM     46  C   UNL A   1      38.081  32.257  33.279  1.00  0.00     0.031 C 
ATOM     47  C   UNL A   1      39.842  28.558  27.735  1.00  0.00     0.029 A 
ATOM     48  C   UNL A   1      40.668  28.356  28.925  1.00  0.00     0.049 A 
ATOM     49  H   UNL A   1      40.438  29.251  30.790  1.00  0.00     0.167 HD
ATOM     50  C   UNL A   1      39.833  31.185  34.664  1.00  0.00     0.037 A 
ATOM     51  C   UNL A   1      41.732  27.536  29.015  1.00  0.00     0.037 A 
ATOM     52  C   UNL A   1      40.932  30.281  34.873  1.00  0.00     0.049 A 
ATOM     53  C   UNL A   1      42.468  27.414  30.323  1.00  0.00     0.074 A 
ATOM     54  C   UNL A   1      41.639  30.033  36.038  1.00  0.00     0.029 A 
ATOM     55  N   UNL A   1      41.491  29.481  33.888  1.00  0.00    -0.354 N 
ATOM     56  N   UNL A   1      42.224  27.999  31.470  1.00  0.00    -0.248 NA
ATOM     57  C   UNL A   1      43.628  26.509  30.349  1.00  0.00     0.031 C 
ATOM     58  C   UNL A   1      42.651  29.112  35.747  1.00  0.00     0.029 A 
ATOM     59  C   UNL A   1      42.548  28.754  34.413  1.00  0.00     0.049 A 
ATOM     60  H   UNL A   1      41.183  29.434  32.954  1.00  0.00     0.167 HD
ATOM     61  C   UNL A   1      43.176  27.517  32.358  1.00  0.00     0.074 A 
ATOM     62  C   UNL A   1      43.999  26.581  31.621  1.00  0.00     0.031 C 
ATOM     63  C   UNL A   1      43.353  27.822  33.667  1.00  0.00     0.037 A 
BRANCH  50  64
ATOM     64  C   UNL A   1      39.374  32.022  35.819  1.00  0.00     0.064 A 
ATOM     65  C   UNL A   1      38.391  31.566  36.711  1.00  0.00     0.173 A 
ATOM     66  C   UNL A   1      39.940  33.284  36.052  1.00  0.00     0.173 A 
ATOM     67  F   UNL A   1      37.809  30.373  36.520  1.00  0.00    -0.203 F 
ATOM     68  C   UNL A   1      37.975  32.353  37.780  1.00  0.00     0.198 A 
ATOM     69  C   UNL A   1      39.539  34.058  37.138  1.00  0.00     0.198 A 
ATOM     70  F   UNL A   1      40.884  33.763  35.230  1.00  0.00    -0.203 F 
ATOM     71  F   UNL A   1      37.005  31.916  38.596  1.00  0.00    -0.200 F 
ATOM     72  C   UNL A   1      38.553  33.596  37.997  1.00  0.00     0.200 A 
ATOM     73  F   UNL A   1      40.103  35.255  37.350  1.00  0.00    -0.200 F 
ATOM     74  F   UNL A   1      38.154  34.351  39.029  1.00  0.00    -0.200 F 
ENDBRANCH  50  64
BRANCH  51  75
ATOM     75  C   UNL A   1      42.170  26.759  27.827  1.00  0.00     0.064 A 
ATOM     76  C   UNL A   1      41.639  25.491  27.556  1.00  0.00     0.173 A 
ATOM     77  C   UNL A   1      43.141  27.263  26.950  1.00  0.00     0.173 A 
ATOM     78  F   UNL A   1      40.727  24.957  28.382  1.00  0.00    -0.203 F 
ATOM     79  C   UNL A   1      42.073  24.750  26.459  1.00  0.00     0.198 A 
ATOM     80  C   UNL A   1      43.557  26.532  25.839  1.00  0.00     0.198 A 
ATOM     81  F   UNL A   1      43.682  28.471  27.168  1.00  0.00    -0.203 F 
ATOM     82  F   UNL A   1      41.579  23.523  26.245  1.00  0.00    -0.200 F 
ATOM     83  C   UNL A   1      43.027  25.273  25.599  1.00  0.00     0.200 A 
ATOM     84  F   UNL A   1      44.474  27.044  25.007  1.00  0.00    -0.200 F 
ATOM     85  F   UNL A   1      43.444  24.559  24.544  1.00  0.00    -0.200 F 
ENDBRANCH  51  75
BRANCH  63  86
ATOM     86  C   UNL A   1      44.460  27.115  34.394  1.00  0.00     0.064 A 
ATOM     87  C   UNL A   1      45.742  27.674  34.501  1.00  0.00     0.173 A 
ATOM     88  C   UNL A   1      44.223  25.884  35.024  1.00  0.00     0.173 A 
ATOM     89  F   UNL A   1      46.021  28.841  33.904  1.00  0.00    -0.203 F 
ATOM     90  C   UNL A   1      46.754  27.012  35.192  1.00  0.00     0.198 A 
ATOM     91  C   UNL A   1      45.230  25.238  35.736  1.00  0.00     0.198 A 
ATOM     92  F   UNL A   1      43.012  25.312  34.957  1.00  0.00    -0.203 F 
ATOM     93  F   UNL A   1      47.983  27.543  35.245  1.00  0.00    -0.200 F 
ATOM     94  C   UNL A   1      46.496  25.799  35.813  1.00  0.00     0.200 A 
ATOM     95  F   UNL A   1      44.977  24.072  36.344  1.00  0.00    -0.200 F 
ATOM     96  F   UNL A   1      47.470  25.167  36.481  1.00  0.00    -0.200 F 
ENDBRANCH  63  86
ENDBRANCH  37  38
ENDBRANCH  30  32
ENDBRANCH  29  30
ENDBRANCH  28  29
ENDBRANCH  27  28
ENDBRANCH  26  27
ENDBRANCH  25  26
ENDBRANCH   1  25
TORSDOF 19
ENDMDL
MODEL 2
REMARK VINA RESULT:     -10.9      3.406      8.830
REMARK SMILES Cc1nc(CN(C)C(=O)NCc2ccc(C(=O)OCCOCCOC(=O)c3ccc(-c4c5nc(c(-c6c(F)c(F)c(F)c(F)c6F)c6ccc([nH]6)c(-c6c(F)c(F)c(F)c(F)c6F)c6nc(c(-c7c(F)c(F)c(F)c(F)c7F)c7ccc4[nH]7)C=C6)C=C5)cc3)o2)n[nH]1
REMARK SMILES IDX 19 1 18 2 16 3 17 4 15 5 12 6 13 7 90 8 14 9 11 10 10 11
REMARK SMILES IDX 8 12 9 13 6 15 7 16 5 17 4 18 1 19 2 20 3 21 92 22 91 23
REMARK SMILES IDX 20 25 21 26 22 27 23 28 24 29 25 30 26 31 27 32 28 33 89 34
REMARK SMILES IDX 29 35 88 36 30 37 31 38 32 39 82 40 33 41 87 42 81 43 83 44
REMARK SMILES IDX 34 45 86 46 80 47 79 48 35 50 67 51 47 52 66 53 48 54 51 55
REMARK SMILES IDX 65 56 84 57 49 58 50 59 64 61 85 62 52 63 36 64 37 65 45 66
REMARK SMILES IDX 38 67 39 68 43 69 46 70 40 71 41 72 44 73 42 74 68 75 69 76
REMARK SMILES IDX 77 77 70 78 71 79 75 80 78 81 72 82 73 83 76 84 74 85 53 86
REMARK SMILES IDX 54 87 62 88 55 89 56 90 60 91 63 92 57 93 58 94 61 95 59 96
REMARK H PARENT 10 14 92 24 83 49 51 60
REMARK Flexibility Score: inf
ROOT
ATOM      1  C   UNL A   1      42.677  18.675  26.391  1.00  0.00     0.261 C 
ENDROOT
BRANCH   1   2
ATOM      2  O   UNL A   1      41.867  19.782  26.824  1.00  0.00    -0.457 OA
BRANCH   2   3
ATOM      3  C   UNL A   1      40.655  19.909  26.208  1.00  0.00     0.374 C 
ATOM      4  O   UNL A   1      40.028  18.990  25.700  1.00  0.00    -0.242 OA
BRANCH   3   5
ATOM      5  C   UNL A   1      40.182  21.264  26.375  1.00  0.00     0.211 A 
ATOM      6  C   UNL A   1      38.646  22.843  26.232  1.00  0.00     0.124 A 
ATOM      7  C   UNL A   1      39.689  23.377  26.962  1.00  0.00     0.048 A 
ATOM      8  O   UNL A   1      38.959  21.576  25.845  1.00  0.00    -0.452 OA
ATOM      9  C   UNL A   1      40.668  22.359  27.067  1.00  0.00     0.058 A 
BRANCH   6  10
ATOM     10  C   UNL A   1      37.291  23.312  25.843  1.00  0.00     0.193 C 
BRANCH  10  11
ATOM     11  N   UNL A   1      37.144  23.253  24.409  1.00  0.00    -0.331 N 
ATOM     12  C   UNL A   1      36.121  23.136  23.548  1.00  0.00     0.317 C 
ATOM     13  O   UNL A   1      36.458  22.907  22.382  1.00  0.00    -0.249 OA
ATOM     14  H   UNL A   1      38.010  23.315  23.946  1.00  0.00     0.165 HD
BRANCH  12  15
ATOM     15  N   UNL A   1      34.813  23.251  23.919  1.00  0.00    -0.320 N 
ATOM     16  C   UNL A   1      33.720  23.791  23.134  1.00  0.00     0.149 C 
BRANCH  15  17
ATOM     17  C   UNL A   1      34.435  22.584  25.173  1.00  0.00     0.200 C 
BRANCH  17  18
ATOM     18  C   UNL A   1      33.858  21.218  24.936  1.00  0.00     0.170 A 
ATOM     19  C   UNL A   1      34.139  17.745  24.170  1.00  0.00     0.089 C 
ATOM     20  C   UNL A   1      33.823  19.148  24.506  1.00  0.00     0.121 A 
ATOM     21  N   UNL A   1      34.667  20.115  24.786  1.00  0.00    -0.215 NA
ATOM     22  N   UNL A   1      32.552  19.646  24.545  1.00  0.00    -0.263 N 
ATOM     23  N   UNL A   1      32.543  20.952  24.857  1.00  0.00    -0.157 NA
ATOM     24  H   UNL A   1      31.744  19.113  24.367  1.00  0.00     0.192 HD
ENDBRANCH  17  18
ENDBRANCH  15  17
ENDBRANCH  12  15
ENDBRANCH  10  11
ENDBRANCH   6  10
ENDBRANCH   3   5
ENDBRANCH   2   3
ENDBRANCH   1   2
BRANCH   1  25
ATOM     25  C   UNL A   1      43.655  19.144  25.309  1.00  0.00     0.202 C 
BRANCH  25  26
ATOM     26  O   UNL A   1      44.247  20.417  25.583  1.00  0.00    -0.374 OA
BRANCH  26  27
ATOM     27  C   UNL A   1      44.634  21.190  24.444  1.00  0.00     0.202 C 
BRANCH  27  28
ATOM     28  C   UNL A   1      45.333  22.508  24.792  1.00  0.00     0.261 C 
BRANCH  28  29
ATOM     29  O   UNL A   1      44.390  23.596  24.786  1.00  0.00    -0.460 OA
BRANCH  29  30
ATOM     30  C   UNL A   1      44.913  24.806  25.097  1.00  0.00     0.338 C 
ATOM     31  O   UNL A   1      45.873  25.352  24.583  1.00  0.00    -0.246 OA
BRANCH  30  32
ATOM     32  C   UNL A   1      44.044  25.489  26.077  1.00  0.00     0.060 A 
ATOM     33  C   UNL A   1      44.099  26.888  26.113  1.00  0.00     0.016 A 
ATOM     34  C   UNL A   1      43.237  24.790  26.980  1.00  0.00     0.016 A 
ATOM     35  C   UNL A   1      43.392  27.590  27.086  1.00  0.00     0.010 A 
ATOM     36  C   UNL A   1      42.530  25.497  27.960  1.00  0.00     0.010 A 
ATOM     37  C   UNL A   1      42.635  26.896  28.039  1.00  0.00    -0.014 A 
BRANCH  37  38
ATOM     38  C   UNL A   1      42.088  27.635  29.203  1.00  0.00     0.031 A 
ATOM     39  C   UNL A   1      42.811  27.560  30.519  1.00  0.00     0.074 A 
ATOM     40  C   UNL A   1      40.993  28.405  29.078  1.00  0.00     0.049 A 
ATOM     41  N   UNL A   1      42.532  28.147  31.656  1.00  0.00    -0.248 NA
ATOM     42  C   UNL A   1      44.011  26.710  30.559  1.00  0.00     0.031 C 
ATOM     43  C   UNL A   1      40.222  28.583  27.851  1.00  0.00     0.029 A 
ATOM     44  N   UNL A   1      40.343  29.184  30.003  1.00  0.00    -0.354 N 
ATOM     45  C   UNL A   1      43.520  27.739  32.543  1.00  0.00     0.074 A 
ATOM     46  C   UNL A   1      44.387  26.830  31.824  1.00  0.00     0.031 C 
ATOM     47  C   UNL A   1      39.195  29.415  28.098  1.00  0.00     0.029 A 
ATOM     48  C   UNL A   1      39.231  29.814  29.504  1.00  0.00     0.049 A 
ATOM     49  H   UNL A   1      40.647  29.281  30.934  1.00  0.00     0.167 HD
ATOM     50  C   UNL A   1      43.697  28.101  33.835  1.00  0.00     0.037 A 
ATOM     51  C   UNL A   1      38.340  30.615  30.119  1.00  0.00     0.037 A 
ATOM     52  C   UNL A   1      42.839  29.005  34.553  1.00  0.00     0.049 A 
ATOM     53  C   UNL A   1      38.528  30.959  31.573  1.00  0.00     0.074 A 
ATOM     54  C   UNL A   1      42.948  29.447  35.860  1.00  0.00     0.029 A 
ATOM     55  N   UNL A   1      41.704  29.600  34.023  1.00  0.00    -0.354 N 
ATOM     56  N   UNL A   1      39.484  30.599  32.393  1.00  0.00    -0.248 NA
ATOM     57  C   UNL A   1      37.512  31.829  32.185  1.00  0.00     0.031 C 
ATOM     58  C   UNL A   1      41.857  30.279  36.133  1.00  0.00     0.029 A 
ATOM     59  C   UNL A   1      41.091  30.389  34.984  1.00  0.00     0.049 A 
ATOM     60  H   UNL A   1      41.381  29.481  33.100  1.00  0.00     0.167 HD
ATOM     61  C   UNL A   1      39.203  31.215  33.605  1.00  0.00     0.074 A 
ATOM     62  C   UNL A   1      37.991  31.984  33.412  1.00  0.00     0.031 C 
ATOM     63  C   UNL A   1      39.888  31.152  34.773  1.00  0.00     0.037 A 
BRANCH  50  64
ATOM     64  C   UNL A   1      44.861  27.499  34.563  1.00  0.00     0.064 A 
ATOM     65  C   UNL A   1      44.738  26.297  35.276  1.00  0.00     0.173 A 
ATOM     66  C   UNL A   1      46.119  28.118  34.528  1.00  0.00     0.173 A 
ATOM     67  F   UNL A   1      43.551  25.677  35.352  1.00  0.00    -0.203 F 
ATOM     68  C   UNL A   1      45.827  25.748  35.946  1.00  0.00     0.198 A 
ATOM     69  C   UNL A   1      47.213  27.553  35.179  1.00  0.00     0.198 A 
ATOM     70  F   UNL A   1      46.288  29.267  33.858  1.00  0.00    -0.203 F 
ATOM     71  F   UNL A   1      45.678  24.620  36.656  1.00  0.00    -0.200 F 
ATOM     72  C   UNL A   1      47.065  26.373  35.893  1.00  0.00     0.200 A 
ATOM     73  F   UNL A   1      48.409  28.153  35.120  1.00  0.00    -0.200 F 
ATOM     74  F   UNL A   1      48.114  25.841  36.535  1.00  0.00    -0.200 F 
ENDBRANCH  50  64
BRANCH  51  75
ATOM     75  C   UNL A   1      37.181  31.152  29.360  1.00  0.00     0.064 A 
ATOM     76  C   UNL A   1      36.114  30.324  28.988  1.00  0.00     0.173 A 
ATOM     77  C   UNL A   1      37.128  32.500  28.979  1.00  0.00     0.173 A 
ATOM     78  F   UNL A   1      36.133  29.022  29.308  1.00  0.00    -0.203 F 
ATOM     79  C   UNL A   1      35.043  30.822  28.249  1.00  0.00     0.198 A 
ATOM     80  C   UNL A   1      36.044  33.003  28.261  1.00  0.00     0.198 A 
ATOM     81  F   UNL A   1      38.127  33.332  29.309  1.00  0.00    -0.203 F 
ATOM     82  F   UNL A   1      34.054  30.000  27.871  1.00  0.00    -0.200 F 
ATOM     83  C   UNL A   1      35.007  32.161  27.891  1.00  0.00     0.200 A 
ATOM     84  F   UNL A   1      36.010  34.299  27.923  1.00  0.00    -0.200 F 
ATOM     85  F   UNL A   1      33.975  32.639  27.181  1.00  0.00    -0.200 F 
ENDBRANCH  51  75
BRANCH  63  86
ATOM     86  C   UNL A   1      39.360  31.956  35.925  1.00  0.00     0.064 A 
ATOM     87  C   UNL A   1      38.383  31.445  36.792  1.00  0.00     0.173 A 
ATOM     88  C   UNL A   1      39.867  33.239  36.187  1.00  0.00     0.173 A 
ATOM     89  F   UNL A   1      37.858  30.230  36.574  1.00  0.00    -0.203 F 
ATOM     90  C   UNL A   1      37.914  32.198  37.865  1.00  0.00     0.198 A 
ATOM     91  C   UNL A   1      39.414  33.979  37.276  1.00  0.00     0.198 A 
ATOM     92  F   UNL A   1      40.807  33.769  35.392  1.00  0.00    -0.203 F 
ATOM     93  F   UNL A   1      36.949  31.708  38.654  1.00  0.00    -0.200 F 
ATOM     94  C   UNL A   1      38.434  33.461  38.109  1.00  0.00     0.200 A 
ATOM     95  F   UNL A   1      39.925  35.194  37.518  1.00  0.00    -0.200 F 
ATOM     96  F   UNL A   1      37.985  34.182  39.145  1.00  0.00    -0.200 F 
ENDBRANCH  63  86
ENDBRANCH  37  38
ENDBRANCH  30  32
ENDBRANCH  29  30
ENDBRANCH  28  29
ENDBRANCH  27  28
ENDBRANCH  26  27
ENDBRANCH  25  26
ENDBRANCH   1  25
TORSDOF 19
ENDMDL
MODEL 3
REMARK VINA RESULT:     -10.8      3.550      9.123
REMARK SMILES Cc1nc(CN(C)C(=O)NCc2ccc(C(=O)OCCOCCOC(=O)c3ccc(-c4c5nc(c(-c6c(F)c(F)c(F)c(F)c6F)c6ccc([nH]6)c(-c6c(F)c(F)c(F)c(F)c6F)c6nc(c(-c7c(F)c(F)c(F)c(F)c7F)c7ccc4[nH]7)C=C6)C=C5)cc3)o2)n[nH]1
REMARK SMILES IDX 19 1 18 2 16 3 17 4 15 5 12 6 13 7 90 8 14 9 11 10 10 11
REMARK SMILES IDX 8 12 9 13 6 15 7 16 5 17 4 18 1 19 2 20 3 21 92 22 91 23
REMARK SMILES IDX 20 25 21 26 22 27 23 28 24 29 25 30 26 31 27 32 28 33 89 34
REMARK SMILES IDX 29 35 88 36 30 37 31 38 32 39 82 40 33 41 87 42 81 43 83 44
REMARK SMILES IDX 34 45 86 46 80 47 79 48 35 50 67 51 47 52 66 53 48 54 51 55
REMARK SMILES IDX 65 56 84 57 49 58 50 59 64 61 85 62 52 63 36 64 37 65 45 66
REMARK SMILES IDX 38 67 39 68 43 69 46 70 40 71 41 72 44 73 42 74 68 75 69 76
REMARK SMILES IDX 77 77 70 78 71 79 75 80 78 81 72 82 73 83 76 84 74 85 53 86
REMARK SMILES IDX 54 87 62 88 55 89 56 90 60 91 63 92 57 93 58 94 61 95 59 96
REMARK H PARENT 10 14 92 24 83 49 51 60
REMARK Flexibility Score: inf
ROOT
ATOM      1  C   UNL A   1      42.377  18.698  26.321  1.00  0.00     0.261 C 
ENDROOT
BRANCH   1   2
ATOM      2  O   UNL A   1      41.544  19.749  26.840  1.00  0.00    -0.457 OA
BRANCH   2   3
ATOM      3  C   UNL A   1      40.408  20.015  26.130  1.00  0.00     0.374 C 
ATOM      4  O   UNL A   1      39.788  19.195  25.469  1.00  0.00    -0.242 OA
BRANCH   3   5
ATOM      5  C   UNL A   1      39.994  21.373  26.397  1.00  0.00     0.211 A 
ATOM      6  C   UNL A   1      38.521  23.019  26.386  1.00  0.00     0.124 A 
ATOM      7  C   UNL A   1      39.594  23.458  27.136  1.00  0.00     0.048 A 
ATOM      8  O   UNL A   1      38.777  21.769  25.908  1.00  0.00    -0.452 OA
ATOM      9  C   UNL A   1      40.533  22.398  27.155  1.00  0.00     0.058 A 
BRANCH   6  10
ATOM     10  C   UNL A   1      37.182  23.567  26.051  1.00  0.00     0.193 C 
BRANCH  10  11
ATOM     11  N   UNL A   1      36.180  22.539  26.201  1.00  0.00    -0.331 N 
ATOM     12  C   UNL A   1      34.886  22.400  25.874  1.00  0.00     0.317 C 
ATOM     13  O   UNL A   1      34.332  21.421  26.385  1.00  0.00    -0.249 OA
ATOM     14  H   UNL A   1      36.534  21.742  26.655  1.00  0.00     0.165 HD
BRANCH  12  15
ATOM     15  N   UNL A   1      34.223  23.263  25.051  1.00  0.00    -0.320 N 
ATOM     16  C   UNL A   1      33.797  23.026  23.685  1.00  0.00     0.149 C 
BRANCH  15  17
ATOM     17  C   UNL A   1      33.720  24.495  25.677  1.00  0.00     0.200 C 
BRANCH  17  18
ATOM     18  C   UNL A   1      32.228  24.615  25.568  1.00  0.00     0.170 A 
ATOM     19  C   UNL A   1      29.250  26.188  24.391  1.00  0.00     0.089 C 
ATOM     20  C   UNL A   1      30.359  25.401  24.965  1.00  0.00     0.121 A 
ATOM     21  N   UNL A   1      31.642  25.522  24.714  1.00  0.00    -0.215 NA
ATOM     22  N   UNL A   1      30.182  24.415  25.893  1.00  0.00    -0.263 N 
ATOM     23  N   UNL A   1      31.352  23.870  26.264  1.00  0.00    -0.157 NA
ATOM     24  H   UNL A   1      29.306  24.139  26.246  1.00  0.00     0.192 HD
ENDBRANCH  17  18
ENDBRANCH  15  17
ENDBRANCH  12  15
ENDBRANCH  10  11
ENDBRANCH   6  10
ENDBRANCH   3   5
ENDBRANCH   2   3
ENDBRANCH   1   2
BRANCH   1  25
ATOM     25  C   UNL A   1      43.386  19.282  25.328  1.00  0.00     0.202 C 
BRANCH  25  26
ATOM     26  O   UNL A   1      43.831  20.598  25.669  1.00  0.00    -0.374 OA
BRANCH  26  27
ATOM     27  C   UNL A   1      44.801  21.180  24.794  1.00  0.00     0.202 C 
BRANCH  27  28
ATOM     28  C   UNL A   1      45.351  22.525  25.279  1.00  0.00     0.261 C 
BRANCH  28  29
ATOM     29  O   UNL A   1      44.468  23.598  24.900  1.00  0.00    -0.460 OA
BRANCH  29  30
ATOM     30  C   UNL A   1      44.955  24.843  25.118  1.00  0.00     0.338 C 
ATOM     31  O   UNL A   1      45.889  25.381  24.552  1.00  0.00    -0.246 OA
BRANCH  30  32
ATOM     32  C   UNL A   1      44.078  25.564  26.063  1.00  0.00     0.060 A 
ATOM     33  C   UNL A   1      44.275  26.945  26.189  1.00  0.00     0.016 A 
ATOM     34  C   UNL A   1      43.125  24.911  26.851  1.00  0.00     0.016 A 
ATOM     35  C   UNL A   1      43.562  27.668  27.142  1.00  0.00     0.010 A 
ATOM     36  C   UNL A   1      42.412  25.639  27.811  1.00  0.00     0.010 A 
ATOM     37  C   UNL A   1      42.655  27.012  27.985  1.00  0.00    -0.014 A 
BRANCH  37  38
ATOM     38  C   UNL A   1      42.087  27.746  29.142  1.00  0.00     0.031 A 
ATOM     39  C   UNL A   1      42.805  27.693  30.461  1.00  0.00     0.074 A 
ATOM     40  C   UNL A   1      40.976  28.490  29.008  1.00  0.00     0.049 A 
ATOM     41  N   UNL A   1      42.509  28.280  31.594  1.00  0.00    -0.248 NA
ATOM     42  C   UNL A   1      44.024  26.869  30.511  1.00  0.00     0.031 C 
ATOM     43  C   UNL A   1      40.206  28.645  27.777  1.00  0.00     0.029 A 
ATOM     44  N   UNL A   1      40.305  29.259  29.926  1.00  0.00    -0.354 N 
ATOM     45  C   UNL A   1      43.502  27.898  32.487  1.00  0.00     0.074 A 
ATOM     46  C   UNL A   1      44.392  27.005  31.777  1.00  0.00     0.031 C 
ATOM     47  C   UNL A   1      39.160  29.456  28.016  1.00  0.00     0.029 A 
ATOM     48  C   UNL A   1      39.181  29.862  29.420  1.00  0.00     0.049 A 
ATOM     49  H   UNL A   1      40.602  29.367  30.859  1.00  0.00     0.167 HD
ATOM     50  C   UNL A   1      43.666  28.270  33.778  1.00  0.00     0.037 A 
ATOM     51  C   UNL A   1      38.270  30.647  30.027  1.00  0.00     0.037 A 
ATOM     52  C   UNL A   1      42.784  29.159  34.488  1.00  0.00     0.049 A 
ATOM     53  C   UNL A   1      38.444  31.002  31.480  1.00  0.00     0.074 A 
ATOM     54  C   UNL A   1      42.879  29.610  35.793  1.00  0.00     0.029 A 
ATOM     55  N   UNL A   1      41.639  29.726  33.950  1.00  0.00    -0.354 N 
ATOM     56  N   UNL A   1      39.405  30.667  32.306  1.00  0.00    -0.248 NA
ATOM     57  C   UNL A   1      37.407  31.852  32.083  1.00  0.00     0.031 C 
ATOM     58  C   UNL A   1      41.768  30.419  36.057  1.00  0.00     0.029 A 
ATOM     59  C   UNL A   1      41.005  30.506  34.904  1.00  0.00     0.049 A 
ATOM     60  H   UNL A   1      41.323  29.595  33.026  1.00  0.00     0.167 HD
ATOM     61  C   UNL A   1      39.105  31.283  33.514  1.00  0.00     0.074 A 
ATOM     62  C   UNL A   1      37.877  32.024  33.312  1.00  0.00     0.031 C 
ATOM     63  C   UNL A   1      39.787  31.241  34.685  1.00  0.00     0.037 A 
BRANCH  50  64
ATOM     64  C   UNL A   1      44.839  27.698  34.514  1.00  0.00     0.064 A 
ATOM     65  C   UNL A   1      46.078  28.355  34.544  1.00  0.00     0.173 A 
ATOM     66  C   UNL A   1      44.717  26.491  35.218  1.00  0.00     0.173 A 
ATOM     67  F   UNL A   1      46.249  29.504  33.873  1.00  0.00    -0.203 F 
ATOM     68  C   UNL A   1      47.159  27.813  35.234  1.00  0.00     0.198 A 
ATOM     69  C   UNL A   1      45.793  25.964  35.928  1.00  0.00     0.198 A 
ATOM     70  F   UNL A   1      43.552  25.826  35.222  1.00  0.00    -0.203 F 
ATOM     71  F   UNL A   1      48.346  28.436  35.215  1.00  0.00    -0.200 F 
ATOM     72  C   UNL A   1      47.014  26.621  35.930  1.00  0.00     0.200 A 
ATOM     73  F   UNL A   1      45.649  24.817  36.605  1.00  0.00    -0.200 F 
ATOM     74  F   UNL A   1      48.054  26.102  36.596  1.00  0.00    -0.200 F 
ENDBRANCH  50  64
BRANCH  51  75
ATOM     75  C   UNL A   1      37.103  31.154  29.261  1.00  0.00     0.064 A 
ATOM     76  C   UNL A   1      37.048  32.485  28.825  1.00  0.00     0.173 A 
ATOM     77  C   UNL A   1      36.015  30.322  28.964  1.00  0.00     0.173 A 
ATOM     78  F   UNL A   1      38.054  33.325  29.108  1.00  0.00    -0.203 F 
ATOM     79  C   UNL A   1      35.940  32.968  28.133  1.00  0.00     0.198 A 
ATOM     80  C   UNL A   1      34.917  30.800  28.251  1.00  0.00     0.198 A 
ATOM     81  F   UNL A   1      36.019  29.041  29.362  1.00  0.00    -0.203 F 
ATOM     82  F   UNL A   1      35.893  34.256  27.763  1.00  0.00    -0.200 F 
ATOM     83  C   UNL A   1      34.878  32.124  27.842  1.00  0.00     0.200 A 
ATOM     84  F   UNL A   1      33.896  29.980  27.966  1.00  0.00    -0.200 F 
ATOM     85  F   UNL A   1      33.812  32.591  27.176  1.00  0.00    -0.200 F 
ENDBRANCH  51  75
BRANCH  63  86
ATOM     86  C   UNL A   1      39.236  32.039  35.830  1.00  0.00     0.064 A 
ATOM     87  C   UNL A   1      38.320  31.487  36.737  1.00  0.00     0.173 A 
ATOM     88  C   UNL A   1      39.661  33.360  36.044  1.00  0.00     0.173 A 
ATOM     89  F   UNL A   1      37.874  30.235  36.567  1.00  0.00    -0.203 F 
ATOM     90  C   UNL A   1      37.830  32.237  37.804  1.00  0.00     0.198 A 
ATOM     91  C   UNL A   1      39.188  34.098  37.126  1.00  0.00     0.198 A 
ATOM     92  F   UNL A   1      40.540  33.931  35.209  1.00  0.00    -0.203 F 
ATOM     93  F   UNL A   1      36.923  31.704  38.633  1.00  0.00    -0.200 F 
ATOM     94  C   UNL A   1      38.268  33.538  38.000  1.00  0.00     0.200 A 
ATOM     95  F   UNL A   1      39.621  35.351  37.321  1.00  0.00    -0.200 F 
ATOM     96  F   UNL A   1      37.799  34.255  39.030  1.00  0.00    -0.200 F 
ENDBRANCH  63  86
ENDBRANCH  37  38
ENDBRANCH  30  32
ENDBRANCH  29  30
ENDBRANCH  28  29
ENDBRANCH  27  28
ENDBRANCH  26  27
ENDBRANCH  25  26
ENDBRANCH   1  25
TORSDOF 19
ENDMDL
