MODEL 1
REMARK VINA RESULT:     -10.9      0.000      0.000
REMARK SMILES CC/C(=C/C(=O)[C@H](Cc1ccc(Cl)cc1Cl)C(=O)OCCOCCOC(=O)c1ccc(-c2c3nc(c(-c4c(F)c(F)c(F)c(F)c4F)c4ccc([nH]4)c(-c4c(F)c(F)c(F)c(F)c4F)c4nc(c(-c5c(F)c(F)c(F)c(F)c5F)c5ccc2[nH]5)C=C4)C=C3)cc1)N(C)C
REMARK SMILES IDX 21 1 20 2 19 3 17 4 18 5 7 6 5 7 6 8 4 9 3 10 2 11 1 12
REMARK SMILES IDX 91 13 92 14 93 15 8 16 9 17 10 18 15 19 11 20 14 21 16 22
REMARK SMILES IDX 12 23 13 24 22 25 23 26 24 27 25 28 26 29 27 30 28 31 29 32
REMARK SMILES IDX 90 33 30 34 89 35 31 36 32 37 33 38 83 39 34 40 88 41 82 42
REMARK SMILES IDX 84 43 35 44 87 45 81 46 80 47 36 49 68 50 48 51 67 52 49 53
REMARK SMILES IDX 52 54 66 55 85 56 50 57 51 58 65 60 86 61 53 62 37 63 38 64
REMARK SMILES IDX 46 65 39 66 40 67 44 68 47 69 41 70 42 71 45 72 43 73 69 74
REMARK SMILES IDX 70 75 78 76 71 77 72 78 76 79 79 80 73 81 74 82 77 83 75 84
REMARK SMILES IDX 54 85 55 86 63 87 56 88 57 89 61 90 64 91 58 92 59 93 62 94
REMARK SMILES IDX 60 95
REMARK H PARENT 84 48 52 59
REMARK Flexibility Score: inf
ROOT
ATOM      1  C   UNL A   1      32.374  29.274  27.110  1.00  0.00     0.202 C 
ENDROOT
BRANCH   1   2
ATOM      2  C   UNL A   1      31.404  28.218  26.571  1.00  0.00     0.261 C 
BRANCH   2   3
ATOM      3  O   UNL A   1      31.962  26.880  26.660  1.00  0.00    -0.463 OA
BRANCH   3   4
ATOM      4  C   UNL A   1      31.122  25.943  26.153  1.00  0.00     0.317 C 
ATOM      5  O   UNL A   1      29.964  25.874  26.547  1.00  0.00    -0.251 OA
BRANCH   4   6
ATOM      6  C   UNL A   1      31.679  25.009  25.074  1.00  0.00     0.175 C 
BRANCH   6   7
ATOM      7  C   UNL A   1      30.873  25.150  23.776  1.00  0.00     0.171 C 
ATOM      8  O   UNL A   1      30.371  24.172  23.211  1.00  0.00    -0.294 OA
BRANCH   7   9
ATOM      9  C   UNL A   1      30.566  26.487  23.193  1.00  0.00     0.069 C 
ATOM     10  C   UNL A   1      31.383  27.501  22.837  1.00  0.00     0.016 C 
BRANCH  10  11
ATOM     11  C   UNL A   1      30.682  28.847  22.618  1.00  0.00     0.050 C 
ATOM     12  C   UNL A   1      29.383  28.980  23.415  1.00  0.00     0.010 C 
ENDBRANCH  10  11
BRANCH  10  13
ATOM     13  N   UNL A   1      32.781  27.482  22.697  1.00  0.00    -0.381 N 
ATOM     14  C   UNL A   1      33.632  28.578  23.185  1.00  0.00     0.143 C 
ATOM     15  C   UNL A   1      33.537  26.401  22.070  1.00  0.00     0.143 C 
ENDBRANCH  10  13
ENDBRANCH   7   9
ENDBRANCH   6   7
BRANCH   6  16
ATOM     16  C   UNL A   1      31.908  23.489  25.348  1.00  0.00     0.060 C 
BRANCH  16  17
ATOM     17  C   UNL A   1      33.293  22.889  25.501  1.00  0.00    -0.028 A 
ATOM     18  C   UNL A   1      34.318  23.580  26.170  1.00  0.00     0.007 A 
ATOM     19  C   UNL A   1      33.656  21.697  24.903  1.00  0.00     0.045 A 
ATOM     20  C   UNL A   1      35.657  23.176  26.041  1.00  0.00     0.021 A 
ATOM     21  C   UNL A   1      34.970  21.473  24.518  1.00  0.00     0.041 A 
ATOM     22  Cl  UNL A   1      32.754  20.284  25.364  1.00  0.00    -0.084 Cl
ATOM     23  C   UNL A   1      35.981  22.191  25.121  1.00  0.00     0.042 A 
ATOM     24  Cl  UNL A   1      37.616  21.761  24.814  1.00  0.00    -0.084 Cl
ENDBRANCH  16  17
ENDBRANCH   6  16
ENDBRANCH   4   6
ENDBRANCH   3   4
ENDBRANCH   2   3
ENDBRANCH   1   2
BRANCH   1  25
ATOM     25  O   UNL A   1      32.543  30.425  26.293  1.00  0.00    -0.374 OA
BRANCH  25  26
ATOM     26  C   UNL A   1      31.526  31.432  26.442  1.00  0.00     0.202 C 
BRANCH  26  27
ATOM     27  C   UNL A   1      31.966  32.839  26.912  1.00  0.00     0.261 C 
BRANCH  27  28
ATOM     28  O   UNL A   1      32.855  32.858  28.045  1.00  0.00    -0.460 OA
BRANCH  28  29
ATOM     29  C   UNL A   1      33.903  33.706  28.021  1.00  0.00     0.338 C 
ATOM     30  O   UNL A   1      33.841  34.920  27.923  1.00  0.00    -0.246 OA
BRANCH  29  31
ATOM     31  C   UNL A   1      35.131  32.946  28.415  1.00  0.00     0.060 A 
ATOM     32  C   UNL A   1      35.009  31.566  28.618  1.00  0.00     0.016 A 
ATOM     33  C   UNL A   1      36.401  33.535  28.469  1.00  0.00     0.016 A 
ATOM     34  C   UNL A   1      36.127  30.792  28.957  1.00  0.00     0.010 A 
ATOM     35  C   UNL A   1      37.527  32.754  28.768  1.00  0.00     0.010 A 
ATOM     36  C   UNL A   1      37.389  31.390  29.082  1.00  0.00    -0.014 A 
BRANCH  36  37
ATOM     37  C   UNL A   1      38.494  30.682  29.795  1.00  0.00     0.031 A 
ATOM     38  C   UNL A   1      38.730  31.040  31.246  1.00  0.00     0.074 A 
ATOM     39  C   UNL A   1      39.266  29.744  29.211  1.00  0.00     0.049 A 
ATOM     40  N   UNL A   1      39.649  30.615  32.077  1.00  0.00    -0.248 NA
ATOM     41  C   UNL A   1      37.814  32.035  31.828  1.00  0.00     0.031 C 
ATOM     42  C   UNL A   1      39.158  29.293  27.827  1.00  0.00     0.029 A 
ATOM     43  N   UNL A   1      40.312  29.009  29.722  1.00  0.00    -0.354 N 
ATOM     44  C   UNL A   1      39.426  31.303  33.264  1.00  0.00     0.074 A 
ATOM     45  C   UNL A   1      38.338  32.223  33.028  1.00  0.00     0.031 C 
ATOM     46  C   UNL A   1      40.102  28.359  27.597  1.00  0.00     0.029 A 
ATOM     47  C   UNL A   1      40.895  28.160  28.811  1.00  0.00     0.049 A 
ATOM     48  H   UNL A   1      40.615  29.084  30.656  1.00  0.00     0.167 HD
ATOM     49  C   UNL A   1      40.042  31.162  34.461  1.00  0.00     0.037 A 
ATOM     50  C   UNL A   1      41.949  27.325  28.943  1.00  0.00     0.037 A 
ATOM     51  C   UNL A   1      41.106  30.233  34.716  1.00  0.00     0.049 A 
ATOM     52  C   UNL A   1      42.657  27.218  30.276  1.00  0.00     0.074 A 
ATOM     53  C   UNL A   1      41.777  29.996  35.902  1.00  0.00     0.029 A 
ATOM     54  N   UNL A   1      41.653  29.386  33.766  1.00  0.00    -0.354 N 
ATOM     55  N   UNL A   1      42.399  27.833  31.405  1.00  0.00    -0.248 NA
ATOM     56  C   UNL A   1      43.798  26.290  30.356  1.00  0.00     0.031 C 
ATOM     57  C   UNL A   1      42.763  29.037  35.659  1.00  0.00     0.029 A 
ATOM     58  C   UNL A   1      42.663  28.632  34.338  1.00  0.00     0.049 A 
ATOM     59  H   UNL A   1      41.367  29.329  32.825  1.00  0.00     0.167 HD
ATOM     60  C   UNL A   1      43.302  27.326  32.334  1.00  0.00     0.074 A 
ATOM     61  C   UNL A   1      44.121  26.359  31.639  1.00  0.00     0.031 C 
ATOM     62  C   UNL A   1      43.435  27.633  33.648  1.00  0.00     0.037 A 
BRANCH  49  63
ATOM     63  C   UNL A   1      39.567  32.028  35.592  1.00  0.00     0.064 A 
ATOM     64  C   UNL A   1      40.089  33.315  35.799  1.00  0.00     0.173 A 
ATOM     65  C   UNL A   1      38.558  31.582  36.459  1.00  0.00     0.173 A 
ATOM     66  F   UNL A   1      41.065  33.783  35.007  1.00  0.00    -0.203 F 
ATOM     67  C   UNL A   1      39.642  34.108  36.852  1.00  0.00     0.198 A 
ATOM     68  C   UNL A   1      38.088  32.394  37.488  1.00  0.00     0.198 A 
ATOM     69  F   UNL A   1      38.020  30.364  36.303  1.00  0.00    -0.203 F 
ATOM     70  F   UNL A   1      40.198  35.310  37.064  1.00  0.00    -0.200 F 
ATOM     71  C   UNL A   1      38.637  33.652  37.689  1.00  0.00     0.200 A 
ATOM     72  F   UNL A   1      37.105  31.958  38.287  1.00  0.00    -0.200 F 
ATOM     73  F   UNL A   1      38.200  34.421  38.696  1.00  0.00    -0.200 F 
ENDBRANCH  49  63
BRANCH  50  74
ATOM     74  C   UNL A   1      42.406  26.494  27.793  1.00  0.00     0.064 A 
ATOM     75  C   UNL A   1      43.401  26.955  26.918  1.00  0.00     0.173 A 
ATOM     76  C   UNL A   1      41.822  25.250  27.511  1.00  0.00     0.173 A 
ATOM     77  F   UNL A   1      43.971  28.152  27.126  1.00  0.00    -0.203 F 
ATOM     78  C   UNL A   1      43.771  26.222  25.792  1.00  0.00     0.198 A 
ATOM     79  C   UNL A   1      42.215  24.504  26.400  1.00  0.00     0.198 A 
ATOM     80  F   UNL A   1      40.862  24.762  28.309  1.00  0.00    -0.203 F 
ATOM     81  F   UNL A   1      44.679  26.719  24.940  1.00  0.00    -0.200 F 
ATOM     82  C   UNL A   1      43.181  24.995  25.535  1.00  0.00     0.200 A 
ATOM     83  F   UNL A   1      41.648  23.313  26.160  1.00  0.00    -0.200 F 
ATOM     84  F   UNL A   1      43.533  24.293  24.449  1.00  0.00    -0.200 F 
ENDBRANCH  50  74
BRANCH  62  85
ATOM     85  C   UNL A   1      44.434  26.863  34.462  1.00  0.00     0.064 A 
ATOM     86  C   UNL A   1      45.723  27.351  34.714  1.00  0.00     0.173 A 
ATOM     87  C   UNL A   1      44.050  25.666  35.090  1.00  0.00     0.173 A 
ATOM     88  F   UNL A   1      46.142  28.485  34.133  1.00  0.00    -0.203 F 
ATOM     89  C   UNL A   1      46.594  26.665  35.558  1.00  0.00     0.198 A 
ATOM     90  C   UNL A   1      44.911  25.000  35.955  1.00  0.00     0.198 A 
ATOM     91  F   UNL A   1      42.822  25.163  34.890  1.00  0.00    -0.203 F 
ATOM     92  F   UNL A   1      47.832  27.135  35.766  1.00  0.00    -0.200 F 
ATOM     93  C   UNL A   1      46.184  25.498  36.187  1.00  0.00     0.200 A 
ATOM     94  F   UNL A   1      44.505  23.884  36.577  1.00  0.00    -0.200 F 
ATOM     95  F   UNL A   1      47.014  24.854  37.018  1.00  0.00    -0.200 F 
ENDBRANCH  62  85
ENDBRANCH  36  37
ENDBRANCH  29  31
ENDBRANCH  28  29
ENDBRANCH  27  28
ENDBRANCH  26  27
ENDBRANCH  25  26
ENDBRANCH   1  25
TORSDOF 20
ENDMDL
MODEL 2
REMARK VINA RESULT:     -10.9      0.933      2.293
REMARK SMILES CC/C(=C/C(=O)[C@H](Cc1ccc(Cl)cc1Cl)C(=O)OCCOCCOC(=O)c1ccc(-c2c3nc(c(-c4c(F)c(F)c(F)c(F)c4F)c4ccc([nH]4)c(-c4c(F)c(F)c(F)c(F)c4F)c4nc(c(-c5c(F)c(F)c(F)c(F)c5F)c5ccc2[nH]5)C=C4)C=C3)cc1)N(C)C
REMARK SMILES IDX 21 1 20 2 19 3 17 4 18 5 7 6 5 7 6 8 4 9 3 10 2 11 1 12
REMARK SMILES IDX 91 13 92 14 93 15 8 16 9 17 10 18 15 19 11 20 14 21 16 22
REMARK SMILES IDX 12 23 13 24 22 25 23 26 24 27 25 28 26 29 27 30 28 31 29 32
REMARK SMILES IDX 90 33 30 34 89 35 31 36 32 37 33 38 83 39 34 40 88 41 82 42
REMARK SMILES IDX 84 43 35 44 87 45 81 46 80 47 36 49 68 50 48 51 67 52 49 53
REMARK SMILES IDX 52 54 66 55 85 56 50 57 51 58 65 60 86 61 53 62 37 63 38 64
REMARK SMILES IDX 46 65 39 66 40 67 44 68 47 69 41 70 42 71 45 72 43 73 69 74
REMARK SMILES IDX 70 75 78 76 71 77 72 78 76 79 79 80 73 81 74 82 77 83 75 84
REMARK SMILES IDX 54 85 55 86 63 87 56 88 57 89 61 90 64 91 58 92 59 93 62 94
REMARK SMILES IDX 60 95
REMARK H PARENT 84 48 52 59
REMARK Flexibility Score: inf
ROOT
ATOM      1  C   UNL A   1      32.654  29.700  27.081  1.00  0.00     0.202 C 
ENDROOT
BRANCH   1   2
ATOM      2  C   UNL A   1      32.352  28.244  26.715  1.00  0.00     0.261 C 
BRANCH   2   3
ATOM      3  O   UNL A   1      33.423  27.653  25.931  1.00  0.00    -0.463 OA
BRANCH   3   4
ATOM      4  C   UNL A   1      33.104  26.410  25.491  1.00  0.00     0.317 C 
ATOM      5  O   UNL A   1      32.183  25.788  26.009  1.00  0.00    -0.251 OA
BRANCH   4   6
ATOM      6  C   UNL A   1      33.925  25.845  24.327  1.00  0.00     0.175 C 
BRANCH   6   7
ATOM      7  C   UNL A   1      33.445  26.438  22.996  1.00  0.00     0.171 C 
ATOM      8  O   UNL A   1      33.856  26.018  21.909  1.00  0.00    -0.294 OA
BRANCH   7   9
ATOM      9  C   UNL A   1      32.378  27.478  22.948  1.00  0.00     0.069 C 
ATOM     10  C   UNL A   1      31.033  27.362  22.991  1.00  0.00     0.016 C 
BRANCH  10  11
ATOM     11  C   UNL A   1      30.266  28.614  22.551  1.00  0.00     0.050 C 
ATOM     12  C   UNL A   1      30.145  29.661  23.660  1.00  0.00     0.010 C 
ENDBRANCH  10  11
BRANCH  10  13
ATOM     13  N   UNL A   1      30.268  26.234  23.334  1.00  0.00    -0.381 N 
ATOM     14  C   UNL A   1      30.697  24.867  23.000  1.00  0.00     0.143 C 
ATOM     15  C   UNL A   1      28.994  26.282  24.046  1.00  0.00     0.143 C 
ENDBRANCH  10  13
ENDBRANCH   7   9
ENDBRANCH   6   7
BRANCH   6  16
ATOM     16  C   UNL A   1      34.122  24.308  24.138  1.00  0.00     0.060 C 
BRANCH  16  17
ATOM     17  C   UNL A   1      35.222  23.535  24.842  1.00  0.00    -0.028 A 
ATOM     18  C   UNL A   1      36.126  24.176  25.706  1.00  0.00     0.007 A 
ATOM     19  C   UNL A   1      35.469  22.198  24.590  1.00  0.00     0.045 A 
ATOM     20  C   UNL A   1      37.313  23.539  26.103  1.00  0.00     0.021 A 
ATOM     21  C   UNL A   1      36.750  21.683  24.714  1.00  0.00     0.041 A 
ATOM     22  Cl  UNL A   1      34.173  21.088  24.926  1.00  0.00    -0.084 Cl
ATOM     23  C   UNL A   1      37.668  22.338  25.508  1.00  0.00     0.042 A 
ATOM     24  Cl  UNL A   1      39.177  21.588  25.844  1.00  0.00    -0.084 Cl
ENDBRANCH  16  17
ENDBRANCH   6  16
ENDBRANCH   4   6
ENDBRANCH   3   4
ENDBRANCH   2   3
ENDBRANCH   1   2
BRANCH   1  25
ATOM     25  O   UNL A   1      32.327  30.662  26.086  1.00  0.00    -0.374 OA
BRANCH  25  26
ATOM     26  C   UNL A   1      31.400  31.680  26.506  1.00  0.00     0.202 C 
BRANCH  26  27
ATOM     27  C   UNL A   1      31.969  33.076  26.856  1.00  0.00     0.261 C 
BRANCH  27  28
ATOM     28  O   UNL A   1      32.659  33.158  28.119  1.00  0.00    -0.460 OA
BRANCH  28  29
ATOM     29  C   UNL A   1      33.687  34.022  28.230  1.00  0.00     0.338 C 
ATOM     30  O   UNL A   1      33.602  35.239  28.265  1.00  0.00    -0.246 OA
BRANCH  29  31
ATOM     31  C   UNL A   1      34.916  33.246  28.584  1.00  0.00     0.060 A 
ATOM     32  C   UNL A   1      34.787  31.863  28.766  1.00  0.00     0.016 A 
ATOM     33  C   UNL A   1      36.192  33.822  28.621  1.00  0.00     0.016 A 
ATOM     34  C   UNL A   1      35.906  31.075  29.067  1.00  0.00     0.010 A 
ATOM     35  C   UNL A   1      37.318  33.028  28.882  1.00  0.00     0.010 A 
ATOM     36  C   UNL A   1      37.175  31.659  29.175  1.00  0.00    -0.014 A 
BRANCH  36  37
ATOM     37  C   UNL A   1      38.289  30.930  29.852  1.00  0.00     0.031 A 
ATOM     38  C   UNL A   1      38.539  31.238  31.311  1.00  0.00     0.074 A 
ATOM     39  C   UNL A   1      39.056  30.015  29.228  1.00  0.00     0.049 A 
ATOM     40  N   UNL A   1      39.468  30.787  32.117  1.00  0.00    -0.248 NA
ATOM     41  C   UNL A   1      37.628  32.211  31.937  1.00  0.00     0.031 C 
ATOM     42  C   UNL A   1      38.935  29.611  27.830  1.00  0.00     0.029 A 
ATOM     43  N   UNL A   1      40.110  29.265  29.702  1.00  0.00    -0.354 N 
ATOM     44  C   UNL A   1      39.256  31.434  33.330  1.00  0.00     0.074 A 
ATOM     45  C   UNL A   1      38.164  32.359  33.137  1.00  0.00     0.031 C 
ATOM     46  C   UNL A   1      39.878  28.687  27.558  1.00  0.00     0.029 A 
ATOM     47  C   UNL A   1      40.685  28.449  28.756  1.00  0.00     0.049 A 
ATOM     48  H   UNL A   1      40.423  29.309  30.634  1.00  0.00     0.167 HD
ATOM     49  C   UNL A   1      39.885  31.253  34.514  1.00  0.00     0.037 A 
ATOM     50  C   UNL A   1      41.742  27.613  28.848  1.00  0.00     0.037 A 
ATOM     51  C   UNL A   1      40.954  30.319  34.726  1.00  0.00     0.049 A 
ATOM     52  C   UNL A   1      42.464  27.462  30.169  1.00  0.00     0.074 A 
ATOM     53  C   UNL A   1      41.638  30.043  35.897  1.00  0.00     0.029 A 
ATOM     54  N   UNL A   1      41.493  29.506  33.743  1.00  0.00    -0.354 N 
ATOM     55  N   UNL A   1      42.217  28.036  31.322  1.00  0.00    -0.248 NA
ATOM     56  C   UNL A   1      43.608  26.534  30.205  1.00  0.00     0.031 C 
ATOM     57  C   UNL A   1      42.624  29.095  35.611  1.00  0.00     0.029 A 
ATOM     58  C   UNL A   1      42.510  28.735  34.277  1.00  0.00     0.049 A 
ATOM     59  H   UNL A   1      41.197  29.480  32.803  1.00  0.00     0.167 HD
ATOM     60  C   UNL A   1      43.131  27.501  32.223  1.00  0.00     0.074 A 
ATOM     61  C   UNL A   1      43.944  26.559  31.487  1.00  0.00     0.031 C 
ATOM     62  C   UNL A   1      43.277  27.762  33.545  1.00  0.00     0.037 A 
BRANCH  49  63
ATOM     63  C   UNL A   1      39.421  32.079  35.680  1.00  0.00     0.064 A 
ATOM     64  C   UNL A   1      38.439  31.608  36.568  1.00  0.00     0.173 A 
ATOM     65  C   UNL A   1      39.983  33.339  35.933  1.00  0.00     0.173 A 
ATOM     66  F   UNL A   1      37.859  30.416  36.362  1.00  0.00    -0.203 F 
ATOM     67  C   UNL A   1      38.016  32.383  37.643  1.00  0.00     0.198 A 
ATOM     68  C   UNL A   1      39.583  34.095  37.032  1.00  0.00     0.198 A 
ATOM     69  F   UNL A   1      40.929  33.834  35.120  1.00  0.00    -0.203 F 
ATOM     70  F   UNL A   1      37.035  31.937  38.441  1.00  0.00    -0.200 F 
ATOM     71  C   UNL A   1      38.593  33.620  37.879  1.00  0.00     0.200 A 
ATOM     72  F   UNL A   1      40.154  35.284  37.268  1.00  0.00    -0.200 F 
ATOM     73  F   UNL A   1      38.192  34.361  38.922  1.00  0.00    -0.200 F 
ENDBRANCH  49  63
BRANCH  50  74
ATOM     74  C   UNL A   1      42.188  26.822  27.666  1.00  0.00     0.064 A 
ATOM     75  C   UNL A   1      41.676  25.540  27.419  1.00  0.00     0.173 A 
ATOM     76  C   UNL A   1      43.173  27.305  26.791  1.00  0.00     0.173 A 
ATOM     77  F   UNL A   1      40.754  25.019  28.243  1.00  0.00    -0.203 F 
ATOM     78  C   UNL A   1      42.152  24.760  26.367  1.00  0.00     0.198 A 
ATOM     79  C   UNL A   1      43.627  26.535  25.720  1.00  0.00     0.198 A 
ATOM     80  F   UNL A   1      43.702  28.521  26.981  1.00  0.00    -0.203 F 
ATOM     81  F   UNL A   1      41.689  23.513  26.195  1.00  0.00    -0.200 F 
ATOM     82  C   UNL A   1      43.125  25.259  25.515  1.00  0.00     0.200 A 
ATOM     83  F   UNL A   1      44.561  27.026  24.894  1.00  0.00    -0.200 F 
ATOM     84  F   UNL A   1      43.587  24.508  24.507  1.00  0.00    -0.200 F 
ENDBRANCH  50  74
BRANCH  62  85
ATOM     85  C   UNL A   1      44.286  26.967  34.322  1.00  0.00     0.064 A 
ATOM     86  C   UNL A   1      43.979  25.725  34.890  1.00  0.00     0.173 A 
ATOM     87  C   UNL A   1      45.616  27.416  34.402  1.00  0.00     0.173 A 
ATOM     88  F   UNL A   1      42.723  25.256  34.849  1.00  0.00    -0.203 F 
ATOM     89  C   UNL A   1      44.962  24.962  35.517  1.00  0.00     0.198 A 
ATOM     90  C   UNL A   1      46.601  26.639  35.001  1.00  0.00     0.198 A 
ATOM     91  F   UNL A   1      45.965  28.594  33.863  1.00  0.00    -0.203 F 
ATOM     92  F   UNL A   1      44.642  23.787  36.076  1.00  0.00    -0.200 F 
ATOM     93  C   UNL A   1      46.274  25.414  35.561  1.00  0.00     0.200 A 
ATOM     94  F   UNL A   1      47.871  27.068  35.024  1.00  0.00    -0.200 F 
ATOM     95  F   UNL A   1      47.223  24.666  36.141  1.00  0.00    -0.200 F 
ENDBRANCH  62  85
ENDBRANCH  36  37
ENDBRANCH  29  31
ENDBRANCH  28  29
ENDBRANCH  27  28
ENDBRANCH  26  27
ENDBRANCH  25  26
ENDBRANCH   1  25
TORSDOF 20
ENDMDL
MODEL 3
REMARK VINA RESULT:     -10.8      1.836      3.455
REMARK SMILES CC/C(=C/C(=O)[C@H](Cc1ccc(Cl)cc1Cl)C(=O)OCCOCCOC(=O)c1ccc(-c2c3nc(c(-c4c(F)c(F)c(F)c(F)c4F)c4ccc([nH]4)c(-c4c(F)c(F)c(F)c(F)c4F)c4nc(c(-c5c(F)c(F)c(F)c(F)c5F)c5ccc2[nH]5)C=C4)C=C3)cc1)N(C)C
REMARK SMILES IDX 21 1 20 2 19 3 17 4 18 5 7 6 5 7 6 8 4 9 3 10 2 11 1 12
REMARK SMILES IDX 91 13 92 14 93 15 8 16 9 17 10 18 15 19 11 20 14 21 16 22
REMARK SMILES IDX 12 23 13 24 22 25 23 26 24 27 25 28 26 29 27 30 28 31 29 32
REMARK SMILES IDX 90 33 30 34 89 35 31 36 32 37 33 38 83 39 34 40 88 41 82 42
REMARK SMILES IDX 84 43 35 44 87 45 81 46 80 47 36 49 68 50 48 51 67 52 49 53
REMARK SMILES IDX 52 54 66 55 85 56 50 57 51 58 65 60 86 61 53 62 37 63 38 64
REMARK SMILES IDX 46 65 39 66 40 67 44 68 47 69 41 70 42 71 45 72 43 73 69 74
REMARK SMILES IDX 70 75 78 76 71 77 72 78 76 79 79 80 73 81 74 82 77 83 75 84
REMARK SMILES IDX 54 85 55 86 63 87 56 88 57 89 61 90 64 91 58 92 59 93 62 94
REMARK SMILES IDX 60 95
REMARK H PARENT 84 48 52 59
REMARK Flexibility Score: inf
ROOT
ATOM      1  C   UNL A   1      32.532  29.429  27.064  1.00  0.00     0.202 C 
ENDROOT
BRANCH   1   2
ATOM      2  C   UNL A   1      31.721  28.130  27.087  1.00  0.00     0.261 C 
BRANCH   2   3
ATOM      3  O   UNL A   1      31.658  27.511  25.774  1.00  0.00    -0.463 OA
BRANCH   3   4
ATOM      4  C   UNL A   1      31.152  26.254  25.827  1.00  0.00     0.317 C 
ATOM      5  O   UNL A   1      30.970  25.707  26.909  1.00  0.00    -0.251 OA
BRANCH   4   6
ATOM      6  C   UNL A   1      30.812  25.575  24.496  1.00  0.00     0.175 C 
BRANCH   6   7
ATOM      7  C   UNL A   1      31.646  24.300  24.318  1.00  0.00     0.171 C 
ATOM      8  O   UNL A   1      31.136  23.232  23.963  1.00  0.00    -0.294 OA
BRANCH   7   9
ATOM      9  C   UNL A   1      33.130  24.315  24.461  1.00  0.00     0.069 C 
ATOM     10  C   UNL A   1      33.940  23.644  25.307  1.00  0.00     0.016 C 
BRANCH  10  11
ATOM     11  C   UNL A   1      35.369  24.191  25.400  1.00  0.00     0.050 C 
ATOM     12  C   UNL A   1      36.413  23.233  24.824  1.00  0.00     0.010 C 
ENDBRANCH  10  11
BRANCH  10  13
ATOM     13  N   UNL A   1      33.619  22.556  26.137  1.00  0.00    -0.381 N 
ATOM     14  C   UNL A   1      33.433  21.196  25.607  1.00  0.00     0.143 C 
ATOM     15  C   UNL A   1      33.441  22.641  27.584  1.00  0.00     0.143 C 
ENDBRANCH  10  13
ENDBRANCH   7   9
ENDBRANCH   6   7
BRANCH   6  16
ATOM     16  C   UNL A   1      30.827  26.365  23.150  1.00  0.00     0.060 C 
BRANCH  16  17
ATOM     17  C   UNL A   1      30.171  27.726  22.997  1.00  0.00    -0.028 A 
ATOM     18  C   UNL A   1      28.838  27.942  23.387  1.00  0.00     0.007 A 
ATOM     19  C   UNL A   1      30.798  28.786  22.369  1.00  0.00     0.045 A 
ATOM     20  C   UNL A   1      28.144  29.087  22.965  1.00  0.00     0.021 A 
ATOM     21  C   UNL A   1      30.055  29.746  21.697  1.00  0.00     0.041 A 
ATOM     22  Cl  UNL A   1      32.289  29.340  23.072  1.00  0.00    -0.084 Cl
ATOM     23  C   UNL A   1      28.728  29.925  22.026  1.00  0.00     0.042 A 
ATOM     24  Cl  UNL A   1      27.869  31.256  21.362  1.00  0.00    -0.084 Cl
ENDBRANCH  16  17
ENDBRANCH   6  16
ENDBRANCH   4   6
ENDBRANCH   3   4
ENDBRANCH   2   3
ENDBRANCH   1   2
BRANCH   1  25
ATOM     25  O   UNL A   1      32.141  30.378  26.080  1.00  0.00    -0.374 OA
BRANCH  25  26
ATOM     26  C   UNL A   1      31.339  31.468  26.571  1.00  0.00     0.202 C 
BRANCH  26  27
ATOM     27  C   UNL A   1      32.042  32.821  26.834  1.00  0.00     0.261 C 
BRANCH  27  28
ATOM     28  O   UNL A   1      32.878  32.861  28.008  1.00  0.00    -0.460 OA
BRANCH  28  29
ATOM     29  C   UNL A   1      33.920  33.716  28.022  1.00  0.00     0.338 C 
ATOM     30  O   UNL A   1      33.851  34.932  27.954  1.00  0.00    -0.246 OA
BRANCH  29  31
ATOM     31  C   UNL A   1      35.147  32.954  28.412  1.00  0.00     0.060 A 
ATOM     32  C   UNL A   1      35.023  31.574  28.619  1.00  0.00     0.016 A 
ATOM     33  C   UNL A   1      36.419  33.539  28.462  1.00  0.00     0.016 A 
ATOM     34  C   UNL A   1      36.140  30.798  28.955  1.00  0.00     0.010 A 
ATOM     35  C   UNL A   1      37.544  32.756  28.758  1.00  0.00     0.010 A 
ATOM     36  C   UNL A   1      37.403  31.393  29.075  1.00  0.00    -0.014 A 
BRANCH  36  37
ATOM     37  C   UNL A   1      38.509  30.684  29.786  1.00  0.00     0.031 A 
ATOM     38  C   UNL A   1      38.738  31.030  31.240  1.00  0.00     0.074 A 
ATOM     39  C   UNL A   1      39.287  29.754  29.197  1.00  0.00     0.049 A 
ATOM     40  N   UNL A   1      39.656  30.602  32.071  1.00  0.00    -0.248 NA
ATOM     41  C   UNL A   1      37.817  32.016  31.828  1.00  0.00     0.031 C 
ATOM     42  C   UNL A   1      39.187  29.314  27.808  1.00  0.00     0.029 A 
ATOM     43  N   UNL A   1      40.335  29.020  29.705  1.00  0.00    -0.354 N 
ATOM     44  C   UNL A   1      39.426  31.279  33.263  1.00  0.00     0.074 A 
ATOM     45  C   UNL A   1      38.335  32.195  33.031  1.00  0.00     0.031 C 
ATOM     46  C   UNL A   1      40.135  28.387  27.573  1.00  0.00     0.029 A 
ATOM     47  C   UNL A   1      40.925  28.180  28.788  1.00  0.00     0.049 A 
ATOM     48  H   UNL A   1      40.634  29.087  30.640  1.00  0.00     0.167 HD
ATOM     49  C   UNL A   1      40.038  31.129  34.461  1.00  0.00     0.037 A 
ATOM     50  C   UNL A   1      41.981  27.349  28.916  1.00  0.00     0.037 A 
ATOM     51  C   UNL A   1      41.106  30.203  34.712  1.00  0.00     0.049 A 
ATOM     52  C   UNL A   1      42.685  27.234  30.251  1.00  0.00     0.074 A 
ATOM     53  C   UNL A   1      41.773  29.958  35.898  1.00  0.00     0.029 A 
ATOM     54  N   UNL A   1      41.660  29.366  33.757  1.00  0.00    -0.354 N 
ATOM     55  N   UNL A   1      42.421  27.837  31.385  1.00  0.00    -0.248 NA
ATOM     56  C   UNL A   1      43.830  26.310  30.326  1.00  0.00     0.031 C 
ATOM     57  C   UNL A   1      42.765  29.006  35.650  1.00  0.00     0.029 A 
ATOM     58  C   UNL A   1      42.671  28.612  34.325  1.00  0.00     0.049 A 
ATOM     59  H   UNL A   1      41.377  29.316  32.814  1.00  0.00     0.167 HD
ATOM     60  C   UNL A   1      43.323  27.326  32.312  1.00  0.00     0.074 A 
ATOM     61  C   UNL A   1      44.148  26.368  31.612  1.00  0.00     0.031 C 
ATOM     62  C   UNL A   1      43.450  27.622  33.629  1.00  0.00     0.037 A 
BRANCH  49  63
ATOM     63  C   UNL A   1      39.556  31.983  35.598  1.00  0.00     0.064 A 
ATOM     64  C   UNL A   1      40.087  33.262  35.832  1.00  0.00     0.173 A 
ATOM     65  C   UNL A   1      38.530  31.535  36.444  1.00  0.00     0.173 A 
ATOM     66  F   UNL A   1      41.080  33.732  35.060  1.00  0.00    -0.203 F 
ATOM     67  C   UNL A   1      39.634  34.044  36.889  1.00  0.00     0.198 A 
ATOM     68  C   UNL A   1      38.054  32.336  37.479  1.00  0.00     0.198 A 
ATOM     69  F   UNL A   1      37.983  30.324  36.262  1.00  0.00    -0.203 F 
ATOM     70  F   UNL A   1      40.198  35.237  37.127  1.00  0.00    -0.200 F 
ATOM     71  C   UNL A   1      38.612  33.585  37.706  1.00  0.00     0.200 A 
ATOM     72  F   UNL A   1      37.055  31.898  38.257  1.00  0.00    -0.200 F 
ATOM     73  F   UNL A   1      38.169  34.344  38.718  1.00  0.00    -0.200 F 
ENDBRANCH  49  63
BRANCH  50  74
ATOM     74  C   UNL A   1      42.446  26.530  27.761  1.00  0.00     0.064 A 
ATOM     75  C   UNL A   1      43.431  27.009  26.884  1.00  0.00     0.173 A 
ATOM     76  C   UNL A   1      41.879  25.279  27.475  1.00  0.00     0.173 A 
ATOM     77  F   UNL A   1      43.985  28.213  27.096  1.00  0.00    -0.203 F 
ATOM     78  C   UNL A   1      43.808  26.287  25.753  1.00  0.00     0.198 A 
ATOM     79  C   UNL A   1      42.279  24.544  26.359  1.00  0.00     0.198 A 
ATOM     80  F   UNL A   1      40.929  24.774  28.274  1.00  0.00    -0.203 F 
ATOM     81  F   UNL A   1      44.705  26.801  24.900  1.00  0.00    -0.200 F 
ATOM     82  C   UNL A   1      43.234  25.053  25.493  1.00  0.00     0.200 A 
ATOM     83  F   UNL A   1      41.728  23.347  26.116  1.00  0.00    -0.200 F 
ATOM     84  F   UNL A   1      43.592  24.361  24.402  1.00  0.00    -0.200 F 
ENDBRANCH  50  74
BRANCH  62  85
ATOM     85  C   UNL A   1      44.450  26.849  34.440  1.00  0.00     0.064 A 
ATOM     86  C   UNL A   1      45.767  27.292  34.616  1.00  0.00     0.173 A 
ATOM     87  C   UNL A   1      44.043  25.702  35.142  1.00  0.00     0.173 A 
ATOM     88  F   UNL A   1      46.208  28.377  33.962  1.00  0.00    -0.203 F 
ATOM     89  C   UNL A   1      46.644  26.610  35.457  1.00  0.00     0.198 A 
ATOM     90  C   UNL A   1      44.911  25.041  36.004  1.00  0.00     0.198 A 
ATOM     91  F   UNL A   1      42.787  25.244  35.017  1.00  0.00    -0.203 F 
ATOM     92  F   UNL A   1      47.908  27.035  35.592  1.00  0.00    -0.200 F 
ATOM     93  C   UNL A   1      46.212  25.494  36.160  1.00  0.00     0.200 A 
ATOM     94  F   UNL A   1      44.485  23.976  36.697  1.00  0.00    -0.200 F 
ATOM     95  F   UNL A   1      47.049  24.855  36.988  1.00  0.00    -0.200 F 
ENDBRANCH  62  85
ENDBRANCH  36  37
ENDBRANCH  29  31
ENDBRANCH  28  29
ENDBRANCH  27  28
ENDBRANCH  26  27
ENDBRANCH  25  26
ENDBRANCH   1  25
TORSDOF 20
ENDMDL
