MODEL 1
REMARK VINA RESULT:     -10.8      0.000      0.000
REMARK SMILES Cc1n[nH]c(C(=O)N[C@@H](CC(C)C)C(=O)OCCOCCOC(=O)c2ccc(-c3c4nc(c(-c5c(F)c(F)c(F)c(F)c5F)c5ccc([nH]5)c(-c5c(F)c(F)c(F)c(F)c5F)c5nc(c(-c6c(F)c(F)c(F)c(F)c6F)c6ccc3[nH]6)C=C5)C=C4)cc2)n1
REMARK SMILES IDX 19 1 18 2 17 3 16 4 14 5 15 6 9 7 8 8 6 9 7 10 5 12 1 13
REMARK SMILES IDX 2 14 3 15 88 16 4 17 10 19 11 20 12 21 13 22 20 23 21 24
REMARK SMILES IDX 22 25 23 26 24 27 25 28 26 29 87 30 27 31 86 32 28 33 29 34
REMARK SMILES IDX 30 35 80 36 31 37 85 38 79 39 81 40 32 41 84 42 78 43 77 44
REMARK SMILES IDX 33 46 65 47 45 48 64 49 46 50 49 51 63 52 82 53 47 54 48 55
REMARK SMILES IDX 62 57 83 58 50 59 34 60 35 61 43 62 36 63 37 64 41 65 44 66
REMARK SMILES IDX 38 67 39 68 42 69 40 70 66 71 67 72 75 73 68 74 69 75 73 76
REMARK SMILES IDX 76 77 70 78 71 79 74 80 72 81 51 82 52 83 60 84 53 85 54 86
REMARK SMILES IDX 58 87 61 88 55 89 56 90 59 91 57 92
REMARK H PARENT 8 11 4 18 81 45 49 56
REMARK Flexibility Score: inf
ROOT
ATOM      1  O   UNL A   1      40.120  21.094  27.199  1.00  0.00    -0.374 OA
ENDROOT
BRANCH   1   2
ATOM      2  C   UNL A   1      39.612  21.981  26.206  1.00  0.00     0.202 C 
BRANCH   2   3
ATOM      3  C   UNL A   1      38.259  21.646  25.583  1.00  0.00     0.261 C 
BRANCH   3   4
ATOM      4  O   UNL A   1      37.637  22.782  24.953  1.00  0.00    -0.462 OA
BRANCH   4   5
ATOM      5  C   UNL A   1      36.917  23.580  25.787  1.00  0.00     0.328 C 
ATOM      6  O   UNL A   1      37.393  24.307  26.652  1.00  0.00    -0.250 OA
BRANCH   5   7
ATOM      7  C   UNL A   1      35.399  23.426  25.605  1.00  0.00     0.192 C 
BRANCH   7   8
ATOM      8  N   UNL A   1      34.616  23.198  26.815  1.00  0.00    -0.336 N 
ATOM      9  C   UNL A   1      33.629  22.295  27.147  1.00  0.00     0.289 C 
ATOM     10  O   UNL A   1      33.129  22.484  28.260  1.00  0.00    -0.266 OA
ATOM     11  H   UNL A   1      34.840  23.819  27.548  1.00  0.00     0.164 HD
BRANCH   9  12
ATOM     12  C   UNL A   1      33.214  21.197  26.281  1.00  0.00     0.214 A 
ATOM     13  C   UNL A   1      33.856  18.327  24.276  1.00  0.00     0.092 C 
ATOM     14  C   UNL A   1      33.300  19.482  25.013  1.00  0.00     0.148 A 
ATOM     15  N   UNL A   1      32.042  19.900  24.862  1.00  0.00    -0.159 NA
ATOM     16  N   UNL A   1      34.044  20.244  25.874  1.00  0.00    -0.207 NA
ATOM     17  N   UNL A   1      32.021  20.986  25.650  1.00  0.00    -0.255 N 
ATOM     18  H   UNL A   1      31.234  21.565  25.760  1.00  0.00     0.192 HD
ENDBRANCH   9  12
ENDBRANCH   7   8
BRANCH   7  19
ATOM     19  C   UNL A   1      34.856  24.592  24.763  1.00  0.00     0.040 C 
BRANCH  19  20
ATOM     20  C   UNL A   1      34.465  24.344  23.289  1.00  0.00    -0.015 C 
ATOM     21  C   UNL A   1      33.764  23.016  23.013  1.00  0.00     0.007 C 
ATOM     22  C   UNL A   1      33.547  25.490  22.843  1.00  0.00     0.007 C 
ENDBRANCH  19  20
ENDBRANCH   7  19
ENDBRANCH   5   7
ENDBRANCH   4   5
ENDBRANCH   3   4
ENDBRANCH   2   3
ENDBRANCH   1   2
BRANCH   1  23
ATOM     23  C   UNL A   1      41.511  20.796  27.241  1.00  0.00     0.202 C 
BRANCH  23  24
ATOM     24  C   UNL A   1      42.111  19.975  26.107  1.00  0.00     0.261 C 
BRANCH  24  25
ATOM     25  O   UNL A   1      43.531  20.032  26.069  1.00  0.00    -0.460 OA
BRANCH  25  26
ATOM     26  C   UNL A   1      44.001  20.573  24.920  1.00  0.00     0.338 C 
ATOM     27  O   UNL A   1      44.290  19.988  23.894  1.00  0.00    -0.246 OA
BRANCH  26  28
ATOM     28  C   UNL A   1      44.298  21.990  25.138  1.00  0.00     0.060 A 
ATOM     29  C   UNL A   1      45.213  22.268  26.158  1.00  0.00     0.016 A 
ATOM     30  C   UNL A   1      43.443  22.965  24.607  1.00  0.00     0.016 A 
ATOM     31  C   UNL A   1      45.118  23.476  26.805  1.00  0.00     0.010 A 
ATOM     32  C   UNL A   1      43.343  24.168  25.262  1.00  0.00     0.010 A 
ATOM     33  C   UNL A   1      44.122  24.370  26.401  1.00  0.00    -0.014 A 
BRANCH  33  34
ATOM     34  C   UNL A   1      43.961  25.584  27.171  1.00  0.00     0.031 A 
ATOM     35  C   UNL A   1      45.041  26.559  26.923  1.00  0.00     0.074 A 
ATOM     36  C   UNL A   1      42.861  25.801  27.918  1.00  0.00     0.049 A 
ATOM     37  N   UNL A   1      45.856  27.079  27.776  1.00  0.00    -0.248 NA
ATOM     38  C   UNL A   1      45.344  26.894  25.519  1.00  0.00     0.031 C 
ATOM     39  C   UNL A   1      41.647  24.974  27.938  1.00  0.00     0.029 A 
ATOM     40  N   UNL A   1      42.530  26.858  28.713  1.00  0.00    -0.354 N 
ATOM     41  C   UNL A   1      46.624  27.980  27.043  1.00  0.00     0.074 A 
ATOM     42  C   UNL A   1      46.415  27.676  25.656  1.00  0.00     0.031 C 
ATOM     43  C   UNL A   1      40.645  25.674  28.511  1.00  0.00     0.029 A 
ATOM     44  C   UNL A   1      41.174  26.934  29.003  1.00  0.00     0.049 A 
ATOM     45  H   UNL A   1      43.190  27.506  29.050  1.00  0.00     0.167 HD
ATOM     46  C   UNL A   1      47.075  29.117  27.633  1.00  0.00     0.037 A 
ATOM     47  C   UNL A   1      40.517  27.989  29.543  1.00  0.00     0.037 A 
ATOM     48  C   UNL A   1      47.076  28.989  29.067  1.00  0.00     0.049 A 
ATOM     49  C   UNL A   1      41.510  28.870  30.199  1.00  0.00     0.074 A 
ATOM     50  C   UNL A   1      47.888  28.426  30.026  1.00  0.00     0.029 A 
ATOM     51  N   UNL A   1      45.866  29.240  29.652  1.00  0.00    -0.354 N 
ATOM     52  N   UNL A   1      42.166  28.545  31.277  1.00  0.00    -0.248 NA
ATOM     53  C   UNL A   1      42.028  30.031  29.479  1.00  0.00     0.031 C 
ATOM     54  C   UNL A   1      47.086  28.269  31.195  1.00  0.00     0.029 A 
ATOM     55  C   UNL A   1      45.807  28.744  30.925  1.00  0.00     0.049 A 
ATOM     56  H   UNL A   1      45.128  29.718  29.210  1.00  0.00     0.167 HD
ATOM     57  C   UNL A   1      43.385  29.175  31.133  1.00  0.00     0.074 A 
ATOM     58  C   UNL A   1      43.180  30.208  30.130  1.00  0.00     0.031 C 
ATOM     59  C   UNL A   1      44.529  28.582  31.574  1.00  0.00     0.037 A 
BRANCH  46  60
ATOM     60  C   UNL A   1      46.995  30.487  26.985  1.00  0.00     0.064 A 
ATOM     61  C   UNL A   1      48.140  31.307  27.018  1.00  0.00     0.173 A 
ATOM     62  C   UNL A   1      45.789  31.147  26.650  1.00  0.00     0.173 A 
ATOM     63  F   UNL A   1      49.342  30.793  27.324  1.00  0.00    -0.203 F 
ATOM     64  C   UNL A   1      48.066  32.691  26.831  1.00  0.00     0.198 A 
ATOM     65  C   UNL A   1      45.729  32.519  26.415  1.00  0.00     0.198 A 
ATOM     66  F   UNL A   1      44.604  30.529  26.643  1.00  0.00    -0.203 F 
ATOM     67  F   UNL A   1      49.160  33.445  27.001  1.00  0.00    -0.200 F 
ATOM     68  C   UNL A   1      46.858  33.297  26.541  1.00  0.00     0.200 A 
ATOM     69  F   UNL A   1      44.543  33.088  26.149  1.00  0.00    -0.200 F 
ATOM     70  F   UNL A   1      46.772  34.627  26.426  1.00  0.00    -0.200 F 
ENDBRANCH  46  60
BRANCH  47  71
ATOM     71  C   UNL A   1      39.108  28.403  29.352  1.00  0.00     0.064 A 
ATOM     72  C   UNL A   1      38.245  28.545  30.450  1.00  0.00     0.173 A 
ATOM     73  C   UNL A   1      38.656  28.923  28.124  1.00  0.00     0.173 A 
ATOM     74  F   UNL A   1      38.615  28.109  31.661  1.00  0.00    -0.203 F 
ATOM     75  C   UNL A   1      37.015  29.201  30.333  1.00  0.00     0.198 A 
ATOM     76  C   UNL A   1      37.423  29.566  28.007  1.00  0.00     0.198 A 
ATOM     77  F   UNL A   1      39.440  28.904  27.037  1.00  0.00    -0.203 F 
ATOM     78  F   UNL A   1      36.249  29.379  31.419  1.00  0.00    -0.200 F 
ATOM     79  C   UNL A   1      36.610  29.720  29.114  1.00  0.00     0.200 A 
ATOM     80  F   UNL A   1      37.058  30.091  26.830  1.00  0.00    -0.200 F 
ATOM     81  F   UNL A   1      35.463  30.403  29.017  1.00  0.00    -0.200 F 
ENDBRANCH  47  71
BRANCH  59  82
ATOM     82  C   UNL A   1      44.395  27.575  32.667  1.00  0.00     0.064 A 
ATOM     83  C   UNL A   1      44.285  27.900  34.028  1.00  0.00     0.173 A 
ATOM     84  C   UNL A   1      44.334  26.222  32.311  1.00  0.00     0.173 A 
ATOM     85  F   UNL A   1      44.262  29.177  34.430  1.00  0.00    -0.203 F 
ATOM     86  C   UNL A   1      44.166  26.903  34.994  1.00  0.00     0.198 A 
ATOM     87  C   UNL A   1      44.177  25.232  33.273  1.00  0.00     0.198 A 
ATOM     88  F   UNL A   1      44.395  25.864  31.018  1.00  0.00    -0.203 F 
ATOM     89  F   UNL A   1      44.089  27.230  36.292  1.00  0.00    -0.200 F 
ATOM     90  C   UNL A   1      44.107  25.571  34.614  1.00  0.00     0.200 A 
ATOM     91  F   UNL A   1      44.081  23.949  32.897  1.00  0.00    -0.200 F 
ATOM     92  F   UNL A   1      43.963  24.612  35.541  1.00  0.00    -0.200 F 
ENDBRANCH  59  82
ENDBRANCH  33  34
ENDBRANCH  26  28
ENDBRANCH  25  26
ENDBRANCH  24  25
ENDBRANCH  23  24
ENDBRANCH   1  23
TORSDOF 18
ENDMDL
MODEL 2
REMARK VINA RESULT:     -10.6      1.451      2.143
REMARK SMILES Cc1n[nH]c(C(=O)N[C@@H](CC(C)C)C(=O)OCCOCCOC(=O)c2ccc(-c3c4nc(c(-c5c(F)c(F)c(F)c(F)c5F)c5ccc([nH]5)c(-c5c(F)c(F)c(F)c(F)c5F)c5nc(c(-c6c(F)c(F)c(F)c(F)c6F)c6ccc3[nH]6)C=C5)C=C4)cc2)n1
REMARK SMILES IDX 19 1 18 2 17 3 16 4 14 5 15 6 9 7 8 8 6 9 7 10 5 12 1 13
REMARK SMILES IDX 2 14 3 15 88 16 4 17 10 19 11 20 12 21 13 22 20 23 21 24
REMARK SMILES IDX 22 25 23 26 24 27 25 28 26 29 87 30 27 31 86 32 28 33 29 34
REMARK SMILES IDX 30 35 80 36 31 37 85 38 79 39 81 40 32 41 84 42 78 43 77 44
REMARK SMILES IDX 33 46 65 47 45 48 64 49 46 50 49 51 63 52 82 53 47 54 48 55
REMARK SMILES IDX 62 57 83 58 50 59 34 60 35 61 43 62 36 63 37 64 41 65 44 66
REMARK SMILES IDX 38 67 39 68 42 69 40 70 66 71 67 72 75 73 68 74 69 75 73 76
REMARK SMILES IDX 76 77 70 78 71 79 74 80 72 81 51 82 52 83 60 84 53 85 54 86
REMARK SMILES IDX 58 87 61 88 55 89 56 90 59 91 57 92
REMARK H PARENT 8 11 4 18 81 45 49 56
REMARK Flexibility Score: inf
ROOT
ATOM      1  O   UNL A   1      40.921  20.887  27.094  1.00  0.00    -0.374 OA
ENDROOT
BRANCH   1   2
ATOM      2  C   UNL A   1      40.268  21.629  26.068  1.00  0.00     0.202 C 
BRANCH   2   3
ATOM      3  C   UNL A   1      38.917  22.259  26.399  1.00  0.00     0.261 C 
BRANCH   3   4
ATOM      4  O   UNL A   1      38.079  22.428  25.241  1.00  0.00    -0.462 OA
BRANCH   4   5
ATOM      5  C   UNL A   1      37.061  21.532  25.131  1.00  0.00     0.328 C 
ATOM      6  O   UNL A   1      37.199  20.320  25.016  1.00  0.00    -0.250 OA
BRANCH   5   7
ATOM      7  C   UNL A   1      35.678  22.198  25.077  1.00  0.00     0.192 C 
BRANCH   7   8
ATOM      8  N   UNL A   1      34.889  22.166  26.303  1.00  0.00    -0.336 N 
ATOM      9  C   UNL A   1      33.863  21.359  26.747  1.00  0.00     0.289 C 
ATOM     10  O   UNL A   1      33.375  21.714  27.824  1.00  0.00    -0.266 OA
ATOM     11  H   UNL A   1      35.142  22.866  26.950  1.00  0.00     0.164 HD
BRANCH   9  12
ATOM     12  C   UNL A   1      33.396  20.177  26.030  1.00  0.00     0.214 A 
ATOM     13  C   UNL A   1      32.376  18.456  23.086  1.00  0.00     0.092 C 
ATOM     14  C   UNL A   1      32.729  18.907  24.450  1.00  0.00     0.148 A 
ATOM     15  N   UNL A   1      32.489  18.176  25.540  1.00  0.00    -0.159 NA
ATOM     16  N   UNL A   1      33.287  20.131  24.708  1.00  0.00    -0.207 NA
ATOM     17  N   UNL A   1      32.896  19.002  26.514  1.00  0.00    -0.255 N 
ATOM     18  H   UNL A   1      32.841  18.785  27.473  1.00  0.00     0.192 HD
ENDBRANCH   9  12
ENDBRANCH   7   8
BRANCH   7  19
ATOM     19  C   UNL A   1      35.808  23.617  24.497  1.00  0.00     0.040 C 
BRANCH  19  20
ATOM     20  C   UNL A   1      34.687  24.168  23.587  1.00  0.00    -0.015 C 
ATOM     21  C   UNL A   1      33.866  23.113  22.847  1.00  0.00     0.007 C 
ATOM     22  C   UNL A   1      33.743  25.011  24.454  1.00  0.00     0.007 C 
ENDBRANCH  19  20
ENDBRANCH   7  19
ENDBRANCH   5   7
ENDBRANCH   4   5
ENDBRANCH   3   4
ENDBRANCH   2   3
ENDBRANCH   1   2
BRANCH   1  23
ATOM     23  C   UNL A   1      41.245  19.517  26.884  1.00  0.00     0.202 C 
BRANCH  23  24
ATOM     24  C   UNL A   1      42.630  19.173  26.355  1.00  0.00     0.261 C 
BRANCH  24  25
ATOM     25  O   UNL A   1      42.809  19.528  24.990  1.00  0.00    -0.460 OA
BRANCH  25  26
ATOM     26  C   UNL A   1      44.111  19.703  24.663  1.00  0.00     0.338 C 
ATOM     27  O   UNL A   1      44.920  18.843  24.369  1.00  0.00    -0.246 OA
BRANCH  26  28
ATOM     28  C   UNL A   1      44.483  21.100  24.889  1.00  0.00     0.060 A 
ATOM     29  C   UNL A   1      45.613  21.305  25.687  1.00  0.00     0.016 A 
ATOM     30  C   UNL A   1      43.554  22.114  24.625  1.00  0.00     0.016 A 
ATOM     31  C   UNL A   1      45.696  22.472  26.406  1.00  0.00     0.010 A 
ATOM     32  C   UNL A   1      43.634  23.275  25.353  1.00  0.00     0.010 A 
ATOM     33  C   UNL A   1      44.655  23.399  26.294  1.00  0.00    -0.014 A 
BRANCH  33  34
ATOM     34  C   UNL A   1      44.703  24.565  27.149  1.00  0.00     0.031 A 
ATOM     35  C   UNL A   1      45.989  25.284  27.056  1.00  0.00     0.074 A 
ATOM     36  C   UNL A   1      43.619  24.976  27.835  1.00  0.00     0.049 A 
ATOM     37  N   UNL A   1      46.824  25.548  28.003  1.00  0.00    -0.248 NA
ATOM     38  C   UNL A   1      46.477  25.632  25.709  1.00  0.00     0.031 C 
ATOM     39  C   UNL A   1      42.255  24.448  27.704  1.00  0.00     0.029 A 
ATOM     40  N   UNL A   1      43.464  26.027  28.691  1.00  0.00    -0.354 N 
ATOM     41  C   UNL A   1      47.831  26.297  27.401  1.00  0.00     0.074 A 
ATOM     42  C   UNL A   1      47.678  26.139  25.982  1.00  0.00     0.031 C 
ATOM     43  C   UNL A   1      41.388  25.317  28.264  1.00  0.00     0.029 A 
ATOM     44  C   UNL A   1      42.139  26.390  28.894  1.00  0.00     0.049 A 
ATOM     45  H   UNL A   1      44.221  26.485  29.124  1.00  0.00     0.167 HD
ATOM     46  C   UNL A   1      48.472  27.260  28.112  1.00  0.00     0.037 A 
ATOM     47  C   UNL A   1      41.688  27.529  29.473  1.00  0.00     0.037 A 
ATOM     48  C   UNL A   1      48.323  27.041  29.527  1.00  0.00     0.049 A 
ATOM     49  C   UNL A   1      42.792  28.116  30.265  1.00  0.00     0.074 A 
ATOM     50  C   UNL A   1      48.906  26.247  30.489  1.00  0.00     0.029 A 
ATOM     51  N   UNL A   1      47.153  27.522  30.048  1.00  0.00    -0.354 N 
ATOM     52  N   UNL A   1      43.267  27.581  31.355  1.00  0.00    -0.248 NA
ATOM     53  C   UNL A   1      43.614  29.174  29.681  1.00  0.00     0.031 C 
ATOM     54  C   UNL A   1      47.993  26.200  31.584  1.00  0.00     0.029 A 
ATOM     55  C   UNL A   1      46.878  26.970  31.269  1.00  0.00     0.049 A 
ATOM     56  H   UNL A   1      46.579  28.183  29.598  1.00  0.00     0.167 HD
ATOM     57  C   UNL A   1      44.603  27.926  31.347  1.00  0.00     0.074 A 
ATOM     58  C   UNL A   1      44.718  29.041  30.421  1.00  0.00     0.031 C 
ATOM     59  C   UNL A   1      45.546  27.061  31.814  1.00  0.00     0.037 A 
BRANCH  46  60
ATOM     60  C   UNL A   1      48.751  28.652  27.576  1.00  0.00     0.064 A 
ATOM     61  C   UNL A   1      50.051  29.176  27.731  1.00  0.00     0.173 A 
ATOM     62  C   UNL A   1      47.755  29.598  27.240  1.00  0.00     0.173 A 
ATOM     63  F   UNL A   1      51.078  28.374  28.050  1.00  0.00    -0.203 F 
ATOM     64  C   UNL A   1      50.309  30.548  27.655  1.00  0.00     0.198 A 
ATOM     65  C   UNL A   1      48.028  30.958  27.116  1.00  0.00     0.198 A 
ATOM     66  F   UNL A   1      46.463  29.278  27.125  1.00  0.00    -0.203 F 
ATOM     67  F   UNL A   1      51.534  31.010  27.938  1.00  0.00    -0.200 F 
ATOM     68  C   UNL A   1      49.295  31.439  27.358  1.00  0.00     0.200 A 
ATOM     69  F   UNL A   1      47.026  31.807  26.841  1.00  0.00    -0.200 F 
ATOM     70  F   UNL A   1      49.526  32.758  27.350  1.00  0.00    -0.200 F 
ENDBRANCH  46  60
BRANCH  47  71
ATOM     71  C   UNL A   1      40.428  28.263  29.222  1.00  0.00     0.064 A 
ATOM     72  C   UNL A   1      40.158  28.817  27.960  1.00  0.00     0.173 A 
ATOM     73  C   UNL A   1      39.351  28.208  30.128  1.00  0.00     0.173 A 
ATOM     74  F   UNL A   1      41.119  28.873  27.027  1.00  0.00    -0.203 F 
ATOM     75  C   UNL A   1      38.877  29.258  27.613  1.00  0.00     0.198 A 
ATOM     76  C   UNL A   1      38.077  28.661  29.784  1.00  0.00     0.198 A 
ATOM     77  F   UNL A   1      39.491  27.628  31.328  1.00  0.00    -0.203 F 
ATOM     78  F   UNL A   1      38.642  29.716  26.375  1.00  0.00    -0.200 F 
ATOM     79  C   UNL A   1      37.836  29.169  28.522  1.00  0.00     0.200 A 
ATOM     80  F   UNL A   1      37.071  28.540  30.662  1.00  0.00    -0.200 F 
ATOM     81  F   UNL A   1      36.596  29.532  28.168  1.00  0.00    -0.200 F 
ENDBRANCH  47  71
BRANCH  59  82
ATOM     82  C   UNL A   1      45.100  26.041  32.808  1.00  0.00     0.064 A 
ATOM     83  C   UNL A   1      45.073  26.253  34.195  1.00  0.00     0.173 A 
ATOM     84  C   UNL A   1      44.641  24.809  32.326  1.00  0.00     0.173 A 
ATOM     85  F   UNL A   1      45.428  27.434  34.717  1.00  0.00    -0.203 F 
ATOM     86  C   UNL A   1      44.646  25.250  35.064  1.00  0.00     0.198 A 
ATOM     87  C   UNL A   1      44.180  23.825  33.192  1.00  0.00     0.198 A 
ATOM     88  F   UNL A   1      44.611  24.574  31.004  1.00  0.00    -0.203 F 
ATOM     89  F   UNL A   1      44.652  25.461  36.388  1.00  0.00    -0.200 F 
ATOM     90  C   UNL A   1      44.196  24.040  34.560  1.00  0.00     0.200 A 
ATOM     91  F   UNL A   1      43.710  22.671  32.697  1.00  0.00    -0.200 F 
ATOM     92  F   UNL A   1      43.757  23.085  35.393  1.00  0.00    -0.200 F 
ENDBRANCH  59  82
ENDBRANCH  33  34
ENDBRANCH  26  28
ENDBRANCH  25  26
ENDBRANCH  24  25
ENDBRANCH  23  24
ENDBRANCH   1  23
TORSDOF 18
ENDMDL
MODEL 3
REMARK VINA RESULT:     -10.4      2.600      3.724
REMARK SMILES Cc1n[nH]c(C(=O)N[C@@H](CC(C)C)C(=O)OCCOCCOC(=O)c2ccc(-c3c4nc(c(-c5c(F)c(F)c(F)c(F)c5F)c5ccc([nH]5)c(-c5c(F)c(F)c(F)c(F)c5F)c5nc(c(-c6c(F)c(F)c(F)c(F)c6F)c6ccc3[nH]6)C=C5)C=C4)cc2)n1
REMARK SMILES IDX 19 1 18 2 17 3 16 4 14 5 15 6 9 7 8 8 6 9 7 10 5 12 1 13
REMARK SMILES IDX 2 14 3 15 88 16 4 17 10 19 11 20 12 21 13 22 20 23 21 24
REMARK SMILES IDX 22 25 23 26 24 27 25 28 26 29 87 30 27 31 86 32 28 33 29 34
REMARK SMILES IDX 30 35 80 36 31 37 85 38 79 39 81 40 32 41 84 42 78 43 77 44
REMARK SMILES IDX 33 46 65 47 45 48 64 49 46 50 49 51 63 52 82 53 47 54 48 55
REMARK SMILES IDX 62 57 83 58 50 59 34 60 35 61 43 62 36 63 37 64 41 65 44 66
REMARK SMILES IDX 38 67 39 68 42 69 40 70 66 71 67 72 75 73 68 74 69 75 73 76
REMARK SMILES IDX 76 77 70 78 71 79 74 80 72 81 51 82 52 83 60 84 53 85 54 86
REMARK SMILES IDX 58 87 61 88 55 89 56 90 59 91 57 92
REMARK H PARENT 8 11 4 18 81 45 49 56
REMARK Flexibility Score: inf
ROOT
ATOM      1  O   UNL A   1      36.670  22.822  24.590  1.00  0.00    -0.374 OA
ENDROOT
BRANCH   1   2
ATOM      2  C   UNL A   1      35.955  22.975  23.367  1.00  0.00     0.202 C 
BRANCH   2   3
ATOM      3  C   UNL A   1      34.438  23.130  23.447  1.00  0.00     0.261 C 
BRANCH   3   4
ATOM      4  O   UNL A   1      34.029  24.197  24.322  1.00  0.00    -0.462 OA
BRANCH   4   5
ATOM      5  C   UNL A   1      32.748  24.622  24.153  1.00  0.00     0.328 C 
ATOM      6  O   UNL A   1      32.070  24.434  23.150  1.00  0.00    -0.250 OA
BRANCH   5   7
ATOM      7  C   UNL A   1      32.233  25.462  25.332  1.00  0.00     0.192 C 
BRANCH   7   8
ATOM      8  N   UNL A   1      31.239  24.834  26.196  1.00  0.00    -0.336 N 
ATOM      9  C   UNL A   1      31.000  23.527  26.569  1.00  0.00     0.289 C 
ATOM     10  O   UNL A   1      29.982  23.379  27.252  1.00  0.00    -0.266 OA
ATOM     11  H   UNL A   1      30.607  25.475  26.596  1.00  0.00     0.164 HD
BRANCH   9  12
ATOM     12  C   UNL A   1      31.871  22.413  26.213  1.00  0.00     0.214 A 
ATOM     13  C   UNL A   1      32.540  19.294  24.634  1.00  0.00     0.092 C 
ATOM     14  C   UNL A   1      32.550  20.563  25.393  1.00  0.00     0.148 A 
ATOM     15  N   UNL A   1      33.558  20.922  26.191  1.00  0.00    -0.159 NA
ATOM     16  N   UNL A   1      31.506  21.449  25.376  1.00  0.00    -0.207 NA
ATOM     17  N   UNL A   1      33.098  22.071  26.706  1.00  0.00    -0.255 N 
ATOM     18  H   UNL A   1      33.591  22.609  27.367  1.00  0.00     0.192 HD
ENDBRANCH   9  12
ENDBRANCH   7   8
BRANCH   7  19
ATOM     19  C   UNL A   1      33.423  26.031  26.123  1.00  0.00     0.040 C 
BRANCH  19  20
ATOM     20  C   UNL A   1      33.693  27.553  26.093  1.00  0.00    -0.015 C 
ATOM     21  C   UNL A   1      33.609  28.206  24.715  1.00  0.00     0.007 C 
ATOM     22  C   UNL A   1      32.679  28.232  27.024  1.00  0.00     0.007 C 
ENDBRANCH  19  20
ENDBRANCH   7  19
ENDBRANCH   5   7
ENDBRANCH   4   5
ENDBRANCH   3   4
ENDBRANCH   2   3
ENDBRANCH   1   2
BRANCH   1  23
ATOM     23  C   UNL A   1      37.150  21.540  24.977  1.00  0.00     0.202 C 
BRANCH  23  24
ATOM     24  C   UNL A   1      38.461  21.459  25.748  1.00  0.00     0.261 C 
BRANCH  24  25
ATOM     25  O   UNL A   1      38.927  22.728  26.188  1.00  0.00    -0.460 OA
BRANCH  25  26
ATOM     26  C   UNL A   1      40.059  22.640  26.926  1.00  0.00     0.338 C 
ATOM     27  O   UNL A   1      40.447  21.684  27.570  1.00  0.00    -0.246 OA
BRANCH  26  28
ATOM     28  C   UNL A   1      40.693  23.957  26.997  1.00  0.00     0.060 A 
ATOM     29  C   UNL A   1      41.614  24.132  28.035  1.00  0.00     0.016 A 
ATOM     30  C   UNL A   1      40.129  25.034  26.302  1.00  0.00     0.016 A 
ATOM     31  C   UNL A   1      41.802  25.400  28.529  1.00  0.00     0.010 A 
ATOM     32  C   UNL A   1      40.311  26.299  26.804  1.00  0.00     0.010 A 
ATOM     33  C   UNL A   1      41.076  26.450  27.960  1.00  0.00    -0.014 A 
BRANCH  33  34
ATOM     34  C   UNL A   1      41.198  27.755  28.571  1.00  0.00     0.031 A 
ATOM     35  C   UNL A   1      42.405  28.479  28.125  1.00  0.00     0.074 A 
ATOM     36  C   UNL A   1      40.223  28.258  29.353  1.00  0.00     0.049 A 
ATOM     37  N   UNL A   1      43.371  28.937  28.847  1.00  0.00    -0.248 NA
ATOM     38  C   UNL A   1      42.637  28.584  26.673  1.00  0.00     0.031 C 
ATOM     39  C   UNL A   1      38.891  27.678  29.563  1.00  0.00     0.029 A 
ATOM     40  N   UNL A   1      40.154  29.445  30.022  1.00  0.00    -0.354 N 
ATOM     41  C   UNL A   1      44.216  29.588  27.952  1.00  0.00     0.074 A 
ATOM     42  C   UNL A   1      43.835  29.165  26.634  1.00  0.00     0.031 C 
ATOM     43  C   UNL A   1      38.080  28.612  30.103  1.00  0.00     0.029 A 
ATOM     44  C   UNL A   1      38.862  29.803  30.388  1.00  0.00     0.049 A 
ATOM     45  H   UNL A   1      40.944  29.996  30.226  1.00  0.00     0.167 HD
ATOM     46  C   UNL A   1      44.909  30.684  28.355  1.00  0.00     0.037 A 
ATOM     47  C   UNL A   1      38.450  31.017  30.826  1.00  0.00     0.037 A 
ATOM     48  C   UNL A   1      45.015  30.728  29.790  1.00  0.00     0.049 A 
ATOM     49  C   UNL A   1      39.635  31.771  31.292  1.00  0.00     0.074 A 
ATOM     50  C   UNL A   1      45.798  30.143  30.760  1.00  0.00     0.029 A 
ATOM     51  N   UNL A   1      43.924  31.266  30.415  1.00  0.00    -0.354 N 
ATOM     52  N   UNL A   1      40.318  31.461  32.358  1.00  0.00    -0.248 NA
ATOM     53  C   UNL A   1      40.282  32.724  30.392  1.00  0.00     0.031 C 
ATOM     54  C   UNL A   1      45.087  30.276  31.990  1.00  0.00     0.029 A 
ATOM     55  C   UNL A   1      43.892  30.943  31.744  1.00  0.00     0.049 A 
ATOM     56  H   UNL A   1      43.244  31.816  29.963  1.00  0.00     0.167 HD
ATOM     57  C   UNL A   1      41.610  31.835  32.052  1.00  0.00     0.074 A 
ATOM     58  C   UNL A   1      41.501  32.761  30.936  1.00  0.00     0.031 C 
ATOM     59  C   UNL A   1      42.668  31.098  32.492  1.00  0.00     0.037 A 
BRANCH  46  60
ATOM     60  C   UNL A   1      45.011  31.959  27.538  1.00  0.00     0.064 A 
ATOM     61  C   UNL A   1      46.217  32.216  26.855  1.00  0.00     0.173 A 
ATOM     62  C   UNL A   1      44.143  33.067  27.668  1.00  0.00     0.173 A 
ATOM     63  F   UNL A   1      47.121  31.241  26.671  1.00  0.00    -0.203 F 
ATOM     64  C   UNL A   1      46.566  33.501  26.428  1.00  0.00     0.198 A 
ATOM     65  C   UNL A   1      44.474  34.335  27.196  1.00  0.00     0.198 A 
ATOM     66  F   UNL A   1      42.994  33.011  28.348  1.00  0.00    -0.203 F 
ATOM     67  F   UNL A   1      47.777  33.720  25.900  1.00  0.00    -0.200 F 
ATOM     68  C   UNL A   1      45.698  34.562  26.609  1.00  0.00     0.200 A 
ATOM     69  F   UNL A   1      43.623  35.353  27.395  1.00  0.00    -0.200 F 
ATOM     70  F   UNL A   1      46.056  35.803  26.260  1.00  0.00    -0.200 F 
ENDBRANCH  46  60
BRANCH  47  71
ATOM     71  C   UNL A   1      37.124  31.658  30.674  1.00  0.00     0.064 A 
ATOM     72  C   UNL A   1      36.241  31.751  31.762  1.00  0.00     0.173 A 
ATOM     73  C   UNL A   1      36.804  32.425  29.537  1.00  0.00     0.173 A 
ATOM     74  F   UNL A   1      36.492  31.080  32.894  1.00  0.00    -0.203 F 
ATOM     75  C   UNL A   1      35.122  32.589  31.727  1.00  0.00     0.198 A 
ATOM     76  C   UNL A   1      35.680  33.251  29.500  1.00  0.00     0.198 A 
ATOM     77  F   UNL A   1      37.625  32.463  28.479  1.00  0.00    -0.203 F 
ATOM     78  F   UNL A   1      34.341  32.704  32.810  1.00  0.00    -0.200 F 
ATOM     79  C   UNL A   1      34.849  33.347  30.600  1.00  0.00     0.200 A 
ATOM     80  F   UNL A   1      35.446  34.003  28.416  1.00  0.00    -0.200 F 
ATOM     81  F   UNL A   1      33.815  34.197  30.590  1.00  0.00    -0.200 F 
ENDBRANCH  47  71
BRANCH  59  82
ATOM     82  C   UNL A   1      42.458  30.269  33.715  1.00  0.00     0.064 A 
ATOM     83  C   UNL A   1      42.568  30.758  35.026  1.00  0.00     0.173 A 
ATOM     84  C   UNL A   1      42.086  28.929  33.546  1.00  0.00     0.173 A 
ATOM     85  F   UNL A   1      42.847  32.048  35.257  1.00  0.00    -0.203 F 
ATOM     86  C   UNL A   1      42.360  29.922  36.121  1.00  0.00     0.198 A 
ATOM     87  C   UNL A   1      41.843  28.108  34.639  1.00  0.00     0.198 A 
ATOM     88  F   UNL A   1      41.930  28.426  32.311  1.00  0.00    -0.203 F 
ATOM     89  F   UNL A   1      42.496  30.399  37.366  1.00  0.00    -0.200 F 
ATOM     90  C   UNL A   1      41.993  28.600  35.926  1.00  0.00     0.200 A 
ATOM     91  F   UNL A   1      41.450  26.841  34.445  1.00  0.00    -0.200 F 
ATOM     92  F   UNL A   1      41.764  27.802  36.979  1.00  0.00    -0.200 F 
ENDBRANCH  59  82
ENDBRANCH  33  34
ENDBRANCH  26  28
ENDBRANCH  25  26
ENDBRANCH  24  25
ENDBRANCH  23  24
ENDBRANCH   1  23
TORSDOF 18
ENDMDL
