MODEL 1
REMARK VINA RESULT:     -10.8      0.000      0.000
REMARK SMILES CC[NH2+][C@@]1(C(=O)OCCOCCOC(=O)c2ccc(-c3c4nc(c(-c5c(F)c(F)c(F)c(F)c5F)c5ccc([nH]5)c(-c5c(F)c(F)c(F)c(F)c5F)c5nc(c(-c6c(F)c(F)c(F)c(F)c6F)c6ccc3[nH]6)C=C5)C=C4)cc2)CCC[C@@H]([N@@H+](C)[C@@H](C)C2CC2)C1
REMARK SMILES IDX 9 1 8 2 7 3 5 4 6 5 4 6 79 7 90 8 80 9 82 10 81 11 3 12 2 15
REMARK SMILES IDX 1 16 83 17 84 18 85 20 86 21 87 22 88 23 89 24 10 25 11 26
REMARK SMILES IDX 12 27 13 28 14 29 15 30 16 31 17 32 78 33 18 34 77 35 19 36
REMARK SMILES IDX 20 37 21 38 71 39 22 40 76 41 70 42 72 43 23 44 75 45 69 46
REMARK SMILES IDX 68 47 24 49 56 50 36 51 55 52 37 53 40 54 54 55 73 56 38 57
REMARK SMILES IDX 39 58 53 60 74 61 41 62 25 63 26 64 34 65 27 66 28 67 32 68
REMARK SMILES IDX 35 69 29 70 30 71 33 72 31 73 57 74 58 75 66 76 59 77 60 78
REMARK SMILES IDX 64 79 67 80 61 81 62 82 65 83 63 84 42 85 43 86 51 87 44 88
REMARK SMILES IDX 45 89 49 90 52 91 46 92 47 93 50 94 48 95
REMARK H PARENT 3 13 3 14 83 19 72 48 40 59
REMARK Flexibility Score: inf
ROOT
ATOM      1  C   UNL A   1      34.108  20.833  25.361  1.00  0.00     0.202 C 
ENDROOT
BRANCH   1   2
ATOM      2  C   UNL A   1      32.743  21.056  24.711  1.00  0.00     0.261 C 
BRANCH   2   3
ATOM      3  O   UNL A   1      32.780  22.109  23.730  1.00  0.00    -0.459 OA
BRANCH   3   4
ATOM      4  C   UNL A   1      32.060  23.208  24.065  1.00  0.00     0.368 C 
ATOM      5  O   UNL A   1      31.061  23.184  24.784  1.00  0.00    -0.245 OA
BRANCH   4   6
ATOM      6  C   UNL A   1      32.572  24.534  23.436  1.00  0.00     0.200 C 
ATOM      7  C   UNL A   1      34.053  24.633  23.860  1.00  0.00     0.081 C 
ATOM      8  C   UNL A   1      31.916  25.884  23.765  1.00  0.00     0.146 C 
ATOM      9  C   UNL A   1      34.172  24.947  25.356  1.00  0.00     0.013 C 
ATOM     10  C   UNL A   1      32.135  26.500  25.152  1.00  0.00     0.190 C 
ATOM     11  C   UNL A   1      33.557  26.303  25.698  1.00  0.00     0.065 C 
BRANCH   6  12
ATOM     12  N   UNL A   1      32.486  24.373  21.933  1.00  0.00    -0.332 N 
ATOM     13  H   UNL A   1      33.337  23.916  21.607  1.00  0.00     0.347 HD
ATOM     14  H   UNL A   1      31.653  23.819  21.735  1.00  0.00     0.347 HD
BRANCH  12  15
ATOM     15  C   UNL A   1      32.340  25.656  21.220  1.00  0.00     0.257 C 
ATOM     16  C   UNL A   1      32.545  25.488  19.724  1.00  0.00     0.071 C 
ENDBRANCH  12  15
ENDBRANCH   6  12
BRANCH  10  17
ATOM     17  N   UNL A   1      31.567  27.881  25.209  1.00  0.00    -0.332 N 
ATOM     18  C   UNL A   1      31.836  28.495  26.518  1.00  0.00     0.333 C 
ATOM     19  H   UNL A   1      30.588  27.650  25.038  1.00  0.00     0.348 HD
BRANCH  17  20
ATOM     20  C   UNL A   1      31.771  28.879  24.127  1.00  0.00     0.184 C 
ATOM     21  C   UNL A   1      33.181  28.953  23.506  1.00  0.00     0.075 C 
BRANCH  20  22
ATOM     22  C   UNL A   1      30.734  28.962  23.014  1.00  0.00     0.047 C 
ATOM     23  C   UNL A   1      29.295  28.480  23.047  1.00  0.00     0.010 C 
ATOM     24  C   UNL A   1      29.577  29.936  23.186  1.00  0.00     0.010 C 
ENDBRANCH  20  22
ENDBRANCH  17  20
ENDBRANCH  10  17
ENDBRANCH   4   6
ENDBRANCH   3   4
ENDBRANCH   2   3
ENDBRANCH   1   2
BRANCH   1  25
ATOM     25  O   UNL A   1      35.031  20.010  24.651  1.00  0.00    -0.374 OA
BRANCH  25  26
ATOM     26  C   UNL A   1      36.412  20.127  24.993  1.00  0.00     0.202 C 
BRANCH  26  27
ATOM     27  C   UNL A   1      36.873  21.457  25.601  1.00  0.00     0.261 C 
BRANCH  27  28
ATOM     28  O   UNL A   1      38.192  21.830  25.161  1.00  0.00    -0.460 OA
BRANCH  28  29
ATOM     29  C   UNL A   1      39.186  21.538  26.028  1.00  0.00     0.338 C 
ATOM     30  O   UNL A   1      39.797  20.481  26.139  1.00  0.00    -0.246 OA
BRANCH  29  31
ATOM     31  C   UNL A   1      39.608  22.758  26.733  1.00  0.00     0.060 A 
ATOM     32  C   UNL A   1      38.930  23.948  26.437  1.00  0.00     0.016 A 
ATOM     33  C   UNL A   1      40.702  22.758  27.599  1.00  0.00     0.016 A 
ATOM     34  C   UNL A   1      39.375  25.154  26.971  1.00  0.00     0.010 A 
ATOM     35  C   UNL A   1      41.154  23.969  28.127  1.00  0.00     0.010 A 
ATOM     36  C   UNL A   1      40.519  25.175  27.780  1.00  0.00    -0.014 A 
BRANCH  36  37
ATOM     37  C   UNL A   1      41.155  26.476  28.086  1.00  0.00     0.031 A 
ATOM     38  C   UNL A   1      42.570  26.706  27.633  1.00  0.00     0.074 A 
ATOM     39  C   UNL A   1      40.471  27.453  28.706  1.00  0.00     0.049 A 
ATOM     40  N   UNL A   1      43.339  27.752  27.800  1.00  0.00    -0.248 NA
ATOM     41  C   UNL A   1      43.205  25.605  26.890  1.00  0.00     0.031 C 
ATOM     42  C   UNL A   1      39.081  27.362  29.144  1.00  0.00     0.029 A 
ATOM     43  N   UNL A   1      40.861  28.715  29.076  1.00  0.00    -0.354 N 
ATOM     44  C   UNL A   1      44.545  27.433  27.188  1.00  0.00     0.074 A 
ATOM     45  C   UNL A   1      44.419  26.087  26.673  1.00  0.00     0.031 C 
ATOM     46  C   UNL A   1      38.733  28.520  29.731  1.00  0.00     0.029 A 
ATOM     47  C   UNL A   1      39.887  29.418  29.738  1.00  0.00     0.049 A 
ATOM     48  H   UNL A   1      41.755  29.081  28.884  1.00  0.00     0.167 HD
ATOM     49  C   UNL A   1      45.653  28.200  27.058  1.00  0.00     0.037 A 
ATOM     50  C   UNL A   1      39.932  30.642  30.301  1.00  0.00     0.037 A 
ATOM     51  C   UNL A   1      45.771  29.539  27.569  1.00  0.00     0.049 A 
ATOM     52  C   UNL A   1      41.203  31.447  30.208  1.00  0.00     0.074 A 
ATOM     53  C   UNL A   1      46.847  30.405  27.482  1.00  0.00     0.029 A 
ATOM     54  N   UNL A   1      44.776  30.205  28.268  1.00  0.00    -0.354 N 
ATOM     55  N   UNL A   1      42.334  31.146  29.614  1.00  0.00    -0.248 NA
ATOM     56  C   UNL A   1      41.203  32.763  30.861  1.00  0.00     0.031 C 
ATOM     57  C   UNL A   1      46.519  31.576  28.173  1.00  0.00     0.029 A 
ATOM     58  C   UNL A   1      45.220  31.461  28.643  1.00  0.00     0.049 A 
ATOM     59  H   UNL A   1      43.885  29.837  28.469  1.00  0.00     0.167 HD
ATOM     60  C   UNL A   1      43.166  32.242  29.797  1.00  0.00     0.074 A 
ATOM     61  C   UNL A   1      42.406  33.221  30.546  1.00  0.00     0.031 C 
ATOM     62  C   UNL A   1      44.445  32.425  29.381  1.00  0.00     0.037 A 
BRANCH  49  63
ATOM     63  C   UNL A   1      46.835  27.593  26.359  1.00  0.00     0.064 A 
ATOM     64  C   UNL A   1      46.977  27.647  24.965  1.00  0.00     0.173 A 
ATOM     65  C   UNL A   1      47.852  26.972  27.100  1.00  0.00     0.173 A 
ATOM     66  F   UNL A   1      46.024  28.215  24.211  1.00  0.00    -0.203 F 
ATOM     67  C   UNL A   1      48.081  27.077  24.335  1.00  0.00     0.198 A 
ATOM     68  C   UNL A   1      48.968  26.428  26.470  1.00  0.00     0.198 A 
ATOM     69  F   UNL A   1      47.766  26.895  28.437  1.00  0.00    -0.203 F 
ATOM     70  F   UNL A   1      48.172  27.097  22.998  1.00  0.00    -0.200 F 
ATOM     71  C   UNL A   1      49.078  26.475  25.088  1.00  0.00     0.200 A 
ATOM     72  F   UNL A   1      49.936  25.856  27.199  1.00  0.00    -0.200 F 
ATOM     73  F   UNL A   1      50.142  25.932  24.481  1.00  0.00    -0.200 F 
ENDBRANCH  49  63
BRANCH  50  74
ATOM     74  C   UNL A   1      38.744  31.176  31.014  1.00  0.00     0.064 A 
ATOM     75  C   UNL A   1      38.585  30.997  32.395  1.00  0.00     0.173 A 
ATOM     76  C   UNL A   1      37.732  31.861  30.325  1.00  0.00     0.173 A 
ATOM     77  F   UNL A   1      39.513  30.326  33.094  1.00  0.00    -0.203 F 
ATOM     78  C   UNL A   1      37.453  31.469  33.057  1.00  0.00     0.198 A 
ATOM     79  C   UNL A   1      36.615  32.358  30.993  1.00  0.00     0.198 A 
ATOM     80  F   UNL A   1      37.834  32.057  29.002  1.00  0.00    -0.203 F 
ATOM     81  F   UNL A   1      37.306  31.244  34.370  1.00  0.00    -0.200 F 
ATOM     82  C   UNL A   1      36.472  32.154  32.357  1.00  0.00     0.200 A 
ATOM     83  F   UNL A   1      35.674  33.029  30.313  1.00  0.00    -0.200 F 
ATOM     84  F   UNL A   1      35.385  32.610  32.994  1.00  0.00    -0.200 F 
ENDBRANCH  50  74
BRANCH  62  85
ATOM     85  C   UNL A   1      45.090  33.744  29.693  1.00  0.00     0.064 A 
ATOM     86  C   UNL A   1      44.989  34.838  28.822  1.00  0.00     0.173 A 
ATOM     87  C   UNL A   1      45.780  33.927  30.901  1.00  0.00     0.173 A 
ATOM     88  F   UNL A   1      44.352  34.709  27.648  1.00  0.00    -0.203 F 
ATOM     89  C   UNL A   1      45.576  36.060  29.138  1.00  0.00     0.198 A 
ATOM     90  C   UNL A   1      46.339  35.159  31.228  1.00  0.00     0.198 A 
ATOM     91  F   UNL A   1      45.898  32.915  31.774  1.00  0.00    -0.203 F 
ATOM     92  F   UNL A   1      45.506  37.079  28.269  1.00  0.00    -0.200 F 
ATOM     93  C   UNL A   1      46.242  36.222  30.343  1.00  0.00     0.200 A 
ATOM     94  F   UNL A   1      46.970  35.318  32.399  1.00  0.00    -0.200 F 
ATOM     95  F   UNL A   1      46.800  37.402  30.649  1.00  0.00    -0.200 F 
ENDBRANCH  62  85
ENDBRANCH  36  37
ENDBRANCH  29  31
ENDBRANCH  28  29
ENDBRANCH  27  28
ENDBRANCH  26  27
ENDBRANCH  25  26
ENDBRANCH   1  25
TORSDOF 19
ENDMDL
MODEL 2
REMARK VINA RESULT:     -10.7      4.360      9.771
REMARK SMILES CC[NH2+][C@@]1(C(=O)OCCOCCOC(=O)c2ccc(-c3c4nc(c(-c5c(F)c(F)c(F)c(F)c5F)c5ccc([nH]5)c(-c5c(F)c(F)c(F)c(F)c5F)c5nc(c(-c6c(F)c(F)c(F)c(F)c6F)c6ccc3[nH]6)C=C5)C=C4)cc2)CCC[C@@H]([N@@H+](C)[C@@H](C)C2CC2)C1
REMARK SMILES IDX 9 1 8 2 7 3 5 4 6 5 4 6 79 7 90 8 80 9 82 10 81 11 3 12 2 15
REMARK SMILES IDX 1 16 83 17 84 18 85 20 86 21 87 22 88 23 89 24 10 25 11 26
REMARK SMILES IDX 12 27 13 28 14 29 15 30 16 31 17 32 78 33 18 34 77 35 19 36
REMARK SMILES IDX 20 37 21 38 71 39 22 40 76 41 70 42 72 43 23 44 75 45 69 46
REMARK SMILES IDX 68 47 24 49 56 50 36 51 55 52 37 53 40 54 54 55 73 56 38 57
REMARK SMILES IDX 39 58 53 60 74 61 41 62 25 63 26 64 34 65 27 66 28 67 32 68
REMARK SMILES IDX 35 69 29 70 30 71 33 72 31 73 57 74 58 75 66 76 59 77 60 78
REMARK SMILES IDX 64 79 67 80 61 81 62 82 65 83 63 84 42 85 43 86 51 87 44 88
REMARK SMILES IDX 45 89 49 90 52 91 46 92 47 93 50 94 48 95
REMARK H PARENT 3 13 3 14 83 19 72 48 40 59
REMARK Flexibility Score: inf
ROOT
ATOM      1  C   UNL A   1      33.576  29.654  26.023  1.00  0.00     0.202 C 
ENDROOT
BRANCH   1   2
ATOM      2  C   UNL A   1      33.435  28.647  27.163  1.00  0.00     0.261 C 
BRANCH   2   3
ATOM      3  O   UNL A   1      33.019  27.353  26.690  1.00  0.00    -0.459 OA
BRANCH   3   4
ATOM      4  C   UNL A   1      31.679  27.223  26.529  1.00  0.00     0.368 C 
ATOM      5  O   UNL A   1      30.854  27.447  27.415  1.00  0.00    -0.245 OA
BRANCH   4   6
ATOM      6  C   UNL A   1      31.241  26.727  25.122  1.00  0.00     0.200 C 
ATOM      7  C   UNL A   1      29.958  25.904  25.368  1.00  0.00     0.081 C 
ATOM      8  C   UNL A   1      32.170  25.869  24.249  1.00  0.00     0.146 C 
ATOM      9  C   UNL A   1      30.288  24.577  26.062  1.00  0.00     0.013 C 
ATOM     10  C   UNL A   1      32.424  24.410  24.643  1.00  0.00     0.190 C 
ATOM     11  C   UNL A   1      31.182  23.693  25.194  1.00  0.00     0.065 C 
BRANCH   6  12
ATOM     12  N   UNL A   1      30.903  27.957  24.306  1.00  0.00    -0.332 N 
ATOM     13  H   UNL A   1      30.435  28.630  24.912  1.00  0.00     0.347 HD
ATOM     14  H   UNL A   1      31.779  28.322  23.931  1.00  0.00     0.347 HD
BRANCH  12  15
ATOM     15  C   UNL A   1      30.022  27.667  23.159  1.00  0.00     0.257 C 
ATOM     16  C   UNL A   1      28.822  28.599  23.130  1.00  0.00     0.071 C 
ENDBRANCH  12  15
ENDBRANCH   6  12
BRANCH  10  17
ATOM     17  N   UNL A   1      33.202  23.706  23.579  1.00  0.00    -0.332 N 
ATOM     18  C   UNL A   1      33.701  24.667  22.584  1.00  0.00     0.333 C 
ATOM     19  H   UNL A   1      32.469  23.082  23.242  1.00  0.00     0.348 HD
BRANCH  17  20
ATOM     20  C   UNL A   1      34.252  22.699  23.885  1.00  0.00     0.184 C 
ATOM     21  C   UNL A   1      35.629  22.907  23.224  1.00  0.00     0.075 C 
BRANCH  20  22
ATOM     22  C   UNL A   1      34.455  22.285  25.337  1.00  0.00     0.047 C 
ATOM     23  C   UNL A   1      35.753  21.888  26.017  1.00  0.00     0.010 C 
ATOM     24  C   UNL A   1      35.192  23.246  26.259  1.00  0.00     0.010 C 
ENDBRANCH  20  22
ENDBRANCH  17  20
ENDBRANCH  10  17
ENDBRANCH   4   6
ENDBRANCH   3   4
ENDBRANCH   2   3
ENDBRANCH   1   2
BRANCH   1  25
ATOM     25  O   UNL A   1      32.445  30.477  25.749  1.00  0.00    -0.374 OA
BRANCH  25  26
ATOM     26  C   UNL A   1      31.777  31.069  26.863  1.00  0.00     0.202 C 
BRANCH  26  27
ATOM     27  C   UNL A   1      31.841  32.596  26.988  1.00  0.00     0.261 C 
BRANCH  27  28
ATOM     28  O   UNL A   1      33.192  33.092  26.938  1.00  0.00    -0.460 OA
BRANCH  28  29
ATOM     29  C   UNL A   1      33.697  33.491  28.125  1.00  0.00     0.338 C 
ATOM     30  O   UNL A   1      33.166  34.216  28.960  1.00  0.00    -0.246 OA
BRANCH  29  31
ATOM     31  C   UNL A   1      34.946  32.766  28.406  1.00  0.00     0.060 A 
ATOM     32  C   UNL A   1      34.845  31.424  28.795  1.00  0.00     0.016 A 
ATOM     33  C   UNL A   1      36.184  33.409  28.378  1.00  0.00     0.016 A 
ATOM     34  C   UNL A   1      35.981  30.731  29.204  1.00  0.00     0.010 A 
ATOM     35  C   UNL A   1      37.322  32.716  28.797  1.00  0.00     0.010 A 
ATOM     36  C   UNL A   1      37.216  31.389  29.253  1.00  0.00    -0.014 A 
BRANCH  36  37
ATOM     37  C   UNL A   1      38.342  30.748  29.969  1.00  0.00     0.031 A 
ATOM     38  C   UNL A   1      38.565  31.097  31.414  1.00  0.00     0.074 A 
ATOM     39  C   UNL A   1      39.118  29.833  29.362  1.00  0.00     0.049 A 
ATOM     40  N   UNL A   1      39.490  30.681  32.240  1.00  0.00    -0.248 NA
ATOM     41  C   UNL A   1      37.611  32.048  32.010  1.00  0.00     0.031 C 
ATOM     42  C   UNL A   1      38.964  29.377  27.983  1.00  0.00     0.029 A 
ATOM     43  N   UNL A   1      40.194  29.125  29.835  1.00  0.00    -0.354 N 
ATOM     44  C   UNL A   1      39.233  31.319  33.447  1.00  0.00     0.074 A 
ATOM     45  C   UNL A   1      38.086  32.175  33.240  1.00  0.00     0.031 C 
ATOM     46  C   UNL A   1      39.917  28.468  27.717  1.00  0.00     0.029 A 
ATOM     47  C   UNL A   1      40.765  28.304  28.896  1.00  0.00     0.049 A 
ATOM     48  H   UNL A   1      40.523  29.198  30.760  1.00  0.00     0.167 HD
ATOM     49  C   UNL A   1      39.889  31.193  34.623  1.00  0.00     0.037 A 
ATOM     50  C   UNL A   1      41.861  27.524  28.979  1.00  0.00     0.037 A 
ATOM     51  C   UNL A   1      41.028  30.338  34.824  1.00  0.00     0.049 A 
ATOM     52  C   UNL A   1      42.619  27.459  30.280  1.00  0.00     0.074 A 
ATOM     53  C   UNL A   1      41.759  30.131  35.980  1.00  0.00     0.029 A 
ATOM     54  N   UNL A   1      41.603  29.549  33.839  1.00  0.00    -0.354 N 
ATOM     55  N   UNL A   1      42.362  28.053  31.421  1.00  0.00    -0.248 NA
ATOM     56  C   UNL A   1      43.820  26.611  30.305  1.00  0.00     0.031 C 
ATOM     57  C   UNL A   1      42.808  29.255  35.680  1.00  0.00     0.029 A 
ATOM     58  C   UNL A   1      42.697  28.874  34.352  1.00  0.00     0.049 A 
ATOM     59  H   UNL A   1      41.281  29.481  32.911  1.00  0.00     0.167 HD
ATOM     60  C   UNL A   1      43.347  27.631  32.304  1.00  0.00     0.074 A 
ATOM     61  C   UNL A   1      44.201  26.720  31.570  1.00  0.00     0.031 C 
ATOM     62  C   UNL A   1      43.530  27.964  33.606  1.00  0.00     0.037 A 
BRANCH  49  63
ATOM     63  C   UNL A   1      39.407  32.025  35.777  1.00  0.00     0.064 A 
ATOM     64  C   UNL A   1      38.466  31.538  36.696  1.00  0.00     0.173 A 
ATOM     65  C   UNL A   1      39.913  33.318  35.977  1.00  0.00     0.173 A 
ATOM     66  F   UNL A   1      37.938  30.314  36.538  1.00  0.00    -0.203 F 
ATOM     67  C   UNL A   1      38.029  32.325  37.758  1.00  0.00     0.198 A 
ATOM     68  C   UNL A   1      39.496  34.091  37.057  1.00  0.00     0.198 A 
ATOM     69  F   UNL A   1      40.816  33.831  35.127  1.00  0.00    -0.203 F 
ATOM     70  F   UNL A   1      37.094  31.857  38.597  1.00  0.00    -0.200 F 
ATOM     71  C   UNL A   1      38.549  33.597  37.942  1.00  0.00     0.200 A 
ATOM     72  F   UNL A   1      40.007  35.316  37.239  1.00  0.00    -0.200 F 
ATOM     73  F   UNL A   1      38.132  34.352  38.968  1.00  0.00    -0.200 F 
ENDBRANCH  49  63
BRANCH  50  74
ATOM     74  C   UNL A   1      42.316  26.753  27.794  1.00  0.00     0.064 A 
ATOM     75  C   UNL A   1      41.834  25.462  27.539  1.00  0.00     0.173 A 
ATOM     76  C   UNL A   1      43.258  27.285  26.900  1.00  0.00     0.173 A 
ATOM     77  F   UNL A   1      40.952  24.900  28.378  1.00  0.00    -0.203 F 
ATOM     78  C   UNL A   1      42.287  24.727  26.445  1.00  0.00     0.198 A 
ATOM     79  C   UNL A   1      43.688  26.561  25.791  1.00  0.00     0.198 A 
ATOM     80  F   UNL A   1      43.752  28.516  27.100  1.00  0.00    -0.203 F 
ATOM     81  F   UNL A   1      41.843  23.477  26.251  1.00  0.00    -0.200 F 
ATOM     82  C   UNL A   1      43.209  25.279  25.569  1.00  0.00     0.200 A 
ATOM     83  F   UNL A   1      44.572  27.103  24.942  1.00  0.00    -0.200 F 
ATOM     84  F   UNL A   1      43.643  24.573  24.517  1.00  0.00    -0.200 F 
ENDBRANCH  50  74
BRANCH  62  85
ATOM     85  C   UNL A   1      44.671  27.315  34.332  1.00  0.00     0.064 A 
ATOM     86  C   UNL A   1      45.931  27.923  34.418  1.00  0.00     0.173 A 
ATOM     87  C   UNL A   1      44.487  26.088  34.988  1.00  0.00     0.173 A 
ATOM     88  F   UNL A   1      46.162  29.089  33.796  1.00  0.00    -0.203 F 
ATOM     89  C   UNL A   1      46.973  27.316  35.115  1.00  0.00     0.198 A 
ATOM     90  C   UNL A   1      45.522  25.499  35.710  1.00  0.00     0.198 A 
ATOM     91  F   UNL A   1      43.298  25.469  34.945  1.00  0.00    -0.203 F 
ATOM     92  F   UNL A   1      48.182  27.893  35.145  1.00  0.00    -0.200 F 
ATOM     93  C   UNL A   1      46.765  26.109  35.766  1.00  0.00     0.200 A 
ATOM     94  F   UNL A   1      45.315  24.340  36.351  1.00  0.00    -0.200 F 
ATOM     95  F   UNL A   1      47.767  25.530  36.443  1.00  0.00    -0.200 F 
ENDBRANCH  62  85
ENDBRANCH  36  37
ENDBRANCH  29  31
ENDBRANCH  28  29
ENDBRANCH  27  28
ENDBRANCH  26  27
ENDBRANCH  25  26
ENDBRANCH   1  25
TORSDOF 19
ENDMDL
MODEL 3
REMARK VINA RESULT:     -10.5      4.671      9.948
REMARK SMILES CC[NH2+][C@@]1(C(=O)OCCOCCOC(=O)c2ccc(-c3c4nc(c(-c5c(F)c(F)c(F)c(F)c5F)c5ccc([nH]5)c(-c5c(F)c(F)c(F)c(F)c5F)c5nc(c(-c6c(F)c(F)c(F)c(F)c6F)c6ccc3[nH]6)C=C5)C=C4)cc2)CCC[C@@H]([N@@H+](C)[C@@H](C)C2CC2)C1
REMARK SMILES IDX 9 1 8 2 7 3 5 4 6 5 4 6 79 7 90 8 80 9 82 10 81 11 3 12 2 15
REMARK SMILES IDX 1 16 83 17 84 18 85 20 86 21 87 22 88 23 89 24 10 25 11 26
REMARK SMILES IDX 12 27 13 28 14 29 15 30 16 31 17 32 78 33 18 34 77 35 19 36
REMARK SMILES IDX 20 37 21 38 71 39 22 40 76 41 70 42 72 43 23 44 75 45 69 46
REMARK SMILES IDX 68 47 24 49 56 50 36 51 55 52 37 53 40 54 54 55 73 56 38 57
REMARK SMILES IDX 39 58 53 60 74 61 41 62 25 63 26 64 34 65 27 66 28 67 32 68
REMARK SMILES IDX 35 69 29 70 30 71 33 72 31 73 57 74 58 75 66 76 59 77 60 78
REMARK SMILES IDX 64 79 67 80 61 81 62 82 65 83 63 84 42 85 43 86 51 87 44 88
REMARK SMILES IDX 45 89 49 90 52 91 46 92 47 93 50 94 48 95
REMARK H PARENT 3 13 3 14 83 19 72 48 40 59
REMARK Flexibility Score: inf
ROOT
ATOM      1  C   UNL A   1      31.855  29.663  27.326  1.00  0.00     0.202 C 
ENDROOT
BRANCH   1   2
ATOM      2  C   UNL A   1      32.090  28.345  26.589  1.00  0.00     0.261 C 
BRANCH   2   3
ATOM      3  O   UNL A   1      32.530  28.555  25.235  1.00  0.00    -0.459 OA
BRANCH   3   4
ATOM      4  C   UNL A   1      31.588  28.294  24.295  1.00  0.00     0.368 C 
ATOM      5  O   UNL A   1      30.645  29.043  24.040  1.00  0.00    -0.245 OA
BRANCH   4   6
ATOM      6  C   UNL A   1      31.763  26.934  23.564  1.00  0.00     0.200 C 
ATOM      7  C   UNL A   1      30.364  26.282  23.590  1.00  0.00     0.081 C 
ATOM      8  C   UNL A   1      32.764  25.879  24.060  1.00  0.00     0.146 C 
ATOM      9  C   UNL A   1      30.008  25.814  25.006  1.00  0.00     0.013 C 
ATOM     10  C   UNL A   1      32.454  25.106  25.346  1.00  0.00     0.190 C 
ATOM     11  C   UNL A   1      30.970  24.738  25.504  1.00  0.00     0.065 C 
BRANCH   6  12
ATOM     12  N   UNL A   1      32.148  27.248  22.134  1.00  0.00    -0.332 N 
ATOM     13  H   UNL A   1      31.301  27.267  21.566  1.00  0.00     0.347 HD
ATOM     14  H   UNL A   1      32.627  28.149  22.139  1.00  0.00     0.347 HD
BRANCH  12  15
ATOM     15  C   UNL A   1      33.078  26.261  21.554  1.00  0.00     0.257 C 
ATOM     16  C   UNL A   1      32.483  25.588  20.327  1.00  0.00     0.071 C 
ENDBRANCH  12  15
ENDBRANCH   6  12
BRANCH  10  17
ATOM     17  N   UNL A   1      33.453  24.015  25.558  1.00  0.00    -0.332 N 
ATOM     18  C   UNL A   1      32.910  22.986  26.457  1.00  0.00     0.333 C 
ATOM     19  H   UNL A   1      34.208  24.575  25.954  1.00  0.00     0.348 HD
BRANCH  17  20
ATOM     20  C   UNL A   1      34.191  23.374  24.438  1.00  0.00     0.184 C 
ATOM     21  C   UNL A   1      35.667  23.010  24.697  1.00  0.00     0.075 C 
BRANCH  20  22
ATOM     22  C   UNL A   1      33.521  22.228  23.691  1.00  0.00     0.047 C 
ATOM     23  C   UNL A   1      32.034  21.979  23.512  1.00  0.00     0.010 C 
ATOM     24  C   UNL A   1      32.818  22.544  22.379  1.00  0.00     0.010 C 
ENDBRANCH  20  22
ENDBRANCH  17  20
ENDBRANCH  10  17
ENDBRANCH   4   6
ENDBRANCH   3   4
ENDBRANCH   2   3
ENDBRANCH   1   2
BRANCH   1  25
ATOM     25  O   UNL A   1      32.365  30.843  26.708  1.00  0.00    -0.374 OA
BRANCH  25  26
ATOM     26  C   UNL A   1      31.433  31.879  26.402  1.00  0.00     0.202 C 
BRANCH  26  27
ATOM     27  C   UNL A   1      31.680  33.254  27.034  1.00  0.00     0.261 C 
BRANCH  27  28
ATOM     28  O   UNL A   1      33.057  33.443  27.408  1.00  0.00    -0.460 OA
BRANCH  28  29
ATOM     29  C   UNL A   1      33.263  34.349  28.389  1.00  0.00     0.338 C 
ATOM     30  O   UNL A   1      32.574  35.326  28.662  1.00  0.00    -0.246 OA
BRANCH  29  31
ATOM     31  C   UNL A   1      34.360  33.902  29.260  1.00  0.00     0.060 A 
ATOM     32  C   UNL A   1      35.661  34.300  28.925  1.00  0.00     0.016 A 
ATOM     33  C   UNL A   1      34.134  33.037  30.332  1.00  0.00     0.016 A 
ATOM     34  C   UNL A   1      36.748  33.795  29.632  1.00  0.00     0.010 A 
ATOM     35  C   UNL A   1      35.226  32.523  31.036  1.00  0.00     0.010 A 
ATOM     36  C   UNL A   1      36.537  32.867  30.660  1.00  0.00    -0.014 A 
BRANCH  36  37
ATOM     37  C   UNL A   1      37.694  32.113  31.194  1.00  0.00     0.031 A 
ATOM     38  C   UNL A   1      38.164  32.415  32.590  1.00  0.00     0.074 A 
ATOM     39  C   UNL A   1      38.280  31.142  30.473  1.00  0.00     0.049 A 
ATOM     40  N   UNL A   1      39.161  31.901  33.263  1.00  0.00    -0.248 NA
ATOM     41  C   UNL A   1      37.405  33.439  33.327  1.00  0.00     0.031 C 
ATOM     42  C   UNL A   1      37.877  30.727  29.132  1.00  0.00     0.029 A 
ATOM     43  N   UNL A   1      39.344  30.330  30.774  1.00  0.00    -0.354 N 
ATOM     44  C   UNL A   1      39.150  32.538  34.497  1.00  0.00     0.074 A 
ATOM     45  C   UNL A   1      38.069  33.499  34.471  1.00  0.00     0.031 C 
ATOM     46  C   UNL A   1      38.690  29.740  28.720  1.00  0.00     0.029 A 
ATOM     47  C   UNL A   1      39.688  29.477  29.756  1.00  0.00     0.049 A 
ATOM     48  H   UNL A   1      39.815  30.356  31.638  1.00  0.00     0.167 HD
ATOM     49  C   UNL A   1      39.962  32.332  35.560  1.00  0.00     0.037 A 
ATOM     50  C   UNL A   1      40.706  28.599  29.668  1.00  0.00     0.037 A 
ATOM     51  C   UNL A   1      41.033  31.373  35.582  1.00  0.00     0.049 A 
ATOM     52  C   UNL A   1      41.643  28.441  30.838  1.00  0.00     0.074 A 
ATOM     53  C   UNL A   1      41.909  31.079  36.612  1.00  0.00     0.029 A 
ATOM     54  N   UNL A   1      41.377  30.553  34.517  1.00  0.00    -0.354 N 
ATOM     55  N   UNL A   1      41.618  29.036  32.007  1.00  0.00    -0.248 NA
ATOM     56  C   UNL A   1      42.749  27.487  30.677  1.00  0.00     0.031 C 
ATOM     57  C   UNL A   1      42.814  30.116  36.152  1.00  0.00     0.029 A 
ATOM     58  C   UNL A   1      42.468  29.771  34.855  1.00  0.00     0.049 A 
ATOM     59  H   UNL A   1      40.913  30.531  33.649  1.00  0.00     0.167 HD
ATOM     60  C   UNL A   1      42.682  28.510  32.728  1.00  0.00     0.074 A 
ATOM     61  C   UNL A   1      43.326  27.538  31.869  1.00  0.00     0.031 C 
ATOM     62  C   UNL A   1      43.090  28.802  33.988  1.00  0.00     0.037 A 
BRANCH  49  63
ATOM     63  C   UNL A   1      39.739  33.184  36.776  1.00  0.00     0.064 A 
ATOM     64  C   UNL A   1      38.835  32.813  37.782  1.00  0.00     0.173 A 
ATOM     65  C   UNL A   1      40.460  34.375  36.948  1.00  0.00     0.173 A 
ATOM     66  F   UNL A   1      38.108  31.691  37.657  1.00  0.00    -0.203 F 
ATOM     67  C   UNL A   1      38.641  33.617  38.902  1.00  0.00     0.198 A 
ATOM     68  C   UNL A   1      40.285  35.162  38.082  1.00  0.00     0.198 A 
ATOM     69  F   UNL A   1      41.339  34.774  36.016  1.00  0.00    -0.203 F 
ATOM     70  F   UNL A   1      37.736  33.267  39.828  1.00  0.00    -0.200 F 
ATOM     71  C   UNL A   1      39.371  34.786  39.055  1.00  0.00     0.200 A 
ATOM     72  F   UNL A   1      40.999  36.286  38.233  1.00  0.00    -0.200 F 
ATOM     73  F   UNL A   1      39.187  35.556  40.136  1.00  0.00    -0.200 F 
ENDBRANCH  49  63
BRANCH  50  74
ATOM     74  C   UNL A   1      40.902  27.811  28.424  1.00  0.00     0.064 A 
ATOM     75  C   UNL A   1      41.680  28.304  27.368  1.00  0.00     0.173 A 
ATOM     76  C   UNL A   1      40.301  26.554  28.259  1.00  0.00     0.173 A 
ATOM     77  F   UNL A   1      42.254  29.512  27.467  1.00  0.00    -0.203 F 
ATOM     78  C   UNL A   1      41.835  27.578  26.187  1.00  0.00     0.198 A 
ATOM     79  C   UNL A   1      40.480  25.817  27.091  1.00  0.00     0.198 A 
ATOM     80  F   UNL A   1      39.545  26.038  29.239  1.00  0.00    -0.203 F 
ATOM     81  F   UNL A   1      42.546  28.095  25.176  1.00  0.00    -0.200 F 
ATOM     82  C   UNL A   1      41.240  26.334  26.053  1.00  0.00     0.200 A 
ATOM     83  F   UNL A   1      39.912  24.609  26.970  1.00  0.00    -0.200 F 
ATOM     84  F   UNL A   1      41.391  25.635  24.920  1.00  0.00    -0.200 F 
ENDBRANCH  50  74
BRANCH  62  85
ATOM     85  C   UNL A   1      44.263  28.038  34.529  1.00  0.00     0.064 A 
ATOM     86  C   UNL A   1      44.105  26.801  35.169  1.00  0.00     0.173 A 
ATOM     87  C   UNL A   1      45.566  28.531  34.364  1.00  0.00     0.173 A 
ATOM     88  F   UNL A   1      42.878  26.294  35.364  1.00  0.00    -0.203 F 
ATOM     89  C   UNL A   1      45.207  26.096  35.645  1.00  0.00     0.198 A 
ATOM     90  C   UNL A   1      46.668  27.809  34.814  1.00  0.00     0.198 A 
ATOM     91  F   UNL A   1      45.773  29.706  33.751  1.00  0.00    -0.203 F 
ATOM     92  F   UNL A   1      45.029  24.936  36.294  1.00  0.00    -0.200 F 
ATOM     93  C   UNL A   1      46.487  26.596  35.460  1.00  0.00     0.200 A 
ATOM     94  F   UNL A   1      47.905  28.287  34.621  1.00  0.00    -0.200 F 
ATOM     95  F   UNL A   1      47.547  25.911  35.912  1.00  0.00    -0.200 F 
ENDBRANCH  62  85
ENDBRANCH  36  37
ENDBRANCH  29  31
ENDBRANCH  28  29
ENDBRANCH  27  28
ENDBRANCH  26  27
ENDBRANCH  25  26
ENDBRANCH   1  25
TORSDOF 19
ENDMDL
