MODEL 1
REMARK VINA RESULT:     -10.7      0.000      0.000
REMARK SMILES Cn1cncc1COc1c(F)cc(C(=O)OCCOCCOC(=O)c2ccc(-c3c4nc(c(-c5c(F)c(F)c(F)c(F)c5F)c5ccc([nH]5)c(-c5c(F)c(F)c(F)c(F)c5F)c5nc(c(-c6c(F)c(F)c(F)c(F)c6F)c6ccc3[nH]6)C=C5)C=C4)cc2)cc1F
REMARK SMILES IDX 18 1 17 2 16 3 14 4 15 5 13 6 9 7 10 8 89 9 11 10 12 11
REMARK SMILES IDX 88 12 90 13 8 14 7 15 6 16 1 17 2 18 3 19 4 20 5 21 19 22
REMARK SMILES IDX 20 23 21 24 22 25 23 26 24 27 25 28 26 29 87 30 27 31 86 32
REMARK SMILES IDX 28 33 29 34 30 35 80 36 31 37 85 38 79 39 81 40 32 41 84 42
REMARK SMILES IDX 78 43 77 44 33 46 65 47 45 48 64 49 46 50 49 51 63 52 82 53
REMARK SMILES IDX 47 54 48 55 62 57 83 58 50 59 34 60 35 61 43 62 36 63 37 64
REMARK SMILES IDX 41 65 44 66 38 67 39 68 42 69 40 70 66 71 67 72 75 73 68 74
REMARK SMILES IDX 69 75 73 76 76 77 70 78 71 79 74 80 72 81 51 82 52 83 60 84
REMARK SMILES IDX 53 85 54 86 58 87 61 88 55 89 56 90 59 91 57 92
REMARK H PARENT 81 45 49 56
REMARK Flexibility Score: inf
ROOT
ATOM      1  C   UNL A   1      32.713  29.057  27.438  1.00  0.00     0.202 C 
ENDROOT
BRANCH   1   2
ATOM      2  C   UNL A   1      33.754  28.203  26.707  1.00  0.00     0.261 C 
BRANCH   2   3
ATOM      3  O   UNL A   1      33.685  28.428  25.292  1.00  0.00    -0.460 OA
BRANCH   3   4
ATOM      4  C   UNL A   1      33.225  27.397  24.547  1.00  0.00     0.338 C 
ATOM      5  O   UNL A   1      33.700  26.277  24.464  1.00  0.00    -0.246 OA
BRANCH   4   6
ATOM      6  C   UNL A   1      31.930  27.777  23.935  1.00  0.00     0.066 A 
ATOM      7  C   UNL A   1      29.537  28.491  22.670  1.00  0.00     0.191 A 
ATOM      8  C   UNL A   1      29.570  27.452  23.599  1.00  0.00     0.169 A 
ATOM      9  C   UNL A   1      30.728  29.122  22.328  1.00  0.00     0.169 A 
ATOM     10  F   UNL A   1      28.474  26.739  23.879  1.00  0.00    -0.203 F 
ATOM     11  C   UNL A   1      30.745  27.109  24.253  1.00  0.00     0.059 A 
ATOM     12  C   UNL A   1      31.924  28.775  22.952  1.00  0.00     0.059 A 
ATOM     13  F   UNL A   1      30.742  30.076  21.387  1.00  0.00    -0.203 F 
BRANCH   7  14
ATOM     14  O   UNL A   1      28.375  28.852  22.040  1.00  0.00    -0.481 OA
BRANCH  14  15
ATOM     15  C   UNL A   1      27.530  29.653  22.888  1.00  0.00     0.285 C 
BRANCH  15  16
ATOM     16  C   UNL A   1      28.040  31.048  22.867  1.00  0.00     0.075 A 
ATOM     17  C   UNL A   1      27.658  31.560  20.422  1.00  0.00     0.151 C 
ATOM     18  N   UNL A   1      28.121  31.854  21.756  1.00  0.00    -0.335 N 
ATOM     19  C   UNL A   1      28.767  33.001  22.121  1.00  0.00     0.199 A 
ATOM     20  N   UNL A   1      29.042  33.013  23.405  1.00  0.00    -0.245 NA
ATOM     21  C   UNL A   1      28.602  31.805  23.877  1.00  0.00     0.138 A 
ENDBRANCH  15  16
ENDBRANCH  14  15
ENDBRANCH   7  14
ENDBRANCH   4   6
ENDBRANCH   3   4
ENDBRANCH   2   3
ENDBRANCH   1   2
BRANCH   1  22
ATOM     22  O   UNL A   1      32.874  30.472  27.327  1.00  0.00    -0.374 OA
BRANCH  22  23
ATOM     23  C   UNL A   1      31.854  31.197  26.641  1.00  0.00     0.202 C 
BRANCH  23  24
ATOM     24  C   UNL A   1      31.783  32.707  26.901  1.00  0.00     0.261 C 
BRANCH  24  25
ATOM     25  O   UNL A   1      33.088  33.299  27.033  1.00  0.00    -0.460 OA
BRANCH  25  26
ATOM     26  C   UNL A   1      33.209  34.170  28.063  1.00  0.00     0.338 C 
ATOM     27  O   UNL A   1      32.482  35.111  28.331  1.00  0.00    -0.246 OA
BRANCH  26  28
ATOM     28  C   UNL A   1      34.285  33.723  28.967  1.00  0.00     0.060 A 
ATOM     29  C   UNL A   1      35.565  34.252  28.764  1.00  0.00     0.016 A 
ATOM     30  C   UNL A   1      34.063  32.753  29.946  1.00  0.00     0.016 A 
ATOM     31  C   UNL A   1      36.642  33.780  29.511  1.00  0.00     0.010 A 
ATOM     32  C   UNL A   1      35.145  32.276  30.691  1.00  0.00     0.010 A 
ATOM     33  C   UNL A   1      36.444  32.764  30.456  1.00  0.00    -0.014 A 
BRANCH  33  34
ATOM     34  C   UNL A   1      37.610  32.131  31.119  1.00  0.00     0.031 A 
ATOM     35  C   UNL A   1      38.378  31.062  30.392  1.00  0.00     0.074 A 
ATOM     36  C   UNL A   1      37.988  32.517  32.351  1.00  0.00     0.049 A 
ATOM     37  N   UNL A   1      39.385  30.338  30.808  1.00  0.00    -0.248 NA
ATOM     38  C   UNL A   1      37.952  30.769  29.015  1.00  0.00     0.031 C 
ATOM     39  C   UNL A   1      37.348  33.571  33.134  1.00  0.00     0.029 A 
ATOM     40  N   UNL A   1      38.998  32.060  33.159  1.00  0.00    -0.354 N 
ATOM     41  C   UNL A   1      39.708  29.499  29.749  1.00  0.00     0.074 A 
ATOM     42  C   UNL A   1      38.771  29.780  28.683  1.00  0.00     0.031 C 
ATOM     43  C   UNL A   1      37.977  33.676  34.316  1.00  0.00     0.029 A 
ATOM     44  C   UNL A   1      39.037  32.672  34.388  1.00  0.00     0.049 A 
ATOM     45  H   UNL A   1      39.634  31.360  32.885  1.00  0.00     0.167 HD
ATOM     46  C   UNL A   1      40.704  28.585  29.672  1.00  0.00     0.037 A 
ATOM     47  C   UNL A   1      39.823  32.432  35.455  1.00  0.00     0.037 A 
ATOM     48  C   UNL A   1      41.638  28.315  30.734  1.00  0.00     0.049 A 
ATOM     49  C   UNL A   1      40.877  31.359  35.372  1.00  0.00     0.074 A 
ATOM     50  C   UNL A   1      42.694  27.422  30.744  1.00  0.00     0.029 A 
ATOM     51  N   UNL A   1      41.623  28.933  31.976  1.00  0.00    -0.354 N 
ATOM     52  N   UNL A   1      41.188  30.583  34.362  1.00  0.00    -0.248 NA
ATOM     53  C   UNL A   1      41.691  31.130  36.573  1.00  0.00     0.031 C 
ATOM     54  C   UNL A   1      43.283  27.455  32.010  1.00  0.00     0.029 A 
ATOM     55  C   UNL A   1      42.637  28.418  32.770  1.00  0.00     0.049 A 
ATOM     56  H   UNL A   1      40.988  29.631  32.253  1.00  0.00     0.167 HD
ATOM     57  C   UNL A   1      42.248  29.797  34.795  1.00  0.00     0.074 A 
ATOM     58  C   UNL A   1      42.535  30.196  36.155  1.00  0.00     0.031 C 
ATOM     59  C   UNL A   1      42.922  28.832  34.121  1.00  0.00     0.037 A 
BRANCH  46  60
ATOM     60  C   UNL A   1      40.838  27.794  28.403  1.00  0.00     0.064 A 
ATOM     61  C   UNL A   1      40.266  26.517  28.300  1.00  0.00     0.173 A 
ATOM     62  C   UNL A   1      41.596  28.262  27.320  1.00  0.00     0.173 A 
ATOM     63  F   UNL A   1      39.536  26.018  29.310  1.00  0.00    -0.203 F 
ATOM     64  C   UNL A   1      40.464  25.731  27.168  1.00  0.00     0.198 A 
ATOM     65  C   UNL A   1      41.767  27.485  26.176  1.00  0.00     0.198 A 
ATOM     66  F   UNL A   1      42.154  29.481  27.363  1.00  0.00    -0.203 F 
ATOM     67  F   UNL A   1      39.941  24.498  27.110  1.00  0.00    -0.200 F 
ATOM     68  C   UNL A   1      41.211  26.217  26.107  1.00  0.00     0.200 A 
ATOM     69  F   UNL A   1      42.469  27.966  25.141  1.00  0.00    -0.200 F 
ATOM     70  F   UNL A   1      41.395  25.463  25.014  1.00  0.00    -0.200 F 
ENDBRANCH  46  60
BRANCH  47  71
ATOM     71  C   UNL A   1      39.640  33.232  36.695  1.00  0.00     0.064 A 
ATOM     72  C   UNL A   1      38.711  32.857  37.676  1.00  0.00     0.173 A 
ATOM     73  C   UNL A   1      40.378  34.404  36.912  1.00  0.00     0.173 A 
ATOM     74  F   UNL A   1      37.979  31.744  37.519  1.00  0.00    -0.203 F 
ATOM     75  C   UNL A   1      38.509  33.635  38.814  1.00  0.00     0.198 A 
ATOM     76  C   UNL A   1      40.197  35.167  38.064  1.00  0.00     0.198 A 
ATOM     77  F   UNL A   1      41.296  34.793  36.014  1.00  0.00    -0.203 F 
ATOM     78  F   UNL A   1      37.585  33.274  39.715  1.00  0.00    -0.200 F 
ATOM     79  C   UNL A   1      39.256  34.787  39.010  1.00  0.00     0.200 A 
ATOM     80  F   UNL A   1      40.937  36.265  38.262  1.00  0.00    -0.200 F 
ATOM     81  F   UNL A   1      39.069  35.530  40.109  1.00  0.00    -0.200 F 
ENDBRANCH  47  71
BRANCH  59  82
ATOM     82  C   UNL A   1      44.065  28.153  34.821  1.00  0.00     0.064 A 
ATOM     83  C   UNL A   1      45.368  28.666  34.710  1.00  0.00     0.173 A 
ATOM     84  C   UNL A   1      43.891  26.953  35.524  1.00  0.00     0.173 A 
ATOM     85  F   UNL A   1      45.591  29.806  34.040  1.00  0.00    -0.203 F 
ATOM     86  C   UNL A   1      46.454  27.991  35.260  1.00  0.00     0.198 A 
ATOM     87  C   UNL A   1      44.976  26.297  36.101  1.00  0.00     0.198 A 
ATOM     88  F   UNL A   1      42.665  26.427  35.668  1.00  0.00    -0.203 F 
ATOM     89  F   UNL A   1      47.693  28.479  35.104  1.00  0.00    -0.200 F 
ATOM     90  C   UNL A   1      46.258  26.810  35.958  1.00  0.00     0.200 A 
ATOM     91  F   UNL A   1      44.781  25.169  36.797  1.00  0.00    -0.200 F 
ATOM     92  F   UNL A   1      47.302  26.165  36.495  1.00  0.00    -0.200 F 
ENDBRANCH  59  82
ENDBRANCH  33  34
ENDBRANCH  26  28
ENDBRANCH  25  26
ENDBRANCH  24  25
ENDBRANCH  23  24
ENDBRANCH  22  23
ENDBRANCH   1  22
TORSDOF 17
ENDMDL
MODEL 2
REMARK VINA RESULT:     -10.7      0.386      7.365
REMARK SMILES Cn1cncc1COc1c(F)cc(C(=O)OCCOCCOC(=O)c2ccc(-c3c4nc(c(-c5c(F)c(F)c(F)c(F)c5F)c5ccc([nH]5)c(-c5c(F)c(F)c(F)c(F)c5F)c5nc(c(-c6c(F)c(F)c(F)c(F)c6F)c6ccc3[nH]6)C=C5)C=C4)cc2)cc1F
REMARK SMILES IDX 18 1 17 2 16 3 14 4 15 5 13 6 9 7 10 8 89 9 11 10 12 11
REMARK SMILES IDX 88 12 90 13 8 14 7 15 6 16 1 17 2 18 3 19 4 20 5 21 19 22
REMARK SMILES IDX 20 23 21 24 22 25 23 26 24 27 25 28 26 29 87 30 27 31 86 32
REMARK SMILES IDX 28 33 29 34 30 35 80 36 31 37 85 38 79 39 81 40 32 41 84 42
REMARK SMILES IDX 78 43 77 44 33 46 65 47 45 48 64 49 46 50 49 51 63 52 82 53
REMARK SMILES IDX 47 54 48 55 62 57 83 58 50 59 34 60 35 61 43 62 36 63 37 64
REMARK SMILES IDX 41 65 44 66 38 67 39 68 42 69 40 70 66 71 67 72 75 73 68 74
REMARK SMILES IDX 69 75 73 76 76 77 70 78 71 79 74 80 72 81 51 82 52 83 60 84
REMARK SMILES IDX 53 85 54 86 58 87 61 88 55 89 56 90 59 91 57 92
REMARK H PARENT 81 45 49 56
REMARK Flexibility Score: inf
ROOT
ATOM      1  C   UNL A   1      33.275  29.494  27.451  1.00  0.00     0.202 C 
ENDROOT
BRANCH   1   2
ATOM      2  C   UNL A   1      34.322  28.677  26.686  1.00  0.00     0.261 C 
BRANCH   2   3
ATOM      3  O   UNL A   1      33.832  28.326  25.384  1.00  0.00    -0.460 OA
BRANCH   3   4
ATOM      4  C   UNL A   1      32.996  27.263  25.331  1.00  0.00     0.338 C 
ATOM      5  O   UNL A   1      33.104  26.208  25.932  1.00  0.00    -0.246 OA
BRANCH   4   6
ATOM      6  C   UNL A   1      31.803  27.622  24.527  1.00  0.00     0.066 A 
ATOM      7  C   UNL A   1      29.621  28.298  22.909  1.00  0.00     0.191 A 
ATOM      8  C   UNL A   1      29.536  27.244  23.818  1.00  0.00     0.169 A 
ATOM      9  C   UNL A   1      30.834  28.964  22.768  1.00  0.00     0.169 A 
ATOM     10  F   UNL A   1      28.429  26.499  23.912  1.00  0.00    -0.203 F 
ATOM     11  C   UNL A   1      30.602  26.919  24.644  1.00  0.00     0.059 A 
ATOM     12  C   UNL A   1      31.925  28.637  23.569  1.00  0.00     0.059 A 
ATOM     13  F   UNL A   1      30.969  29.935  21.854  1.00  0.00    -0.203 F 
BRANCH   7  14
ATOM     14  O   UNL A   1      28.563  28.641  22.109  1.00  0.00    -0.481 OA
BRANCH  14  15
ATOM     15  C   UNL A   1      27.545  29.351  22.839  1.00  0.00     0.285 C 
BRANCH  15  16
ATOM     16  C   UNL A   1      27.832  30.805  22.742  1.00  0.00     0.075 A 
ATOM     17  C   UNL A   1      27.941  31.008  20.224  1.00  0.00     0.151 C 
ATOM     18  N   UNL A   1      28.041  31.503  21.576  1.00  0.00    -0.335 N 
ATOM     19  C   UNL A   1      28.409  32.776  21.914  1.00  0.00     0.199 A 
ATOM     20  N   UNL A   1      28.381  32.957  23.214  1.00  0.00    -0.245 NA
ATOM     21  C   UNL A   1      28.031  31.741  23.738  1.00  0.00     0.138 A 
ENDBRANCH  15  16
ENDBRANCH  14  15
ENDBRANCH   7  14
ENDBRANCH   4   6
ENDBRANCH   3   4
ENDBRANCH   2   3
ENDBRANCH   1   2
BRANCH   1  22
ATOM     22  O   UNL A   1      33.234  30.891  27.160  1.00  0.00    -0.374 OA
BRANCH  22  23
ATOM     23  C   UNL A   1      31.960  31.466  26.876  1.00  0.00     0.202 C 
BRANCH  23  24
ATOM     24  C   UNL A   1      31.810  32.973  27.117  1.00  0.00     0.261 C 
BRANCH  24  25
ATOM     25  O   UNL A   1      33.082  33.640  27.200  1.00  0.00    -0.460 OA
BRANCH  25  26
ATOM     26  C   UNL A   1      33.245  34.407  28.305  1.00  0.00     0.338 C 
ATOM     27  O   UNL A   1      32.548  35.335  28.676  1.00  0.00    -0.246 OA
BRANCH  26  28
ATOM     28  C   UNL A   1      34.325  33.851  29.139  1.00  0.00     0.060 A 
ATOM     29  C   UNL A   1      35.635  34.268  28.869  1.00  0.00     0.016 A 
ATOM     30  C   UNL A   1      34.073  32.887  30.117  1.00  0.00     0.016 A 
ATOM     31  C   UNL A   1      36.706  33.689  29.548  1.00  0.00     0.010 A 
ATOM     32  C   UNL A   1      35.149  32.303  30.792  1.00  0.00     0.010 A 
ATOM     33  C   UNL A   1      36.472  32.678  30.489  1.00  0.00    -0.014 A 
BRANCH  33  34
ATOM     34  C   UNL A   1      37.612  31.933  31.075  1.00  0.00     0.031 A 
ATOM     35  C   UNL A   1      38.054  32.250  32.477  1.00  0.00     0.074 A 
ATOM     36  C   UNL A   1      38.236  30.974  30.369  1.00  0.00     0.049 A 
ATOM     37  N   UNL A   1      39.061  31.766  33.158  1.00  0.00    -0.248 NA
ATOM     38  C   UNL A   1      37.256  33.246  33.208  1.00  0.00     0.031 C 
ATOM     39  C   UNL A   1      37.870  30.551  29.019  1.00  0.00     0.029 A 
ATOM     40  N   UNL A   1      39.315  30.189  30.689  1.00  0.00    -0.354 N 
ATOM     41  C   UNL A   1      39.023  32.403  34.391  1.00  0.00     0.074 A 
ATOM     42  C   UNL A   1      37.914  33.331  34.356  1.00  0.00     0.031 C 
ATOM     43  C   UNL A   1      38.716  29.586  28.622  1.00  0.00     0.029 A 
ATOM     44  C   UNL A   1      39.705  29.351  29.673  1.00  0.00     0.049 A 
ATOM     45  H   UNL A   1      39.767  30.222  31.563  1.00  0.00     0.167 HD
ATOM     46  C   UNL A   1      39.835  32.220  35.458  1.00  0.00     0.037 A 
ATOM     47  C   UNL A   1      40.754  28.510  29.592  1.00  0.00     0.037 A 
ATOM     48  C   UNL A   1      40.933  31.288  35.490  1.00  0.00     0.049 A 
ATOM     49  C   UNL A   1      41.687  28.377  30.766  1.00  0.00     0.074 A 
ATOM     50  C   UNL A   1      41.801  31.017  36.532  1.00  0.00     0.029 A 
ATOM     51  N   UNL A   1      41.317  30.482  34.428  1.00  0.00    -0.354 N 
ATOM     52  N   UNL A   1      41.635  28.968  31.936  1.00  0.00    -0.248 NA
ATOM     53  C   UNL A   1      42.824  27.458  30.614  1.00  0.00     0.031 C 
ATOM     54  C   UNL A   1      42.745  30.090  36.085  1.00  0.00     0.029 A 
ATOM     55  C   UNL A   1      42.427  29.732  34.784  1.00  0.00     0.049 A 
ATOM     56  H   UNL A   1      40.868  30.448  33.553  1.00  0.00     0.167 HD
ATOM     57  C   UNL A   1      42.709  28.474  32.665  1.00  0.00     0.074 A 
ATOM     58  C   UNL A   1      43.391  27.526  31.811  1.00  0.00     0.031 C 
ATOM     59  C   UNL A   1      43.092  28.781  33.929  1.00  0.00     0.037 A 
BRANCH  46  60
ATOM     60  C   UNL A   1      39.583  33.047  36.686  1.00  0.00     0.064 A 
ATOM     61  C   UNL A   1      40.325  34.215  36.918  1.00  0.00     0.173 A 
ATOM     62  C   UNL A   1      38.668  32.646  37.670  1.00  0.00     0.173 A 
ATOM     63  F   UNL A   1      41.219  34.642  36.011  1.00  0.00    -0.203 F 
ATOM     64  C   UNL A   1      40.173  34.940  38.097  1.00  0.00     0.198 A 
ATOM     65  C   UNL A   1      38.496  33.389  38.835  1.00  0.00     0.198 A 
ATOM     66  F   UNL A   1      37.926  31.543  37.492  1.00  0.00    -0.203 F 
ATOM     67  F   UNL A   1      40.921  36.031  38.313  1.00  0.00    -0.200 F 
ATOM     68  C   UNL A   1      39.257  34.528  39.052  1.00  0.00     0.200 A 
ATOM     69  F   UNL A   1      37.593  33.004  39.747  1.00  0.00    -0.200 F 
ATOM     70  F   UNL A   1      39.106  35.230  40.184  1.00  0.00    -0.200 F 
ENDBRANCH  46  60
BRANCH  47  71
ATOM     71  C   UNL A   1      40.970  27.724  28.349  1.00  0.00     0.064 A 
ATOM     72  C   UNL A   1      40.353  26.478  28.156  1.00  0.00     0.173 A 
ATOM     73  C   UNL A   1      41.818  28.194  27.337  1.00  0.00     0.173 A 
ATOM     74  F   UNL A   1      39.532  25.982  29.093  1.00  0.00    -0.203 F 
ATOM     75  C   UNL A   1      40.596  25.723  27.011  1.00  0.00     0.198 A 
ATOM     76  C   UNL A   1      42.038  27.451  26.178  1.00  0.00     0.198 A 
ATOM     77  F   UNL A   1      42.414  29.389  27.464  1.00  0.00    -0.203 F 
ATOM     78  F   UNL A   1      40.025  24.519  26.872  1.00  0.00    -0.200 F 
ATOM     79  C   UNL A   1      41.435  26.212  26.020  1.00  0.00     0.200 A 
ATOM     80  F   UNL A   1      42.828  27.938  25.213  1.00  0.00    -0.200 F 
ATOM     81  F   UNL A   1      41.659  25.491  24.914  1.00  0.00    -0.200 F 
ENDBRANCH  47  71
BRANCH  59  82
ATOM     82  C   UNL A   1      44.285  28.064  34.495  1.00  0.00     0.064 A 
ATOM     83  C   UNL A   1      44.135  26.800  35.089  1.00  0.00     0.173 A 
ATOM     84  C   UNL A   1      45.553  28.660  34.533  1.00  0.00     0.173 A 
ATOM     85  F   UNL A   1      42.941  26.190  35.089  1.00  0.00    -0.203 F 
ATOM     86  C   UNL A   1      45.206  26.169  35.716  1.00  0.00     0.198 A 
ATOM     87  C   UNL A   1      46.630  28.011  35.133  1.00  0.00     0.198 A 
ATOM     88  F   UNL A   1      45.751  29.861  33.970  1.00  0.00    -0.203 F 
ATOM     89  F   UNL A   1      45.028  24.983  36.312  1.00  0.00    -0.200 F 
ATOM     90  C   UNL A   1      46.454  26.774  35.734  1.00  0.00     0.200 A 
ATOM     91  F   UNL A   1      47.842  28.585  35.127  1.00  0.00    -0.200 F 
ATOM     92  F   UNL A   1      47.487  26.163  36.329  1.00  0.00    -0.200 F 
ENDBRANCH  59  82
ENDBRANCH  33  34
ENDBRANCH  26  28
ENDBRANCH  25  26
ENDBRANCH  24  25
ENDBRANCH  23  24
ENDBRANCH  22  23
ENDBRANCH   1  22
TORSDOF 17
ENDMDL
MODEL 3
REMARK VINA RESULT:     -10.6      5.736     10.834
REMARK SMILES Cn1cncc1COc1c(F)cc(C(=O)OCCOCCOC(=O)c2ccc(-c3c4nc(c(-c5c(F)c(F)c(F)c(F)c5F)c5ccc([nH]5)c(-c5c(F)c(F)c(F)c(F)c5F)c5nc(c(-c6c(F)c(F)c(F)c(F)c6F)c6ccc3[nH]6)C=C5)C=C4)cc2)cc1F
REMARK SMILES IDX 18 1 17 2 16 3 14 4 15 5 13 6 9 7 10 8 89 9 11 10 12 11
REMARK SMILES IDX 88 12 90 13 8 14 7 15 6 16 1 17 2 18 3 19 4 20 5 21 19 22
REMARK SMILES IDX 20 23 21 24 22 25 23 26 24 27 25 28 26 29 87 30 27 31 86 32
REMARK SMILES IDX 28 33 29 34 30 35 80 36 31 37 85 38 79 39 81 40 32 41 84 42
REMARK SMILES IDX 78 43 77 44 33 46 65 47 45 48 64 49 46 50 49 51 63 52 82 53
REMARK SMILES IDX 47 54 48 55 62 57 83 58 50 59 34 60 35 61 43 62 36 63 37 64
REMARK SMILES IDX 41 65 44 66 38 67 39 68 42 69 40 70 66 71 67 72 75 73 68 74
REMARK SMILES IDX 69 75 73 76 76 77 70 78 71 79 74 80 72 81 51 82 52 83 60 84
REMARK SMILES IDX 53 85 54 86 58 87 61 88 55 89 56 90 59 91 57 92
REMARK H PARENT 81 45 49 56
REMARK Flexibility Score: inf
ROOT
ATOM      1  C   UNL A   1      43.284  18.619  25.701  1.00  0.00     0.202 C 
ENDROOT
BRANCH   1   2
ATOM      2  C   UNL A   1      44.249  18.928  24.553  1.00  0.00     0.261 C 
BRANCH   2   3
ATOM      3  O   UNL A   1      44.448  20.344  24.430  1.00  0.00    -0.460 OA
BRANCH   3   4
ATOM      4  C   UNL A   1      45.656  20.810  24.823  1.00  0.00     0.338 C 
ATOM      5  O   UNL A   1      46.745  20.298  24.625  1.00  0.00    -0.246 OA
BRANCH   4   6
ATOM      6  C   UNL A   1      45.488  22.157  25.419  1.00  0.00     0.066 A 
ATOM      7  C   UNL A   1      45.195  24.749  26.436  1.00  0.00     0.191 A 
ATOM      8  C   UNL A   1      44.217  23.780  26.659  1.00  0.00     0.169 A 
ATOM      9  C   UNL A   1      46.287  24.426  25.638  1.00  0.00     0.169 A 
ATOM     10  F   UNL A   1      43.093  24.071  27.324  1.00  0.00    -0.203 F 
ATOM     11  C   UNL A   1      44.365  22.485  26.183  1.00  0.00     0.059 A 
ATOM     12  C   UNL A   1      46.443  23.139  25.128  1.00  0.00     0.059 A 
ATOM     13  F   UNL A   1      47.209  25.354  25.346  1.00  0.00    -0.203 F 
BRANCH   7  14
ATOM     14  O   UNL A   1      45.066  26.022  26.925  1.00  0.00    -0.481 OA
BRANCH  14  15
ATOM     15  C   UNL A   1      44.630  26.946  25.911  1.00  0.00     0.285 C 
BRANCH  15  16
ATOM     16  C   UNL A   1      45.349  28.230  26.112  1.00  0.00     0.075 A 
ATOM     17  C   UNL A   1      43.400  29.648  26.874  1.00  0.00     0.151 C 
ATOM     18  N   UNL A   1      44.774  29.417  26.501  1.00  0.00    -0.335 N 
ATOM     19  C   UNL A   1      45.737  30.385  26.438  1.00  0.00     0.199 A 
ATOM     20  N   UNL A   1      46.904  29.884  26.103  1.00  0.00    -0.245 NA
ATOM     21  C   UNL A   1      46.675  28.551  25.893  1.00  0.00     0.138 A 
ENDBRANCH  15  16
ENDBRANCH  14  15
ENDBRANCH   7  14
ENDBRANCH   4   6
ENDBRANCH   3   4
ENDBRANCH   2   3
ENDBRANCH   1   2
BRANCH   1  22
ATOM     22  O   UNL A   1      42.048  19.334  25.691  1.00  0.00    -0.374 OA
BRANCH  22  23
ATOM     23  C   UNL A   1      41.731  20.116  26.842  1.00  0.00     0.202 C 
BRANCH  23  24
ATOM     24  C   UNL A   1      40.416  20.904  26.804  1.00  0.00     0.261 C 
BRANCH  24  25
ATOM     25  O   UNL A   1      40.598  22.245  26.317  1.00  0.00    -0.460 OA
BRANCH  25  26
ATOM     26  C   UNL A   1      39.449  22.944  26.150  1.00  0.00     0.338 C 
ATOM     27  O   UNL A   1      38.411  22.557  25.642  1.00  0.00    -0.246 OA
BRANCH  26  28
ATOM     28  C   UNL A   1      39.553  24.241  26.842  1.00  0.00     0.060 A 
ATOM     29  C   UNL A   1      40.284  25.256  26.212  1.00  0.00     0.016 A 
ATOM     30  C   UNL A   1      39.008  24.440  28.112  1.00  0.00     0.016 A 
ATOM     31  C   UNL A   1      40.513  26.463  26.871  1.00  0.00     0.010 A 
ATOM     32  C   UNL A   1      39.243  25.648  28.773  1.00  0.00     0.010 A 
ATOM     33  C   UNL A   1      40.023  26.653  28.170  1.00  0.00    -0.014 A 
BRANCH  33  34
ATOM     34  C   UNL A   1      40.418  27.855  28.942  1.00  0.00     0.031 A 
ATOM     35  C   UNL A   1      41.799  27.929  29.531  1.00  0.00     0.074 A 
ATOM     36  C   UNL A   1      39.558  28.877  29.104  1.00  0.00     0.049 A 
ATOM     37  N   UNL A   1      42.329  28.855  30.289  1.00  0.00    -0.248 NA
ATOM     38  C   UNL A   1      42.705  26.810  29.226  1.00  0.00     0.031 C 
ATOM     39  C   UNL A   1      38.209  28.936  28.544  1.00  0.00     0.029 A 
ATOM     40  N   UNL A   1      39.691  30.056  29.794  1.00  0.00    -0.354 N 
ATOM     41  C   UNL A   1      43.623  28.427  30.559  1.00  0.00     0.074 A 
ATOM     42  C   UNL A   1      43.790  27.145  29.910  1.00  0.00     0.031 C 
ATOM     43  C   UNL A   1      37.635  30.091  28.919  1.00  0.00     0.029 A 
ATOM     44  C   UNL A   1      38.559  30.833  29.776  1.00  0.00     0.049 A 
ATOM     45  H   UNL A   1      40.518  30.320  30.257  1.00  0.00     0.167 HD
ATOM     46  C   UNL A   1      44.585  29.055  31.274  1.00  0.00     0.037 A 
ATOM     47  C   UNL A   1      38.292  31.997  30.399  1.00  0.00     0.037 A 
ATOM     48  C   UNL A   1      44.414  30.335  31.911  1.00  0.00     0.049 A 
ATOM     49  C   UNL A   1      39.355  32.641  31.250  1.00  0.00     0.074 A 
ATOM     50  C   UNL A   1      45.338  31.062  32.641  1.00  0.00     0.029 A 
ATOM     51  N   UNL A   1      43.241  31.075  31.898  1.00  0.00    -0.354 N 
ATOM     52  N   UNL A   1      40.581  32.240  31.485  1.00  0.00    -0.248 NA
ATOM     53  C   UNL A   1      39.000  33.900  31.919  1.00  0.00     0.031 C 
ATOM     54  C   UNL A   1      44.708  32.213  33.119  1.00  0.00     0.029 A 
ATOM     55  C   UNL A   1      43.411  32.239  32.632  1.00  0.00     0.049 A 
ATOM     56  H   UNL A   1      42.413  30.813  31.437  1.00  0.00     0.167 HD
ATOM     57  C   UNL A   1      41.151  33.208  32.303  1.00  0.00     0.074 A 
ATOM     58  C   UNL A   1      40.141  34.221  32.515  1.00  0.00     0.031 C 
ATOM     59  C   UNL A   1      42.401  33.249  32.827  1.00  0.00     0.037 A 
BRANCH  46  60
ATOM     60  C   UNL A   1      45.912  28.370  31.423  1.00  0.00     0.064 A 
ATOM     61  C   UNL A   1      46.904  28.523  30.443  1.00  0.00     0.173 A 
ATOM     62  C   UNL A   1      46.177  27.500  32.492  1.00  0.00     0.173 A 
ATOM     63  F   UNL A   1      46.702  29.339  29.396  1.00  0.00    -0.203 F 
ATOM     64  C   UNL A   1      48.103  27.818  30.517  1.00  0.00     0.198 A 
ATOM     65  C   UNL A   1      47.389  26.819  32.579  1.00  0.00     0.198 A 
ATOM     66  F   UNL A   1      45.266  27.326  33.462  1.00  0.00    -0.203 F 
ATOM     67  F   UNL A   1      49.018  27.952  29.547  1.00  0.00    -0.200 F 
ATOM     68  C   UNL A   1      48.345  26.970  31.586  1.00  0.00     0.200 A 
ATOM     69  F   UNL A   1      47.631  26.018  33.625  1.00  0.00    -0.200 F 
ATOM     70  F   UNL A   1      49.501  26.297  31.660  1.00  0.00    -0.200 F 
ENDBRANCH  46  60
BRANCH  47  71
ATOM     71  C   UNL A   1      36.956  32.629  30.232  1.00  0.00     0.064 A 
ATOM     72  C   UNL A   1      35.959  32.495  31.210  1.00  0.00     0.173 A 
ATOM     73  C   UNL A   1      36.644  33.360  29.079  1.00  0.00     0.173 A 
ATOM     74  F   UNL A   1      36.206  31.805  32.333  1.00  0.00    -0.203 F 
ATOM     75  C   UNL A   1      34.693  33.048  31.029  1.00  0.00     0.198 A 
ATOM     76  C   UNL A   1      35.387  33.938  28.911  1.00  0.00     0.198 A 
ATOM     77  F   UNL A   1      37.571  33.536  28.125  1.00  0.00    -0.203 F 
ATOM     78  F   UNL A   1      33.747  32.870  31.961  1.00  0.00    -0.200 F 
ATOM     79  C   UNL A   1      34.409  33.774  29.881  1.00  0.00     0.200 A 
ATOM     80  F   UNL A   1      35.124  34.659  27.814  1.00  0.00    -0.200 F 
ATOM     81  F   UNL A   1      33.196  34.314  29.712  1.00  0.00    -0.200 F 
ENDBRANCH  47  71
BRANCH  59  82
ATOM     82  C   UNL A   1      42.775  34.444  33.659  1.00  0.00     0.064 A 
ATOM     83  C   UNL A   1      42.613  34.414  35.054  1.00  0.00     0.173 A 
ATOM     84  C   UNL A   1      43.203  35.643  33.074  1.00  0.00     0.173 A 
ATOM     85  F   UNL A   1      42.196  33.294  35.663  1.00  0.00    -0.203 F 
ATOM     86  C   UNL A   1      42.849  35.546  35.828  1.00  0.00     0.198 A 
ATOM     87  C   UNL A   1      43.470  36.765  33.856  1.00  0.00     0.198 A 
ATOM     88  F   UNL A   1      43.384  35.720  31.747  1.00  0.00    -0.203 F 
ATOM     89  F   UNL A   1      42.647  35.505  37.152  1.00  0.00    -0.200 F 
ATOM     90  C   UNL A   1      43.281  36.720  35.229  1.00  0.00     0.200 A 
ATOM     91  F   UNL A   1      43.912  37.891  33.279  1.00  0.00    -0.200 F 
ATOM     92  F   UNL A   1      43.516  37.807  35.976  1.00  0.00    -0.200 F 
ENDBRANCH  59  82
ENDBRANCH  33  34
ENDBRANCH  26  28
ENDBRANCH  25  26
ENDBRANCH  24  25
ENDBRANCH  23  24
ENDBRANCH  22  23
ENDBRANCH   1  22
TORSDOF 17
ENDMDL
