MODEL 1
REMARK VINA RESULT:     -11.3      0.000      0.000
REMARK SMILES C[C@H](Oc1ccc(C(=O)OCCOCCOC(=O)c2ccc(-c3c4nc(c(-c5c(F)c(F)c(F)c(F)c5F)c5ccc([nH]5)c(-c5c(F)c(F)c(F)c(F)c5F)c5nc(c(-c6c(F)c(F)c(F)c(F)c6F)c6ccc3[nH]6)C=C5)C=C4)cc2)cc1)C(=O)N(C)[C@H]1CCS(=O)(=O)C1
REMARK SMILES IDX 11 1 10 2 8 3 9 4 7 5 4 6 5 7 83 8 6 9 82 10 3 11 2 12 1 13
REMARK SMILES IDX 84 14 85 15 86 16 87 17 88 18 89 19 94 20 90 21 91 22 92 23
REMARK SMILES IDX 93 24 12 25 13 26 14 27 15 28 16 29 17 30 18 31 19 32 20 33
REMARK SMILES IDX 81 34 21 35 80 36 22 37 23 38 24 39 74 40 25 41 79 42 73 43
REMARK SMILES IDX 75 44 26 45 78 46 72 47 71 48 27 50 59 51 39 52 58 53 40 54
REMARK SMILES IDX 43 55 57 56 76 57 41 58 42 59 56 61 77 62 44 63 28 64 29 65
REMARK SMILES IDX 37 66 30 67 31 68 35 69 38 70 32 71 33 72 36 73 34 74 60 75
REMARK SMILES IDX 61 76 69 77 62 78 63 79 67 80 70 81 64 82 65 83 68 84 66 85
REMARK SMILES IDX 45 86 46 87 54 88 47 89 48 90 52 91 55 92 49 93 50 94 53 95
REMARK SMILES IDX 51 96
REMARK H PARENT 75 49 43 60
REMARK Flexibility Score: inf
ROOT
ATOM      1  C   UNL A   1      39.715  21.598  26.579  1.00  0.00     0.261 C 
ENDROOT
BRANCH   1   2
ATOM      2  O   UNL A   1      38.796  22.423  25.848  1.00  0.00    -0.460 OA
BRANCH   2   3
ATOM      3  C   UNL A   1      37.849  21.733  25.165  1.00  0.00     0.338 C 
ATOM      4  O   UNL A   1      37.817  20.526  24.981  1.00  0.00    -0.246 OA
BRANCH   3   5
ATOM      5  C   UNL A   1      36.724  22.619  24.784  1.00  0.00     0.060 A 
ATOM      6  C   UNL A   1      34.630  24.405  24.225  1.00  0.00     0.120 A 
ATOM      7  C   UNL A   1      35.228  24.399  25.482  1.00  0.00     0.047 A 
ATOM      8  C   UNL A   1      35.078  23.501  23.252  1.00  0.00     0.047 A 
ATOM      9  C   UNL A   1      36.276  23.520  25.757  1.00  0.00     0.019 A 
ATOM     10  C   UNL A   1      36.124  22.608  23.524  1.00  0.00     0.019 A 
BRANCH   6  11
ATOM     11  O   UNL A   1      33.635  25.248  23.818  1.00  0.00    -0.481 OA
BRANCH  11  12
ATOM     12  C   UNL A   1      32.522  25.501  24.678  1.00  0.00     0.259 C 
ATOM     13  C   UNL A   1      31.854  26.869  24.478  1.00  0.00     0.064 C 
BRANCH  12  14
ATOM     14  C   UNL A   1      31.436  24.416  24.491  1.00  0.00     0.263 C 
ATOM     15  O   UNL A   1      30.703  24.493  23.501  1.00  0.00    -0.271 OA
BRANCH  14  16
ATOM     16  N   UNL A   1      31.369  23.332  25.370  1.00  0.00    -0.339 N 
ATOM     17  C   UNL A   1      31.162  23.463  26.812  1.00  0.00     0.147 C 
BRANCH  16  18
ATOM     18  C   UNL A   1      31.713  21.966  24.934  1.00  0.00     0.101 C 
ATOM     19  C   UNL A   1      32.071  21.720  23.456  1.00  0.00     0.042 C 
ATOM     20  C   UNL A   1      32.873  21.374  25.729  1.00  0.00     0.162 C 
ATOM     21  C   UNL A   1      32.422  20.236  23.355  1.00  0.00     0.139 C 
ATOM     22  S   UNL A   1      33.171  19.814  24.926  1.00  0.00     0.152 S 
ATOM     23  O   UNL A   1      32.333  18.816  25.571  1.00  0.00    -0.229 OA
ATOM     24  O   UNL A   1      34.591  19.633  24.759  1.00  0.00    -0.229 OA
ENDBRANCH  16  18
ENDBRANCH  14  16
ENDBRANCH  12  14
ENDBRANCH  11  12
ENDBRANCH   6  11
ENDBRANCH   3   5
ENDBRANCH   2   3
ENDBRANCH   1   2
BRANCH   1  25
ATOM     25  C   UNL A   1      41.155  21.750  26.079  1.00  0.00     0.202 C 
BRANCH  25  26
ATOM     26  O   UNL A   1      41.869  20.557  25.771  1.00  0.00    -0.374 OA
BRANCH  26  27
ATOM     27  C   UNL A   1      43.296  20.616  25.790  1.00  0.00     0.202 C 
BRANCH  27  28
ATOM     28  C   UNL A   1      43.957  21.811  25.087  1.00  0.00     0.261 C 
BRANCH  28  29
ATOM     29  O   UNL A   1      44.333  22.849  26.012  1.00  0.00    -0.460 OA
BRANCH  29  30
ATOM     30  C   UNL A   1      44.317  24.103  25.499  1.00  0.00     0.338 C 
ATOM     31  O   UNL A   1      44.706  24.463  24.400  1.00  0.00    -0.246 OA
BRANCH  30  32
ATOM     32  C   UNL A   1      43.571  24.999  26.400  1.00  0.00     0.060 A 
ATOM     33  C   UNL A   1      44.004  26.327  26.503  1.00  0.00     0.016 A 
ATOM     34  C   UNL A   1      42.515  24.532  27.185  1.00  0.00     0.016 A 
ATOM     35  C   UNL A   1      43.410  27.187  27.425  1.00  0.00     0.010 A 
ATOM     36  C   UNL A   1      41.926  25.394  28.117  1.00  0.00     0.010 A 
ATOM     37  C   UNL A   1      42.392  26.713  28.263  1.00  0.00    -0.014 A 
BRANCH  37  38
ATOM     38  C   UNL A   1      41.917  27.556  29.387  1.00  0.00     0.031 A 
ATOM     39  C   UNL A   1      42.637  27.490  30.704  1.00  0.00     0.074 A 
ATOM     40  C   UNL A   1      40.870  28.386  29.228  1.00  0.00     0.049 A 
ATOM     41  N   UNL A   1      42.370  28.101  31.831  1.00  0.00    -0.248 NA
ATOM     42  C   UNL A   1      43.818  26.614  30.759  1.00  0.00     0.031 C 
ATOM     43  C   UNL A   1      40.119  28.568  27.989  1.00  0.00     0.029 A 
ATOM     44  N   UNL A   1      40.258  29.228  30.122  1.00  0.00    -0.354 N 
ATOM     45  C   UNL A   1      43.342  27.678  32.729  1.00  0.00     0.074 A 
ATOM     46  C   UNL A   1      44.186  26.735  32.026  1.00  0.00     0.031 C 
ATOM     47  C   UNL A   1      39.135  29.457  28.204  1.00  0.00     0.029 A 
ATOM     48  C   UNL A   1      39.168  29.882  29.603  1.00  0.00     0.049 A 
ATOM     49  H   UNL A   1      40.570  29.350  31.049  1.00  0.00     0.167 HD
ATOM     50  C   UNL A   1      43.518  28.051  34.018  1.00  0.00     0.037 A 
ATOM     51  C   UNL A   1      38.287  30.708  30.197  1.00  0.00     0.037 A 
ATOM     52  C   UNL A   1      42.677  28.991  34.712  1.00  0.00     0.049 A 
ATOM     53  C   UNL A   1      38.462  31.051  31.654  1.00  0.00     0.074 A 
ATOM     54  C   UNL A   1      42.787  29.451  36.012  1.00  0.00     0.029 A 
ATOM     55  N   UNL A   1      41.563  29.608  34.162  1.00  0.00    -0.354 N 
ATOM     56  N   UNL A   1      39.398  30.669  32.489  1.00  0.00    -0.248 NA
ATOM     57  C   UNL A   1      37.459  31.943  32.251  1.00  0.00     0.031 C 
ATOM     58  C   UNL A   1      41.708  30.304  36.267  1.00  0.00     0.029 A 
ATOM     59  C   UNL A   1      40.960  30.424  35.107  1.00  0.00     0.049 A 
ATOM     60  H   UNL A   1      41.249  29.487  33.237  1.00  0.00     0.167 HD
ATOM     61  C   UNL A   1      39.115  31.295  33.697  1.00  0.00     0.074 A 
ATOM     62  C   UNL A   1      37.926  32.094  33.482  1.00  0.00     0.031 C 
ATOM     63  C   UNL A   1      39.779  31.218  34.877  1.00  0.00     0.037 A 
BRANCH  50  64
ATOM     64  C   UNL A   1      44.650  27.417  34.775  1.00  0.00     0.064 A 
ATOM     65  C   UNL A   1      44.486  26.214  35.480  1.00  0.00     0.173 A 
ATOM     66  C   UNL A   1      45.924  28.004  34.766  1.00  0.00     0.173 A 
ATOM     67  F   UNL A   1      43.285  25.620  35.532  1.00  0.00    -0.203 F 
ATOM     68  C   UNL A   1      45.550  25.639  36.170  1.00  0.00     0.198 A 
ATOM     69  C   UNL A   1      46.993  27.409  35.431  1.00  0.00     0.198 A 
ATOM     70  F   UNL A   1      46.137  29.151  34.105  1.00  0.00    -0.203 F 
ATOM     71  F   UNL A   1      45.358  24.517  36.877  1.00  0.00    -0.200 F 
ATOM     72  C   UNL A   1      46.804  26.232  36.139  1.00  0.00     0.200 A 
ATOM     73  F   UNL A   1      48.206  27.975  35.389  1.00  0.00    -0.200 F 
ATOM     74  F   UNL A   1      47.828  25.672  36.798  1.00  0.00    -0.200 F 
ENDBRANCH  50  64
BRANCH  51  75
ATOM     75  C   UNL A   1      37.147  31.263  29.420  1.00  0.00     0.064 A 
ATOM     76  C   UNL A   1      37.126  32.606  29.023  1.00  0.00     0.173 A 
ATOM     77  C   UNL A   1      36.048  30.463  29.072  1.00  0.00     0.173 A 
ATOM     78  F   UNL A   1      38.143  33.418  29.354  1.00  0.00    -0.203 F 
ATOM     79  C   UNL A   1      36.041  33.134  28.326  1.00  0.00     0.198 A 
ATOM     80  C   UNL A   1      34.977  30.984  28.350  1.00  0.00     0.198 A 
ATOM     81  F   UNL A   1      36.017  29.170  29.429  1.00  0.00    -0.203 F 
ATOM     82  F   UNL A   1      36.024  34.435  28.003  1.00  0.00    -0.200 F 
ATOM     83  C   UNL A   1      34.971  32.322  27.984  1.00  0.00     0.200 A 
ATOM     84  F   UNL A   1      33.952  30.192  28.010  1.00  0.00    -0.200 F 
ATOM     85  F   UNL A   1      33.929  32.829  27.311  1.00  0.00    -0.200 F 
ENDBRANCH  51  75
BRANCH  63  86
ATOM     86  C   UNL A   1      39.260  32.045  36.019  1.00  0.00     0.064 A 
ATOM     87  C   UNL A   1      39.687  33.364  36.229  1.00  0.00     0.173 A 
ATOM     88  C   UNL A   1      38.291  31.523  36.889  1.00  0.00     0.173 A 
ATOM     89  F   UNL A   1      40.622  33.906  35.433  1.00  0.00    -0.203 F 
ATOM     90  C   UNL A   1      39.183  34.121  37.284  1.00  0.00     0.198 A 
ATOM     91  C   UNL A   1      37.765  32.292  37.924  1.00  0.00     0.198 A 
ATOM     92  F   UNL A   1      37.842  30.269  36.729  1.00  0.00    -0.203 F 
ATOM     93  F   UNL A   1      39.642  35.362  37.495  1.00  0.00    -0.200 F 
ATOM     94  C   UNL A   1      38.217  33.587  38.124  1.00  0.00     0.200 A 
ATOM     95  F   UNL A   1      36.821  31.781  38.724  1.00  0.00    -0.200 F 
ATOM     96  F   UNL A   1      37.727  34.320  39.135  1.00  0.00    -0.200 F 
ENDBRANCH  63  86
ENDBRANCH  37  38
ENDBRANCH  30  32
ENDBRANCH  29  30
ENDBRANCH  28  29
ENDBRANCH  27  28
ENDBRANCH  26  27
ENDBRANCH  25  26
ENDBRANCH   1  25
TORSDOF 19
ENDMDL
MODEL 2
REMARK VINA RESULT:     -11.3      1.792      3.289
REMARK SMILES C[C@H](Oc1ccc(C(=O)OCCOCCOC(=O)c2ccc(-c3c4nc(c(-c5c(F)c(F)c(F)c(F)c5F)c5ccc([nH]5)c(-c5c(F)c(F)c(F)c(F)c5F)c5nc(c(-c6c(F)c(F)c(F)c(F)c6F)c6ccc3[nH]6)C=C5)C=C4)cc2)cc1)C(=O)N(C)[C@H]1CCS(=O)(=O)C1
REMARK SMILES IDX 11 1 10 2 8 3 9 4 7 5 4 6 5 7 83 8 6 9 82 10 3 11 2 12 1 13
REMARK SMILES IDX 84 14 85 15 86 16 87 17 88 18 89 19 94 20 90 21 91 22 92 23
REMARK SMILES IDX 93 24 12 25 13 26 14 27 15 28 16 29 17 30 18 31 19 32 20 33
REMARK SMILES IDX 81 34 21 35 80 36 22 37 23 38 24 39 74 40 25 41 79 42 73 43
REMARK SMILES IDX 75 44 26 45 78 46 72 47 71 48 27 50 59 51 39 52 58 53 40 54
REMARK SMILES IDX 43 55 57 56 76 57 41 58 42 59 56 61 77 62 44 63 28 64 29 65
REMARK SMILES IDX 37 66 30 67 31 68 35 69 38 70 32 71 33 72 36 73 34 74 60 75
REMARK SMILES IDX 61 76 69 77 62 78 63 79 67 80 70 81 64 82 65 83 68 84 66 85
REMARK SMILES IDX 45 86 46 87 54 88 47 89 48 90 52 91 55 92 49 93 50 94 53 95
REMARK SMILES IDX 51 96
REMARK H PARENT 75 49 43 60
REMARK Flexibility Score: inf
ROOT
ATOM      1  C   UNL A   1      39.894  22.338  26.081  1.00  0.00     0.261 C 
ENDROOT
BRANCH   1   2
ATOM      2  O   UNL A   1      38.514  22.092  26.388  1.00  0.00    -0.460 OA
BRANCH   2   3
ATOM      3  C   UNL A   1      37.798  21.573  25.360  1.00  0.00     0.338 C 
ATOM      4  O   UNL A   1      37.869  20.434  24.925  1.00  0.00    -0.246 OA
BRANCH   3   5
ATOM      5  C   UNL A   1      36.764  22.530  24.903  1.00  0.00     0.060 A 
ATOM      6  C   UNL A   1      34.790  24.239  23.869  1.00  0.00     0.120 A 
ATOM      7  C   UNL A   1      35.426  23.322  23.038  1.00  0.00     0.047 A 
ATOM      8  C   UNL A   1      35.156  24.305  25.221  1.00  0.00     0.047 A 
ATOM      9  C   UNL A   1      36.400  22.465  23.553  1.00  0.00     0.019 A 
ATOM     10  C   UNL A   1      36.140  23.454  25.743  1.00  0.00     0.019 A 
BRANCH   6  11
ATOM     11  O   UNL A   1      33.789  25.093  23.499  1.00  0.00    -0.481 OA
BRANCH  11  12
ATOM     12  C   UNL A   1      33.556  26.283  24.255  1.00  0.00     0.259 C 
ATOM     13  C   UNL A   1      33.930  27.585  23.533  1.00  0.00     0.064 C 
BRANCH  12  14
ATOM     14  C   UNL A   1      32.067  26.383  24.661  1.00  0.00     0.263 C 
ATOM     15  O   UNL A   1      31.475  25.342  24.960  1.00  0.00    -0.271 OA
BRANCH  14  16
ATOM     16  N   UNL A   1      31.454  27.634  24.780  1.00  0.00    -0.339 N 
ATOM     17  C   UNL A   1      31.576  28.491  25.960  1.00  0.00     0.147 C 
BRANCH  16  18
ATOM     18  C   UNL A   1      30.458  28.099  23.799  1.00  0.00     0.101 C 
ATOM     19  C   UNL A   1      29.034  27.514  23.846  1.00  0.00     0.042 C 
ATOM     20  C   UNL A   1      30.268  29.613  23.831  1.00  0.00     0.162 C 
ATOM     21  C   UNL A   1      28.252  28.237  22.748  1.00  0.00     0.139 C 
ATOM     22  S   UNL A   1      28.941  29.888  22.679  1.00  0.00     0.152 S 
ATOM     23  O   UNL A   1      29.528  30.077  21.363  1.00  0.00    -0.229 OA
ATOM     24  O   UNL A   1      28.010  30.831  23.247  1.00  0.00    -0.229 OA
ENDBRANCH  16  18
ENDBRANCH  14  16
ENDBRANCH  12  14
ENDBRANCH  11  12
ENDBRANCH   6  11
ENDBRANCH   3   5
ENDBRANCH   2   3
ENDBRANCH   1   2
BRANCH   1  25
ATOM     25  C   UNL A   1      40.818  21.264  26.661  1.00  0.00     0.202 C 
BRANCH  25  26
ATOM     26  O   UNL A   1      41.860  20.775  25.821  1.00  0.00    -0.374 OA
BRANCH  26  27
ATOM     27  C   UNL A   1      43.176  21.290  26.031  1.00  0.00     0.202 C 
BRANCH  27  28
ATOM     28  C   UNL A   1      43.790  22.126  24.898  1.00  0.00     0.261 C 
BRANCH  28  29
ATOM     29  O   UNL A   1      43.128  23.395  24.736  1.00  0.00    -0.460 OA
BRANCH  29  30
ATOM     30  C   UNL A   1      43.886  24.476  25.041  1.00  0.00     0.338 C 
ATOM     31  O   UNL A   1      44.937  24.818  24.524  1.00  0.00    -0.246 OA
BRANCH  30  32
ATOM     32  C   UNL A   1      43.164  25.335  25.996  1.00  0.00     0.060 A 
ATOM     33  C   UNL A   1      43.586  26.666  26.123  1.00  0.00     0.016 A 
ATOM     34  C   UNL A   1      42.145  24.832  26.806  1.00  0.00     0.016 A 
ATOM     35  C   UNL A   1      43.017  27.490  27.092  1.00  0.00     0.010 A 
ATOM     36  C   UNL A   1      41.582  25.658  27.786  1.00  0.00     0.010 A 
ATOM     37  C   UNL A   1      42.039  26.978  27.953  1.00  0.00    -0.014 A 
BRANCH  37  38
ATOM     38  C   UNL A   1      41.597  27.782  29.119  1.00  0.00     0.031 A 
ATOM     39  C   UNL A   1      42.354  27.669  30.412  1.00  0.00     0.074 A 
ATOM     40  C   UNL A   1      40.548  28.618  29.020  1.00  0.00     0.049 A 
ATOM     41  N   UNL A   1      42.120  28.239  31.567  1.00  0.00    -0.248 NA
ATOM     42  C   UNL A   1      43.534  26.790  30.403  1.00  0.00     0.031 C 
ATOM     43  C   UNL A   1      39.762  28.844  27.810  1.00  0.00     0.029 A 
ATOM     44  N   UNL A   1      39.963  29.428  29.960  1.00  0.00    -0.354 N 
ATOM     45  C   UNL A   1      43.117  27.784  32.421  1.00  0.00     0.074 A 
ATOM     46  C   UNL A   1      43.938  26.866  31.662  1.00  0.00     0.031 C 
ATOM     47  C   UNL A   1      38.787  29.727  28.084  1.00  0.00     0.029 A 
ATOM     48  C   UNL A   1      38.861  30.101  29.495  1.00  0.00     0.049 A 
ATOM     49  H   UNL A   1      40.301  29.518  30.881  1.00  0.00     0.167 HD
ATOM     50  C   UNL A   1      43.331  28.111  33.718  1.00  0.00     0.037 A 
ATOM     51  C   UNL A   1      37.998  30.907  30.143  1.00  0.00     0.037 A 
ATOM     52  C   UNL A   1      42.511  29.027  34.468  1.00  0.00     0.049 A 
ATOM     53  C   UNL A   1      38.216  31.198  31.606  1.00  0.00     0.074 A 
ATOM     54  C   UNL A   1      42.660  29.441  35.780  1.00  0.00     0.029 A 
ATOM     55  N   UNL A   1      41.384  29.665  33.972  1.00  0.00    -0.354 N 
ATOM     56  N   UNL A   1      39.174  30.786  32.400  1.00  0.00    -0.248 NA
ATOM     57  C   UNL A   1      37.231  32.070  32.262  1.00  0.00     0.031 C 
ATOM     58  C   UNL A   1      41.590  30.285  36.095  1.00  0.00     0.029 A 
ATOM     59  C   UNL A   1      40.809  30.447  34.962  1.00  0.00     0.049 A 
ATOM     60  H   UNL A   1      41.043  29.576  33.053  1.00  0.00     0.167 HD
ATOM     61  C   UNL A   1      38.927  31.369  33.637  1.00  0.00     0.074 A 
ATOM     62  C   UNL A   1      37.734  32.177  33.484  1.00  0.00     0.031 C 
ATOM     63  C   UNL A   1      39.624  31.250  34.794  1.00  0.00     0.037 A 
BRANCH  50  64
ATOM     64  C   UNL A   1      44.482  27.450  34.419  1.00  0.00     0.064 A 
ATOM     65  C   UNL A   1      45.748  28.052  34.492  1.00  0.00     0.173 A 
ATOM     66  C   UNL A   1      44.308  26.212  35.056  1.00  0.00     0.173 A 
ATOM     67  F   UNL A   1      45.972  29.229  33.887  1.00  0.00    -0.203 F 
ATOM     68  C   UNL A   1      46.802  27.426  35.152  1.00  0.00     0.198 A 
ATOM     69  C   UNL A   1      45.356  25.604  35.742  1.00  0.00     0.198 A 
ATOM     70  F   UNL A   1      43.118  25.595  35.021  1.00  0.00    -0.203 F 
ATOM     71  F   UNL A   1      48.015  27.997  35.166  1.00  0.00    -0.200 F 
ATOM     72  C   UNL A   1      46.603  26.207  35.784  1.00  0.00     0.200 A 
ATOM     73  F   UNL A   1      45.159  24.433  36.363  1.00  0.00    -0.200 F 
ATOM     74  F   UNL A   1      47.618  25.610  36.425  1.00  0.00    -0.200 F 
ENDBRANCH  50  64
BRANCH  51  75
ATOM     75  C   UNL A   1      36.838  31.490  29.419  1.00  0.00     0.064 A 
ATOM     76  C   UNL A   1      35.755  30.693  29.025  1.00  0.00     0.173 A 
ATOM     77  C   UNL A   1      36.797  32.854  29.091  1.00  0.00     0.173 A 
ATOM     78  F   UNL A   1      35.759  29.378  29.292  1.00  0.00    -0.203 F 
ATOM     79  C   UNL A   1      34.685  31.233  28.313  1.00  0.00     0.198 A 
ATOM     80  C   UNL A   1      35.713  33.398  28.406  1.00  0.00     0.198 A 
ATOM     81  F   UNL A   1      37.809  33.660  29.444  1.00  0.00    -0.203 F 
ATOM     82  F   UNL A   1      33.686  30.438  27.905  1.00  0.00    -0.200 F 
ATOM     83  C   UNL A   1      34.662  32.586  28.011  1.00  0.00     0.200 A 
ATOM     84  F   UNL A   1      35.690  34.709  28.128  1.00  0.00    -0.200 F 
ATOM     85  F   UNL A   1      33.632  33.105  27.330  1.00  0.00    -0.200 F 
ENDBRANCH  51  75
BRANCH  63  86
ATOM     86  C   UNL A   1      39.140  32.037  35.978  1.00  0.00     0.064 A 
ATOM     87  C   UNL A   1      39.542  33.361  36.200  1.00  0.00     0.173 A 
ATOM     88  C   UNL A   1      38.226  31.469  36.880  1.00  0.00     0.173 A 
ATOM     89  F   UNL A   1      40.425  33.946  35.374  1.00  0.00    -0.203 F 
ATOM     90  C   UNL A   1      39.071  34.080  37.295  1.00  0.00     0.198 A 
ATOM     91  C   UNL A   1      37.731  32.201  37.957  1.00  0.00     0.198 A 
ATOM     92  F   UNL A   1      37.802  30.208  36.711  1.00  0.00    -0.203 F 
ATOM     93  F   UNL A   1      39.508  35.328  37.515  1.00  0.00    -0.200 F 
ATOM     94  C   UNL A   1      38.160  33.503  38.167  1.00  0.00     0.200 A 
ATOM     95  F   UNL A   1      36.839  31.647  38.788  1.00  0.00    -0.200 F 
ATOM     96  F   UNL A   1      37.700  34.198  39.217  1.00  0.00    -0.200 F 
ENDBRANCH  63  86
ENDBRANCH  37  38
ENDBRANCH  30  32
ENDBRANCH  29  30
ENDBRANCH  28  29
ENDBRANCH  27  28
ENDBRANCH  26  27
ENDBRANCH  25  26
ENDBRANCH   1  25
TORSDOF 19
ENDMDL
MODEL 3
REMARK VINA RESULT:     -11.2      5.440     10.673
REMARK SMILES C[C@H](Oc1ccc(C(=O)OCCOCCOC(=O)c2ccc(-c3c4nc(c(-c5c(F)c(F)c(F)c(F)c5F)c5ccc([nH]5)c(-c5c(F)c(F)c(F)c(F)c5F)c5nc(c(-c6c(F)c(F)c(F)c(F)c6F)c6ccc3[nH]6)C=C5)C=C4)cc2)cc1)C(=O)N(C)[C@H]1CCS(=O)(=O)C1
REMARK SMILES IDX 11 1 10 2 8 3 9 4 7 5 4 6 5 7 83 8 6 9 82 10 3 11 2 12 1 13
REMARK SMILES IDX 84 14 85 15 86 16 87 17 88 18 89 19 94 20 90 21 91 22 92 23
REMARK SMILES IDX 93 24 12 25 13 26 14 27 15 28 16 29 17 30 18 31 19 32 20 33
REMARK SMILES IDX 81 34 21 35 80 36 22 37 23 38 24 39 74 40 25 41 79 42 73 43
REMARK SMILES IDX 75 44 26 45 78 46 72 47 71 48 27 50 59 51 39 52 58 53 40 54
REMARK SMILES IDX 43 55 57 56 76 57 41 58 42 59 56 61 77 62 44 63 28 64 29 65
REMARK SMILES IDX 37 66 30 67 31 68 35 69 38 70 32 71 33 72 36 73 34 74 60 75
REMARK SMILES IDX 61 76 69 77 62 78 63 79 67 80 70 81 64 82 65 83 68 84 66 85
REMARK SMILES IDX 45 86 46 87 54 88 47 89 48 90 52 91 55 92 49 93 50 94 53 95
REMARK SMILES IDX 51 96
REMARK H PARENT 75 49 43 60
REMARK Flexibility Score: inf
ROOT
ATOM      1  C   UNL A   1      33.277  34.491  28.969  1.00  0.00     0.261 C 
ENDROOT
BRANCH   1   2
ATOM      2  O   UNL A   1      33.981  33.255  29.155  1.00  0.00    -0.460 OA
BRANCH   2   3
ATOM      3  C   UNL A   1      34.755  32.889  28.103  1.00  0.00     0.338 C 
ATOM      4  O   UNL A   1      35.637  33.554  27.583  1.00  0.00    -0.246 OA
BRANCH   3   5
ATOM      5  C   UNL A   1      34.513  31.474  27.738  1.00  0.00     0.060 A 
ATOM      6  C   UNL A   1      33.876  28.846  26.979  1.00  0.00     0.120 A 
ATOM      7  C   UNL A   1      32.882  29.818  27.038  1.00  0.00     0.047 A 
ATOM      8  C   UNL A   1      35.192  29.194  27.315  1.00  0.00     0.047 A 
ATOM      9  C   UNL A   1      33.199  31.127  27.405  1.00  0.00     0.019 A 
ATOM     10  C   UNL A   1      35.517  30.505  27.693  1.00  0.00     0.019 A 
BRANCH   6  11
ATOM     11  O   UNL A   1      33.703  27.549  26.587  1.00  0.00    -0.481 OA
BRANCH  11  12
ATOM     12  C   UNL A   1      32.731  27.233  25.588  1.00  0.00     0.259 C 
ATOM     13  C   UNL A   1      33.316  26.745  24.255  1.00  0.00     0.064 C 
BRANCH  12  14
ATOM     14  C   UNL A   1      31.762  26.142  26.102  1.00  0.00     0.263 C 
ATOM     15  O   UNL A   1      30.858  26.484  26.870  1.00  0.00    -0.271 OA
BRANCH  14  16
ATOM     16  N   UNL A   1      31.858  24.834  25.620  1.00  0.00    -0.339 N 
ATOM     17  C   UNL A   1      30.916  24.245  24.668  1.00  0.00     0.147 C 
BRANCH  16  18
ATOM     18  C   UNL A   1      32.809  23.868  26.199  1.00  0.00     0.101 C 
ATOM     19  C   UNL A   1      32.329  22.927  27.319  1.00  0.00     0.042 C 
ATOM     20  C   UNL A   1      33.428  22.953  25.146  1.00  0.00     0.162 C 
ATOM     21  C   UNL A   1      33.524  22.034  27.652  1.00  0.00     0.139 C 
ATOM     22  S   UNL A   1      34.404  21.818  26.108  1.00  0.00     0.152 S 
ATOM     23  O   UNL A   1      35.731  22.394  26.261  1.00  0.00    -0.229 OA
ATOM     24  O   UNL A   1      34.201  20.481  25.610  1.00  0.00    -0.229 OA
ENDBRANCH  16  18
ENDBRANCH  14  16
ENDBRANCH  12  14
ENDBRANCH  11  12
ENDBRANCH   6  11
ENDBRANCH   3   5
ENDBRANCH   2   3
ENDBRANCH   1   2
BRANCH   1  25
ATOM     25  C   UNL A   1      33.867  35.627  29.810  1.00  0.00     0.202 C 
BRANCH  25  26
ATOM     26  O   UNL A   1      33.279  35.868  31.085  1.00  0.00    -0.374 OA
BRANCH  26  27
ATOM     27  C   UNL A   1      33.522  34.911  32.117  1.00  0.00     0.202 C 
BRANCH  27  28
ATOM     28  C   UNL A   1      34.949  34.831  32.678  1.00  0.00     0.261 C 
BRANCH  28  29
ATOM     29  O   UNL A   1      35.756  33.863  31.981  1.00  0.00    -0.460 OA
BRANCH  29  30
ATOM     30  C   UNL A   1      36.230  32.855  32.751  1.00  0.00     0.338 C 
ATOM     31  O   UNL A   1      35.828  32.504  33.849  1.00  0.00    -0.246 OA
BRANCH  30  32
ATOM     32  C   UNL A   1      37.222  32.074  31.992  1.00  0.00     0.060 A 
ATOM     33  C   UNL A   1      38.206  31.389  32.718  1.00  0.00     0.016 A 
ATOM     34  C   UNL A   1      37.237  32.070  30.597  1.00  0.00     0.016 A 
ATOM     35  C   UNL A   1      39.237  30.731  32.050  1.00  0.00     0.010 A 
ATOM     36  C   UNL A   1      38.278  31.416  29.927  1.00  0.00     0.010 A 
ATOM     37  C   UNL A   1      39.298  30.773  30.651  1.00  0.00    -0.014 A 
BRANCH  37  38
ATOM     38  C   UNL A   1      40.506  30.266  29.956  1.00  0.00     0.031 A 
ATOM     39  C   UNL A   1      41.662  31.198  29.727  1.00  0.00     0.074 A 
ATOM     40  C   UNL A   1      40.580  28.985  29.553  1.00  0.00     0.049 A 
ATOM     41  N   UNL A   1      42.793  30.986  29.104  1.00  0.00    -0.248 NA
ATOM     42  C   UNL A   1      41.522  32.558  30.273  1.00  0.00     0.031 C 
ATOM     43  C   UNL A   1      39.543  27.977  29.754  1.00  0.00     0.029 A 
ATOM     44  N   UNL A   1      41.575  28.318  28.884  1.00  0.00    -0.354 N 
ATOM     45  C   UNL A   1      43.495  32.183  29.176  1.00  0.00     0.074 A 
ATOM     46  C   UNL A   1      42.650  33.127  29.875  1.00  0.00     0.031 C 
ATOM     47  C   UNL A   1      39.950  26.819  29.208  1.00  0.00     0.029 A 
ATOM     48  C   UNL A   1      41.261  27.014  28.591  1.00  0.00     0.049 A 
ATOM     49  H   UNL A   1      42.433  28.735  28.636  1.00  0.00     0.167 HD
ATOM     50  C   UNL A   1      44.735  32.463  28.710  1.00  0.00     0.037 A 
ATOM     51  C   UNL A   1      41.945  26.094  27.884  1.00  0.00     0.037 A 
ATOM     52  C   UNL A   1      45.572  31.519  28.018  1.00  0.00     0.049 A 
ATOM     53  C   UNL A   1      43.292  26.453  27.313  1.00  0.00     0.074 A 
ATOM     54  C   UNL A   1      46.853  31.700  27.526  1.00  0.00     0.029 A 
ATOM     55  N   UNL A   1      45.207  30.216  27.711  1.00  0.00    -0.354 N 
ATOM     56  N   UNL A   1      43.961  27.577  27.407  1.00  0.00    -0.248 NA
ATOM     57  C   UNL A   1      43.982  25.413  26.537  1.00  0.00     0.031 C 
ATOM     58  C   UNL A   1      47.241  30.525  26.874  1.00  0.00     0.029 A 
ATOM     59  C   UNL A   1      46.227  29.591  27.011  1.00  0.00     0.049 A 
ATOM     60  H   UNL A   1      44.351  29.797  27.956  1.00  0.00     0.167 HD
ATOM     61  C   UNL A   1      45.157  27.371  26.732  1.00  0.00     0.074 A 
ATOM     62  C   UNL A   1      45.130  26.008  26.244  1.00  0.00     0.031 C 
ATOM     63  C   UNL A   1      46.187  28.232  26.536  1.00  0.00     0.037 A 
BRANCH  50  64
ATOM     64  C   UNL A   1      45.251  33.859  28.908  1.00  0.00     0.064 A 
ATOM     65  C   UNL A   1      44.990  34.882  27.982  1.00  0.00     0.173 A 
ATOM     66  C   UNL A   1      45.987  34.187  30.056  1.00  0.00     0.173 A 
ATOM     67  F   UNL A   1      44.303  34.619  26.860  1.00  0.00    -0.203 F 
ATOM     68  C   UNL A   1      45.471  36.172  28.186  1.00  0.00     0.198 A 
ATOM     69  C   UNL A   1      46.440  35.485  30.272  1.00  0.00     0.198 A 
ATOM     70  F   UNL A   1      46.261  33.249  30.975  1.00  0.00    -0.203 F 
ATOM     71  F   UNL A   1      45.253  37.121  27.265  1.00  0.00    -0.200 F 
ATOM     72  C   UNL A   1      46.189  36.475  29.334  1.00  0.00     0.200 A 
ATOM     73  F   UNL A   1      47.121  35.779  31.388  1.00  0.00    -0.200 F 
ATOM     74  F   UNL A   1      46.645  37.720  29.532  1.00  0.00    -0.200 F 
ENDBRANCH  50  64
BRANCH  51  75
ATOM     75  C   UNL A   1      41.364  24.743  27.665  1.00  0.00     0.064 A 
ATOM     76  C   UNL A   1      41.877  23.618  28.324  1.00  0.00     0.173 A 
ATOM     77  C   UNL A   1      40.294  24.547  26.779  1.00  0.00     0.173 A 
ATOM     78  F   UNL A   1      42.917  23.749  29.162  1.00  0.00    -0.203 F 
ATOM     79  C   UNL A   1      41.356  22.346  28.090  1.00  0.00     0.198 A 
ATOM     80  C   UNL A   1      39.754  23.281  26.568  1.00  0.00     0.198 A 
ATOM     81  F   UNL A   1      39.767  25.591  26.121  1.00  0.00    -0.203 F 
ATOM     82  F   UNL A   1      41.898  21.281  28.696  1.00  0.00    -0.200 F 
ATOM     83  C   UNL A   1      40.291  22.180  27.218  1.00  0.00     0.200 A 
ATOM     84  F   UNL A   1      38.716  23.128  25.735  1.00  0.00    -0.200 F 
ATOM     85  F   UNL A   1      39.788  20.958  26.996  1.00  0.00    -0.200 F 
ENDBRANCH  51  75
BRANCH  63  86
ATOM     86  C   UNL A   1      47.387  27.716  25.791  1.00  0.00     0.064 A 
ATOM     87  C   UNL A   1      47.465  27.764  24.392  1.00  0.00     0.173 A 
ATOM     88  C   UNL A   1      48.490  27.205  26.493  1.00  0.00     0.173 A 
ATOM     89  F   UNL A   1      46.431  28.231  23.674  1.00  0.00    -0.203 F 
ATOM     90  C   UNL A   1      48.591  27.295  23.721  1.00  0.00     0.198 A 
ATOM     91  C   UNL A   1      49.628  26.766  25.821  1.00  0.00     0.198 A 
ATOM     92  F   UNL A   1      48.471  27.143  27.833  1.00  0.00    -0.203 F 
ATOM     93  F   UNL A   1      48.623  27.305  22.381  1.00  0.00    -0.200 F 
ATOM     94  C   UNL A   1      49.674  26.804  24.435  1.00  0.00     0.200 A 
ATOM     95  F   UNL A   1      50.679  26.308  26.514  1.00  0.00    -0.200 F 
ATOM     96  F   UNL A   1      50.761  26.361  23.788  1.00  0.00    -0.200 F 
ENDBRANCH  63  86
ENDBRANCH  37  38
ENDBRANCH  30  32
ENDBRANCH  29  30
ENDBRANCH  28  29
ENDBRANCH  27  28
ENDBRANCH  26  27
ENDBRANCH  25  26
ENDBRANCH   1  25
TORSDOF 19
ENDMDL
