MODEL 1
REMARK VINA RESULT:     -11.4      0.000      0.000
REMARK SMILES O=C(OCCOCCOC(=O)[C@@H]1CCCN(C(=O)[C@H]2CC=CCC2)C1)c1ccc(-c2c3nc(c(-c4c(F)c(F)c(F)c(F)c4F)c4ccc([nH]4)c(-c4c(F)c(F)c(F)c(F)c4F)c4nc(c(-c5c(F)c(F)c(F)c(F)c5F)c5ccc2[nH]5)C=C4)C=C3)cc1
REMARK SMILES IDX 6 1 5 2 4 3 3 4 2 5 1 6 26 7 27 8 88 9 28 10 87 11 29 12
REMARK SMILES IDX 30 13 31 14 81 15 32 16 86 17 80 18 82 19 33 20 85 21 79 22
REMARK SMILES IDX 78 23 34 25 66 26 46 27 65 28 47 29 50 30 64 31 83 32 48 33
REMARK SMILES IDX 49 34 63 36 84 37 51 38 35 39 36 40 44 41 37 42 38 43 42 44
REMARK SMILES IDX 45 45 39 46 40 47 43 48 41 49 67 50 68 51 76 52 69 53 70 54
REMARK SMILES IDX 74 55 77 56 71 57 72 58 75 59 73 60 52 61 53 62 61 63 54 64
REMARK SMILES IDX 55 65 59 66 62 67 56 68 57 69 60 70 58 71 7 72 8 73 9 74
REMARK SMILES IDX 10 75 11 76 12 77 13 78 25 79 14 80 16 81 15 82 17 83 18 84
REMARK SMILES IDX 19 85 20 86 24 87 21 88 23 89 22 90
REMARK H PARENT 82 24 50 35
REMARK Flexibility Score: inf
ROOT
ATOM      1  O   UNL A   1      33.366  28.735  25.036  1.00  0.00    -0.374 OA
ENDROOT
BRANCH   1   2
ATOM      2  C   UNL A   1      32.073  29.301  24.849  1.00  0.00     0.202 C 
BRANCH   2   3
ATOM      3  C   UNL A   1      31.769  30.416  25.847  1.00  0.00     0.261 C 
BRANCH   3   4
ATOM      4  O   UNL A   1      32.733  30.354  26.907  1.00  0.00    -0.460 OA
BRANCH   4   5
ATOM      5  C   UNL A   1      33.230  31.561  27.289  1.00  0.00     0.338 C 
ATOM      6  O   UNL A   1      32.775  32.662  27.095  1.00  0.00    -0.246 OA
BRANCH   5   7
ATOM      7  C   UNL A   1      34.561  31.268  27.839  1.00  0.00     0.060 A 
ATOM      8  C   UNL A   1      34.809  29.953  28.228  1.00  0.00     0.016 A 
ATOM      9  C   UNL A   1      35.501  32.270  28.063  1.00  0.00     0.016 A 
ATOM     10  C   UNL A   1      35.947  29.651  28.948  1.00  0.00     0.010 A 
ATOM     11  C   UNL A   1      36.697  31.939  28.711  1.00  0.00     0.010 A 
ATOM     12  C   UNL A   1      36.916  30.631  29.183  1.00  0.00    -0.014 A 
BRANCH  12  13
ATOM     13  C   UNL A   1      38.118  30.267  29.971  1.00  0.00     0.031 A 
ATOM     14  C   UNL A   1      39.221  29.476  29.333  1.00  0.00     0.074 A 
ATOM     15  C   UNL A   1      38.259  30.726  31.230  1.00  0.00     0.049 A 
ATOM     16  N   UNL A   1      40.245  28.885  29.890  1.00  0.00    -0.248 NA
ATOM     17  C   UNL A   1      39.161  29.317  27.871  1.00  0.00     0.031 C 
ATOM     18  C   UNL A   1      37.307  31.595  31.924  1.00  0.00     0.029 A 
ATOM     19  N   UNL A   1      39.277  30.568  32.135  1.00  0.00    -0.354 N 
ATOM     20  C   UNL A   1      40.893  28.207  28.868  1.00  0.00     0.074 A 
ATOM     21  C   UNL A   1      40.171  28.489  27.647  1.00  0.00     0.031 C 
ATOM     22  C   UNL A   1      37.828  31.975  33.098  1.00  0.00     0.029 A 
ATOM     23  C   UNL A   1      39.078  31.258  33.307  1.00  0.00     0.049 A 
ATOM     24  H   UNL A   1      40.073  30.015  31.962  1.00  0.00     0.167 HD
ATOM     25  C   UNL A   1      41.977  27.400  28.964  1.00  0.00     0.037 A 
ATOM     26  C   UNL A   1      39.792  31.264  34.446  1.00  0.00     0.037 A 
ATOM     27  C   UNL A   1      42.713  27.200  30.186  1.00  0.00     0.049 A 
ATOM     28  C   UNL A   1      40.980  30.352  34.537  1.00  0.00     0.074 A 
ATOM     29  C   UNL A   1      43.800  26.377  30.423  1.00  0.00     0.029 A 
ATOM     30  N   UNL A   1      42.445  27.860  31.379  1.00  0.00    -0.354 N 
ATOM     31  N   UNL A   1      41.501  29.580  33.614  1.00  0.00    -0.248 NA
ATOM     32  C   UNL A   1      41.648  30.270  35.840  1.00  0.00     0.031 C 
ATOM     33  C   UNL A   1      44.169  26.519  31.766  1.00  0.00     0.029 A 
ATOM     34  C   UNL A   1      43.342  27.463  32.355  1.00  0.00     0.049 A 
ATOM     35  H   UNL A   1      41.721  28.516  31.510  1.00  0.00     0.167 HD
ATOM     36  C   UNL A   1      42.548  28.909  34.223  1.00  0.00     0.074 A 
ATOM     37  C   UNL A   1      42.611  29.394  35.589  1.00  0.00     0.031 C 
ATOM     38  C   UNL A   1      43.373  27.964  33.707  1.00  0.00     0.037 A 
BRANCH  25  39
ATOM     39  C   UNL A   1      42.364  26.617  27.742  1.00  0.00     0.064 A 
ATOM     40  C   UNL A   1      41.807  25.367  27.438  1.00  0.00     0.173 A 
ATOM     41  C   UNL A   1      43.336  27.129  26.867  1.00  0.00     0.173 A 
ATOM     42  F   UNL A   1      40.890  24.819  28.250  1.00  0.00    -0.203 F 
ATOM     43  C   UNL A   1      42.234  24.645  26.324  1.00  0.00     0.198 A 
ATOM     44  C   UNL A   1      43.739  26.418  25.740  1.00  0.00     0.198 A 
ATOM     45  F   UNL A   1      43.903  28.321  27.109  1.00  0.00    -0.203 F 
ATOM     46  F   UNL A   1      41.733  23.423  26.087  1.00  0.00    -0.200 F 
ATOM     47  C   UNL A   1      43.195  25.171  25.474  1.00  0.00     0.200 A 
ATOM     48  F   UNL A   1      44.662  26.935  24.917  1.00  0.00    -0.200 F 
ATOM     49  F   UNL A   1      43.610  24.472  24.410  1.00  0.00    -0.200 F 
ENDBRANCH  25  39
BRANCH  26  50
ATOM     50  C   UNL A   1      39.352  32.103  35.592  1.00  0.00     0.064 A 
ATOM     51  C   UNL A   1      38.464  31.603  36.553  1.00  0.00     0.173 A 
ATOM     52  C   UNL A   1      39.844  33.406  35.776  1.00  0.00     0.173 A 
ATOM     53  F   UNL A   1      37.939  30.379  36.408  1.00  0.00    -0.203 F 
ATOM     54  C   UNL A   1      38.095  32.369  37.658  1.00  0.00     0.198 A 
ATOM     55  C   UNL A   1      39.504  34.156  36.899  1.00  0.00     0.198 A 
ATOM     56  F   UNL A   1      40.690  33.938  34.880  1.00  0.00    -0.203 F 
ATOM     57  F   UNL A   1      37.221  31.880  38.548  1.00  0.00    -0.200 F 
ATOM     58  C   UNL A   1      38.627  33.638  37.838  1.00  0.00     0.200 A 
ATOM     59  F   UNL A   1      40.034  35.373  37.074  1.00  0.00    -0.200 F 
ATOM     60  F   UNL A   1      38.288  34.364  38.913  1.00  0.00    -0.200 F 
ENDBRANCH  26  50
BRANCH  38  61
ATOM     61  C   UNL A   1      44.420  27.418  34.627  1.00  0.00     0.064 A 
ATOM     62  C   UNL A   1      45.676  28.031  34.752  1.00  0.00     0.173 A 
ATOM     63  C   UNL A   1      44.156  26.283  35.406  1.00  0.00     0.173 A 
ATOM     64  F   UNL A   1      45.977  29.108  34.012  1.00  0.00    -0.203 F 
ATOM     65  C   UNL A   1      46.639  27.510  35.609  1.00  0.00     0.198 A 
ATOM     66  C   UNL A   1      45.113  25.780  36.281  1.00  0.00     0.198 A 
ATOM     67  F   UNL A   1      42.967  25.666  35.321  1.00  0.00    -0.203 F 
ATOM     68  F   UNL A   1      47.849  28.081  35.681  1.00  0.00    -0.200 F 
ATOM     69  C   UNL A   1      46.356  26.388  36.376  1.00  0.00     0.200 A 
ATOM     70  F   UNL A   1      44.835  24.703  37.027  1.00  0.00    -0.200 F 
ATOM     71  F   UNL A   1      47.284  25.888  37.202  1.00  0.00    -0.200 F 
ENDBRANCH  38  61
ENDBRANCH  12  13
ENDBRANCH   5   7
ENDBRANCH   4   5
ENDBRANCH   3   4
ENDBRANCH   2   3
ENDBRANCH   1   2
BRANCH   1  72
ATOM     72  C   UNL A   1      33.387  27.313  25.011  1.00  0.00     0.202 C 
BRANCH  72  73
ATOM     73  C   UNL A   1      33.652  26.818  23.591  1.00  0.00     0.261 C 
BRANCH  73  74
ATOM     74  O   UNL A   1      32.417  26.801  22.843  1.00  0.00    -0.463 OA
BRANCH  74  75
ATOM     75  C   UNL A   1      32.087  25.601  22.299  1.00  0.00     0.310 C 
ATOM     76  O   UNL A   1      32.572  25.164  21.261  1.00  0.00    -0.252 OA
BRANCH  75  77
ATOM     77  C   UNL A   1      30.974  24.872  23.041  1.00  0.00     0.119 C 
ATOM     78  C   UNL A   1      30.115  25.643  24.055  1.00  0.00     0.019 C 
ATOM     79  C   UNL A   1      31.518  23.563  23.608  1.00  0.00     0.134 C 
ATOM     80  C   UNL A   1      30.382  25.407  25.548  1.00  0.00     0.022 C 
ATOM     81  N   UNL A   1      32.100  23.715  24.945  1.00  0.00    -0.342 N 
ATOM     82  C   UNL A   1      31.140  24.140  25.943  1.00  0.00     0.119 C 
BRANCH  81  83
ATOM     83  C   UNL A   1      33.421  23.348  25.134  1.00  0.00     0.226 C 
ATOM     84  O   UNL A   1      34.048  23.801  26.104  1.00  0.00    -0.275 OA
BRANCH  83  85
ATOM     85  C   UNL A   1      34.222  22.449  24.167  1.00  0.00     0.083 C 
ATOM     86  C   UNL A   1      35.200  23.125  23.205  1.00  0.00     0.040 C 
ATOM     87  C   UNL A   1      34.739  21.144  24.779  1.00  0.00     0.018 C 
ATOM     88  C   UNL A   1      36.653  22.843  23.430  1.00  0.00    -0.030 C 
ATOM     89  C   UNL A   1      36.200  21.160  25.220  1.00  0.00     0.028 C 
ATOM     90  C   UNL A   1      37.102  21.965  24.336  1.00  0.00    -0.031 C 
ENDBRANCH  83  85
ENDBRANCH  81  83
ENDBRANCH  75  77
ENDBRANCH  74  75
ENDBRANCH  73  74
ENDBRANCH  72  73
ENDBRANCH   1  72
TORSDOF 16
ENDMDL
MODEL 2
REMARK VINA RESULT:     -11.3      4.250      9.760
REMARK SMILES O=C(OCCOCCOC(=O)[C@@H]1CCCN(C(=O)[C@H]2CC=CCC2)C1)c1ccc(-c2c3nc(c(-c4c(F)c(F)c(F)c(F)c4F)c4ccc([nH]4)c(-c4c(F)c(F)c(F)c(F)c4F)c4nc(c(-c5c(F)c(F)c(F)c(F)c5F)c5ccc2[nH]5)C=C4)C=C3)cc1
REMARK SMILES IDX 6 1 5 2 4 3 3 4 2 5 1 6 26 7 27 8 88 9 28 10 87 11 29 12
REMARK SMILES IDX 30 13 31 14 81 15 32 16 86 17 80 18 82 19 33 20 85 21 79 22
REMARK SMILES IDX 78 23 34 25 66 26 46 27 65 28 47 29 50 30 64 31 83 32 48 33
REMARK SMILES IDX 49 34 63 36 84 37 51 38 35 39 36 40 44 41 37 42 38 43 42 44
REMARK SMILES IDX 45 45 39 46 40 47 43 48 41 49 67 50 68 51 76 52 69 53 70 54
REMARK SMILES IDX 74 55 77 56 71 57 72 58 75 59 73 60 52 61 53 62 61 63 54 64
REMARK SMILES IDX 55 65 59 66 62 67 56 68 57 69 60 70 58 71 7 72 8 73 9 74
REMARK SMILES IDX 10 75 11 76 12 77 13 78 25 79 14 80 16 81 15 82 17 83 18 84
REMARK SMILES IDX 19 85 20 86 24 87 21 88 23 89 22 90
REMARK H PARENT 82 24 50 35
REMARK Flexibility Score: inf
ROOT
ATOM      1  O   UNL A   1      34.616  21.012  24.685  1.00  0.00    -0.374 OA
ENDROOT
BRANCH   1   2
ATOM      2  C   UNL A   1      35.902  20.488  25.000  1.00  0.00     0.202 C 
BRANCH   2   3
ATOM      3  C   UNL A   1      37.023  21.496  24.758  1.00  0.00     0.261 C 
BRANCH   3   4
ATOM      4  O   UNL A   1      37.612  21.836  26.019  1.00  0.00    -0.460 OA
BRANCH   4   5
ATOM      5  C   UNL A   1      38.934  21.531  26.126  1.00  0.00     0.338 C 
ATOM      6  O   UNL A   1      39.480  20.468  25.956  1.00  0.00    -0.246 OA
BRANCH   5   7
ATOM      7  C   UNL A   1      39.559  22.738  26.685  1.00  0.00     0.060 A 
ATOM      8  C   UNL A   1      39.140  23.963  26.173  1.00  0.00     0.016 A 
ATOM      9  C   UNL A   1      40.599  22.666  27.608  1.00  0.00     0.016 A 
ATOM     10  C   UNL A   1      39.830  25.115  26.489  1.00  0.00     0.010 A 
ATOM     11  C   UNL A   1      41.235  23.850  27.999  1.00  0.00     0.010 A 
ATOM     12  C   UNL A   1      40.873  25.081  27.419  1.00  0.00    -0.014 A 
BRANCH  12  13
ATOM     13  C   UNL A   1      41.597  26.340  27.721  1.00  0.00     0.031 A 
ATOM     14  C   UNL A   1      40.978  27.361  28.629  1.00  0.00     0.074 A 
ATOM     15  C   UNL A   1      42.848  26.522  27.255  1.00  0.00     0.049 A 
ATOM     16  N   UNL A   1      41.341  28.596  28.854  1.00  0.00    -0.248 NA
ATOM     17  C   UNL A   1      39.781  26.943  29.375  1.00  0.00     0.031 C 
ATOM     18  C   UNL A   1      43.600  25.555  26.454  1.00  0.00     0.029 A 
ATOM     19  N   UNL A   1      43.727  27.559  27.426  1.00  0.00    -0.354 N 
ATOM     20  C   UNL A   1      40.369  29.130  29.688  1.00  0.00     0.074 A 
ATOM     21  C   UNL A   1      39.418  28.075  29.962  1.00  0.00     0.031 C 
ATOM     22  C   UNL A   1      44.855  25.996  26.290  1.00  0.00     0.029 A 
ATOM     23  C   UNL A   1      44.951  27.340  26.840  1.00  0.00     0.049 A 
ATOM     24  H   UNL A   1      43.504  28.382  27.920  1.00  0.00     0.167 HD
ATOM     25  C   UNL A   1      40.279  30.400  30.150  1.00  0.00     0.037 A 
ATOM     26  C   UNL A   1      46.012  28.156  26.709  1.00  0.00     0.037 A 
ATOM     27  C   UNL A   1      41.283  31.405  29.914  1.00  0.00     0.049 A 
ATOM     28  C   UNL A   1      45.886  29.562  27.213  1.00  0.00     0.074 A 
ATOM     29  C   UNL A   1      41.288  32.736  30.291  1.00  0.00     0.029 A 
ATOM     30  N   UNL A   1      42.484  31.172  29.255  1.00  0.00    -0.354 N 
ATOM     31  N   UNL A   1      44.893  30.121  27.863  1.00  0.00    -0.248 NA
ATOM     32  C   UNL A   1      47.002  30.469  26.921  1.00  0.00     0.031 C 
ATOM     33  C   UNL A   1      42.480  33.313  29.834  1.00  0.00     0.029 A 
ATOM     34  C   UNL A   1      43.237  32.333  29.212  1.00  0.00     0.049 A 
ATOM     35  H   UNL A   1      42.760  30.306  28.875  1.00  0.00     0.167 HD
ATOM     36  C   UNL A   1      45.253  31.445  28.048  1.00  0.00     0.074 A 
ATOM     37  C   UNL A   1      46.576  31.598  27.471  1.00  0.00     0.031 C 
ATOM     38  C   UNL A   1      44.549  32.450  28.626  1.00  0.00     0.037 A 
BRANCH  25  39
ATOM     39  C   UNL A   1      39.018  30.783  30.870  1.00  0.00     0.064 A 
ATOM     40  C   UNL A   1      37.866  31.217  30.199  1.00  0.00     0.173 A 
ATOM     41  C   UNL A   1      38.976  30.732  32.273  1.00  0.00     0.173 A 
ATOM     42  F   UNL A   1      37.856  31.306  28.860  1.00  0.00    -0.203 F 
ATOM     43  C   UNL A   1      36.733  31.619  30.907  1.00  0.00     0.198 A 
ATOM     44  C   UNL A   1      37.833  31.106  32.975  1.00  0.00     0.198 A 
ATOM     45  F   UNL A   1      40.049  30.325  32.967  1.00  0.00    -0.203 F 
ATOM     46  F   UNL A   1      35.665  32.090  30.247  1.00  0.00    -0.200 F 
ATOM     47  C   UNL A   1      36.716  31.560  32.292  1.00  0.00     0.200 A 
ATOM     48  F   UNL A   1      37.818  31.039  34.314  1.00  0.00    -0.200 F 
ATOM     49  F   UNL A   1      35.629  31.954  32.970  1.00  0.00    -0.200 F 
ENDBRANCH  25  39
BRANCH  26  50
ATOM     50  C   UNL A   1      47.235  27.674  26.012  1.00  0.00     0.064 A 
ATOM     51  C   UNL A   1      47.350  27.754  24.619  1.00  0.00     0.173 A 
ATOM     52  C   UNL A   1      48.332  27.166  26.727  1.00  0.00     0.173 A 
ATOM     53  F   UNL A   1      46.321  28.200  23.885  1.00  0.00    -0.203 F 
ATOM     54  C   UNL A   1      48.518  27.355  23.970  1.00  0.00     0.198 A 
ATOM     55  C   UNL A   1      49.511  26.803  26.082  1.00  0.00     0.198 A 
ATOM     56  F   UNL A   1      48.271  27.058  28.064  1.00  0.00    -0.203 F 
ATOM     57  F   UNL A   1      48.593  27.413  22.633  1.00  0.00    -0.200 F 
ATOM     58  C   UNL A   1      49.603  26.895  24.703  1.00  0.00     0.200 A 
ATOM     59  F   UNL A   1      50.559  26.376  26.798  1.00  0.00    -0.200 F 
ATOM     60  F   UNL A   1      50.732  26.533  24.079  1.00  0.00    -0.200 F 
ENDBRANCH  26  50
BRANCH  38  61
ATOM     61  C   UNL A   1      45.215  33.790  28.674  1.00  0.00     0.064 A 
ATOM     62  C   UNL A   1      46.041  34.158  29.746  1.00  0.00     0.173 A 
ATOM     63  C   UNL A   1      45.041  34.705  27.626  1.00  0.00     0.173 A 
ATOM     64  F   UNL A   1      46.221  33.321  30.778  1.00  0.00    -0.203 F 
ATOM     65  C   UNL A   1      46.650  35.408  29.778  1.00  0.00     0.198 A 
ATOM     66  C   UNL A   1      45.672  35.944  27.649  1.00  0.00     0.198 A 
ATOM     67  F   UNL A   1      44.262  34.394  26.579  1.00  0.00    -0.203 F 
ATOM     68  F   UNL A   1      47.398  35.760  30.832  1.00  0.00    -0.200 F 
ATOM     69  C   UNL A   1      46.470  36.298  28.727  1.00  0.00     0.200 A 
ATOM     70  F   UNL A   1      45.505  36.798  26.631  1.00  0.00    -0.200 F 
ATOM     71  F   UNL A   1      47.059  37.501  28.759  1.00  0.00    -0.200 F 
ENDBRANCH  38  61
ENDBRANCH  12  13
ENDBRANCH   5   7
ENDBRANCH   4   5
ENDBRANCH   3   4
ENDBRANCH   2   3
ENDBRANCH   1   2
BRANCH   1  72
ATOM     72  C   UNL A   1      33.904  21.520  25.807  1.00  0.00     0.202 C 
BRANCH  72  73
ATOM     73  C   UNL A   1      33.457  22.955  25.537  1.00  0.00     0.261 C 
BRANCH  73  74
ATOM     74  O   UNL A   1      32.607  22.988  24.370  1.00  0.00    -0.463 OA
BRANCH  74  75
ATOM     75  C   UNL A   1      32.923  23.936  23.451  1.00  0.00     0.310 C 
ATOM     76  O   UNL A   1      34.063  24.339  23.248  1.00  0.00    -0.252 OA
BRANCH  75  77
ATOM     77  C   UNL A   1      31.714  24.543  22.750  1.00  0.00     0.119 C 
ATOM     78  C   UNL A   1      31.906  25.767  21.841  1.00  0.00     0.019 C 
ATOM     79  C   UNL A   1      30.588  24.735  23.762  1.00  0.00     0.134 C 
ATOM     80  C   UNL A   1      31.469  27.136  22.379  1.00  0.00     0.022 C 
ATOM     81  N   UNL A   1      30.646  26.029  24.447  1.00  0.00    -0.342 N 
ATOM     82  C   UNL A   1      30.492  27.159  23.554  1.00  0.00     0.119 C 
BRANCH  81  83
ATOM     83  C   UNL A   1      30.731  26.040  25.829  1.00  0.00     0.226 C 
ATOM     84  O   UNL A   1      29.818  25.536  26.501  1.00  0.00    -0.275 OA
BRANCH  83  85
ATOM     85  C   UNL A   1      31.871  26.711  26.626  1.00  0.00     0.083 C 
ATOM     86  C   UNL A   1      33.265  26.735  25.999  1.00  0.00     0.040 C 
ATOM     87  C   UNL A   1      31.480  28.005  27.345  1.00  0.00     0.018 C 
ATOM     88  C   UNL A   1      33.796  28.081  25.612  1.00  0.00    -0.030 C 
ATOM     89  C   UNL A   1      31.862  29.296  26.626  1.00  0.00     0.028 C 
ATOM     90  C   UNL A   1      33.165  29.229  25.890  1.00  0.00    -0.031 C 
ENDBRANCH  83  85
ENDBRANCH  81  83
ENDBRANCH  75  77
ENDBRANCH  74  75
ENDBRANCH  73  74
ENDBRANCH  72  73
ENDBRANCH   1  72
TORSDOF 16
ENDMDL
MODEL 3
REMARK VINA RESULT:     -11.3      1.347      2.245
REMARK SMILES O=C(OCCOCCOC(=O)[C@@H]1CCCN(C(=O)[C@H]2CC=CCC2)C1)c1ccc(-c2c3nc(c(-c4c(F)c(F)c(F)c(F)c4F)c4ccc([nH]4)c(-c4c(F)c(F)c(F)c(F)c4F)c4nc(c(-c5c(F)c(F)c(F)c(F)c5F)c5ccc2[nH]5)C=C4)C=C3)cc1
REMARK SMILES IDX 6 1 5 2 4 3 3 4 2 5 1 6 26 7 27 8 88 9 28 10 87 11 29 12
REMARK SMILES IDX 30 13 31 14 81 15 32 16 86 17 80 18 82 19 33 20 85 21 79 22
REMARK SMILES IDX 78 23 34 25 66 26 46 27 65 28 47 29 50 30 64 31 83 32 48 33
REMARK SMILES IDX 49 34 63 36 84 37 51 38 35 39 36 40 44 41 37 42 38 43 42 44
REMARK SMILES IDX 45 45 39 46 40 47 43 48 41 49 67 50 68 51 76 52 69 53 70 54
REMARK SMILES IDX 74 55 77 56 71 57 72 58 75 59 73 60 52 61 53 62 61 63 54 64
REMARK SMILES IDX 55 65 59 66 62 67 56 68 57 69 60 70 58 71 7 72 8 73 9 74
REMARK SMILES IDX 10 75 11 76 12 77 13 78 25 79 14 80 16 81 15 82 17 83 18 84
REMARK SMILES IDX 19 85 20 86 24 87 21 88 23 89 22 90
REMARK H PARENT 82 24 50 35
REMARK Flexibility Score: inf
ROOT
ATOM      1  O   UNL A   1      30.732  28.143  24.254  1.00  0.00    -0.374 OA
ENDROOT
BRANCH   1   2
ATOM      2  C   UNL A   1      31.348  29.395  24.540  1.00  0.00     0.202 C 
BRANCH   2   3
ATOM      3  C   UNL A   1      31.736  29.537  26.009  1.00  0.00     0.261 C 
BRANCH   3   4
ATOM      4  O   UNL A   1      33.065  30.067  26.081  1.00  0.00    -0.460 OA
BRANCH   4   5
ATOM      5  C   UNL A   1      33.209  31.119  26.934  1.00  0.00     0.338 C 
ATOM      6  O   UNL A   1      32.495  32.083  27.072  1.00  0.00    -0.246 OA
BRANCH   5   7
ATOM      7  C   UNL A   1      34.536  30.939  27.540  1.00  0.00     0.060 A 
ATOM      8  C   UNL A   1      34.984  29.630  27.705  1.00  0.00     0.016 A 
ATOM      9  C   UNL A   1      35.273  32.015  28.025  1.00  0.00     0.016 A 
ATOM     10  C   UNL A   1      36.113  29.379  28.458  1.00  0.00     0.010 A 
ATOM     11  C   UNL A   1      36.469  31.759  28.707  1.00  0.00     0.010 A 
ATOM     12  C   UNL A   1      36.882  30.436  28.953  1.00  0.00    -0.014 A 
BRANCH  12  13
ATOM     13  C   UNL A   1      38.081  30.121  29.768  1.00  0.00     0.031 A 
ATOM     14  C   UNL A   1      39.218  29.353  29.162  1.00  0.00     0.074 A 
ATOM     15  C   UNL A   1      38.186  30.605  31.021  1.00  0.00     0.049 A 
ATOM     16  N   UNL A   1      40.249  28.803  29.748  1.00  0.00    -0.248 NA
ATOM     17  C   UNL A   1      39.187  29.167  27.703  1.00  0.00     0.031 C 
ATOM     18  C   UNL A   1      37.196  31.457  31.683  1.00  0.00     0.029 A 
ATOM     19  N   UNL A   1      39.192  30.494  31.945  1.00  0.00    -0.354 N 
ATOM     20  C   UNL A   1      40.934  28.126  28.748  1.00  0.00     0.074 A 
ATOM     21  C   UNL A   1      40.226  28.366  27.510  1.00  0.00     0.031 C 
ATOM     22  C   UNL A   1      37.686  31.872  32.859  1.00  0.00     0.029 A 
ATOM     23  C   UNL A   1      38.952  31.197  33.101  1.00  0.00     0.049 A 
ATOM     24  H   UNL A   1      40.007  29.961  31.796  1.00  0.00     0.167 HD
ATOM     25  C   UNL A   1      42.040  27.354  28.876  1.00  0.00     0.037 A 
ATOM     26  C   UNL A   1      39.646  31.244  34.252  1.00  0.00     0.037 A 
ATOM     27  C   UNL A   1      42.760  27.197  30.114  1.00  0.00     0.049 A 
ATOM     28  C   UNL A   1      40.858  30.369  34.379  1.00  0.00     0.074 A 
ATOM     29  C   UNL A   1      43.866  26.411  30.384  1.00  0.00     0.029 A 
ATOM     30  N   UNL A   1      42.451  27.869  31.291  1.00  0.00    -0.354 N 
ATOM     31  N   UNL A   1      41.418  29.597  33.479  1.00  0.00    -0.248 NA
ATOM     32  C   UNL A   1      41.505  30.329  35.695  1.00  0.00     0.031 C 
ATOM     33  C   UNL A   1      44.207  26.587  31.731  1.00  0.00     0.029 A 
ATOM     34  C   UNL A   1      43.343  27.515  32.289  1.00  0.00     0.049 A 
ATOM     35  H   UNL A   1      41.707  28.505  31.398  1.00  0.00     0.167 HD
ATOM     36  C   UNL A   1      42.474  28.969  34.117  1.00  0.00     0.074 A 
ATOM     37  C   UNL A   1      42.498  29.478  35.475  1.00  0.00     0.031 C 
ATOM     38  C   UNL A   1      43.335  28.040  33.632  1.00  0.00     0.037 A 
BRANCH  25  39
ATOM     39  C   UNL A   1      42.471  26.562  27.676  1.00  0.00     0.064 A 
ATOM     40  C   UNL A   1      41.949  25.296  27.378  1.00  0.00     0.173 A 
ATOM     41  C   UNL A   1      43.450  27.084  26.814  1.00  0.00     0.173 A 
ATOM     42  F   UNL A   1      41.027  24.739  28.178  1.00  0.00    -0.203 F 
ATOM     43  C   UNL A   1      42.416  24.567  26.284  1.00  0.00     0.198 A 
ATOM     44  C   UNL A   1      43.893  26.366  25.707  1.00  0.00     0.198 A 
ATOM     45  F   UNL A   1      43.984  28.292  27.050  1.00  0.00    -0.203 F 
ATOM     46  F   UNL A   1      41.949  23.331  26.056  1.00  0.00    -0.200 F 
ATOM     47  C   UNL A   1      43.384  25.103  25.448  1.00  0.00     0.200 A 
ATOM     48  F   UNL A   1      44.822  26.892  24.896  1.00  0.00    -0.200 F 
ATOM     49  F   UNL A   1      43.838  24.398  24.404  1.00  0.00    -0.200 F 
ENDBRANCH  25  39
BRANCH  26  50
ATOM     50  C   UNL A   1      39.161  32.088  35.376  1.00  0.00     0.064 A 
ATOM     51  C   UNL A   1      38.380  31.544  36.403  1.00  0.00     0.173 A 
ATOM     52  C   UNL A   1      39.505  33.447  35.471  1.00  0.00     0.173 A 
ATOM     53  F   UNL A   1      37.995  30.261  36.344  1.00  0.00    -0.203 F 
ATOM     54  C   UNL A   1      37.972  32.322  37.486  1.00  0.00     0.198 A 
ATOM     55  C   UNL A   1      39.130  34.213  36.572  1.00  0.00     0.198 A 
ATOM     56  F   UNL A   1      40.244  34.022  34.510  1.00  0.00    -0.203 F 
ATOM     57  F   UNL A   1      37.200  31.786  38.441  1.00  0.00    -0.200 F 
ATOM     58  C   UNL A   1      38.360  33.651  37.577  1.00  0.00     0.200 A 
ATOM     59  F   UNL A   1      39.522  35.491  36.660  1.00  0.00    -0.200 F 
ATOM     60  F   UNL A   1      37.986  34.391  38.630  1.00  0.00    -0.200 F 
ENDBRANCH  26  50
BRANCH  38  61
ATOM     61  C   UNL A   1      44.382  27.541  34.579  1.00  0.00     0.064 A 
ATOM     62  C   UNL A   1      44.201  26.357  35.310  1.00  0.00     0.173 A 
ATOM     63  C   UNL A   1      45.584  28.243  34.740  1.00  0.00     0.173 A 
ATOM     64  F   UNL A   1      43.058  25.664  35.201  1.00  0.00    -0.203 F 
ATOM     65  C   UNL A   1      45.181  25.907  36.189  1.00  0.00     0.198 A 
ATOM     66  C   UNL A   1      46.572  27.776  35.600  1.00  0.00     0.198 A 
ATOM     67  F   UNL A   1      45.801  29.378  34.059  1.00  0.00    -0.203 F 
ATOM     68  F   UNL A   1      44.971  24.800  36.913  1.00  0.00    -0.200 F 
ATOM     69  C   UNL A   1      46.368  26.613  36.329  1.00  0.00     0.200 A 
ATOM     70  F   UNL A   1      47.721  28.453  35.728  1.00  0.00    -0.200 F 
ATOM     71  F   UNL A   1      47.311  26.178  37.175  1.00  0.00    -0.200 F 
ENDBRANCH  38  61
ENDBRANCH  12  13
ENDBRANCH   5   7
ENDBRANCH   4   5
ENDBRANCH   3   4
ENDBRANCH   2   3
ENDBRANCH   1   2
BRANCH   1  72
ATOM     72  C   UNL A   1      31.021  27.123  25.202  1.00  0.00     0.202 C 
BRANCH  72  73
ATOM     73  C   UNL A   1      29.989  26.002  25.096  1.00  0.00     0.261 C 
BRANCH  73  74
ATOM     74  O   UNL A   1      30.604  24.742  25.441  1.00  0.00    -0.463 OA
BRANCH  74  75
ATOM     75  C   UNL A   1      31.616  24.349  24.625  1.00  0.00     0.310 C 
ATOM     76  O   UNL A   1      31.521  24.279  23.404  1.00  0.00    -0.252 OA
BRANCH  75  77
ATOM     77  C   UNL A   1      32.868  23.899  25.367  1.00  0.00     0.119 C 
ATOM     78  C   UNL A   1      34.237  24.449  24.937  1.00  0.00     0.019 C 
ATOM     79  C   UNL A   1      32.860  22.377  25.491  1.00  0.00     0.134 C 
ATOM     80  C   UNL A   1      35.162  23.524  24.135  1.00  0.00     0.022 C 
ATOM     81  N   UNL A   1      33.482  21.704  24.347  1.00  0.00    -0.342 N 
ATOM     82  C   UNL A   1      34.887  22.021  24.190  1.00  0.00     0.119 C 
BRANCH  81  83
ATOM     83  C   UNL A   1      32.728  20.791  23.630  1.00  0.00     0.226 C 
ATOM     84  O   UNL A   1      32.119  21.164  22.617  1.00  0.00    -0.275 OA
BRANCH  83  85
ATOM     85  C   UNL A   1      32.524  19.317  24.042  1.00  0.00     0.083 C 
ATOM     86  C   UNL A   1      32.171  18.309  22.948  1.00  0.00     0.040 C 
ATOM     87  C   UNL A   1      33.520  18.795  25.082  1.00  0.00     0.018 C 
ATOM     88  C   UNL A   1      33.203  17.268  22.645  1.00  0.00    -0.030 C 
ATOM     89  C   UNL A   1      34.686  17.983  24.525  1.00  0.00     0.028 C 
ATOM     90  C   UNL A   1      34.333  17.124  23.350  1.00  0.00    -0.031 C 
ENDBRANCH  83  85
ENDBRANCH  81  83
ENDBRANCH  75  77
ENDBRANCH  74  75
ENDBRANCH  73  74
ENDBRANCH  72  73
ENDBRANCH   1  72
TORSDOF 16
ENDMDL
