MODEL 1
REMARK VINA RESULT:     -12.4      0.000      0.000
REMARK SMILES O=C(OCCOCCOC(=O)[C@H]1CC=CC[C@@H]1C(=O)N[C@@H]1CCCN(c2ccccc2F)C1=O)c1ccc(-c2c3nc(c(-c4c(F)c(F)c(F)c(F)c4F)c4ccc([nH]4)c(-c4c(F)c(F)c(F)c(F)c4F)c4nc(c(-c5c(F)c(F)c(F)c(F)c5F)c5ccc2[nH]5)C=C4)C=C3)cc1
REMARK SMILES IDX 7 1 6 2 5 3 4 4 3 5 2 6 1 7 35 8 36 9 97 10 37 11 96 12
REMARK SMILES IDX 38 13 39 14 40 15 90 16 41 17 95 18 89 19 91 20 42 21 94 22
REMARK SMILES IDX 88 23 87 24 43 26 75 27 55 28 74 29 56 30 59 31 73 32 92 33
REMARK SMILES IDX 57 34 58 35 72 37 93 38 60 39 44 40 45 41 53 42 46 43 47 44
REMARK SMILES IDX 51 45 54 46 48 47 49 48 52 49 50 50 76 51 77 52 85 53 78 54
REMARK SMILES IDX 79 55 83 56 86 57 80 58 81 59 84 60 82 61 61 62 62 63 70 64
REMARK SMILES IDX 63 65 64 66 68 67 71 68 65 69 66 70 69 71 67 72 8 73 9 74
REMARK SMILES IDX 10 75 11 76 12 77 13 78 17 79 14 80 16 81 15 82 18 83 19 84
REMARK SMILES IDX 20 85 21 87 22 88 33 89 23 90 25 91 34 92 24 93 26 94 27 95
REMARK SMILES IDX 31 96 28 97 30 98 32 99 29 100
REMARK H PARENT 91 25 59 36 20 86
REMARK Flexibility Score: inf
ROOT
ATOM      1  C   UNL A   1      33.636  29.867  26.670  1.00  0.00     0.202 C 
ENDROOT
BRANCH   1   2
ATOM      2  O   UNL A   1      32.586  30.625  26.075  1.00  0.00    -0.374 OA
BRANCH   2   3
ATOM      3  C   UNL A   1      31.807  31.467  26.907  1.00  0.00     0.202 C 
BRANCH   3   4
ATOM      4  C   UNL A   1      32.141  32.943  26.747  1.00  0.00     0.261 C 
BRANCH   4   5
ATOM      5  O   UNL A   1      32.275  33.578  28.040  1.00  0.00    -0.460 OA
BRANCH   5   6
ATOM      6  C   UNL A   1      33.382  34.257  28.457  1.00  0.00     0.338 C 
ATOM      7  O   UNL A   1      33.358  35.461  28.679  1.00  0.00    -0.246 OA
BRANCH   6   8
ATOM      8  C   UNL A   1      34.594  33.471  28.755  1.00  0.00     0.060 A 
ATOM      9  C   UNL A   1      34.494  32.148  29.143  1.00  0.00     0.016 A 
ATOM     10  C   UNL A   1      35.843  34.075  28.739  1.00  0.00     0.016 A 
ATOM     11  C   UNL A   1      35.468  31.586  29.917  1.00  0.00     0.010 A 
ATOM     12  C   UNL A   1      36.940  33.358  29.220  1.00  0.00     0.010 A 
ATOM     13  C   UNL A   1      36.739  32.130  29.879  1.00  0.00    -0.014 A 
BRANCH  13  14
ATOM     14  C   UNL A   1      37.809  31.383  30.563  1.00  0.00     0.031 A 
ATOM     15  C   UNL A   1      37.977  31.573  32.036  1.00  0.00     0.074 A 
ATOM     16  C   UNL A   1      38.529  30.470  29.874  1.00  0.00     0.049 A 
ATOM     17  N   UNL A   1      38.964  31.202  32.799  1.00  0.00    -0.248 NA
ATOM     18  C   UNL A   1      36.903  32.294  32.746  1.00  0.00     0.031 C 
ATOM     19  C   UNL A   1      38.338  30.118  28.457  1.00  0.00     0.029 A 
ATOM     20  N   UNL A   1      39.534  29.631  30.271  1.00  0.00    -0.354 N 
ATOM     21  C   UNL A   1      38.669  31.708  34.056  1.00  0.00     0.074 A 
ATOM     22  C   UNL A   1      37.411  32.408  33.964  1.00  0.00     0.031 C 
ATOM     23  C   UNL A   1      39.121  29.081  28.141  1.00  0.00     0.029 A 
ATOM     24  C   UNL A   1      39.998  28.816  29.266  1.00  0.00     0.049 A 
ATOM     25  H   UNL A   1      39.889  29.612  31.189  1.00  0.00     0.167 HD
ATOM     26  C   UNL A   1      39.413  31.592  35.176  1.00  0.00     0.037 A 
ATOM     27  C   UNL A   1      41.069  28.005  29.233  1.00  0.00     0.037 A 
ATOM     28  C   UNL A   1      40.634  30.835  35.220  1.00  0.00     0.049 A 
ATOM     29  C   UNL A   1      41.923  27.971  30.466  1.00  0.00     0.074 A 
ATOM     30  C   UNL A   1      41.516  30.677  36.269  1.00  0.00     0.029 A 
ATOM     31  N   UNL A   1      41.126  30.088  34.156  1.00  0.00    -0.354 N 
ATOM     32  N   UNL A   1      41.720  28.555  31.624  1.00  0.00    -0.248 NA
ATOM     33  C   UNL A   1      43.169  27.205  30.383  1.00  0.00     0.031 C 
ATOM     34  C   UNL A   1      42.566  29.868  35.826  1.00  0.00     0.029 A 
ATOM     35  C   UNL A   1      42.309  29.473  34.520  1.00  0.00     0.049 A 
ATOM     36  H   UNL A   1      40.697  30.008  33.275  1.00  0.00     0.167 HD
ATOM     37  C   UNL A   1      42.806  28.221  32.415  1.00  0.00     0.074 A 
ATOM     38  C   UNL A   1      43.647  27.353  31.610  1.00  0.00     0.031 C 
ATOM     39  C   UNL A   1      43.097  28.605  33.681  1.00  0.00     0.037 A 
BRANCH  26  40
ATOM     40  C   UNL A   1      38.964  32.329  36.399  1.00  0.00     0.064 A 
ATOM     41  C   UNL A   1      39.437  33.629  36.645  1.00  0.00     0.173 A 
ATOM     42  C   UNL A   1      38.103  31.755  37.343  1.00  0.00     0.173 A 
ATOM     43  F   UNL A   1      40.249  34.230  35.763  1.00  0.00    -0.203 F 
ATOM     44  C   UNL A   1      39.086  34.312  37.805  1.00  0.00     0.198 A 
ATOM     45  C   UNL A   1      37.732  32.453  38.491  1.00  0.00     0.198 A 
ATOM     46  F   UNL A   1      37.594  30.532  37.137  1.00  0.00    -0.203 F 
ATOM     47  F   UNL A   1      39.574  35.540  38.031  1.00  0.00    -0.200 F 
ATOM     48  C   UNL A   1      38.234  33.725  38.727  1.00  0.00     0.200 A 
ATOM     49  F   UNL A   1      36.881  31.899  39.365  1.00  0.00    -0.200 F 
ATOM     50  F   UNL A   1      37.891  34.387  39.840  1.00  0.00    -0.200 F 
ENDBRANCH  26  40
BRANCH  27  51
ATOM     51  C   UNL A   1      41.428  27.258  27.995  1.00  0.00     0.064 A 
ATOM     52  C   UNL A   1      40.987  25.942  27.770  1.00  0.00     0.173 A 
ATOM     53  C   UNL A   1      42.224  27.846  27.004  1.00  0.00     0.173 A 
ATOM     54  F   UNL A   1      40.222  25.321  28.680  1.00  0.00    -0.203 F 
ATOM     55  C   UNL A   1      41.344  25.243  26.618  1.00  0.00     0.198 A 
ATOM     56  C   UNL A   1      42.546  27.161  25.832  1.00  0.00     0.198 A 
ATOM     57  F   UNL A   1      42.661  29.105  27.157  1.00  0.00    -0.203 F 
ATOM     58  F   UNL A   1      40.941  23.975  26.455  1.00  0.00    -0.200 F 
ATOM     59  C   UNL A   1      42.112  25.858  25.644  1.00  0.00     0.200 A 
ATOM     60  F   UNL A   1      43.264  27.770  24.879  1.00  0.00    -0.200 F 
ATOM     61  F   UNL A   1      42.428  25.198  24.521  1.00  0.00    -0.200 F 
ENDBRANCH  27  51
BRANCH  39  62
ATOM     62  C   UNL A   1      44.357  28.056  34.274  1.00  0.00     0.064 A 
ATOM     63  C   UNL A   1      44.331  26.842  34.977  1.00  0.00     0.173 A 
ATOM     64  C   UNL A   1      45.565  28.762  34.206  1.00  0.00     0.173 A 
ATOM     65  F   UNL A   1      43.193  26.140  35.075  1.00  0.00    -0.203 F 
ATOM     66  C   UNL A   1      45.473  26.364  35.608  1.00  0.00     0.198 A 
ATOM     67  C   UNL A   1      46.713  28.260  34.805  1.00  0.00     0.198 A 
ATOM     68  F   UNL A   1      45.635  29.918  33.528  1.00  0.00    -0.203 F 
ATOM     69  F   UNL A   1      45.417  25.226  36.313  1.00  0.00    -0.200 F 
ATOM     70  C   UNL A   1      46.663  27.069  35.517  1.00  0.00     0.200 A 
ATOM     71  F   UNL A   1      47.870  28.924  34.689  1.00  0.00    -0.200 F 
ATOM     72  F   UNL A   1      47.768  26.598  36.111  1.00  0.00    -0.200 F 
ENDBRANCH  39  62
ENDBRANCH  13  14
ENDBRANCH   6   8
ENDBRANCH   5   6
ENDBRANCH   4   5
ENDBRANCH   3   4
ENDBRANCH   2   3
ENDBRANCH   1   2
BRANCH   1  73
ATOM     73  C   UNL A   1      33.736  28.501  26.004  1.00  0.00     0.261 C 
BRANCH  73  74
ATOM     74  O   UNL A   1      32.733  27.641  26.560  1.00  0.00    -0.463 OA
BRANCH  74  75
ATOM     75  C   UNL A   1      31.792  27.243  25.658  1.00  0.00     0.310 C 
ATOM     76  O   UNL A   1      30.902  27.945  25.216  1.00  0.00    -0.252 OA
BRANCH  75  77
ATOM     77  C   UNL A   1      31.911  25.787  25.303  1.00  0.00     0.115 C 
ATOM     78  C   UNL A   1      32.275  25.488  23.856  1.00  0.00     0.043 C 
ATOM     79  C   UNL A   1      32.539  24.873  26.327  1.00  0.00     0.097 C 
ATOM     80  C   UNL A   1      33.712  25.190  23.638  1.00  0.00    -0.030 C 
ATOM     81  C   UNL A   1      34.052  24.625  26.054  1.00  0.00     0.041 C 
ATOM     82  C   UNL A   1      34.518  24.814  24.634  1.00  0.00    -0.030 C 
BRANCH  79  83
ATOM     83  C   UNL A   1      31.682  23.609  26.492  1.00  0.00     0.224 C 
ATOM     84  O   UNL A   1      30.958  23.479  27.484  1.00  0.00    -0.275 OA
ATOM     85  N   UNL A   1      31.485  22.698  25.478  1.00  0.00    -0.344 N 
ATOM     86  H   UNL A   1      30.525  22.529  25.336  1.00  0.00     0.164 HD
BRANCH  85  87
ATOM     87  C   UNL A   1      32.336  21.874  24.513  1.00  0.00     0.172 C 
ATOM     88  C   UNL A   1      31.583  21.757  23.185  1.00  0.00     0.037 C 
ATOM     89  C   UNL A   1      33.208  20.573  24.901  1.00  0.00     0.249 C 
ATOM     90  C   UNL A   1      32.258  20.760  22.264  1.00  0.00     0.025 C 
ATOM     91  N   UNL A   1      32.940  19.379  24.177  1.00  0.00    -0.308 N 
ATOM     92  O   UNL A   1      33.961  20.633  25.874  1.00  0.00    -0.272 OA
ATOM     93  C   UNL A   1      32.177  19.405  22.932  1.00  0.00     0.126 C 
BRANCH  91  94
ATOM     94  C   UNL A   1      33.268  18.060  24.697  1.00  0.00     0.080 A 
ATOM     95  C   UNL A   1      32.290  17.206  25.219  1.00  0.00     0.029 A 
ATOM     96  C   UNL A   1      34.585  17.542  24.616  1.00  0.00     0.146 A 
ATOM     97  C   UNL A   1      32.599  15.883  25.584  1.00  0.00     0.002 A 
ATOM     98  C   UNL A   1      34.884  16.209  24.921  1.00  0.00     0.041 A 
ATOM     99  F   UNL A   1      35.590  18.280  24.116  1.00  0.00    -0.205 F 
ATOM    100  C   UNL A   1      33.884  15.372  25.399  1.00  0.00     0.003 A 
ENDBRANCH  91  94
ENDBRANCH  85  87
ENDBRANCH  79  83
ENDBRANCH  75  77
ENDBRANCH  74  75
ENDBRANCH  73  74
ENDBRANCH   1  73
TORSDOF 17
ENDMDL
MODEL 2
REMARK VINA RESULT:     -12.4      1.045      7.050
REMARK SMILES O=C(OCCOCCOC(=O)[C@H]1CC=CC[C@@H]1C(=O)N[C@@H]1CCCN(c2ccccc2F)C1=O)c1ccc(-c2c3nc(c(-c4c(F)c(F)c(F)c(F)c4F)c4ccc([nH]4)c(-c4c(F)c(F)c(F)c(F)c4F)c4nc(c(-c5c(F)c(F)c(F)c(F)c5F)c5ccc2[nH]5)C=C4)C=C3)cc1
REMARK SMILES IDX 7 1 6 2 5 3 4 4 3 5 2 6 1 7 35 8 36 9 97 10 37 11 96 12
REMARK SMILES IDX 38 13 39 14 40 15 90 16 41 17 95 18 89 19 91 20 42 21 94 22
REMARK SMILES IDX 88 23 87 24 43 26 75 27 55 28 74 29 56 30 59 31 73 32 92 33
REMARK SMILES IDX 57 34 58 35 72 37 93 38 60 39 44 40 45 41 53 42 46 43 47 44
REMARK SMILES IDX 51 45 54 46 48 47 49 48 52 49 50 50 76 51 77 52 85 53 78 54
REMARK SMILES IDX 79 55 83 56 86 57 80 58 81 59 84 60 82 61 61 62 62 63 70 64
REMARK SMILES IDX 63 65 64 66 68 67 71 68 65 69 66 70 69 71 67 72 8 73 9 74
REMARK SMILES IDX 10 75 11 76 12 77 13 78 17 79 14 80 16 81 15 82 18 83 19 84
REMARK SMILES IDX 20 85 21 87 22 88 33 89 23 90 25 91 34 92 24 93 26 94 27 95
REMARK SMILES IDX 31 96 28 97 30 98 32 99 29 100
REMARK H PARENT 91 25 59 36 20 86
REMARK Flexibility Score: inf
ROOT
ATOM      1  C   UNL A   1      32.971  30.034  27.142  1.00  0.00     0.202 C 
ENDROOT
BRANCH   1   2
ATOM      2  O   UNL A   1      32.074  30.760  26.306  1.00  0.00    -0.374 OA
BRANCH   2   3
ATOM      3  C   UNL A   1      31.373  31.858  26.861  1.00  0.00     0.202 C 
BRANCH   3   4
ATOM      4  C   UNL A   1      32.188  33.143  26.877  1.00  0.00     0.261 C 
BRANCH   4   5
ATOM      5  O   UNL A   1      32.170  33.742  28.194  1.00  0.00    -0.460 OA
BRANCH   5   6
ATOM      6  C   UNL A   1      33.178  34.501  28.712  1.00  0.00     0.338 C 
ATOM      7  O   UNL A   1      33.027  35.688  28.973  1.00  0.00    -0.246 OA
BRANCH   6   8
ATOM      8  C   UNL A   1      34.434  33.816  29.069  1.00  0.00     0.060 A 
ATOM      9  C   UNL A   1      34.408  32.602  29.731  1.00  0.00     0.016 A 
ATOM     10  C   UNL A   1      35.658  34.424  28.828  1.00  0.00     0.016 A 
ATOM     11  C   UNL A   1      35.456  32.233  30.524  1.00  0.00     0.010 A 
ATOM     12  C   UNL A   1      36.811  33.843  29.358  1.00  0.00     0.010 A 
ATOM     13  C   UNL A   1      36.701  32.778  30.272  1.00  0.00    -0.014 A 
BRANCH  13  14
ATOM     14  C   UNL A   1      37.844  32.210  31.009  1.00  0.00     0.031 A 
ATOM     15  C   UNL A   1      38.701  31.199  30.318  1.00  0.00     0.074 A 
ATOM     16  C   UNL A   1      38.155  32.693  32.232  1.00  0.00     0.049 A 
ATOM     17  N   UNL A   1      39.607  30.414  30.825  1.00  0.00    -0.248 NA
ATOM     18  C   UNL A   1      38.500  31.029  28.866  1.00  0.00     0.031 C 
ATOM     19  C   UNL A   1      37.452  33.784  32.928  1.00  0.00     0.029 A 
ATOM     20  N   UNL A   1      39.167  32.373  33.095  1.00  0.00    -0.354 N 
ATOM     21  C   UNL A   1      40.027  29.610  29.777  1.00  0.00     0.074 A 
ATOM     22  C   UNL A   1      39.287  29.997  28.601  1.00  0.00     0.031 C 
ATOM     23  C   UNL A   1      38.108  34.100  34.049  1.00  0.00     0.029 A 
ATOM     24  C   UNL A   1      39.162  33.123  34.248  1.00  0.00     0.049 A 
ATOM     25  H   UNL A   1      39.835  31.674  32.908  1.00  0.00     0.167 HD
ATOM     26  C   UNL A   1      40.951  28.626  29.824  1.00  0.00     0.037 A 
ATOM     27  C   UNL A   1      39.878  32.980  35.376  1.00  0.00     0.037 A 
ATOM     28  C   UNL A   1      41.696  28.320  31.015  1.00  0.00     0.049 A 
ATOM     29  C   UNL A   1      40.829  31.822  35.426  1.00  0.00     0.074 A 
ATOM     30  C   UNL A   1      42.621  27.318  31.222  1.00  0.00     0.029 A 
ATOM     31  N   UNL A   1      41.607  29.046  32.198  1.00  0.00    -0.354 N 
ATOM     32  N   UNL A   1      41.138  30.969  34.476  1.00  0.00    -0.248 NA
ATOM     33  C   UNL A   1      41.500  31.575  36.705  1.00  0.00     0.031 C 
ATOM     34  C   UNL A   1      43.061  27.409  32.546  1.00  0.00     0.029 A 
ATOM     35  C   UNL A   1      42.454  28.504  33.146  1.00  0.00     0.049 A 
ATOM     36  H   UNL A   1      41.027  29.827  32.340  1.00  0.00     0.167 HD
ATOM     37  C   UNL A   1      42.049  30.089  35.036  1.00  0.00     0.074 A 
ATOM     38  C   UNL A   1      42.265  30.536  36.400  1.00  0.00     0.031 C 
ATOM     39  C   UNL A   1      42.642  29.002  34.486  1.00  0.00     0.037 A 
BRANCH  26  40
ATOM     40  C   UNL A   1      41.159  27.795  28.597  1.00  0.00     0.064 A 
ATOM     41  C   UNL A   1      42.162  28.144  27.679  1.00  0.00     0.173 A 
ATOM     42  C   UNL A   1      40.358  26.683  28.304  1.00  0.00     0.173 A 
ATOM     43  F   UNL A   1      42.967  29.189  27.921  1.00  0.00    -0.203 F 
ATOM     44  C   UNL A   1      42.335  27.425  26.499  1.00  0.00     0.198 A 
ATOM     45  C   UNL A   1      40.553  25.950  27.135  1.00  0.00     0.198 A 
ATOM     46  F   UNL A   1      39.412  26.286  29.167  1.00  0.00    -0.203 F 
ATOM     47  F   UNL A   1      43.280  27.797  25.623  1.00  0.00    -0.200 F 
ATOM     48  C   UNL A   1      41.531  26.330  26.227  1.00  0.00     0.200 A 
ATOM     49  F   UNL A   1      39.799  24.869  26.889  1.00  0.00    -0.200 F 
ATOM     50  F   UNL A   1      41.704  25.635  25.095  1.00  0.00    -0.200 F 
ENDBRANCH  26  40
BRANCH  27  51
ATOM     51  C   UNL A   1      39.656  33.879  36.544  1.00  0.00     0.064 A 
ATOM     52  C   UNL A   1      38.825  33.509  37.616  1.00  0.00     0.173 A 
ATOM     53  C   UNL A   1      40.275  35.133  36.615  1.00  0.00     0.173 A 
ATOM     54  F   UNL A   1      38.202  32.320  37.609  1.00  0.00    -0.203 F 
ATOM     55  C   UNL A   1      38.607  34.363  38.695  1.00  0.00     0.198 A 
ATOM     56  C   UNL A   1      40.090  35.971  37.715  1.00  0.00     0.198 A 
ATOM     57  F   UNL A   1      41.091  35.534  35.629  1.00  0.00    -0.203 F 
ATOM     58  F   UNL A   1      37.775  33.997  39.680  1.00  0.00    -0.200 F 
ATOM     59  C   UNL A   1      39.250  35.588  38.751  1.00  0.00     0.200 A 
ATOM     60  F   UNL A   1      40.737  37.141  37.779  1.00  0.00    -0.200 F 
ATOM     61  F   UNL A   1      39.068  36.397  39.803  1.00  0.00    -0.200 F 
ENDBRANCH  27  51
BRANCH  39  62
ATOM     62  C   UNL A   1      43.602  28.252  35.356  1.00  0.00     0.064 A 
ATOM     63  C   UNL A   1      43.138  27.219  36.184  1.00  0.00     0.173 A 
ATOM     64  C   UNL A   1      44.957  28.601  35.419  1.00  0.00     0.173 A 
ATOM     65  F   UNL A   1      41.847  26.860  36.161  1.00  0.00    -0.203 F 
ATOM     66  C   UNL A   1      44.001  26.573  37.061  1.00  0.00     0.198 A 
ATOM     67  C   UNL A   1      45.823  27.925  36.269  1.00  0.00     0.198 A 
ATOM     68  F   UNL A   1      45.443  29.572  34.630  1.00  0.00    -0.203 F 
ATOM     69  F   UNL A   1      43.530  25.619  37.876  1.00  0.00    -0.200 F 
ATOM     70  C   UNL A   1      45.342  26.922  37.099  1.00  0.00     0.200 A 
ATOM     71  F   UNL A   1      47.125  28.240  36.282  1.00  0.00    -0.200 F 
ATOM     72  F   UNL A   1      46.176  26.285  37.933  1.00  0.00    -0.200 F 
ENDBRANCH  39  62
ENDBRANCH  13  14
ENDBRANCH   6   8
ENDBRANCH   5   6
ENDBRANCH   4   5
ENDBRANCH   3   4
ENDBRANCH   2   3
ENDBRANCH   1   2
BRANCH   1  73
ATOM     73  C   UNL A   1      33.302  28.689  26.511  1.00  0.00     0.261 C 
BRANCH  73  74
ATOM     74  O   UNL A   1      32.148  27.842  26.595  1.00  0.00    -0.463 OA
BRANCH  74  75
ATOM     75  C   UNL A   1      31.645  27.481  25.382  1.00  0.00     0.310 C 
ATOM     76  O   UNL A   1      31.065  28.225  24.612  1.00  0.00    -0.252 OA
BRANCH  75  77
ATOM     77  C   UNL A   1      31.809  26.013  25.100  1.00  0.00     0.115 C 
ATOM     78  C   UNL A   1      31.961  25.635  23.634  1.00  0.00     0.043 C 
ATOM     79  C   UNL A   1      32.655  25.214  26.062  1.00  0.00     0.097 C 
ATOM     80  C   UNL A   1      33.362  25.411  23.204  1.00  0.00    -0.030 C 
ATOM     81  C   UNL A   1      34.120  25.041  25.562  1.00  0.00     0.041 C 
ATOM     82  C   UNL A   1      34.341  25.155  24.076  1.00  0.00    -0.030 C 
BRANCH  79  83
ATOM     83  C   UNL A   1      31.928  23.915  26.439  1.00  0.00     0.224 C 
ATOM     84  O   UNL A   1      31.345  23.827  27.526  1.00  0.00    -0.275 OA
ATOM     85  N   UNL A   1      31.679  22.905  25.538  1.00  0.00    -0.344 N 
ATOM     86  H   UNL A   1      30.725  22.659  25.536  1.00  0.00     0.164 HD
BRANCH  85  87
ATOM     87  C   UNL A   1      32.465  22.056  24.540  1.00  0.00     0.172 C 
ATOM     88  C   UNL A   1      31.656  21.962  23.244  1.00  0.00     0.037 C 
ATOM     89  C   UNL A   1      33.312  20.730  24.893  1.00  0.00     0.249 C 
ATOM     90  C   UNL A   1      32.264  20.946  22.297  1.00  0.00     0.025 C 
ATOM     91  N   UNL A   1      32.980  19.544  24.182  1.00  0.00    -0.308 N 
ATOM     92  O   UNL A   1      34.106  20.767  25.836  1.00  0.00    -0.272 OA
ATOM     93  C   UNL A   1      32.169  19.593  22.969  1.00  0.00     0.126 C 
BRANCH  91  94
ATOM     94  C   UNL A   1      33.290  18.216  24.690  1.00  0.00     0.080 A 
ATOM     95  C   UNL A   1      32.296  17.361  25.179  1.00  0.00     0.029 A 
ATOM     96  C   UNL A   1      34.605  17.691  24.629  1.00  0.00     0.146 A 
ATOM     97  C   UNL A   1      32.590  16.031  25.531  1.00  0.00     0.002 A 
ATOM     98  C   UNL A   1      34.889  16.352  24.920  1.00  0.00     0.041 A 
ATOM     99  F   UNL A   1      35.624  18.430  24.160  1.00  0.00    -0.205 F 
ATOM    100  C   UNL A   1      33.875  15.515  25.366  1.00  0.00     0.003 A 
ENDBRANCH  91  94
ENDBRANCH  85  87
ENDBRANCH  79  83
ENDBRANCH  75  77
ENDBRANCH  74  75
ENDBRANCH  73  74
ENDBRANCH   1  73
TORSDOF 17
ENDMDL
MODEL 3
REMARK VINA RESULT:     -12.3      5.456     11.366
REMARK SMILES O=C(OCCOCCOC(=O)[C@H]1CC=CC[C@@H]1C(=O)N[C@@H]1CCCN(c2ccccc2F)C1=O)c1ccc(-c2c3nc(c(-c4c(F)c(F)c(F)c(F)c4F)c4ccc([nH]4)c(-c4c(F)c(F)c(F)c(F)c4F)c4nc(c(-c5c(F)c(F)c(F)c(F)c5F)c5ccc2[nH]5)C=C4)C=C3)cc1
REMARK SMILES IDX 7 1 6 2 5 3 4 4 3 5 2 6 1 7 35 8 36 9 97 10 37 11 96 12
REMARK SMILES IDX 38 13 39 14 40 15 90 16 41 17 95 18 89 19 91 20 42 21 94 22
REMARK SMILES IDX 88 23 87 24 43 26 75 27 55 28 74 29 56 30 59 31 73 32 92 33
REMARK SMILES IDX 57 34 58 35 72 37 93 38 60 39 44 40 45 41 53 42 46 43 47 44
REMARK SMILES IDX 51 45 54 46 48 47 49 48 52 49 50 50 76 51 77 52 85 53 78 54
REMARK SMILES IDX 79 55 83 56 86 57 80 58 81 59 84 60 82 61 61 62 62 63 70 64
REMARK SMILES IDX 63 65 64 66 68 67 71 68 65 69 66 70 69 71 67 72 8 73 9 74
REMARK SMILES IDX 10 75 11 76 12 77 13 78 17 79 14 80 16 81 15 82 18 83 19 84
REMARK SMILES IDX 20 85 21 87 22 88 33 89 23 90 25 91 34 92 24 93 26 94 27 95
REMARK SMILES IDX 31 96 28 97 30 98 32 99 29 100
REMARK H PARENT 91 25 59 36 20 86
REMARK Flexibility Score: inf
ROOT
ATOM      1  C   UNL A   1      39.442  21.767  26.208  1.00  0.00     0.202 C 
ENDROOT
BRANCH   1   2
ATOM      2  O   UNL A   1      39.433  20.446  25.673  1.00  0.00    -0.374 OA
BRANCH   2   3
ATOM      3  C   UNL A   1      40.412  19.528  26.126  1.00  0.00     0.202 C 
BRANCH   3   4
ATOM      4  C   UNL A   1      41.831  20.071  26.035  1.00  0.00     0.261 C 
BRANCH   4   5
ATOM      5  O   UNL A   1      42.658  19.202  25.226  1.00  0.00    -0.460 OA
BRANCH   5   6
ATOM      6  C   UNL A   1      43.968  19.438  24.929  1.00  0.00     0.338 C 
ATOM      7  O   UNL A   1      44.705  18.557  24.505  1.00  0.00    -0.246 OA
BRANCH   6   8
ATOM      8  C   UNL A   1      44.449  20.829  25.019  1.00  0.00     0.060 A 
ATOM      9  C   UNL A   1      45.196  21.244  26.107  1.00  0.00     0.016 A 
ATOM     10  C   UNL A   1      44.082  21.762  24.060  1.00  0.00     0.016 A 
ATOM     11  C   UNL A   1      45.183  22.556  26.485  1.00  0.00     0.010 A 
ATOM     12  C   UNL A   1      44.385  23.107  24.282  1.00  0.00     0.010 A 
ATOM     13  C   UNL A   1      44.877  23.514  25.536  1.00  0.00    -0.014 A 
BRANCH  13  14
ATOM     14  C   UNL A   1      45.069  24.924  25.921  1.00  0.00     0.031 A 
ATOM     15  C   UNL A   1      46.389  25.564  25.634  1.00  0.00     0.074 A 
ATOM     16  C   UNL A   1      44.026  25.629  26.413  1.00  0.00     0.049 A 
ATOM     17  N   UNL A   1      46.859  26.698  26.069  1.00  0.00    -0.248 NA
ATOM     18  C   UNL A   1      47.316  24.824  24.757  1.00  0.00     0.031 C 
ATOM     19  C   UNL A   1      42.657  25.119  26.598  1.00  0.00     0.029 A 
ATOM     20  N   UNL A   1      43.929  26.936  26.806  1.00  0.00    -0.354 N 
ATOM     21  C   UNL A   1      48.156  26.770  25.584  1.00  0.00     0.074 A 
ATOM     22  C   UNL A   1      48.406  25.574  24.817  1.00  0.00     0.031 C 
ATOM     23  C   UNL A   1      41.851  26.119  26.969  1.00  0.00     0.029 A 
ATOM     24  C   UNL A   1      42.668  27.289  27.227  1.00  0.00     0.049 A 
ATOM     25  H   UNL A   1      44.687  27.563  26.786  1.00  0.00     0.167 HD
ATOM     26  C   UNL A   1      49.047  27.762  25.789  1.00  0.00     0.037 A 
ATOM     27  C   UNL A   1      42.241  28.409  27.833  1.00  0.00     0.037 A 
ATOM     28  C   UNL A   1      48.723  28.957  26.519  1.00  0.00     0.049 A 
ATOM     29  C   UNL A   1      43.278  29.453  28.126  1.00  0.00     0.074 A 
ATOM     30  C   UNL A   1      49.541  30.017  26.850  1.00  0.00     0.029 A 
ATOM     31  N   UNL A   1      47.455  29.249  27.011  1.00  0.00    -0.354 N 
ATOM     32  N   UNL A   1      44.546  29.471  27.785  1.00  0.00    -0.248 NA
ATOM     33  C   UNL A   1      42.846  30.608  28.917  1.00  0.00     0.031 C 
ATOM     34  C   UNL A   1      48.779  30.934  27.581  1.00  0.00     0.029 A 
ATOM     35  C   UNL A   1      47.471  30.472  27.654  1.00  0.00     0.049 A 
ATOM     36  H   UNL A   1      46.664  28.672  26.915  1.00  0.00     0.167 HD
ATOM     37  C   UNL A   1      45.064  30.642  28.309  1.00  0.00     0.074 A 
ATOM     38  C   UNL A   1      43.961  31.323  28.962  1.00  0.00     0.031 C 
ATOM     39  C   UNL A   1      46.336  31.110  28.273  1.00  0.00     0.037 A 
BRANCH  26  40
ATOM     40  C   UNL A   1      50.441  27.574  25.277  1.00  0.00     0.064 A 
ATOM     41  C   UNL A   1      51.459  27.165  26.153  1.00  0.00     0.173 A 
ATOM     42  C   UNL A   1      50.785  27.825  23.942  1.00  0.00     0.173 A 
ATOM     43  F   UNL A   1      51.178  26.894  27.436  1.00  0.00    -0.203 F 
ATOM     44  C   UNL A   1      52.775  27.043  25.716  1.00  0.00     0.198 A 
ATOM     45  C   UNL A   1      52.100  27.675  23.502  1.00  0.00     0.198 A 
ATOM     46  F   UNL A   1      49.843  28.181  23.056  1.00  0.00    -0.203 F 
ATOM     47  F   UNL A   1      53.735  26.680  26.580  1.00  0.00    -0.200 F 
ATOM     48  C   UNL A   1      53.095  27.298  24.392  1.00  0.00     0.200 A 
ATOM     49  F   UNL A   1      52.402  27.888  22.214  1.00  0.00    -0.200 F 
ATOM     50  F   UNL A   1      54.361  27.173  23.972  1.00  0.00    -0.200 F 
ENDBRANCH  26  40
BRANCH  27  51
ATOM     51  C   UNL A   1      40.824  28.552  28.271  1.00  0.00     0.064 A 
ATOM     52  C   UNL A   1      40.414  28.217  29.573  1.00  0.00     0.173 A 
ATOM     53  C   UNL A   1      39.843  29.031  27.393  1.00  0.00     0.173 A 
ATOM     54  F   UNL A   1      41.303  27.752  30.463  1.00  0.00    -0.203 F 
ATOM     55  C   UNL A   1      39.082  28.334  29.969  1.00  0.00     0.198 A 
ATOM     56  C   UNL A   1      38.519  29.188  27.802  1.00  0.00     0.198 A 
ATOM     57  F   UNL A   1      40.178  29.381  26.142  1.00  0.00    -0.203 F 
ATOM     58  F   UNL A   1      38.717  27.965  31.205  1.00  0.00    -0.200 F 
ATOM     59  C   UNL A   1      38.138  28.832  29.087  1.00  0.00     0.200 A 
ATOM     60  F   UNL A   1      37.615  29.698  26.956  1.00  0.00    -0.200 F 
ATOM     61  F   UNL A   1      36.864  28.976  29.477  1.00  0.00    -0.200 F 
ENDBRANCH  27  51
BRANCH  39  62
ATOM     62  C   UNL A   1      46.580  32.433  28.929  1.00  0.00     0.064 A 
ATOM     63  C   UNL A   1      46.934  32.488  30.286  1.00  0.00     0.173 A 
ATOM     64  C   UNL A   1      46.398  33.637  28.238  1.00  0.00     0.173 A 
ATOM     65  F   UNL A   1      47.109  31.358  30.987  1.00  0.00    -0.203 F 
ATOM     66  C   UNL A   1      47.078  33.710  30.932  1.00  0.00     0.198 A 
ATOM     67  C   UNL A   1      46.583  34.857  28.879  1.00  0.00     0.198 A 
ATOM     68  F   UNL A   1      46.077  33.628  26.935  1.00  0.00    -0.203 F 
ATOM     69  F   UNL A   1      47.372  33.742  32.239  1.00  0.00    -0.200 F 
ATOM     70  C   UNL A   1      46.909  34.892  30.227  1.00  0.00     0.200 A 
ATOM     71  F   UNL A   1      46.451  35.998  28.190  1.00  0.00    -0.200 F 
ATOM     72  F   UNL A   1      47.066  36.069  30.847  1.00  0.00    -0.200 F 
ENDBRANCH  39  62
ENDBRANCH  13  14
ENDBRANCH   6   8
ENDBRANCH   5   6
ENDBRANCH   4   5
ENDBRANCH   3   4
ENDBRANCH   2   3
ENDBRANCH   1   2
BRANCH   1  73
ATOM     73  C   UNL A   1      38.174  22.505  25.799  1.00  0.00     0.261 C 
BRANCH  73  74
ATOM     74  O   UNL A   1      37.438  21.687  24.880  1.00  0.00    -0.463 OA
BRANCH  74  75
ATOM     75  C   UNL A   1      36.571  22.388  24.097  1.00  0.00     0.310 C 
ATOM     76  O   UNL A   1      36.890  23.201  23.250  1.00  0.00    -0.252 OA
BRANCH  75  77
ATOM     77  C   UNL A   1      35.133  22.112  24.436  1.00  0.00     0.115 C 
ATOM     78  C   UNL A   1      34.899  21.092  25.542  1.00  0.00     0.043 C 
ATOM     79  C   UNL A   1      34.182  23.284  24.430  1.00  0.00     0.097 C 
ATOM     80  C   UNL A   1      34.624  21.688  26.872  1.00  0.00    -0.030 C 
ATOM     81  C   UNL A   1      33.960  23.877  25.852  1.00  0.00     0.041 C 
ATOM     82  C   UNL A   1      34.213  22.950  27.013  1.00  0.00    -0.030 C 
BRANCH  79  83
ATOM     83  C   UNL A   1      32.904  22.913  23.662  1.00  0.00     0.224 C 
ATOM     84  O   UNL A   1      32.826  21.826  23.081  1.00  0.00    -0.275 OA
ATOM     85  N   UNL A   1      31.729  23.623  23.772  1.00  0.00    -0.344 N 
ATOM     86  H   UNL A   1      30.976  23.028  23.995  1.00  0.00     0.164 HD
BRANCH  85  87
ATOM     87  C   UNL A   1      31.265  25.073  23.646  1.00  0.00     0.172 C 
ATOM     88  C   UNL A   1      31.630  25.577  22.248  1.00  0.00     0.037 C 
ATOM     89  C   UNL A   1      31.355  26.195  24.802  1.00  0.00     0.249 C 
ATOM     90  C   UNL A   1      31.412  27.073  22.135  1.00  0.00     0.025 C 
ATOM     91  N   UNL A   1      32.051  27.393  24.485  1.00  0.00    -0.308 N 
ATOM     92  O   UNL A   1      30.937  25.919  25.929  1.00  0.00    -0.272 OA
ATOM     93  C   UNL A   1      32.366  27.740  23.102  1.00  0.00     0.126 C 
BRANCH  91  94
ATOM     94  C   UNL A   1      32.620  28.259  25.506  1.00  0.00     0.080 A 
ATOM     95  C   UNL A   1      33.757  27.895  26.236  1.00  0.00     0.029 A 
ATOM     96  C   UNL A   1      32.100  29.555  25.747  1.00  0.00     0.146 A 
ATOM     97  C   UNL A   1      34.378  28.800  27.115  1.00  0.00     0.002 A 
ATOM     98  C   UNL A   1      32.749  30.479  26.575  1.00  0.00     0.041 A 
ATOM     99  F   UNL A   1      31.020  30.003  25.085  1.00  0.00    -0.205 F 
ATOM    100  C   UNL A   1      33.900  30.103  27.256  1.00  0.00     0.003 A 
ENDBRANCH  91  94
ENDBRANCH  85  87
ENDBRANCH  79  83
ENDBRANCH  75  77
ENDBRANCH  74  75
ENDBRANCH  73  74
ENDBRANCH   1  73
TORSDOF 17
ENDMDL
