MODEL 1
REMARK VINA RESULT:     -11.3      0.000      0.000
REMARK SMILES COCCC(=O)N1Cc2ccccc2C[C@H]1C(=O)OCCOCCOC(=O)c1ccc(-c2c3nc(c(-c4c(F)c(F)c(F)c(F)c4F)c4ccc([nH]4)c(-c4c(F)c(F)c(F)c(F)c4F)c4nc(c(-c5c(F)c(F)c(F)c(F)c5F)c5ccc2[nH]5)C=C4)C=C3)cc1
REMARK SMILES IDX 21 1 20 2 19 3 17 4 18 5 16 6 7 7 8 8 9 9 15 10 10 11 14 12
REMARK SMILES IDX 11 13 13 14 12 15 5 16 6 17 4 18 3 19 2 20 1 21 22 22 23 23
REMARK SMILES IDX 24 24 25 25 26 26 27 27 28 28 29 29 90 30 30 31 89 32 31 33
REMARK SMILES IDX 32 34 33 35 83 36 34 37 88 38 82 39 84 40 35 41 87 42 81 43
REMARK SMILES IDX 80 44 36 46 68 47 48 48 67 49 49 50 52 51 66 52 85 53 50 54
REMARK SMILES IDX 51 55 65 57 86 58 53 59 37 60 38 61 46 62 39 63 40 64 44 65
REMARK SMILES IDX 47 66 41 67 42 68 45 69 43 70 69 71 70 72 78 73 71 74 72 75
REMARK SMILES IDX 76 76 79 77 73 78 74 79 77 80 75 81 54 82 55 83 63 84 56 85
REMARK SMILES IDX 57 86 61 87 64 88 58 89 59 90 62 91 60 92
REMARK H PARENT 84 45 52 56
REMARK Flexibility Score: inf
ROOT
ATOM      1  C   UNL A   1      32.300  28.237  25.257  1.00  0.00     0.202 C 
ENDROOT
BRANCH   1   2
ATOM      2  C   UNL A   1      31.905  26.755  25.236  1.00  0.00     0.261 C 
BRANCH   2   3
ATOM      3  O   UNL A   1      32.992  25.809  25.101  1.00  0.00    -0.462 OA
BRANCH   3   4
ATOM      4  C   UNL A   1      32.833  24.681  25.844  1.00  0.00     0.329 C 
ATOM      5  O   UNL A   1      31.956  24.544  26.695  1.00  0.00    -0.250 OA
BRANCH   4   6
ATOM      6  C   UNL A   1      33.961  23.647  25.723  1.00  0.00     0.199 C 
ATOM      7  N   UNL A   1      33.880  22.359  24.956  1.00  0.00    -0.324 N 
ATOM      8  C   UNL A   1      35.049  22.029  24.127  1.00  0.00     0.156 C 
ATOM      9  C   UNL A   1      36.329  22.363  24.852  1.00  0.00    -0.025 A 
ATOM     10  C   UNL A   1      35.189  24.503  25.303  1.00  0.00     0.073 C 
ATOM     11  C   UNL A   1      37.374  21.457  25.028  1.00  0.00     0.006 A 
ATOM     12  C   UNL A   1      36.418  23.646  25.416  1.00  0.00    -0.040 A 
ATOM     13  C   UNL A   1      38.502  21.840  25.757  1.00  0.00     0.000 A 
ATOM     14  C   UNL A   1      37.555  24.037  26.119  1.00  0.00     0.004 A 
ATOM     15  C   UNL A   1      38.595  23.127  26.293  1.00  0.00     0.000 A 
BRANCH   7  16
ATOM     16  C   UNL A   1      33.317  21.244  25.593  1.00  0.00     0.225 C 
ATOM     17  O   UNL A   1      33.655  20.881  26.720  1.00  0.00    -0.275 OA
BRANCH  16  18
ATOM     18  C   UNL A   1      32.412  20.386  24.751  1.00  0.00     0.128 C 
BRANCH  18  19
ATOM     19  C   UNL A   1      32.968  18.986  24.528  1.00  0.00     0.169 C 
BRANCH  19  20
ATOM     20  O   UNL A   1      32.102  17.977  25.057  1.00  0.00    -0.384 OA
ATOM     21  C   UNL A   1      32.797  16.897  25.666  1.00  0.00     0.194 C 
ENDBRANCH  19  20
ENDBRANCH  18  19
ENDBRANCH  16  18
ENDBRANCH   7  16
ENDBRANCH   4   6
ENDBRANCH   3   4
ENDBRANCH   2   3
ENDBRANCH   1   2
BRANCH   1  22
ATOM     22  O   UNL A   1      31.413  29.142  25.908  1.00  0.00    -0.374 OA
BRANCH  22  23
ATOM     23  C   UNL A   1      31.298  30.461  25.371  1.00  0.00     0.202 C 
BRANCH  23  24
ATOM     24  C   UNL A   1      31.541  31.600  26.367  1.00  0.00     0.261 C 
BRANCH  24  25
ATOM     25  O   UNL A   1      32.660  31.294  27.219  1.00  0.00    -0.460 OA
BRANCH  25  26
ATOM     26  C   UNL A   1      33.437  32.362  27.505  1.00  0.00     0.338 C 
ATOM     27  O   UNL A   1      33.091  33.526  27.609  1.00  0.00    -0.246 OA
BRANCH  26  28
ATOM     28  C   UNL A   1      34.765  31.874  27.912  1.00  0.00     0.060 A 
ATOM     29  C   UNL A   1      34.903  30.502  28.163  1.00  0.00     0.016 A 
ATOM     30  C   UNL A   1      35.832  32.748  28.117  1.00  0.00     0.016 A 
ATOM     31  C   UNL A   1      36.106  30.006  28.660  1.00  0.00     0.010 A 
ATOM     32  C   UNL A   1      37.039  32.246  28.620  1.00  0.00     0.010 A 
ATOM     33  C   UNL A   1      37.170  30.879  28.925  1.00  0.00    -0.014 A 
BRANCH  33  34
ATOM     34  C   UNL A   1      38.356  30.365  29.654  1.00  0.00     0.031 A 
ATOM     35  C   UNL A   1      38.587  30.801  31.075  1.00  0.00     0.074 A 
ATOM     36  C   UNL A   1      39.185  29.474  29.081  1.00  0.00     0.049 A 
ATOM     37  N   UNL A   1      39.505  30.416  31.925  1.00  0.00    -0.248 NA
ATOM     38  C   UNL A   1      37.654  31.804  31.612  1.00  0.00     0.031 C 
ATOM     39  C   UNL A   1      39.058  28.961  27.719  1.00  0.00     0.029 A 
ATOM     40  N   UNL A   1      40.295  28.839  29.579  1.00  0.00    -0.354 N 
ATOM     41  C   UNL A   1      39.254  31.117  33.096  1.00  0.00     0.074 A 
ATOM     42  C   UNL A   1      38.120  31.979  32.839  1.00  0.00     0.031 C 
ATOM     43  C   UNL A   1      40.053  28.088  27.489  1.00  0.00     0.029 A 
ATOM     44  C   UNL A   1      40.893  27.990  28.683  1.00  0.00     0.049 A 
ATOM     45  H   UNL A   1      40.630  28.980  30.495  1.00  0.00     0.167 HD
ATOM     46  C   UNL A   1      39.899  31.038  34.284  1.00  0.00     0.037 A 
ATOM     47  C   UNL A   1      41.993  27.222  28.811  1.00  0.00     0.037 A 
ATOM     48  C   UNL A   1      41.031  30.187  34.540  1.00  0.00     0.049 A 
ATOM     49  C   UNL A   1      42.726  27.193  30.127  1.00  0.00     0.074 A 
ATOM     50  C   UNL A   1      41.738  30.020  35.718  1.00  0.00     0.029 A 
ATOM     51  N   UNL A   1      41.629  29.367  33.595  1.00  0.00    -0.354 N 
ATOM     52  N   UNL A   1      42.444  27.815  31.246  1.00  0.00    -0.248 NA
ATOM     53  C   UNL A   1      43.927  26.346  30.200  1.00  0.00     0.031 C 
ATOM     54  C   UNL A   1      42.792  29.133  35.473  1.00  0.00     0.029 A 
ATOM     55  C   UNL A   1      42.714  28.713  34.156  1.00  0.00     0.049 A 
ATOM     56  H   UNL A   1      41.326  29.264  32.663  1.00  0.00     0.167 HD
ATOM     57  C   UNL A   1      43.413  27.419  32.159  1.00  0.00     0.074 A 
ATOM     58  C   UNL A   1      44.284  26.490  31.469  1.00  0.00     0.031 C 
ATOM     59  C   UNL A   1      43.568  27.789  33.454  1.00  0.00     0.037 A 
BRANCH  46  60
ATOM     60  C   UNL A   1      39.404  31.912  35.398  1.00  0.00     0.064 A 
ATOM     61  C   UNL A   1      38.518  31.426  36.371  1.00  0.00     0.173 A 
ATOM     62  C   UNL A   1      39.845  33.238  35.511  1.00  0.00     0.173 A 
ATOM     63  F   UNL A   1      38.058  30.167  36.299  1.00  0.00    -0.203 F 
ATOM     64  C   UNL A   1      38.074  32.245  37.406  1.00  0.00     0.198 A 
ATOM     65  C   UNL A   1      39.417  34.047  36.561  1.00  0.00     0.198 A 
ATOM     66  F   UNL A   1      40.694  33.747  34.608  1.00  0.00    -0.203 F 
ATOM     67  F   UNL A   1      37.197  31.773  38.304  1.00  0.00    -0.200 F 
ATOM     68  C   UNL A   1      38.528  33.552  37.503  1.00  0.00     0.200 A 
ATOM     69  F   UNL A   1      39.864  35.306  36.659  1.00  0.00    -0.200 F 
ATOM     70  F   UNL A   1      38.103  34.338  38.504  1.00  0.00    -0.200 F 
ENDBRANCH  46  60
BRANCH  47  71
ATOM     71  C   UNL A   1      42.468  26.407  27.663  1.00  0.00     0.064 A 
ATOM     72  C   UNL A   1      43.430  26.902  26.771  1.00  0.00     0.173 A 
ATOM     73  C   UNL A   1      41.956  25.123  27.426  1.00  0.00     0.173 A 
ATOM     74  F   UNL A   1      43.929  28.134  26.942  1.00  0.00    -0.203 F 
ATOM     75  C   UNL A   1      43.850  26.148  25.676  1.00  0.00     0.198 A 
ATOM     76  C   UNL A   1      42.396  24.361  26.345  1.00  0.00     0.198 A 
ATOM     77  F   UNL A   1      41.033  24.605  28.249  1.00  0.00    -0.203 F 
ATOM     78  F   UNL A   1      44.739  26.661  24.815  1.00  0.00    -0.200 F 
ATOM     79  C   UNL A   1      43.337  24.877  25.467  1.00  0.00     0.200 A 
ATOM     80  F   UNL A   1      41.906  23.129  26.153  1.00  0.00    -0.200 F 
ATOM     81  F   UNL A   1      43.744  24.152  24.417  1.00  0.00    -0.200 F 
ENDBRANCH  47  71
BRANCH  59  82
ATOM     82  C   UNL A   1      44.705  27.176  34.217  1.00  0.00     0.064 A 
ATOM     83  C   UNL A   1      45.960  27.798  34.288  1.00  0.00     0.173 A 
ATOM     84  C   UNL A   1      44.524  25.975  34.921  1.00  0.00     0.173 A 
ATOM     85  F   UNL A   1      46.186  28.940  33.620  1.00  0.00    -0.203 F 
ATOM     86  C   UNL A   1      46.999  27.231  35.021  1.00  0.00     0.198 A 
ATOM     87  C   UNL A   1      45.558  25.424  35.674  1.00  0.00     0.198 A 
ATOM     88  F   UNL A   1      43.341  25.345  34.889  1.00  0.00    -0.203 F 
ATOM     89  F   UNL A   1      48.202  27.822  35.043  1.00  0.00    -0.200 F 
ATOM     90  C   UNL A   1      46.796  26.049  35.718  1.00  0.00     0.200 A 
ATOM     91  F   UNL A   1      45.357  24.289  36.356  1.00  0.00    -0.200 F 
ATOM     92  F   UNL A   1      47.794  25.508  36.428  1.00  0.00    -0.200 F 
ENDBRANCH  59  82
ENDBRANCH  33  34
ENDBRANCH  26  28
ENDBRANCH  25  26
ENDBRANCH  24  25
ENDBRANCH  23  24
ENDBRANCH  22  23
ENDBRANCH   1  22
TORSDOF 18
ENDMDL
MODEL 2
REMARK VINA RESULT:     -11.3      0.616      1.705
REMARK SMILES COCCC(=O)N1Cc2ccccc2C[C@H]1C(=O)OCCOCCOC(=O)c1ccc(-c2c3nc(c(-c4c(F)c(F)c(F)c(F)c4F)c4ccc([nH]4)c(-c4c(F)c(F)c(F)c(F)c4F)c4nc(c(-c5c(F)c(F)c(F)c(F)c5F)c5ccc2[nH]5)C=C4)C=C3)cc1
REMARK SMILES IDX 21 1 20 2 19 3 17 4 18 5 16 6 7 7 8 8 9 9 15 10 10 11 14 12
REMARK SMILES IDX 11 13 13 14 12 15 5 16 6 17 4 18 3 19 2 20 1 21 22 22 23 23
REMARK SMILES IDX 24 24 25 25 26 26 27 27 28 28 29 29 90 30 30 31 89 32 31 33
REMARK SMILES IDX 32 34 33 35 83 36 34 37 88 38 82 39 84 40 35 41 87 42 81 43
REMARK SMILES IDX 80 44 36 46 68 47 48 48 67 49 49 50 52 51 66 52 85 53 50 54
REMARK SMILES IDX 51 55 65 57 86 58 53 59 37 60 38 61 46 62 39 63 40 64 44 65
REMARK SMILES IDX 47 66 41 67 42 68 45 69 43 70 69 71 70 72 78 73 71 74 72 75
REMARK SMILES IDX 76 76 79 77 73 78 74 79 77 80 75 81 54 82 55 83 63 84 56 85
REMARK SMILES IDX 57 86 61 87 64 88 58 89 59 90 62 91 60 92
REMARK H PARENT 84 45 52 56
REMARK Flexibility Score: inf
ROOT
ATOM      1  C   UNL A   1      32.486  27.588  23.875  1.00  0.00     0.202 C 
ENDROOT
BRANCH   1   2
ATOM      2  C   UNL A   1      32.791  26.620  25.025  1.00  0.00     0.261 C 
BRANCH   2   3
ATOM      3  O   UNL A   1      33.278  25.311  24.641  1.00  0.00    -0.462 OA
BRANCH   3   4
ATOM      4  C   UNL A   1      33.317  24.418  25.667  1.00  0.00     0.329 C 
ATOM      5  O   UNL A   1      32.562  24.463  26.637  1.00  0.00    -0.250 OA
BRANCH   4   6
ATOM      6  C   UNL A   1      34.517  23.462  25.665  1.00  0.00     0.199 C 
ATOM      7  N   UNL A   1      34.597  22.170  24.906  1.00  0.00    -0.324 N 
ATOM      8  C   UNL A   1      35.860  21.917  24.196  1.00  0.00     0.156 C 
ATOM      9  C   UNL A   1      37.039  22.338  25.038  1.00  0.00    -0.025 A 
ATOM     10  C   UNL A   1      35.720  24.398  25.357  1.00  0.00     0.073 C 
ATOM     11  C   UNL A   1      38.120  21.505  25.322  1.00  0.00     0.006 A 
ATOM     12  C   UNL A   1      36.987  23.626  25.596  1.00  0.00    -0.040 A 
ATOM     13  C   UNL A   1      39.144  21.965  26.152  1.00  0.00     0.000 A 
ATOM     14  C   UNL A   1      38.022  24.094  26.402  1.00  0.00     0.004 A 
ATOM     15  C   UNL A   1      39.099  23.257  26.683  1.00  0.00     0.000 A 
BRANCH   7  16
ATOM     16  C   UNL A   1      34.051  21.021  25.496  1.00  0.00     0.225 C 
ATOM     17  O   UNL A   1      33.728  20.973  26.682  1.00  0.00    -0.275 OA
BRANCH  16  18
ATOM     18  C   UNL A   1      34.058  19.775  24.653  1.00  0.00     0.128 C 
BRANCH  18  19
ATOM     19  C   UNL A   1      32.657  19.303  24.287  1.00  0.00     0.169 C 
BRANCH  19  20
ATOM     20  O   UNL A   1      32.069  18.520  25.331  1.00  0.00    -0.384 OA
ATOM     21  C   UNL A   1      32.794  17.334  25.627  1.00  0.00     0.194 C 
ENDBRANCH  19  20
ENDBRANCH  18  19
ENDBRANCH  16  18
ENDBRANCH   7  16
ENDBRANCH   4   6
ENDBRANCH   3   4
ENDBRANCH   2   3
ENDBRANCH   1   2
BRANCH   1  22
ATOM     22  O   UNL A   1      31.985  28.876  24.220  1.00  0.00    -0.374 OA
BRANCH  22  23
ATOM     23  C   UNL A   1      32.784  29.690  25.081  1.00  0.00     0.202 C 
BRANCH  23  24
ATOM     24  C   UNL A   1      32.008  30.494  26.131  1.00  0.00     0.261 C 
BRANCH  24  25
ATOM     25  O   UNL A   1      32.740  30.538  27.370  1.00  0.00    -0.460 OA
BRANCH  25  26
ATOM     26  C   UNL A   1      33.488  31.654  27.522  1.00  0.00     0.338 C 
ATOM     27  O   UNL A   1      33.107  32.810  27.523  1.00  0.00    -0.246 OA
BRANCH  26  28
ATOM     28  C   UNL A   1      34.845  31.249  27.927  1.00  0.00     0.060 A 
ATOM     29  C   UNL A   1      35.049  29.904  28.262  1.00  0.00     0.016 A 
ATOM     30  C   UNL A   1      35.877  32.179  28.049  1.00  0.00     0.016 A 
ATOM     31  C   UNL A   1      36.283  29.492  28.760  1.00  0.00     0.010 A 
ATOM     32  C   UNL A   1      37.116  31.762  28.554  1.00  0.00     0.010 A 
ATOM     33  C   UNL A   1      37.313  30.425  28.943  1.00  0.00    -0.014 A 
BRANCH  33  34
ATOM     34  C   UNL A   1      38.536  30.011  29.674  1.00  0.00     0.031 A 
ATOM     35  C   UNL A   1      38.775  30.543  31.060  1.00  0.00     0.074 A 
ATOM     36  C   UNL A   1      39.393  29.123  29.137  1.00  0.00     0.049 A 
ATOM     37  N   UNL A   1      39.727  30.252  31.910  1.00  0.00    -0.248 NA
ATOM     38  C   UNL A   1      37.808  31.534  31.556  1.00  0.00     0.031 C 
ATOM     39  C   UNL A   1      39.262  28.523  27.812  1.00  0.00     0.029 A 
ATOM     40  N   UNL A   1      40.541  28.570  29.647  1.00  0.00    -0.354 N 
ATOM     41  C   UNL A   1      39.468  31.012  33.042  1.00  0.00     0.074 A 
ATOM     42  C   UNL A   1      38.291  31.806  32.760  1.00  0.00     0.031 C 
ATOM     43  C   UNL A   1      40.292  27.682  27.612  1.00  0.00     0.029 A 
ATOM     44  C   UNL A   1      41.159  27.695  28.790  1.00  0.00     0.049 A 
ATOM     45  H   UNL A   1      40.888  28.782  30.544  1.00  0.00     0.167 HD
ATOM     46  C   UNL A   1      40.141  31.035  34.217  1.00  0.00     0.037 A 
ATOM     47  C   UNL A   1      42.295  26.986  28.939  1.00  0.00     0.037 A 
ATOM     48  C   UNL A   1      41.315  30.253  34.498  1.00  0.00     0.049 A 
ATOM     49  C   UNL A   1      43.056  27.071  30.237  1.00  0.00     0.074 A 
ATOM     50  C   UNL A   1      42.053  30.191  35.668  1.00  0.00     0.029 A 
ATOM     51  N   UNL A   1      41.930  29.404  33.591  1.00  0.00    -0.354 N 
ATOM     52  N   UNL A   1      42.768  27.748  31.322  1.00  0.00    -0.248 NA
ATOM     53  C   UNL A   1      44.295  26.284  30.334  1.00  0.00     0.031 C 
ATOM     54  C   UNL A   1      43.141  29.338  35.453  1.00  0.00     0.029 A 
ATOM     55  C   UNL A   1      43.056  28.834  34.165  1.00  0.00     0.049 A 
ATOM     56  H   UNL A   1      41.614  29.230  32.675  1.00  0.00     0.167 HD
ATOM     57  C   UNL A   1      43.773  27.452  32.236  1.00  0.00     0.074 A 
ATOM     58  C   UNL A   1      44.671  26.522  31.583  1.00  0.00     0.031 C 
ATOM     59  C   UNL A   1      43.936  27.908  33.502  1.00  0.00     0.037 A 
BRANCH  46  60
ATOM     60  C   UNL A   1      39.628  31.953  35.288  1.00  0.00     0.064 A 
ATOM     61  C   UNL A   1      40.070  33.280  35.388  1.00  0.00     0.173 A 
ATOM     62  C   UNL A   1      38.663  31.509  36.203  1.00  0.00     0.173 A 
ATOM     63  F   UNL A   1      41.002  33.748  34.543  1.00  0.00    -0.203 F 
ATOM     64  C   UNL A   1      39.578  34.125  36.380  1.00  0.00     0.198 A 
ATOM     65  C   UNL A   1      38.156  32.362  37.179  1.00  0.00     0.198 A 
ATOM     66  F   UNL A   1      38.207  30.249  36.147  1.00  0.00    -0.203 F 
ATOM     67  F   UNL A   1      40.042  35.378  36.482  1.00  0.00    -0.200 F 
ATOM     68  C   UNL A   1      38.619  33.667  37.271  1.00  0.00     0.200 A 
ATOM     69  F   UNL A   1      37.223  31.922  38.034  1.00  0.00    -0.200 F 
ATOM     70  F   UNL A   1      38.143  34.482  38.223  1.00  0.00    -0.200 F 
ENDBRANCH  46  60
BRANCH  47  71
ATOM     71  C   UNL A   1      42.783  26.124  27.832  1.00  0.00     0.064 A 
ATOM     72  C   UNL A   1      43.657  26.623  26.855  1.00  0.00     0.173 A 
ATOM     73  C   UNL A   1      42.373  24.787  27.720  1.00  0.00     0.173 A 
ATOM     74  F   UNL A   1      44.056  27.901  26.906  1.00  0.00    -0.203 F 
ATOM     75  C   UNL A   1      44.088  25.822  25.799  1.00  0.00     0.198 A 
ATOM     76  C   UNL A   1      42.825  23.980  26.678  1.00  0.00     0.198 A 
ATOM     77  F   UNL A   1      41.538  24.263  28.628  1.00  0.00    -0.203 F 
ATOM     78  F   UNL A   1      44.888  26.335  24.856  1.00  0.00    -0.200 F 
ATOM     79  C   UNL A   1      43.676  24.500  25.715  1.00  0.00     0.200 A 
ATOM     80  F   UNL A   1      42.434  22.701  26.606  1.00  0.00    -0.200 F 
ATOM     81  F   UNL A   1      44.094  23.729  24.702  1.00  0.00    -0.200 F 
ENDBRANCH  47  71
BRANCH  59  82
ATOM     82  C   UNL A   1      45.116  27.394  34.274  1.00  0.00     0.064 A 
ATOM     83  C   UNL A   1      45.034  26.226  35.046  1.00  0.00     0.173 A 
ATOM     84  C   UNL A   1      46.354  28.052  34.204  1.00  0.00     0.173 A 
ATOM     85  F   UNL A   1      43.869  25.569  35.154  1.00  0.00    -0.203 F 
ATOM     86  C   UNL A   1      46.144  25.745  35.736  1.00  0.00     0.198 A 
ATOM     87  C   UNL A   1      47.468  27.555  34.875  1.00  0.00     0.198 A 
ATOM     88  F   UNL A   1      46.484  29.170  33.475  1.00  0.00    -0.203 F 
ATOM     89  F   UNL A   1      46.033  24.649  36.500  1.00  0.00    -0.200 F 
ATOM     90  C   UNL A   1      47.360  26.406  35.645  1.00  0.00     0.200 A 
ATOM     91  F   UNL A   1      48.644  28.187  34.777  1.00  0.00    -0.200 F 
ATOM     92  F   UNL A   1      48.429  25.939  36.305  1.00  0.00    -0.200 F 
ENDBRANCH  59  82
ENDBRANCH  33  34
ENDBRANCH  26  28
ENDBRANCH  25  26
ENDBRANCH  24  25
ENDBRANCH  23  24
ENDBRANCH  22  23
ENDBRANCH   1  22
TORSDOF 18
ENDMDL
MODEL 3
REMARK VINA RESULT:     -11.3      4.167     10.146
REMARK SMILES COCCC(=O)N1Cc2ccccc2C[C@H]1C(=O)OCCOCCOC(=O)c1ccc(-c2c3nc(c(-c4c(F)c(F)c(F)c(F)c4F)c4ccc([nH]4)c(-c4c(F)c(F)c(F)c(F)c4F)c4nc(c(-c5c(F)c(F)c(F)c(F)c5F)c5ccc2[nH]5)C=C4)C=C3)cc1
REMARK SMILES IDX 21 1 20 2 19 3 17 4 18 5 16 6 7 7 8 8 9 9 15 10 10 11 14 12
REMARK SMILES IDX 11 13 13 14 12 15 5 16 6 17 4 18 3 19 2 20 1 21 22 22 23 23
REMARK SMILES IDX 24 24 25 25 26 26 27 27 28 28 29 29 90 30 30 31 89 32 31 33
REMARK SMILES IDX 32 34 33 35 83 36 34 37 88 38 82 39 84 40 35 41 87 42 81 43
REMARK SMILES IDX 80 44 36 46 68 47 48 48 67 49 49 50 52 51 66 52 85 53 50 54
REMARK SMILES IDX 51 55 65 57 86 58 53 59 37 60 38 61 46 62 39 63 40 64 44 65
REMARK SMILES IDX 47 66 41 67 42 68 45 69 43 70 69 71 70 72 78 73 71 74 72 75
REMARK SMILES IDX 76 76 79 77 73 78 74 79 77 80 75 81 54 82 55 83 63 84 56 85
REMARK SMILES IDX 57 86 61 87 64 88 58 89 59 90 62 91 60 92
REMARK H PARENT 84 45 52 56
REMARK Flexibility Score: inf
ROOT
ATOM      1  C   UNL A   1      35.075  22.858  24.856  1.00  0.00     0.202 C 
ENDROOT
BRANCH   1   2
ATOM      2  C   UNL A   1      34.416  23.836  23.875  1.00  0.00     0.261 C 
BRANCH   2   3
ATOM      3  O   UNL A   1      33.629  24.896  24.467  1.00  0.00    -0.462 OA
BRANCH   3   4
ATOM      4  C   UNL A   1      33.485  25.986  23.666  1.00  0.00     0.329 C 
ATOM      5  O   UNL A   1      33.763  25.991  22.467  1.00  0.00    -0.250 OA
BRANCH   4   6
ATOM      6  C   UNL A   1      33.160  27.299  24.390  1.00  0.00     0.199 C 
ATOM      7  N   UNL A   1      31.805  27.940  24.460  1.00  0.00    -0.324 N 
ATOM      8  C   UNL A   1      31.404  28.453  25.779  1.00  0.00     0.156 C 
ATOM      9  C   UNL A   1      32.564  29.133  26.463  1.00  0.00    -0.025 A 
ATOM     10  C   UNL A   1      33.788  27.096  25.798  1.00  0.00     0.073 C 
ATOM     11  C   UNL A   1      32.504  30.425  26.984  1.00  0.00     0.006 A 
ATOM     12  C   UNL A   1      33.773  28.419  26.512  1.00  0.00    -0.040 A 
ATOM     13  C   UNL A   1      33.645  30.990  27.556  1.00  0.00     0.000 A 
ATOM     14  C   UNL A   1      34.903  28.973  27.108  1.00  0.00     0.004 A 
ATOM     15  C   UNL A   1      34.837  30.264  27.625  1.00  0.00     0.000 A 
BRANCH   7  16
ATOM     16  C   UNL A   1      31.406  28.763  23.398  1.00  0.00     0.225 C 
ATOM     17  O   UNL A   1      32.122  28.980  22.421  1.00  0.00    -0.275 OA
BRANCH  16  18
ATOM     18  C   UNL A   1      30.129  29.534  23.599  1.00  0.00     0.128 C 
BRANCH  18  19
ATOM     19  C   UNL A   1      29.003  29.053  22.694  1.00  0.00     0.169 C 
BRANCH  19  20
ATOM     20  O   UNL A   1      29.009  29.725  21.431  1.00  0.00    -0.384 OA
ATOM     21  C   UNL A   1      28.570  31.074  21.504  1.00  0.00     0.194 C 
ENDBRANCH  19  20
ENDBRANCH  18  19
ENDBRANCH  16  18
ENDBRANCH   7  16
ENDBRANCH   4   6
ENDBRANCH   3   4
ENDBRANCH   2   3
ENDBRANCH   1   2
BRANCH   1  22
ATOM     22  O   UNL A   1      36.027  21.940  24.325  1.00  0.00    -0.374 OA
BRANCH  22  23
ATOM     23  C   UNL A   1      36.195  20.693  25.001  1.00  0.00     0.202 C 
BRANCH  23  24
ATOM     24  C   UNL A   1      37.644  20.214  25.146  1.00  0.00     0.261 C 
BRANCH  24  25
ATOM     25  O   UNL A   1      38.527  21.334  25.335  1.00  0.00    -0.460 OA
BRANCH  25  26
ATOM     26  C   UNL A   1      39.553  21.085  26.179  1.00  0.00     0.338 C 
ATOM     27  O   UNL A   1      40.180  20.048  26.301  1.00  0.00    -0.246 OA
BRANCH  26  28
ATOM     28  C   UNL A   1      39.968  22.358  26.792  1.00  0.00     0.060 A 
ATOM     29  C   UNL A   1      39.313  23.523  26.374  1.00  0.00     0.016 A 
ATOM     30  C   UNL A   1      41.026  22.420  27.699  1.00  0.00     0.016 A 
ATOM     31  C   UNL A   1      39.745  24.766  26.836  1.00  0.00     0.010 A 
ATOM     32  C   UNL A   1      41.459  23.670  28.159  1.00  0.00     0.010 A 
ATOM     33  C   UNL A   1      40.843  24.849  27.703  1.00  0.00    -0.014 A 
BRANCH  33  34
ATOM     34  C   UNL A   1      41.418  26.183  28.007  1.00  0.00     0.031 A 
ATOM     35  C   UNL A   1      42.810  26.503  27.538  1.00  0.00     0.074 A 
ATOM     36  C   UNL A   1      40.688  27.120  28.639  1.00  0.00     0.049 A 
ATOM     37  N   UNL A   1      43.477  27.627  27.617  1.00  0.00    -0.248 NA
ATOM     38  C   UNL A   1      43.549  25.410  26.887  1.00  0.00     0.031 C 
ATOM     39  C   UNL A   1      39.323  26.938  29.125  1.00  0.00     0.029 A 
ATOM     40  N   UNL A   1      40.996  28.416  28.972  1.00  0.00    -0.354 N 
ATOM     41  C   UNL A   1      44.705  27.380  27.018  1.00  0.00     0.074 A 
ATOM     42  C   UNL A   1      44.708  25.991  26.612  1.00  0.00     0.031 C 
ATOM     43  C   UNL A   1      38.910  28.083  29.697  1.00  0.00     0.029 A 
ATOM     44  C   UNL A   1      39.984  29.072  29.626  1.00  0.00     0.049 A 
ATOM     45  H   UNL A   1      41.863  28.835  28.761  1.00  0.00     0.167 HD
ATOM     46  C   UNL A   1      45.732  28.238  26.811  1.00  0.00     0.037 A 
ATOM     47  C   UNL A   1      39.932  30.328  30.112  1.00  0.00     0.037 A 
ATOM     48  C   UNL A   1      45.735  29.618  27.221  1.00  0.00     0.049 A 
ATOM     49  C   UNL A   1      41.110  31.247  29.916  1.00  0.00     0.074 A 
ATOM     50  C   UNL A   1      46.720  30.572  27.035  1.00  0.00     0.029 A 
ATOM     51  N   UNL A   1      44.704  30.236  27.912  1.00  0.00    -0.354 N 
ATOM     52  N   UNL A   1      42.243  31.021  29.296  1.00  0.00    -0.248 NA
ATOM     53  C   UNL A   1      40.998  32.601  30.482  1.00  0.00     0.031 C 
ATOM     54  C   UNL A   1      46.303  31.756  27.653  1.00  0.00     0.029 A 
ATOM     55  C   UNL A   1      45.041  31.552  28.185  1.00  0.00     0.049 A 
ATOM     56  H   UNL A   1      43.858  29.804  28.170  1.00  0.00     0.167 HD
ATOM     57  C   UNL A   1      42.965  32.205  29.374  1.00  0.00     0.074 A 
ATOM     58  C   UNL A   1      42.138  33.154  30.090  1.00  0.00     0.031 C 
ATOM     59  C   UNL A   1      44.203  32.483  28.895  1.00  0.00     0.037 A 
BRANCH  46  60
ATOM     60  C   UNL A   1      46.951  27.702  26.121  1.00  0.00     0.064 A 
ATOM     61  C   UNL A   1      48.026  27.164  26.844  1.00  0.00     0.173 A 
ATOM     62  C   UNL A   1      47.031  27.697  24.721  1.00  0.00     0.173 A 
ATOM     63  F   UNL A   1      48.002  27.158  28.186  1.00  0.00    -0.203 F 
ATOM     64  C   UNL A   1      49.147  26.660  26.190  1.00  0.00     0.198 A 
ATOM     65  C   UNL A   1      48.143  27.171  24.069  1.00  0.00     0.198 A 
ATOM     66  F   UNL A   1      46.028  28.197  23.985  1.00  0.00    -0.203 F 
ATOM     67  F   UNL A   1      50.180  26.186  26.901  1.00  0.00    -0.200 F 
ATOM     68  C   UNL A   1      49.203  26.659  24.804  1.00  0.00     0.200 A 
ATOM     69  F   UNL A   1      48.192  27.162  22.730  1.00  0.00    -0.200 F 
ATOM     70  F   UNL A   1      50.281  26.169  24.176  1.00  0.00    -0.200 F 
ENDBRANCH  46  60
BRANCH  47  71
ATOM     71  C   UNL A   1      38.717  30.798  30.826  1.00  0.00     0.064 A 
ATOM     72  C   UNL A   1      37.634  31.351  30.128  1.00  0.00     0.173 A 
ATOM     73  C   UNL A   1      38.621  30.716  32.223  1.00  0.00     0.173 A 
ATOM     74  F   UNL A   1      37.690  31.473  28.795  1.00  0.00    -0.203 F 
ATOM     75  C   UNL A   1      36.508  31.820  30.803  1.00  0.00     0.198 A 
ATOM     76  C   UNL A   1      37.484  31.162  32.894  1.00  0.00     0.198 A 
ATOM     77  F   UNL A   1      39.630  30.196  32.936  1.00  0.00    -0.203 F 
ATOM     78  F   UNL A   1      35.506  32.383  30.116  1.00  0.00    -0.200 F 
ATOM     79  C   UNL A   1      36.432  31.720  32.184  1.00  0.00     0.200 A 
ATOM     80  F   UNL A   1      37.410  31.053  34.227  1.00  0.00    -0.200 F 
ATOM     81  F   UNL A   1      35.348  32.167  32.832  1.00  0.00    -0.200 F 
ENDBRANCH  47  71
BRANCH  59  82
ATOM     82  C   UNL A   1      44.730  33.872  29.109  1.00  0.00     0.064 A 
ATOM     83  C   UNL A   1      45.474  34.206  30.250  1.00  0.00     0.173 A 
ATOM     84  C   UNL A   1      44.528  34.866  28.140  1.00  0.00     0.173 A 
ATOM     85  F   UNL A   1      45.682  33.293  31.211  1.00  0.00    -0.203 F 
ATOM     86  C   UNL A   1      45.980  35.492  30.423  1.00  0.00     0.198 A 
ATOM     87  C   UNL A   1      45.056  36.144  28.304  1.00  0.00     0.198 A 
ATOM     88  F   UNL A   1      43.828  34.594  27.029  1.00  0.00    -0.203 F 
ATOM     89  F   UNL A   1      46.654  35.800  31.539  1.00  0.00    -0.200 F 
ATOM     90  C   UNL A   1      45.776  36.457  29.448  1.00  0.00     0.200 A 
ATOM     91  F   UNL A   1      44.869  37.072  27.356  1.00  0.00    -0.200 F 
ATOM     92  F   UNL A   1      46.269  37.692  29.612  1.00  0.00    -0.200 F 
ENDBRANCH  59  82
ENDBRANCH  33  34
ENDBRANCH  26  28
ENDBRANCH  25  26
ENDBRANCH  24  25
ENDBRANCH  23  24
ENDBRANCH  22  23
ENDBRANCH   1  22
TORSDOF 18
ENDMDL
