MODEL 1
REMARK VINA RESULT:     -12.4      0.000      0.000
REMARK SMILES Cc1c(NC(=O)c2ccc(Br)cc2N)cccc1C(=O)OCCOCCOC(=O)c1ccc(-c2c3nc(c(-c4c(F)c(F)c(F)c(F)c4F)c4ccc([nH]4)c(-c4c(F)c(F)c(F)c(F)c4F)c4nc(c(-c5c(F)c(F)c(F)c(F)c5F)c5ccc2[nH]5)C=C4)C=C3)cc1
REMARK SMILES IDX 23 1 22 2 21 3 19 4 20 5 18 6 1 7 2 8 3 9 15 10 17 11 16 12
REMARK SMILES IDX 4 13 5 14 6 16 7 17 8 18 13 19 9 20 12 21 10 22 11 23 14 24
REMARK SMILES IDX 24 27 25 28 26 29 27 30 28 31 29 32 30 33 31 34 92 35 32 36
REMARK SMILES IDX 91 37 33 38 34 39 35 40 85 41 36 42 90 43 84 44 86 45 37 46
REMARK SMILES IDX 89 47 83 48 82 49 38 51 70 52 50 53 69 54 51 55 54 56 68 57
REMARK SMILES IDX 87 58 52 59 53 60 67 62 88 63 55 64 39 65 40 66 48 67 41 68
REMARK SMILES IDX 42 69 46 70 49 71 43 72 44 73 47 74 45 75 71 76 72 77 80 78
REMARK SMILES IDX 73 79 74 80 78 81 81 82 75 83 76 84 79 85 77 86 56 87 57 88
REMARK SMILES IDX 65 89 58 90 59 91 63 92 66 93 60 94 61 95 64 96 62 97
REMARK H PARENT 4 15 14 25 14 26 86 50 54 61
REMARK Flexibility Score: inf
ROOT
ATOM      1  C   UNL A   1      40.107  21.051  26.548  1.00  0.00     0.202 C 
ENDROOT
BRANCH   1   2
ATOM      2  C   UNL A   1      38.986  21.289  25.599  1.00  0.00     0.261 C 
BRANCH   2   3
ATOM      3  O   UNL A   1      37.944  22.041  26.231  1.00  0.00    -0.460 OA
BRANCH   3   4
ATOM      4  C   UNL A   1      37.706  23.340  25.980  1.00  0.00     0.338 C 
ATOM      5  O   UNL A   1      38.358  24.296  26.331  1.00  0.00    -0.246 OA
BRANCH   4   6
ATOM      6  C   UNL A   1      36.511  23.379  25.087  1.00  0.00     0.065 A 
ATOM      7  C   UNL A   1      34.656  23.243  26.950  1.00  0.00     0.047 C 
ATOM      8  C   UNL A   1      35.157  23.323  25.515  1.00  0.00    -0.013 A 
ATOM      9  C   UNL A   1      34.159  23.263  24.515  1.00  0.00     0.045 A 
ATOM     10  C   UNL A   1      34.488  23.234  23.155  1.00  0.00     0.026 A 
ATOM     11  C   UNL A   1      36.822  23.360  23.712  1.00  0.00     0.016 A 
ATOM     12  C   UNL A   1      35.819  23.276  22.753  1.00  0.00     0.003 A 
BRANCH   9  13
ATOM     13  N   UNL A   1      32.827  23.192  24.950  1.00  0.00    -0.322 N 
ATOM     14  C   UNL A   1      31.976  22.122  25.045  1.00  0.00     0.257 C 
ATOM     15  H   UNL A   1      32.440  24.052  25.232  1.00  0.00     0.170 HD
ATOM     16  O   UNL A   1      30.820  22.315  25.426  1.00  0.00    -0.269 OA
BRANCH  14  17
ATOM     17  C   UNL A   1      32.414  20.746  24.731  1.00  0.00     0.063 A 
ATOM     18  C   UNL A   1      32.110  20.331  23.426  1.00  0.00     0.017 A 
ATOM     19  C   UNL A   1      33.098  19.892  25.623  1.00  0.00     0.045 A 
ATOM     20  C   UNL A   1      32.516  19.080  22.977  1.00  0.00     0.016 A 
ATOM     21  C   UNL A   1      33.501  18.637  25.146  1.00  0.00     0.042 A 
ATOM     22  C   UNL A   1      33.224  18.245  23.835  1.00  0.00     0.020 A 
ATOM     23  Br  UNL A   1      33.796  16.552  23.224  1.00  0.00    -0.051 Br
BRANCH  19  24
ATOM     24  N   UNL A   1      33.279  20.157  26.980  1.00  0.00    -0.398 N 
ATOM     25  H   UNL A   1      34.091  19.843  27.438  1.00  0.00     0.156 HD
ATOM     26  H   UNL A   1      32.594  20.658  27.479  1.00  0.00     0.156 HD
ENDBRANCH  19  24
ENDBRANCH  14  17
ENDBRANCH   9  13
ENDBRANCH   4   6
ENDBRANCH   3   4
ENDBRANCH   2   3
ENDBRANCH   1   2
BRANCH   1  27
ATOM     27  O   UNL A   1      40.716  19.867  26.068  1.00  0.00    -0.374 OA
BRANCH  27  28
ATOM     28  C   UNL A   1      41.838  19.422  26.792  1.00  0.00     0.202 C 
BRANCH  28  29
ATOM     29  C   UNL A   1      43.059  19.205  25.889  1.00  0.00     0.261 C 
BRANCH  29  30
ATOM     30  O   UNL A   1      43.209  20.344  25.010  1.00  0.00    -0.460 OA
BRANCH  30  31
ATOM     31  C   UNL A   1      44.117  21.292  25.380  1.00  0.00     0.338 C 
ATOM     32  O   UNL A   1      45.283  21.079  25.667  1.00  0.00    -0.246 OA
BRANCH  31  33
ATOM     33  C   UNL A   1      43.414  22.578  25.683  1.00  0.00     0.060 A 
ATOM     34  C   UNL A   1      43.445  23.644  24.757  1.00  0.00     0.016 A 
ATOM     35  C   UNL A   1      43.045  22.827  27.002  1.00  0.00     0.016 A 
ATOM     36  C   UNL A   1      43.273  24.972  25.191  1.00  0.00     0.010 A 
ATOM     37  C   UNL A   1      42.988  24.134  27.439  1.00  0.00     0.010 A 
ATOM     38  C   UNL A   1      43.142  25.220  26.555  1.00  0.00    -0.014 A 
BRANCH  38  39
ATOM     39  C   UNL A   1      43.289  26.515  27.238  1.00  0.00     0.031 A 
ATOM     40  C   UNL A   1      42.043  27.249  27.569  1.00  0.00     0.074 A 
ATOM     41  C   UNL A   1      44.451  26.861  27.858  1.00  0.00     0.049 A 
ATOM     42  N   UNL A   1      42.028  28.392  28.152  1.00  0.00    -0.248 NA
ATOM     43  C   UNL A   1      40.695  26.779  27.246  1.00  0.00     0.031 C 
ATOM     44  C   UNL A   1      44.629  27.711  29.043  1.00  0.00     0.029 A 
ATOM     45  N   UNL A   1      45.770  26.472  27.578  1.00  0.00    -0.354 N 
ATOM     46  C   UNL A   1      40.748  28.637  28.580  1.00  0.00     0.074 A 
ATOM     47  C   UNL A   1      39.936  27.681  27.878  1.00  0.00     0.031 C 
ATOM     48  C   UNL A   1      45.930  28.014  29.201  1.00  0.00     0.029 A 
ATOM     49  C   UNL A   1      46.638  27.468  28.059  1.00  0.00     0.049 A 
ATOM     50  H   UNL A   1      46.041  25.643  27.123  1.00  0.00     0.167 HD
ATOM     51  C   UNL A   1      40.583  29.559  29.569  1.00  0.00     0.037 A 
ATOM     52  C   UNL A   1      47.490  28.109  27.217  1.00  0.00     0.037 A 
ATOM     53  C   UNL A   1      41.849  30.273  29.805  1.00  0.00     0.049 A 
ATOM     54  C   UNL A   1      47.043  29.536  27.148  1.00  0.00     0.074 A 
ATOM     55  C   UNL A   1      42.781  30.269  30.828  1.00  0.00     0.029 A 
ATOM     56  N   UNL A   1      42.467  30.905  28.721  1.00  0.00    -0.354 N 
ATOM     57  N   UNL A   1      45.810  29.882  27.409  1.00  0.00    -0.248 NA
ATOM     58  C   UNL A   1      47.927  30.678  26.961  1.00  0.00     0.031 C 
ATOM     59  C   UNL A   1      43.996  30.814  30.306  1.00  0.00     0.029 A 
ATOM     60  C   UNL A   1      43.793  31.188  28.984  1.00  0.00     0.049 A 
ATOM     61  H   UNL A   1      42.012  31.122  27.876  1.00  0.00     0.167 HD
ATOM     62  C   UNL A   1      45.750  31.228  27.566  1.00  0.00     0.074 A 
ATOM     63  C   UNL A   1      47.081  31.694  27.213  1.00  0.00     0.031 C 
ATOM     64  C   UNL A   1      44.627  31.867  27.992  1.00  0.00     0.037 A 
BRANCH  51  65
ATOM     65  C   UNL A   1      39.340  29.747  30.419  1.00  0.00     0.064 A 
ATOM     66  C   UNL A   1      38.532  30.891  30.240  1.00  0.00     0.173 A 
ATOM     67  C   UNL A   1      38.921  28.900  31.470  1.00  0.00     0.173 A 
ATOM     68  F   UNL A   1      38.820  31.803  29.301  1.00  0.00    -0.203 F 
ATOM     69  C   UNL A   1      37.404  31.152  31.029  1.00  0.00     0.198 A 
ATOM     70  C   UNL A   1      37.767  29.135  32.224  1.00  0.00     0.198 A 
ATOM     71  F   UNL A   1      39.633  27.839  31.860  1.00  0.00    -0.203 F 
ATOM     72  F   UNL A   1      36.703  32.279  30.837  1.00  0.00    -0.200 F 
ATOM     73  C   UNL A   1      37.011  30.266  32.010  1.00  0.00     0.200 A 
ATOM     74  F   UNL A   1      37.408  28.263  33.178  1.00  0.00    -0.200 F 
ATOM     75  F   UNL A   1      35.925  30.506  32.756  1.00  0.00    -0.200 F 
ENDBRANCH  51  65
BRANCH  52  76
ATOM     76  C   UNL A   1      48.006  27.184  26.164  1.00  0.00     0.064 A 
ATOM     77  C   UNL A   1      47.562  27.454  24.846  1.00  0.00     0.173 A 
ATOM     78  C   UNL A   1      49.236  26.524  26.297  1.00  0.00     0.173 A 
ATOM     79  F   UNL A   1      46.407  28.112  24.652  1.00  0.00    -0.203 F 
ATOM     80  C   UNL A   1      48.379  27.227  23.738  1.00  0.00     0.198 A 
ATOM     81  C   UNL A   1      50.052  26.298  25.178  1.00  0.00     0.198 A 
ATOM     82  F   UNL A   1      49.729  26.253  27.513  1.00  0.00    -0.203 F 
ATOM     83  F   UNL A   1      48.002  27.670  22.529  1.00  0.00    -0.200 F 
ATOM     84  C   UNL A   1      49.642  26.688  23.911  1.00  0.00     0.200 A 
ATOM     85  F   UNL A   1      51.292  25.814  25.342  1.00  0.00    -0.200 F 
ATOM     86  F   UNL A   1      50.492  26.632  22.876  1.00  0.00    -0.200 F 
ENDBRANCH  52  76
BRANCH  64  87
ATOM     87  C   UNL A   1      44.279  33.241  27.503  1.00  0.00     0.064 A 
ATOM     88  C   UNL A   1      43.896  33.500  26.172  1.00  0.00     0.173 A 
ATOM     89  C   UNL A   1      44.129  34.316  28.404  1.00  0.00     0.173 A 
ATOM     90  F   UNL A   1      43.841  32.528  25.250  1.00  0.00    -0.203 F 
ATOM     91  C   UNL A   1      43.496  34.764  25.753  1.00  0.00     0.198 A 
ATOM     92  C   UNL A   1      43.650  35.557  27.996  1.00  0.00     0.198 A 
ATOM     93  F   UNL A   1      44.399  34.186  29.711  1.00  0.00    -0.203 F 
ATOM     94  F   UNL A   1      43.210  34.970  24.461  1.00  0.00    -0.200 F 
ATOM     95  C   UNL A   1      43.363  35.789  26.667  1.00  0.00     0.200 A 
ATOM     96  F   UNL A   1      43.445  36.518  28.907  1.00  0.00    -0.200 F 
ATOM     97  F   UNL A   1      42.935  36.994  26.269  1.00  0.00    -0.200 F 
ENDBRANCH  64  87
ENDBRANCH  38  39
ENDBRANCH  31  33
ENDBRANCH  30  31
ENDBRANCH  29  30
ENDBRANCH  28  29
ENDBRANCH  27  28
ENDBRANCH   1  27
TORSDOF 17
ENDMDL
MODEL 2
REMARK VINA RESULT:     -12.3      4.363      9.764
REMARK SMILES Cc1c(NC(=O)c2ccc(Br)cc2N)cccc1C(=O)OCCOCCOC(=O)c1ccc(-c2c3nc(c(-c4c(F)c(F)c(F)c(F)c4F)c4ccc([nH]4)c(-c4c(F)c(F)c(F)c(F)c4F)c4nc(c(-c5c(F)c(F)c(F)c(F)c5F)c5ccc2[nH]5)C=C4)C=C3)cc1
REMARK SMILES IDX 23 1 22 2 21 3 19 4 20 5 18 6 1 7 2 8 3 9 15 10 17 11 16 12
REMARK SMILES IDX 4 13 5 14 6 16 7 17 8 18 13 19 9 20 12 21 10 22 11 23 14 24
REMARK SMILES IDX 24 27 25 28 26 29 27 30 28 31 29 32 30 33 31 34 92 35 32 36
REMARK SMILES IDX 91 37 33 38 34 39 35 40 85 41 36 42 90 43 84 44 86 45 37 46
REMARK SMILES IDX 89 47 83 48 82 49 38 51 70 52 50 53 69 54 51 55 54 56 68 57
REMARK SMILES IDX 87 58 52 59 53 60 67 62 88 63 55 64 39 65 40 66 48 67 41 68
REMARK SMILES IDX 42 69 46 70 49 71 43 72 44 73 47 74 45 75 71 76 72 77 80 78
REMARK SMILES IDX 73 79 74 80 78 81 81 82 75 83 76 84 79 85 77 86 56 87 57 88
REMARK SMILES IDX 65 89 58 90 59 91 63 92 66 93 60 94 61 95 64 96 62 97
REMARK H PARENT 4 15 14 25 14 26 86 50 54 61
REMARK Flexibility Score: inf
ROOT
ATOM      1  C   UNL A   1      33.274  29.040  24.899  1.00  0.00     0.202 C 
ENDROOT
BRANCH   1   2
ATOM      2  C   UNL A   1      31.821  28.980  24.584  1.00  0.00     0.261 C 
BRANCH   2   3
ATOM      3  O   UNL A   1      31.610  29.040  23.169  1.00  0.00    -0.460 OA
BRANCH   3   4
ATOM      4  C   UNL A   1      30.618  28.392  22.535  1.00  0.00     0.338 C 
ATOM      5  O   UNL A   1      29.643  28.868  22.001  1.00  0.00    -0.246 OA
BRANCH   4   6
ATOM      6  C   UNL A   1      31.000  26.950  22.529  1.00  0.00     0.065 A 
ATOM      7  C   UNL A   1      29.563  26.183  24.597  1.00  0.00     0.047 C 
ATOM      8  C   UNL A   1      30.543  25.971  23.452  1.00  0.00    -0.013 A 
ATOM      9  C   UNL A   1      31.099  24.674  23.355  1.00  0.00     0.045 A 
ATOM     10  C   UNL A   1      32.081  24.369  22.406  1.00  0.00     0.026 A 
ATOM     11  C   UNL A   1      31.982  26.620  21.572  1.00  0.00     0.016 A 
ATOM     12  C   UNL A   1      32.528  25.342  21.519  1.00  0.00     0.003 A 
BRANCH   9  13
ATOM     13  N   UNL A   1      30.653  23.719  24.282  1.00  0.00    -0.322 N 
ATOM     14  C   UNL A   1      31.343  22.986  25.210  1.00  0.00     0.257 C 
ATOM     15  H   UNL A   1      29.683  23.549  24.261  1.00  0.00     0.170 HD
ATOM     16  O   UNL A   1      30.729  22.168  25.897  1.00  0.00    -0.269 OA
BRANCH  14  17
ATOM     17  C   UNL A   1      32.794  23.167  25.425  1.00  0.00     0.063 A 
ATOM     18  C   UNL A   1      33.566  22.036  25.123  1.00  0.00     0.017 A 
ATOM     19  C   UNL A   1      33.401  24.360  25.876  1.00  0.00     0.045 A 
ATOM     20  C   UNL A   1      34.951  22.085  25.224  1.00  0.00     0.016 A 
ATOM     21  C   UNL A   1      34.800  24.387  25.967  1.00  0.00     0.042 A 
ATOM     22  C   UNL A   1      35.562  23.267  25.630  1.00  0.00     0.020 A 
ATOM     23  Br  UNL A   1      37.446  23.347  25.751  1.00  0.00    -0.051 Br
BRANCH  19  24
ATOM     24  N   UNL A   1      32.700  25.461  26.365  1.00  0.00    -0.398 N 
ATOM     25  H   UNL A   1      33.154  26.117  26.942  1.00  0.00     0.156 HD
ATOM     26  H   UNL A   1      31.751  25.584  26.133  1.00  0.00     0.156 HD
ENDBRANCH  19  24
ENDBRANCH  14  17
ENDBRANCH   9  13
ENDBRANCH   4   6
ENDBRANCH   3   4
ENDBRANCH   2   3
ENDBRANCH   1   2
BRANCH   1  27
ATOM     27  O   UNL A   1      33.334  28.785  26.290  1.00  0.00    -0.374 OA
BRANCH  27  28
ATOM     28  C   UNL A   1      32.571  29.647  27.101  1.00  0.00     0.202 C 
BRANCH  28  29
ATOM     29  C   UNL A   1      33.151  31.066  27.141  1.00  0.00     0.261 C 
BRANCH  29  30
ATOM     30  O   UNL A   1      33.973  31.211  28.322  1.00  0.00    -0.460 OA
BRANCH  30  31
ATOM     31  C   UNL A   1      35.281  31.545  28.125  1.00  0.00     0.338 C 
ATOM     32  O   UNL A   1      35.676  32.585  27.626  1.00  0.00    -0.246 OA
BRANCH  31  33
ATOM     33  C   UNL A   1      36.147  30.339  28.320  1.00  0.00     0.060 A 
ATOM     34  C   UNL A   1      36.216  29.705  29.579  1.00  0.00     0.016 A 
ATOM     35  C   UNL A   1      37.129  30.080  27.367  1.00  0.00     0.016 A 
ATOM     36  C   UNL A   1      37.349  28.951  29.939  1.00  0.00     0.010 A 
ATOM     37  C   UNL A   1      38.282  29.435  27.763  1.00  0.00     0.010 A 
ATOM     38  C   UNL A   1      38.427  28.900  29.059  1.00  0.00    -0.014 A 
BRANCH  38  39
ATOM     39  C   UNL A   1      39.800  28.470  29.364  1.00  0.00     0.031 A 
ATOM     40  C   UNL A   1      40.181  27.093  28.964  1.00  0.00     0.074 A 
ATOM     41  C   UNL A   1      40.777  29.372  29.658  1.00  0.00     0.049 A 
ATOM     42  N   UNL A   1      41.340  26.587  29.180  1.00  0.00    -0.248 NA
ATOM     43  C   UNL A   1      39.279  26.143  28.309  1.00  0.00     0.031 C 
ATOM     44  C   UNL A   1      42.217  29.272  29.384  1.00  0.00     0.029 A 
ATOM     45  N   UNL A   1      40.680  30.642  30.246  1.00  0.00    -0.354 N 
ATOM     46  C   UNL A   1      41.456  25.446  28.428  1.00  0.00     0.074 A 
ATOM     47  C   UNL A   1      40.113  25.139  28.017  1.00  0.00     0.031 C 
ATOM     48  C   UNL A   1      42.880  30.243  30.040  1.00  0.00     0.029 A 
ATOM     49  C   UNL A   1      41.909  30.943  30.860  1.00  0.00     0.049 A 
ATOM     50  H   UNL A   1      39.887  31.225  30.232  1.00  0.00     0.167 HD
ATOM     51  C   UNL A   1      42.714  24.989  28.172  1.00  0.00     0.037 A 
ATOM     52  C   UNL A   1      41.972  31.205  32.191  1.00  0.00     0.037 A 
ATOM     53  C   UNL A   1      43.692  25.732  28.984  1.00  0.00     0.049 A 
ATOM     54  C   UNL A   1      42.745  30.087  32.819  1.00  0.00     0.074 A 
ATOM     55  C   UNL A   1      44.657  26.680  28.699  1.00  0.00     0.029 A 
ATOM     56  N   UNL A   1      43.516  25.763  30.371  1.00  0.00    -0.354 N 
ATOM     57  N   UNL A   1      42.823  28.908  32.260  1.00  0.00    -0.248 NA
ATOM     58  C   UNL A   1      43.607  30.222  33.986  1.00  0.00     0.031 C 
ATOM     59  C   UNL A   1      44.980  27.348  29.922  1.00  0.00     0.029 A 
ATOM     60  C   UNL A   1      44.245  26.780  30.955  1.00  0.00     0.049 A 
ATOM     61  H   UNL A   1      42.944  25.136  30.869  1.00  0.00     0.167 HD
ATOM     62  C   UNL A   1      43.805  28.195  32.865  1.00  0.00     0.074 A 
ATOM     63  C   UNL A   1      44.226  29.027  33.980  1.00  0.00     0.031 C 
ATOM     64  C   UNL A   1      44.223  26.985  32.403  1.00  0.00     0.037 A 
BRANCH  51  65
ATOM     65  C   UNL A   1      43.098  23.974  27.111  1.00  0.00     0.064 A 
ATOM     66  C   UNL A   1      42.749  22.616  27.278  1.00  0.00     0.173 A 
ATOM     67  C   UNL A   1      43.866  24.238  25.954  1.00  0.00     0.173 A 
ATOM     68  F   UNL A   1      42.046  22.207  28.344  1.00  0.00    -0.203 F 
ATOM     69  C   UNL A   1      43.122  21.621  26.365  1.00  0.00     0.198 A 
ATOM     70  C   UNL A   1      44.195  23.252  25.017  1.00  0.00     0.198 A 
ATOM     71  F   UNL A   1      44.385  25.441  25.700  1.00  0.00    -0.203 F 
ATOM     72  F   UNL A   1      42.795  20.343  26.603  1.00  0.00    -0.200 F 
ATOM     73  C   UNL A   1      43.829  21.941  25.225  1.00  0.00     0.200 A 
ATOM     74  F   UNL A   1      44.891  23.586  23.920  1.00  0.00    -0.200 F 
ATOM     75  F   UNL A   1      44.175  20.994  24.344  1.00  0.00    -0.200 F 
ENDBRANCH  51  65
BRANCH  52  76
ATOM     76  C   UNL A   1      40.763  31.950  32.653  1.00  0.00     0.064 A 
ATOM     77  C   UNL A   1      40.613  33.256  32.127  1.00  0.00     0.173 A 
ATOM     78  C   UNL A   1      39.591  31.286  33.048  1.00  0.00     0.173 A 
ATOM     79  F   UNL A   1      41.693  33.931  31.701  1.00  0.00    -0.203 F 
ATOM     80  C   UNL A   1      39.356  33.796  31.856  1.00  0.00     0.198 A 
ATOM     81  C   UNL A   1      38.331  31.836  32.774  1.00  0.00     0.198 A 
ATOM     82  F   UNL A   1      39.653  30.041  33.538  1.00  0.00    -0.203 F 
ATOM     83  F   UNL A   1      39.257  34.952  31.182  1.00  0.00    -0.200 F 
ATOM     84  C   UNL A   1      38.216  33.066  32.141  1.00  0.00     0.200 A 
ATOM     85  F   UNL A   1      37.222  31.118  33.010  1.00  0.00    -0.200 F 
ATOM     86  F   UNL A   1      37.019  33.505  31.724  1.00  0.00    -0.200 F 
ENDBRANCH  52  76
BRANCH  64  87
ATOM     87  C   UNL A   1      44.693  25.912  33.340  1.00  0.00     0.064 A 
ATOM     88  C   UNL A   1      43.823  25.231  34.213  1.00  0.00     0.173 A 
ATOM     89  C   UNL A   1      46.004  25.397  33.254  1.00  0.00     0.173 A 
ATOM     90  F   UNL A   1      42.514  25.517  34.273  1.00  0.00    -0.203 F 
ATOM     91  C   UNL A   1      44.258  24.182  35.016  1.00  0.00     0.198 A 
ATOM     92  C   UNL A   1      46.411  24.295  33.999  1.00  0.00     0.198 A 
ATOM     93  F   UNL A   1      46.914  25.915  32.417  1.00  0.00    -0.203 F 
ATOM     94  F   UNL A   1      43.404  23.615  35.879  1.00  0.00    -0.200 F 
ATOM     95  C   UNL A   1      45.548  23.708  34.901  1.00  0.00     0.200 A 
ATOM     96  F   UNL A   1      47.639  23.792  33.818  1.00  0.00    -0.200 F 
ATOM     97  F   UNL A   1      45.952  22.670  35.644  1.00  0.00    -0.200 F 
ENDBRANCH  64  87
ENDBRANCH  38  39
ENDBRANCH  31  33
ENDBRANCH  30  31
ENDBRANCH  29  30
ENDBRANCH  28  29
ENDBRANCH  27  28
ENDBRANCH   1  27
TORSDOF 17
ENDMDL
MODEL 3
REMARK VINA RESULT:     -12.1      5.079     10.961
REMARK SMILES Cc1c(NC(=O)c2ccc(Br)cc2N)cccc1C(=O)OCCOCCOC(=O)c1ccc(-c2c3nc(c(-c4c(F)c(F)c(F)c(F)c4F)c4ccc([nH]4)c(-c4c(F)c(F)c(F)c(F)c4F)c4nc(c(-c5c(F)c(F)c(F)c(F)c5F)c5ccc2[nH]5)C=C4)C=C3)cc1
REMARK SMILES IDX 23 1 22 2 21 3 19 4 20 5 18 6 1 7 2 8 3 9 15 10 17 11 16 12
REMARK SMILES IDX 4 13 5 14 6 16 7 17 8 18 13 19 9 20 12 21 10 22 11 23 14 24
REMARK SMILES IDX 24 27 25 28 26 29 27 30 28 31 29 32 30 33 31 34 92 35 32 36
REMARK SMILES IDX 91 37 33 38 34 39 35 40 85 41 36 42 90 43 84 44 86 45 37 46
REMARK SMILES IDX 89 47 83 48 82 49 38 51 70 52 50 53 69 54 51 55 54 56 68 57
REMARK SMILES IDX 87 58 52 59 53 60 67 62 88 63 55 64 39 65 40 66 48 67 41 68
REMARK SMILES IDX 42 69 46 70 49 71 43 72 44 73 47 74 45 75 71 76 72 77 80 78
REMARK SMILES IDX 73 79 74 80 78 81 81 82 75 83 76 84 79 85 77 86 56 87 57 88
REMARK SMILES IDX 65 89 58 90 59 91 63 92 66 93 60 94 61 95 64 96 62 97
REMARK H PARENT 4 15 14 25 14 26 86 50 54 61
REMARK Flexibility Score: inf
ROOT
ATOM      1  C   UNL A   1      32.005  32.564  26.877  1.00  0.00     0.202 C 
ENDROOT
BRANCH   1   2
ATOM      2  C   UNL A   1      32.855  31.578  27.597  1.00  0.00     0.261 C 
BRANCH   2   3
ATOM      3  O   UNL A   1      32.608  30.253  27.113  1.00  0.00    -0.460 OA
BRANCH   3   4
ATOM      4  C   UNL A   1      33.571  29.438  26.649  1.00  0.00     0.338 C 
ATOM      5  O   UNL A   1      34.761  29.503  26.853  1.00  0.00    -0.246 OA
BRANCH   4   6
ATOM      6  C   UNL A   1      32.873  28.356  25.896  1.00  0.00     0.065 A 
ATOM      7  C   UNL A   1      34.098  28.668  23.587  1.00  0.00     0.047 C 
ATOM      8  C   UNL A   1      33.096  28.022  24.533  1.00  0.00    -0.013 A 
ATOM      9  C   UNL A   1      32.261  27.036  23.958  1.00  0.00     0.045 A 
ATOM     10  C   UNL A   1      31.235  26.429  24.691  1.00  0.00     0.026 A 
ATOM     11  C   UNL A   1      31.841  27.725  26.622  1.00  0.00     0.016 A 
ATOM     12  C   UNL A   1      31.020  26.777  26.020  1.00  0.00     0.003 A 
BRANCH   9  13
ATOM     13  N   UNL A   1      32.480  26.726  22.607  1.00  0.00    -0.322 N 
ATOM     14  C   UNL A   1      32.957  25.583  22.020  1.00  0.00     0.257 C 
ATOM     15  H   UNL A   1      32.254  27.448  21.978  1.00  0.00     0.170 HD
ATOM     16  O   UNL A   1      33.100  25.559  20.797  1.00  0.00    -0.269 OA
BRANCH  14  17
ATOM     17  C   UNL A   1      33.277  24.376  22.810  1.00  0.00     0.063 A 
ATOM     18  C   UNL A   1      34.628  24.268  23.171  1.00  0.00     0.017 A 
ATOM     19  C   UNL A   1      32.340  23.397  23.206  1.00  0.00     0.045 A 
ATOM     20  C   UNL A   1      35.058  23.212  23.965  1.00  0.00     0.016 A 
ATOM     21  C   UNL A   1      32.796  22.343  24.009  1.00  0.00     0.042 A 
ATOM     22  C   UNL A   1      34.136  22.263  24.394  1.00  0.00     0.020 A 
ATOM     23  Br  UNL A   1      34.711  20.834  25.489  1.00  0.00    -0.051 Br
BRANCH  19  24
ATOM     24  N   UNL A   1      31.026  23.335  22.743  1.00  0.00    -0.398 N 
ATOM     25  H   UNL A   1      30.841  23.412  21.779  1.00  0.00     0.156 HD
ATOM     26  H   UNL A   1      30.285  23.215  23.379  1.00  0.00     0.156 HD
ENDBRANCH  19  24
ENDBRANCH  14  17
ENDBRANCH   9  13
ENDBRANCH   4   6
ENDBRANCH   3   4
ENDBRANCH   2   3
ENDBRANCH   1   2
BRANCH   1  27
ATOM     27  O   UNL A   1      32.145  33.753  27.631  1.00  0.00    -0.374 OA
BRANCH  27  28
ATOM     28  C   UNL A   1      33.458  34.077  28.022  1.00  0.00     0.202 C 
BRANCH  28  29
ATOM     29  C   UNL A   1      33.484  35.076  29.185  1.00  0.00     0.261 C 
BRANCH  29  30
ATOM     30  O   UNL A   1      33.332  34.360  30.432  1.00  0.00    -0.460 OA
BRANCH  30  31
ATOM     31  C   UNL A   1      34.409  34.342  31.267  1.00  0.00     0.338 C 
ATOM     32  O   UNL A   1      34.815  35.290  31.918  1.00  0.00    -0.246 OA
BRANCH  31  33
ATOM     33  C   UNL A   1      35.205  33.094  31.043  1.00  0.00     0.060 A 
ATOM     34  C   UNL A   1      35.155  32.036  31.977  1.00  0.00     0.016 A 
ATOM     35  C   UNL A   1      36.240  33.137  30.112  1.00  0.00     0.016 A 
ATOM     36  C   UNL A   1      36.225  31.128  32.086  1.00  0.00     0.010 A 
ATOM     37  C   UNL A   1      37.332  32.315  30.297  1.00  0.00     0.010 A 
ATOM     38  C   UNL A   1      37.360  31.332  31.306  1.00  0.00    -0.014 A 
BRANCH  38  39
ATOM     39  C   UNL A   1      38.687  30.727  31.497  1.00  0.00     0.031 A 
ATOM     40  C   UNL A   1      39.008  29.533  30.678  1.00  0.00     0.074 A 
ATOM     41  C   UNL A   1      39.696  31.409  32.105  1.00  0.00     0.049 A 
ATOM     42  N   UNL A   1      40.123  28.900  30.754  1.00  0.00    -0.248 NA
ATOM     43  C   UNL A   1      38.091  28.916  29.717  1.00  0.00     0.031 C 
ATOM     44  C   UNL A   1      41.141  31.301  31.860  1.00  0.00     0.029 A 
ATOM     45  N   UNL A   1      39.641  32.421  33.075  1.00  0.00    -0.354 N 
ATOM     46  C   UNL A   1      40.214  28.063  29.671  1.00  0.00     0.074 A 
ATOM     47  C   UNL A   1      38.881  28.005  29.138  1.00  0.00     0.031 C 
ATOM     48  C   UNL A   1      41.821  31.952  32.821  1.00  0.00     0.029 A 
ATOM     49  C   UNL A   1      40.849  32.414  33.794  1.00  0.00     0.049 A 
ATOM     50  H   UNL A   1      38.884  33.033  33.227  1.00  0.00     0.167 HD
ATOM     51  C   UNL A   1      41.455  27.624  29.320  1.00  0.00     0.037 A 
ATOM     52  C   UNL A   1      40.854  32.222  35.138  1.00  0.00     0.037 A 
ATOM     53  C   UNL A   1      42.429  27.988  30.364  1.00  0.00     0.049 A 
ATOM     54  C   UNL A   1      41.525  30.908  35.388  1.00  0.00     0.074 A 
ATOM     55  C   UNL A   1      43.462  28.905  30.439  1.00  0.00     0.029 A 
ATOM     56  N   UNL A   1      42.179  27.577  31.677  1.00  0.00    -0.354 N 
ATOM     57  N   UNL A   1      41.566  29.974  34.474  1.00  0.00    -0.248 NA
ATOM     58  C   UNL A   1      42.328  30.590  36.561  1.00  0.00     0.031 C 
ATOM     59  C   UNL A   1      43.755  29.111  31.824  1.00  0.00     0.029 A 
ATOM     60  C   UNL A   1      42.932  28.291  32.587  1.00  0.00     0.049 A 
ATOM     61  H   UNL A   1      41.545  26.865  31.921  1.00  0.00     0.167 HD
ATOM     62  C   UNL A   1      42.470  29.032  34.842  1.00  0.00     0.074 A 
ATOM     63  C   UNL A   1      42.876  29.421  36.182  1.00  0.00     0.031 C 
ATOM     64  C   UNL A   1      42.842  28.013  34.021  1.00  0.00     0.037 A 
BRANCH  51  65
ATOM     65  C   UNL A   1      41.838  26.987  27.998  1.00  0.00     0.064 A 
ATOM     66  C   UNL A   1      41.764  25.585  27.845  1.00  0.00     0.173 A 
ATOM     67  C   UNL A   1      42.354  27.667  26.871  1.00  0.00     0.173 A 
ATOM     68  F   UNL A   1      41.322  24.802  28.840  1.00  0.00    -0.203 F 
ATOM     69  C   UNL A   1      42.156  24.930  26.671  1.00  0.00     0.198 A 
ATOM     70  C   UNL A   1      42.698  27.016  25.681  1.00  0.00     0.198 A 
ATOM     71  F   UNL A   1      42.607  28.978  26.881  1.00  0.00    -0.203 F 
ATOM     72  F   UNL A   1      42.102  23.592  26.605  1.00  0.00    -0.200 F 
ATOM     73  C   UNL A   1      42.606  25.646  25.582  1.00  0.00     0.200 A 
ATOM     74  F   UNL A   1      43.141  27.734  24.637  1.00  0.00    -0.200 F 
ATOM     75  F   UNL A   1      42.968  25.023  24.453  1.00  0.00    -0.200 F 
ENDBRANCH  51  65
BRANCH  52  76
ATOM     76  C   UNL A   1      39.666  32.861  35.780  1.00  0.00     0.064 A 
ATOM     77  C   UNL A   1      38.728  31.967  36.350  1.00  0.00     0.173 A 
ATOM     78  C   UNL A   1      39.723  34.153  36.322  1.00  0.00     0.173 A 
ATOM     79  F   UNL A   1      38.646  30.705  35.897  1.00  0.00    -0.203 F 
ATOM     80  C   UNL A   1      38.011  32.295  37.502  1.00  0.00     0.198 A 
ATOM     81  C   UNL A   1      39.000  34.476  37.479  1.00  0.00     0.198 A 
ATOM     82  F   UNL A   1      40.600  35.047  35.846  1.00  0.00    -0.203 F 
ATOM     83  F   UNL A   1      37.279  31.357  38.122  1.00  0.00    -0.200 F 
ATOM     84  C   UNL A   1      38.182  33.535  38.090  1.00  0.00     0.200 A 
ATOM     85  F   UNL A   1      39.190  35.662  38.078  1.00  0.00    -0.200 F 
ATOM     86  F   UNL A   1      37.633  33.788  39.287  1.00  0.00    -0.200 F 
ENDBRANCH  52  76
BRANCH  64  87
ATOM     87  C   UNL A   1      43.197  26.662  34.567  1.00  0.00     0.064 A 
ATOM     88  C   UNL A   1      42.227  25.741  35.007  1.00  0.00     0.173 A 
ATOM     89  C   UNL A   1      44.517  26.170  34.484  1.00  0.00     0.173 A 
ATOM     90  F   UNL A   1      40.917  26.028  34.984  1.00  0.00    -0.203 F 
ATOM     91  C   UNL A   1      42.565  24.461  35.433  1.00  0.00     0.198 A 
ATOM     92  C   UNL A   1      44.838  24.862  34.834  1.00  0.00     0.198 A 
ATOM     93  F   UNL A   1      45.525  26.923  34.023  1.00  0.00    -0.203 F 
ATOM     94  F   UNL A   1      41.610  23.651  35.908  1.00  0.00    -0.200 F 
ATOM     95  C   UNL A   1      43.868  24.019  35.336  1.00  0.00     0.200 A 
ATOM     96  F   UNL A   1      46.089  24.418  34.657  1.00  0.00    -0.200 F 
ATOM     97  F   UNL A   1      44.184  22.771  35.706  1.00  0.00    -0.200 F 
ENDBRANCH  64  87
ENDBRANCH  38  39
ENDBRANCH  31  33
ENDBRANCH  30  31
ENDBRANCH  29  30
ENDBRANCH  28  29
ENDBRANCH  27  28
ENDBRANCH   1  27
TORSDOF 17
ENDMDL
