MODEL 1
REMARK VINA RESULT:     -11.2      0.000      0.000
REMARK SMILES C[C@@H]1OCC[C@@H]1C#CC(=O)OCCOCCOC(=O)c1ccc(-c2c3nc(c(-c4c(F)c(F)c(F)c(F)c4F)c4ccc([nH]4)c(-c4c(F)c(F)c(F)c(F)c4F)c4nc(c(-c5c(F)c(F)c(F)c(F)c5F)c5ccc2[nH]5)C=C4)C=C3)cc1
REMARK SMILES IDX 15 1 14 2 13 3 12 4 11 5 9 6 10 7 8 8 7 9 6 10 1 11 2 12
REMARK SMILES IDX 3 13 4 14 5 15 16 16 17 17 18 18 19 19 20 20 21 21 82 22
REMARK SMILES IDX 22 23 81 24 23 25 24 26 25 27 75 28 26 29 80 30 74 31 76 32
REMARK SMILES IDX 27 33 79 34 73 35 72 36 28 38 60 39 40 40 59 41 41 42 44 43
REMARK SMILES IDX 58 44 77 45 42 46 43 47 57 49 78 50 45 51 29 52 30 53 38 54
REMARK SMILES IDX 31 55 32 56 36 57 39 58 33 59 34 60 37 61 35 62 61 63 62 64
REMARK SMILES IDX 70 65 63 66 64 67 68 68 71 69 65 70 66 71 69 72 67 73 46 74
REMARK SMILES IDX 47 75 55 76 48 77 49 78 53 79 56 80 50 81 51 82 54 83 52 84
REMARK H PARENT 76 37 44 48
REMARK Flexibility Score: inf
ROOT
ATOM      1  C   UNL A   1      42.328  21.050  26.398  1.00  0.00     0.202 C 
ENDROOT
BRANCH   1   2
ATOM      2  O   UNL A   1      40.982  20.933  25.940  1.00  0.00    -0.374 OA
BRANCH   2   3
ATOM      3  C   UNL A   1      39.939  21.492  26.733  1.00  0.00     0.202 C 
BRANCH   3   4
ATOM      4  C   UNL A   1      38.777  22.172  26.005  1.00  0.00     0.262 C 
BRANCH   4   5
ATOM      5  O   UNL A   1      37.913  21.214  25.388  1.00  0.00    -0.454 OA
BRANCH   5   6
ATOM      6  C   UNL A   1      36.896  21.749  24.664  1.00  0.00     0.384 C 
ATOM      7  O   UNL A   1      36.972  22.647  23.841  1.00  0.00    -0.236 OA
BRANCH   6   8
ATOM      8  C   UNL A   1      35.655  21.058  24.888  1.00  0.00     0.017 C 
ATOM      9  C   UNL A   1      34.581  20.539  25.065  1.00  0.00    -0.085 C 
BRANCH   9  10
ATOM     10  C   UNL A   1      33.263  19.962  25.381  1.00  0.00     0.096 C 
ATOM     11  C   UNL A   1      34.072  17.638  24.518  1.00  0.00     0.040 C 
ATOM     12  C   UNL A   1      32.962  18.677  24.603  1.00  0.00     0.130 C 
ATOM     13  O   UNL A   1      32.545  19.095  23.285  1.00  0.00    -0.377 OA
ATOM     14  C   UNL A   1      32.172  20.483  23.357  1.00  0.00     0.162 C 
ATOM     15  C   UNL A   1      32.175  20.863  24.828  1.00  0.00     0.048 C 
ENDBRANCH   9  10
ENDBRANCH   6   8
ENDBRANCH   5   6
ENDBRANCH   4   5
ENDBRANCH   3   4
ENDBRANCH   2   3
ENDBRANCH   1   2
BRANCH   1  16
ATOM     16  C   UNL A   1      43.346  21.772  25.504  1.00  0.00     0.261 C 
BRANCH  16  17
ATOM     17  O   UNL A   1      42.819  22.952  24.875  1.00  0.00    -0.460 OA
BRANCH  17  18
ATOM     18  C   UNL A   1      43.596  24.055  25.006  1.00  0.00     0.338 C 
ATOM     19  O   UNL A   1      44.623  24.318  24.405  1.00  0.00    -0.246 OA
BRANCH  18  20
ATOM     20  C   UNL A   1      42.925  25.027  25.886  1.00  0.00     0.060 A 
ATOM     21  C   UNL A   1      43.454  26.324  25.966  1.00  0.00     0.016 A 
ATOM     22  C   UNL A   1      41.849  24.646  26.687  1.00  0.00     0.016 A 
ATOM     23  C   UNL A   1      42.933  27.233  26.885  1.00  0.00     0.010 A 
ATOM     24  C   UNL A   1      41.333  25.557  27.610  1.00  0.00     0.010 A 
ATOM     25  C   UNL A   1      41.894  26.842  27.739  1.00  0.00    -0.014 A 
BRANCH  25  26
ATOM     26  C   UNL A   1      41.487  27.705  28.874  1.00  0.00     0.031 A 
ATOM     27  C   UNL A   1      42.244  27.600  30.169  1.00  0.00     0.074 A 
ATOM     28  C   UNL A   1      40.455  28.559  28.759  1.00  0.00     0.049 A 
ATOM     29  N   UNL A   1      41.991  28.152  31.328  1.00  0.00    -0.248 NA
ATOM     30  C   UNL A   1      43.443  26.746  30.157  1.00  0.00     0.031 C 
ATOM     31  C   UNL A   1      39.678  28.787  27.542  1.00  0.00     0.029 A 
ATOM     32  N   UNL A   1      39.872  29.381  29.691  1.00  0.00    -0.354 N 
ATOM     33  C   UNL A   1      42.989  27.703  32.185  1.00  0.00     0.074 A 
ATOM     34  C   UNL A   1      43.829  26.804  31.423  1.00  0.00     0.031 C 
ATOM     35  C   UNL A   1      38.707  29.678  27.808  1.00  0.00     0.029 A 
ATOM     36  C   UNL A   1      38.767  30.046  29.221  1.00  0.00     0.049 A 
ATOM     37  H   UNL A   1      40.215  29.483  30.609  1.00  0.00     0.167 HD
ATOM     38  C   UNL A   1      43.191  28.019  33.486  1.00  0.00     0.037 A 
ATOM     39  C   UNL A   1      37.887  30.834  29.870  1.00  0.00     0.037 A 
ATOM     40  C   UNL A   1      42.350  28.914  34.237  1.00  0.00     0.049 A 
ATOM     41  C   UNL A   1      38.080  31.096  31.344  1.00  0.00     0.074 A 
ATOM     42  C   UNL A   1      42.471  29.306  35.559  1.00  0.00     0.029 A 
ATOM     43  N   UNL A   1      41.227  29.553  33.731  1.00  0.00    -0.354 N 
ATOM     44  N   UNL A   1      39.030  30.679  32.145  1.00  0.00    -0.248 NA
ATOM     45  C   UNL A   1      37.076  31.945  32.003  1.00  0.00     0.031 C 
ATOM     46  C   UNL A   1      41.386  30.131  35.871  1.00  0.00     0.029 A 
ATOM     47  C   UNL A   1      40.632  30.317  34.722  1.00  0.00     0.049 A 
ATOM     48  H   UNL A   1      40.900  29.474  32.806  1.00  0.00     0.167 HD
ATOM     49  C   UNL A   1      38.767  31.251  33.384  1.00  0.00     0.074 A 
ATOM     50  C   UNL A   1      37.570  32.050  33.228  1.00  0.00     0.031 C 
ATOM     51  C   UNL A   1      39.457  31.132  34.545  1.00  0.00     0.037 A 
BRANCH  38  52
ATOM     52  C   UNL A   1      44.352  27.379  34.189  1.00  0.00     0.064 A 
ATOM     53  C   UNL A   1      45.606  28.003  34.267  1.00  0.00     0.173 A 
ATOM     54  C   UNL A   1      44.196  26.143  34.837  1.00  0.00     0.173 A 
ATOM     55  F   UNL A   1      45.813  29.180  33.655  1.00  0.00    -0.203 F 
ATOM     56  C   UNL A   1      46.667  27.404  34.942  1.00  0.00     0.198 A 
ATOM     57  C   UNL A   1      45.248  25.563  35.542  1.00  0.00     0.198 A 
ATOM     58  F   UNL A   1      43.018  25.504  34.801  1.00  0.00    -0.203 F 
ATOM     59  F   UNL A   1      47.869  27.997  34.959  1.00  0.00    -0.200 F 
ATOM     60  C   UNL A   1      46.484  26.189  35.587  1.00  0.00     0.200 A 
ATOM     61  F   UNL A   1      45.064  24.399  36.179  1.00  0.00    -0.200 F 
ATOM     62  F   UNL A   1      47.502  25.620  36.247  1.00  0.00    -0.200 F 
ENDBRANCH  38  52
BRANCH  39  63
ATOM     63  C   UNL A   1      36.730  31.425  29.145  1.00  0.00     0.064 A 
ATOM     64  C   UNL A   1      36.686  32.794  28.850  1.00  0.00     0.173 A 
ATOM     65  C   UNL A   1      35.624  30.645  28.772  1.00  0.00     0.173 A 
ATOM     66  F   UNL A   1      37.708  33.588  29.206  1.00  0.00    -0.203 F 
ATOM     67  C   UNL A   1      35.569  33.367  28.245  1.00  0.00     0.198 A 
ATOM     68  C   UNL A   1      34.523  31.212  28.134  1.00  0.00     0.198 A 
ATOM     69  F   UNL A   1      35.611  29.328  29.029  1.00  0.00    -0.203 F 
ATOM     70  F   UNL A   1      35.529  34.691  28.038  1.00  0.00    -0.200 F 
ATOM     71  C   UNL A   1      34.491  32.576  27.882  1.00  0.00     0.200 A 
ATOM     72  F   UNL A   1      33.491  30.440  27.771  1.00  0.00    -0.200 F 
ATOM     73  F   UNL A   1      33.415  33.128  27.305  1.00  0.00    -0.200 F 
ENDBRANCH  39  63
BRANCH  51  74
ATOM     74  C   UNL A   1      38.990  31.941  35.724  1.00  0.00     0.064 A 
ATOM     75  C   UNL A   1      38.188  31.393  36.735  1.00  0.00     0.173 A 
ATOM     76  C   UNL A   1      39.402  33.276  35.866  1.00  0.00     0.173 A 
ATOM     77  F   UNL A   1      37.755  30.126  36.644  1.00  0.00    -0.203 F 
ATOM     78  C   UNL A   1      37.794  32.159  37.830  1.00  0.00     0.198 A 
ATOM     79  C   UNL A   1      39.038  34.027  36.981  1.00  0.00     0.198 A 
ATOM     80  F   UNL A   1      40.177  33.848  34.933  1.00  0.00    -0.203 F 
ATOM     81  F   UNL A   1      36.984  31.630  38.758  1.00  0.00    -0.200 F 
ATOM     82  C   UNL A   1      38.227  33.470  37.957  1.00  0.00     0.200 A 
ATOM     83  F   UNL A   1      39.475  35.286  37.110  1.00  0.00    -0.200 F 
ATOM     84  F   UNL A   1      37.858  34.200  39.019  1.00  0.00    -0.200 F 
ENDBRANCH  51  74
ENDBRANCH  25  26
ENDBRANCH  18  20
ENDBRANCH  17  18
ENDBRANCH  16  17
ENDBRANCH   1  16
TORSDOF 15
ENDMDL
MODEL 2
REMARK VINA RESULT:     -10.8      1.123      1.894
REMARK SMILES C[C@@H]1OCC[C@@H]1C#CC(=O)OCCOCCOC(=O)c1ccc(-c2c3nc(c(-c4c(F)c(F)c(F)c(F)c4F)c4ccc([nH]4)c(-c4c(F)c(F)c(F)c(F)c4F)c4nc(c(-c5c(F)c(F)c(F)c(F)c5F)c5ccc2[nH]5)C=C4)C=C3)cc1
REMARK SMILES IDX 15 1 14 2 13 3 12 4 11 5 9 6 10 7 8 8 7 9 6 10 1 11 2 12
REMARK SMILES IDX 3 13 4 14 5 15 16 16 17 17 18 18 19 19 20 20 21 21 82 22
REMARK SMILES IDX 22 23 81 24 23 25 24 26 25 27 75 28 26 29 80 30 74 31 76 32
REMARK SMILES IDX 27 33 79 34 73 35 72 36 28 38 60 39 40 40 59 41 41 42 44 43
REMARK SMILES IDX 58 44 77 45 42 46 43 47 57 49 78 50 45 51 29 52 30 53 38 54
REMARK SMILES IDX 31 55 32 56 36 57 39 58 33 59 34 60 37 61 35 62 61 63 62 64
REMARK SMILES IDX 70 65 63 66 64 67 68 68 71 69 65 70 66 71 69 72 67 73 46 74
REMARK SMILES IDX 47 75 55 76 48 77 49 78 53 79 56 80 50 81 51 82 54 83 52 84
REMARK H PARENT 76 37 44 48
REMARK Flexibility Score: inf
ROOT
ATOM      1  C   UNL A   1      42.546  20.540  26.327  1.00  0.00     0.202 C 
ENDROOT
BRANCH   1   2
ATOM      2  O   UNL A   1      41.358  20.111  25.665  1.00  0.00    -0.374 OA
BRANCH   2   3
ATOM      3  C   UNL A   1      40.099  20.392  26.270  1.00  0.00     0.202 C 
BRANCH   3   4
ATOM      4  C   UNL A   1      39.567  21.825  26.175  1.00  0.00     0.262 C 
BRANCH   4   5
ATOM      5  O   UNL A   1      38.191  21.848  25.788  1.00  0.00    -0.454 OA
BRANCH   5   6
ATOM      6  C   UNL A   1      37.623  23.081  25.780  1.00  0.00     0.384 C 
ATOM      7  O   UNL A   1      38.071  24.101  26.281  1.00  0.00    -0.236 OA
BRANCH   6   8
ATOM      8  C   UNL A   1      36.418  23.114  24.996  1.00  0.00     0.017 C 
ATOM      9  C   UNL A   1      35.430  23.082  24.307  1.00  0.00    -0.085 C 
BRANCH   9  10
ATOM     10  C   UNL A   1      34.288  23.071  23.376  1.00  0.00     0.096 C 
ATOM     11  C   UNL A   1      33.911  25.616  23.805  1.00  0.00     0.040 C 
ATOM     12  C   UNL A   1      33.312  24.230  23.600  1.00  0.00     0.130 C 
ATOM     13  O   UNL A   1      32.491  23.851  24.727  1.00  0.00    -0.377 OA
ATOM     14  C   UNL A   1      32.612  22.429  24.905  1.00  0.00     0.162 C 
ATOM     15  C   UNL A   1      33.382  21.900  23.707  1.00  0.00     0.048 C 
ENDBRANCH   9  10
ENDBRANCH   6   8
ENDBRANCH   5   6
ENDBRANCH   4   5
ENDBRANCH   3   4
ENDBRANCH   2   3
ENDBRANCH   1   2
BRANCH   1  16
ATOM     16  C   UNL A   1      43.502  21.482  25.580  1.00  0.00     0.261 C 
BRANCH  16  17
ATOM     17  O   UNL A   1      42.843  22.615  24.991  1.00  0.00    -0.460 OA
BRANCH  17  18
ATOM     18  C   UNL A   1      43.570  23.760  25.004  1.00  0.00     0.338 C 
ATOM     19  O   UNL A   1      44.533  24.038  24.310  1.00  0.00    -0.246 OA
BRANCH  18  20
ATOM     20  C   UNL A   1      42.921  24.744  25.886  1.00  0.00     0.060 A 
ATOM     21  C   UNL A   1      43.366  26.073  25.837  1.00  0.00     0.016 A 
ATOM     22  C   UNL A   1      41.952  24.352  26.809  1.00  0.00     0.016 A 
ATOM     23  C   UNL A   1      42.873  27.007  26.747  1.00  0.00     0.010 A 
ATOM     24  C   UNL A   1      41.464  25.287  27.722  1.00  0.00     0.010 A 
ATOM     25  C   UNL A   1      41.947  26.610  27.719  1.00  0.00    -0.014 A 
BRANCH  25  26
ATOM     26  C   UNL A   1      41.591  27.519  28.835  1.00  0.00     0.031 A 
ATOM     27  C   UNL A   1      42.388  27.449  30.108  1.00  0.00     0.074 A 
ATOM     28  C   UNL A   1      40.568  28.386  28.723  1.00  0.00     0.049 A 
ATOM     29  N   UNL A   1      42.182  28.045  31.254  1.00  0.00    -0.248 NA
ATOM     30  C   UNL A   1      43.574  26.576  30.088  1.00  0.00     0.031 C 
ATOM     31  C   UNL A   1      39.755  28.582  27.525  1.00  0.00     0.029 A 
ATOM     32  N   UNL A   1      40.029  29.249  29.644  1.00  0.00    -0.354 N 
ATOM     33  C   UNL A   1      43.201  27.610  32.094  1.00  0.00     0.074 A 
ATOM     34  C   UNL A   1      44.002  26.672  31.338  1.00  0.00     0.031 C 
ATOM     35  C   UNL A   1      38.806  29.498  27.789  1.00  0.00     0.029 A 
ATOM     36  C   UNL A   1      38.919  29.914  29.186  1.00  0.00     0.049 A 
ATOM     37  H   UNL A   1      40.403  29.378  30.545  1.00  0.00     0.167 HD
ATOM     38  C   UNL A   1      43.450  27.970  33.375  1.00  0.00     0.037 A 
ATOM     39  C   UNL A   1      38.073  30.739  29.834  1.00  0.00     0.037 A 
ATOM     40  C   UNL A   1      42.648  28.904  34.120  1.00  0.00     0.049 A 
ATOM     41  C   UNL A   1      38.318  31.050  31.291  1.00  0.00     0.074 A 
ATOM     42  C   UNL A   1      42.817  29.341  35.423  1.00  0.00     0.029 A 
ATOM     43  N   UNL A   1      41.518  29.542  33.629  1.00  0.00    -0.354 N 
ATOM     44  N   UNL A   1      39.287  30.646  32.075  1.00  0.00    -0.248 NA
ATOM     45  C   UNL A   1      37.349  31.938  31.951  1.00  0.00     0.031 C 
ATOM     46  C   UNL A   1      41.756  30.193  35.740  1.00  0.00     0.029 A 
ATOM     47  C   UNL A   1      40.968  30.350  34.610  1.00  0.00     0.049 A 
ATOM     48  H   UNL A   1      41.159  29.436  32.718  1.00  0.00     0.167 HD
ATOM     49  C   UNL A   1      39.073  31.266  33.301  1.00  0.00     0.074 A 
ATOM     50  C   UNL A   1      37.884  32.078  33.155  1.00  0.00     0.031 C 
ATOM     51  C   UNL A   1      39.799  31.177  34.442  1.00  0.00     0.037 A 
BRANCH  38  52
ATOM     52  C   UNL A   1      44.624  27.336  34.063  1.00  0.00     0.064 A 
ATOM     53  C   UNL A   1      45.893  27.936  34.066  1.00  0.00     0.173 A 
ATOM     54  C   UNL A   1      44.468  26.134  34.772  1.00  0.00     0.173 A 
ATOM     55  F   UNL A   1      46.100  29.080  33.394  1.00  0.00    -0.203 F 
ATOM     56  C   UNL A   1      46.966  27.344  34.727  1.00  0.00     0.198 A 
ATOM     57  C   UNL A   1      45.535  25.564  35.462  1.00  0.00     0.198 A 
ATOM     58  F   UNL A   1      43.277  25.519  34.809  1.00  0.00    -0.203 F 
ATOM     59  F   UNL A   1      48.179  27.911  34.673  1.00  0.00    -0.200 F 
ATOM     60  C   UNL A   1      46.784  26.164  35.433  1.00  0.00     0.200 A 
ATOM     61  F   UNL A   1      45.352  24.433  36.158  1.00  0.00    -0.200 F 
ATOM     62  F   UNL A   1      47.814  25.602  36.080  1.00  0.00    -0.200 F 
ENDBRANCH  38  52
BRANCH  39  63
ATOM     63  C   UNL A   1      36.901  31.322  29.126  1.00  0.00     0.064 A 
ATOM     64  C   UNL A   1      36.868  32.681  28.783  1.00  0.00     0.173 A 
ATOM     65  C   UNL A   1      35.772  30.547  28.818  1.00  0.00     0.173 A 
ATOM     66  F   UNL A   1      37.912  33.469  29.076  1.00  0.00    -0.203 F 
ATOM     67  C   UNL A   1      35.740  33.250  28.194  1.00  0.00     0.198 A 
ATOM     68  C   UNL A   1      34.659  31.109  28.195  1.00  0.00     0.198 A 
ATOM     69  F   UNL A   1      35.748  29.241  29.123  1.00  0.00    -0.203 F 
ATOM     70  F   UNL A   1      35.713  34.566  27.941  1.00  0.00    -0.200 F 
ATOM     71  C   UNL A   1      34.639  32.463  27.896  1.00  0.00     0.200 A 
ATOM     72  F   UNL A   1      33.603  30.341  27.895  1.00  0.00    -0.200 F 
ATOM     73  F   UNL A   1      33.553  33.011  27.334  1.00  0.00    -0.200 F 
ENDBRANCH  39  63
BRANCH  51  74
ATOM     74  C   UNL A   1      39.383  32.035  35.605  1.00  0.00     0.064 A 
ATOM     75  C   UNL A   1      39.836  33.352  35.762  1.00  0.00     0.173 A 
ATOM     76  C   UNL A   1      38.469  31.540  36.550  1.00  0.00     0.173 A 
ATOM     77  F   UNL A   1      40.720  33.871  34.897  1.00  0.00    -0.203 F 
ATOM     78  C   UNL A   1      39.411  34.132  36.835  1.00  0.00     0.198 A 
ATOM     79  C   UNL A   1      38.016  32.335  37.599  1.00  0.00     0.198 A 
ATOM     80  F   UNL A   1      37.996  30.289  36.443  1.00  0.00    -0.203 F 
ATOM     81  F   UNL A   1      39.897  35.371  36.994  1.00  0.00    -0.200 F 
ATOM     82  C   UNL A   1      38.494  33.628  37.746  1.00  0.00     0.200 A 
ATOM     83  F   UNL A   1      37.116  31.851  38.465  1.00  0.00    -0.200 F 
ATOM     84  F   UNL A   1      38.077  34.385  38.769  1.00  0.00    -0.200 F 
ENDBRANCH  51  74
ENDBRANCH  25  26
ENDBRANCH  18  20
ENDBRANCH  17  18
ENDBRANCH  16  17
ENDBRANCH   1  16
TORSDOF 15
ENDMDL
MODEL 3
REMARK VINA RESULT:     -10.7      5.626     11.624
REMARK SMILES C[C@@H]1OCC[C@@H]1C#CC(=O)OCCOCCOC(=O)c1ccc(-c2c3nc(c(-c4c(F)c(F)c(F)c(F)c4F)c4ccc([nH]4)c(-c4c(F)c(F)c(F)c(F)c4F)c4nc(c(-c5c(F)c(F)c(F)c(F)c5F)c5ccc2[nH]5)C=C4)C=C3)cc1
REMARK SMILES IDX 15 1 14 2 13 3 12 4 11 5 9 6 10 7 8 8 7 9 6 10 1 11 2 12
REMARK SMILES IDX 3 13 4 14 5 15 16 16 17 17 18 18 19 19 20 20 21 21 82 22
REMARK SMILES IDX 22 23 81 24 23 25 24 26 25 27 75 28 26 29 80 30 74 31 76 32
REMARK SMILES IDX 27 33 79 34 73 35 72 36 28 38 60 39 40 40 59 41 41 42 44 43
REMARK SMILES IDX 58 44 77 45 42 46 43 47 57 49 78 50 45 51 29 52 30 53 38 54
REMARK SMILES IDX 31 55 32 56 36 57 39 58 33 59 34 60 37 61 35 62 61 63 62 64
REMARK SMILES IDX 70 65 63 66 64 67 68 68 71 69 65 70 66 71 69 72 67 73 46 74
REMARK SMILES IDX 47 75 55 76 48 77 49 78 53 79 56 80 50 81 51 82 54 83 52 84
REMARK H PARENT 76 37 44 48
REMARK Flexibility Score: inf
ROOT
ATOM      1  C   UNL A   1      33.129  33.923  28.028  1.00  0.00     0.202 C 
ENDROOT
BRANCH   1   2
ATOM      2  O   UNL A   1      32.674  35.017  28.822  1.00  0.00    -0.374 OA
BRANCH   2   3
ATOM      3  C   UNL A   1      33.399  35.354  30.001  1.00  0.00     0.202 C 
BRANCH   3   4
ATOM      4  C   UNL A   1      33.026  36.653  30.721  1.00  0.00     0.262 C 
BRANCH   4   5
ATOM      5  O   UNL A   1      32.714  36.418  32.096  1.00  0.00    -0.454 OA
BRANCH   5   6
ATOM      6  C   UNL A   1      33.744  36.628  32.956  1.00  0.00     0.384 C 
ATOM      7  O   UNL A   1      34.047  37.679  33.500  1.00  0.00    -0.236 OA
BRANCH   6   8
ATOM      8  C   UNL A   1      34.437  35.409  33.274  1.00  0.00     0.017 C 
ATOM      9  C   UNL A   1      35.024  34.375  33.472  1.00  0.00    -0.085 C 
BRANCH   9  10
ATOM     10  C   UNL A   1      35.648  33.057  33.677  1.00  0.00     0.096 C 
ATOM     11  C   UNL A   1      37.712  34.203  34.785  1.00  0.00     0.040 C 
ATOM     12  C   UNL A   1      37.168  33.127  33.855  1.00  0.00     0.130 C 
ATOM     13  O   UNL A   1      37.721  33.264  32.527  1.00  0.00    -0.377 OA
ATOM     14  C   UNL A   1      36.714  32.858  31.583  1.00  0.00     0.162 C 
ATOM     15  C   UNL A   1      35.573  32.260  32.389  1.00  0.00     0.048 C 
ENDBRANCH   9  10
ENDBRANCH   6   8
ENDBRANCH   5   6
ENDBRANCH   4   5
ENDBRANCH   3   4
ENDBRANCH   2   3
ENDBRANCH   1   2
BRANCH   1  16
ATOM     16  C   UNL A   1      34.445  33.233  28.415  1.00  0.00     0.261 C 
BRANCH  16  17
ATOM     17  O   UNL A   1      34.256  31.952  29.040  1.00  0.00    -0.460 OA
BRANCH  17  18
ATOM     18  C   UNL A   1      34.342  30.895  28.196  1.00  0.00     0.338 C 
ATOM     19  O   UNL A   1      33.546  30.564  27.334  1.00  0.00    -0.246 OA
BRANCH  18  20
ATOM     20  C   UNL A   1      35.661  30.256  28.341  1.00  0.00     0.060 A 
ATOM     21  C   UNL A   1      36.020  29.753  29.599  1.00  0.00     0.016 A 
ATOM     22  C   UNL A   1      36.566  30.231  27.279  1.00  0.00     0.016 A 
ATOM     23  C   UNL A   1      37.306  29.262  29.813  1.00  0.00     0.010 A 
ATOM     24  C   UNL A   1      37.855  29.744  27.498  1.00  0.00     0.010 A 
ATOM     25  C   UNL A   1      38.244  29.291  28.773  1.00  0.00    -0.014 A 
BRANCH  25  26
ATOM     26  C   UNL A   1      39.672  28.997  29.039  1.00  0.00     0.031 A 
ATOM     27  C   UNL A   1      40.507  30.038  29.733  1.00  0.00     0.074 A 
ATOM     28  C   UNL A   1      40.222  27.829  28.660  1.00  0.00     0.049 A 
ATOM     29  N   UNL A   1      41.797  30.061  29.953  1.00  0.00    -0.248 NA
ATOM     30  C   UNL A   1      39.789  31.221  30.237  1.00  0.00     0.031 C 
ATOM     31  C   UNL A   1      39.506  26.725  28.026  1.00  0.00     0.029 A 
ATOM     32  N   UNL A   1      41.520  27.391  28.738  1.00  0.00    -0.354 N 
ATOM     33  C   UNL A   1      42.046  31.261  30.607  1.00  0.00     0.074 A 
ATOM     34  C   UNL A   1      40.782  31.957  30.714  1.00  0.00     0.031 C 
ATOM     35  C   UNL A   1      40.379  25.739  27.757  1.00  0.00     0.029 A 
ATOM     36  C   UNL A   1      41.720  26.163  28.157  1.00  0.00     0.049 A 
ATOM     37  H   UNL A   1      42.239  27.907  29.170  1.00  0.00     0.167 HD
ATOM     38  C   UNL A   1      43.222  31.735  31.083  1.00  0.00     0.037 A 
ATOM     39  C   UNL A   1      42.860  25.479  27.943  1.00  0.00     0.037 A 
ATOM     40  C   UNL A   1      44.476  31.037  30.972  1.00  0.00     0.049 A 
ATOM     41  C   UNL A   1      44.172  26.072  28.399  1.00  0.00     0.074 A 
ATOM     42  C   UNL A   1      45.724  31.427  31.425  1.00  0.00     0.029 A 
ATOM     43  N   UNL A   1      44.641  29.804  30.357  1.00  0.00    -0.354 N 
ATOM     44  N   UNL A   1      44.401  27.201  29.026  1.00  0.00    -0.248 NA
ATOM     45  C   UNL A   1      45.386  25.291  28.118  1.00  0.00     0.031 C 
ATOM     46  C   UNL A   1      46.654  30.461  31.030  1.00  0.00     0.029 A 
ATOM     47  C   UNL A   1      45.975  29.431  30.399  1.00  0.00     0.049 A 
ATOM     48  H   UNL A   1      43.919  29.273  29.950  1.00  0.00     0.167 HD
ATOM     49  C   UNL A   1      45.771  27.241  29.256  1.00  0.00     0.074 A 
ATOM     50  C   UNL A   1      46.322  26.020  28.707  1.00  0.00     0.031 C 
ATOM     51  C   UNL A   1      46.506  28.198  29.874  1.00  0.00     0.037 A 
BRANCH  38  52
ATOM     52  C   UNL A   1      43.216  33.081  31.748  1.00  0.00     0.064 A 
ATOM     53  C   UNL A   1      43.382  34.268  31.018  1.00  0.00     0.173 A 
ATOM     54  C   UNL A   1      42.992  33.189  33.130  1.00  0.00     0.173 A 
ATOM     55  F   UNL A   1      43.611  34.221  29.697  1.00  0.00    -0.203 F 
ATOM     56  C   UNL A   1      43.353  35.509  31.650  1.00  0.00     0.198 A 
ATOM     57  C   UNL A   1      42.927  34.433  33.752  1.00  0.00     0.198 A 
ATOM     58  F   UNL A   1      42.820  32.088  33.876  1.00  0.00    -0.203 F 
ATOM     59  F   UNL A   1      43.564  36.625  30.938  1.00  0.00    -0.200 F 
ATOM     60  C   UNL A   1      43.115  35.591  33.014  1.00  0.00     0.200 A 
ATOM     61  F   UNL A   1      42.680  34.510  35.067  1.00  0.00    -0.200 F 
ATOM     62  F   UNL A   1      43.074  36.787  33.618  1.00  0.00    -0.200 F 
ENDBRANCH  38  52
BRANCH  39  63
ATOM     63  C   UNL A   1      42.829  24.162  27.251  1.00  0.00     0.064 A 
ATOM     64  C   UNL A   1      42.497  22.990  27.945  1.00  0.00     0.173 A 
ATOM     65  C   UNL A   1      43.176  24.039  25.897  1.00  0.00     0.173 A 
ATOM     66  F   UNL A   1      42.181  23.051  29.247  1.00  0.00    -0.203 F 
ATOM     67  C   UNL A   1      42.546  21.744  27.323  1.00  0.00     0.198 A 
ATOM     68  C   UNL A   1      43.189  22.796  25.266  1.00  0.00     0.198 A 
ATOM     69  F   UNL A   1      43.503  25.126  25.183  1.00  0.00    -0.203 F 
ATOM     70  F   UNL A   1      42.289  20.635  28.031  1.00  0.00    -0.200 F 
ATOM     71  C   UNL A   1      42.886  21.648  25.983  1.00  0.00     0.200 A 
ATOM     72  F   UNL A   1      43.503  22.711  23.967  1.00  0.00    -0.200 F 
ATOM     73  F   UNL A   1      42.938  20.449  25.387  1.00  0.00    -0.200 F 
ENDBRANCH  39  63
BRANCH  51  74
ATOM     74  C   UNL A   1      47.975  27.939  30.064  1.00  0.00     0.064 A 
ATOM     75  C   UNL A   1      48.474  27.257  31.183  1.00  0.00     0.173 A 
ATOM     76  C   UNL A   1      48.892  28.336  29.077  1.00  0.00     0.173 A 
ATOM     77  F   UNL A   1      47.645  26.867  32.163  1.00  0.00    -0.203 F 
ATOM     78  C   UNL A   1      49.838  27.007  31.318  1.00  0.00     0.198 A 
ATOM     79  C   UNL A   1      50.248  28.050  29.197  1.00  0.00     0.198 A 
ATOM     80  F   UNL A   1      48.467  28.984  27.981  1.00  0.00    -0.203 F 
ATOM     81  F   UNL A   1      50.299  26.399  32.421  1.00  0.00    -0.200 F 
ATOM     82  C   UNL A   1      50.722  27.393  30.322  1.00  0.00     0.200 A 
ATOM     83  F   UNL A   1      51.096  28.406  28.223  1.00  0.00    -0.200 F 
ATOM     84  F   UNL A   1      52.031  27.138  30.449  1.00  0.00    -0.200 F 
ENDBRANCH  51  74
ENDBRANCH  25  26
ENDBRANCH  18  20
ENDBRANCH  17  18
ENDBRANCH  16  17
ENDBRANCH   1  16
TORSDOF 15
ENDMDL
