MODEL 1
REMARK VINA RESULT:     -12.3      0.000      0.000
REMARK SMILES Cc1ccc(C(=O)Nc2ccc(C(=O)OCCOCCOC(=O)c3ccc(-c4c5nc(c(-c6c(F)c(F)c(F)c(F)c6F)c6ccc([nH]6)c(-c6c(F)c(F)c(F)c(F)c6F)c6nc(c(-c7c(F)c(F)c(F)c(F)c7F)c7ccc4[nH]7)C=C6)C=C5)cc3)c(Cl)c2)cc1C
REMARK SMILES IDX 18 1 17 2 16 3 15 4 13 5 14 6 12 7 9 8 10 9 89 10 11 11
REMARK SMILES IDX 87 12 88 13 8 14 6 15 7 16 5 18 1 19 2 20 3 21 91 22 4 23
REMARK SMILES IDX 90 24 92 25 19 26 20 27 21 28 22 29 23 30 24 31 25 32 86 33
REMARK SMILES IDX 26 34 85 35 27 36 28 37 29 38 79 39 30 40 84 41 78 42 80 43
REMARK SMILES IDX 31 44 83 45 77 46 76 47 32 49 64 50 44 51 63 52 45 53 48 54
REMARK SMILES IDX 62 55 81 56 46 57 47 58 61 60 82 61 49 62 33 63 34 64 42 65
REMARK SMILES IDX 35 66 36 67 40 68 43 69 37 70 38 71 41 72 39 73 65 74 66 75
REMARK SMILES IDX 74 76 67 77 68 78 72 79 75 80 69 81 70 82 73 83 71 84 50 85
REMARK SMILES IDX 51 86 59 87 52 88 53 89 57 90 60 91 54 92 55 93 58 94 56 95
REMARK H PARENT 8 17 80 48 48 59
REMARK Flexibility Score: inf
ROOT
ATOM      1  O   UNL A   1      37.042  20.990  24.727  1.00  0.00    -0.374 OA
ENDROOT
BRANCH   1   2
ATOM      2  C   UNL A   1      36.258  21.668  25.710  1.00  0.00     0.202 C 
BRANCH   2   3
ATOM      3  C   UNL A   1      34.838  21.124  25.889  1.00  0.00     0.261 C 
BRANCH   3   4
ATOM      4  O   UNL A   1      34.292  20.738  24.617  1.00  0.00    -0.460 OA
BRANCH   4   5
ATOM      5  C   UNL A   1      32.945  20.793  24.506  1.00  0.00     0.339 C 
ATOM      6  O   UNL A   1      32.141  19.967  24.914  1.00  0.00    -0.246 OA
BRANCH   5   7
ATOM      7  C   UNL A   1      32.534  22.120  24.003  1.00  0.00     0.078 A 
ATOM      8  C   UNL A   1      31.804  24.555  22.814  1.00  0.00     0.043 A 
ATOM      9  C   UNL A   1      32.822  23.785  22.254  1.00  0.00     0.027 A 
ATOM     10  C   UNL A   1      31.211  24.146  24.014  1.00  0.00     0.047 A 
ATOM     11  C   UNL A   1      33.186  22.573  22.845  1.00  0.00     0.019 A 
ATOM     12  C   UNL A   1      31.554  22.918  24.598  1.00  0.00     0.057 A 
ATOM     13  Cl  UNL A   1      30.726  22.480  26.050  1.00  0.00    -0.083 Cl
BRANCH   8  14
ATOM     14  N   UNL A   1      31.340  25.743  22.231  1.00  0.00    -0.322 N 
ATOM     15  C   UNL A   1      31.213  27.021  22.731  1.00  0.00     0.255 C 
ATOM     16  O   UNL A   1      30.469  27.805  22.139  1.00  0.00    -0.269 OA
ATOM     17  H   UNL A   1      31.052  25.646  21.294  1.00  0.00     0.170 HD
BRANCH  15  18
ATOM     18  C   UNL A   1      32.039  27.533  23.869  1.00  0.00     0.040 A 
ATOM     19  C   UNL A   1      34.320  28.992  27.254  1.00  0.00     0.044 C 
ATOM     20  C   UNL A   1      33.482  28.511  26.101  1.00  0.00    -0.048 A 
ATOM     21  C   UNL A   1      34.033  28.545  24.813  1.00  0.00     0.004 A 
ATOM     22  C   UNL A   1      32.155  28.074  26.262  1.00  0.00    -0.047 A 
ATOM     23  C   UNL A   1      33.302  28.105  23.707  1.00  0.00     0.014 A 
ATOM     24  C   UNL A   1      31.462  27.559  25.148  1.00  0.00     0.017 A 
ATOM     25  C   UNL A   1      31.403  28.200  27.560  1.00  0.00     0.044 C 
ENDBRANCH  15  18
ENDBRANCH   8  14
ENDBRANCH   5   7
ENDBRANCH   4   5
ENDBRANCH   3   4
ENDBRANCH   2   3
ENDBRANCH   1   2
BRANCH   1  26
ATOM     26  C   UNL A   1      37.378  19.628  25.004  1.00  0.00     0.202 C 
BRANCH  26  27
ATOM     27  C   UNL A   1      38.835  19.384  25.417  1.00  0.00     0.261 C 
BRANCH  27  28
ATOM     28  O   UNL A   1      39.530  20.619  25.676  1.00  0.00    -0.460 OA
BRANCH  28  29
ATOM     29  C   UNL A   1      40.404  20.575  26.710  1.00  0.00     0.338 C 
ATOM     30  O   UNL A   1      41.001  19.598  27.136  1.00  0.00    -0.246 OA
BRANCH  29  31
ATOM     31  C   UNL A   1      40.693  21.940  27.188  1.00  0.00     0.060 A 
ATOM     32  C   UNL A   1      40.039  23.000  26.548  1.00  0.00     0.016 A 
ATOM     33  C   UNL A   1      41.634  22.193  28.190  1.00  0.00     0.016 A 
ATOM     34  C   UNL A   1      40.358  24.317  26.871  1.00  0.00     0.010 A 
ATOM     35  C   UNL A   1      41.958  23.517  28.510  1.00  0.00     0.010 A 
ATOM     36  C   UNL A   1      41.347  24.584  27.828  1.00  0.00    -0.014 A 
BRANCH  36  37
ATOM     37  C   UNL A   1      41.821  25.978  28.012  1.00  0.00     0.031 A 
ATOM     38  C   UNL A   1      43.166  26.375  27.470  1.00  0.00     0.074 A 
ATOM     39  C   UNL A   1      41.045  26.892  28.620  1.00  0.00     0.049 A 
ATOM     40  N   UNL A   1      43.770  27.537  27.509  1.00  0.00    -0.248 NA
ATOM     41  C   UNL A   1      43.937  25.320  26.795  1.00  0.00     0.031 C 
ATOM     42  C   UNL A   1      39.712  26.638  29.163  1.00  0.00     0.029 A 
ATOM     43  N   UNL A   1      41.269  28.221  28.881  1.00  0.00    -0.354 N 
ATOM     44  C   UNL A   1      44.986  27.352  26.864  1.00  0.00     0.074 A 
ATOM     45  C   UNL A   1      45.052  25.960  26.476  1.00  0.00     0.031 C 
ATOM     46  C   UNL A   1      39.237  27.776  29.699  1.00  0.00     0.029 A 
ATOM     47  C   UNL A   1      40.241  28.830  29.557  1.00  0.00     0.049 A 
ATOM     48  H   UNL A   1      42.090  28.693  28.609  1.00  0.00     0.167 HD
ATOM     49  C   UNL A   1      45.956  28.264  26.611  1.00  0.00     0.037 A 
ATOM     50  C   UNL A   1      40.131  30.090  30.019  1.00  0.00     0.037 A 
ATOM     51  C   UNL A   1      45.890  29.650  26.996  1.00  0.00     0.049 A 
ATOM     52  C   UNL A   1      41.247  31.071  29.773  1.00  0.00     0.074 A 
ATOM     53  C   UNL A   1      46.810  30.657  26.760  1.00  0.00     0.029 A 
ATOM     54  N   UNL A   1      44.846  30.222  27.708  1.00  0.00    -0.354 N 
ATOM     55  N   UNL A   1      42.377  30.897  29.132  1.00  0.00    -0.248 NA
ATOM     56  C   UNL A   1      41.068  32.426  30.313  1.00  0.00     0.031 C 
ATOM     57  C   UNL A   1      46.347  31.827  27.373  1.00  0.00     0.029 A 
ATOM     58  C   UNL A   1      45.113  31.562  27.945  1.00  0.00     0.049 A 
ATOM     59  H   UNL A   1      44.035  29.747  28.003  1.00  0.00     0.167 HD
ATOM     60  C   UNL A   1      43.030  32.122  29.167  1.00  0.00     0.074 A 
ATOM     61  C   UNL A   1      42.161  33.036  29.880  1.00  0.00     0.031 C 
ATOM     62  C   UNL A   1      44.240  32.461  28.656  1.00  0.00     0.037 A 
BRANCH  49  63
ATOM     63  C   UNL A   1      47.186  27.785  25.896  1.00  0.00     0.064 A 
ATOM     64  C   UNL A   1      48.319  27.342  26.596  1.00  0.00     0.173 A 
ATOM     65  C   UNL A   1      47.219  27.738  24.496  1.00  0.00     0.173 A 
ATOM     66  F   UNL A   1      48.343  27.379  27.937  1.00  0.00    -0.203 F 
ATOM     67  C   UNL A   1      49.451  26.896  25.917  1.00  0.00     0.198 A 
ATOM     68  C   UNL A   1      48.342  27.265  23.821  1.00  0.00     0.198 A 
ATOM     69  F   UNL A   1      46.161  28.145  23.779  1.00  0.00    -0.203 F 
ATOM     70  F   UNL A   1      50.538  26.522  26.604  1.00  0.00    -0.200 F 
ATOM     71  C   UNL A   1      49.458  26.851  24.531  1.00  0.00     0.200 A 
ATOM     72  F   UNL A   1      48.344  27.212  22.481  1.00  0.00    -0.200 F 
ATOM     73  F   UNL A   1      50.545  26.417  23.879  1.00  0.00    -0.200 F 
ENDBRANCH  49  63
BRANCH  50  74
ATOM     74  C   UNL A   1      38.913  30.499  30.767  1.00  0.00     0.064 A 
ATOM     75  C   UNL A   1      37.777  30.972  30.098  1.00  0.00     0.173 A 
ATOM     76  C   UNL A   1      38.869  30.442  32.168  1.00  0.00     0.173 A 
ATOM     77  F   UNL A   1      37.781  31.071  28.760  1.00  0.00    -0.203 F 
ATOM     78  C   UNL A   1      36.648  31.386  30.801  1.00  0.00     0.198 A 
ATOM     79  C   UNL A   1      37.730  30.831  32.869  1.00  0.00     0.198 A 
ATOM     80  F   UNL A   1      39.933  30.000  32.856  1.00  0.00    -0.203 F 
ATOM     81  F   UNL A   1      35.592  31.878  30.138  1.00  0.00    -0.200 F 
ATOM     82  C   UNL A   1      36.623  31.310  32.185  1.00  0.00     0.200 A 
ATOM     83  F   UNL A   1      37.707  30.745  34.205  1.00  0.00    -0.200 F 
ATOM     84  F   UNL A   1      35.536  31.707  32.861  1.00  0.00    -0.200 F 
ENDBRANCH  50  74
BRANCH  62  85
ATOM     85  C   UNL A   1      44.683  33.886  28.823  1.00  0.00     0.064 A 
ATOM     86  C   UNL A   1      45.450  34.295  29.923  1.00  0.00     0.173 A 
ATOM     87  C   UNL A   1      44.357  34.850  27.856  1.00  0.00     0.173 A 
ATOM     88  F   UNL A   1      45.776  33.416  30.884  1.00  0.00    -0.203 F 
ATOM     89  C   UNL A   1      45.851  35.622  30.065  1.00  0.00     0.198 A 
ATOM     90  C   UNL A   1      44.785  36.168  27.985  1.00  0.00     0.198 A 
ATOM     91  F   UNL A   1      43.631  34.511  26.780  1.00  0.00    -0.203 F 
ATOM     92  F   UNL A   1      46.539  35.999  31.151  1.00  0.00    -0.200 F 
ATOM     93  C   UNL A   1      45.523  36.555  29.094  1.00  0.00     0.200 A 
ATOM     94  F   UNL A   1      44.479  37.067  27.038  1.00  0.00    -0.200 F 
ATOM     95  F   UNL A   1      45.911  37.831  29.230  1.00  0.00    -0.200 F 
ENDBRANCH  62  85
ENDBRANCH  36  37
ENDBRANCH  29  31
ENDBRANCH  28  29
ENDBRANCH  27  28
ENDBRANCH  26  27
ENDBRANCH   1  26
TORSDOF 16
ENDMDL
MODEL 2
REMARK VINA RESULT:     -12.3      0.174      1.925
REMARK SMILES Cc1ccc(C(=O)Nc2ccc(C(=O)OCCOCCOC(=O)c3ccc(-c4c5nc(c(-c6c(F)c(F)c(F)c(F)c6F)c6ccc([nH]6)c(-c6c(F)c(F)c(F)c(F)c6F)c6nc(c(-c7c(F)c(F)c(F)c(F)c7F)c7ccc4[nH]7)C=C6)C=C5)cc3)c(Cl)c2)cc1C
REMARK SMILES IDX 18 1 17 2 16 3 15 4 13 5 14 6 12 7 9 8 10 9 89 10 11 11
REMARK SMILES IDX 87 12 88 13 8 14 6 15 7 16 5 18 1 19 2 20 3 21 91 22 4 23
REMARK SMILES IDX 90 24 92 25 19 26 20 27 21 28 22 29 23 30 24 31 25 32 86 33
REMARK SMILES IDX 26 34 85 35 27 36 28 37 29 38 79 39 30 40 84 41 78 42 80 43
REMARK SMILES IDX 31 44 83 45 77 46 76 47 32 49 64 50 44 51 63 52 45 53 48 54
REMARK SMILES IDX 62 55 81 56 46 57 47 58 61 60 82 61 49 62 33 63 34 64 42 65
REMARK SMILES IDX 35 66 36 67 40 68 43 69 37 70 38 71 41 72 39 73 65 74 66 75
REMARK SMILES IDX 74 76 67 77 68 78 72 79 75 80 69 81 70 82 73 83 71 84 50 85
REMARK SMILES IDX 51 86 59 87 52 88 53 89 57 90 60 91 54 92 55 93 58 94 56 95
REMARK H PARENT 8 17 80 48 48 59
REMARK Flexibility Score: inf
ROOT
ATOM      1  O   UNL A   1      36.843  20.949  24.798  1.00  0.00    -0.374 OA
ENDROOT
BRANCH   1   2
ATOM      2  C   UNL A   1      36.177  21.535  25.918  1.00  0.00     0.202 C 
BRANCH   2   3
ATOM      3  C   UNL A   1      34.655  21.364  25.923  1.00  0.00     0.261 C 
BRANCH   3   4
ATOM      4  O   UNL A   1      34.216  20.792  24.680  1.00  0.00    -0.460 OA
BRANCH   4   5
ATOM      5  C   UNL A   1      32.882  20.801  24.459  1.00  0.00     0.339 C 
ATOM      6  O   UNL A   1      32.082  19.929  24.766  1.00  0.00    -0.246 OA
BRANCH   5   7
ATOM      7  C   UNL A   1      32.460  22.130  23.974  1.00  0.00     0.078 A 
ATOM      8  C   UNL A   1      31.712  24.576  22.817  1.00  0.00     0.043 A 
ATOM      9  C   UNL A   1      32.748  23.830  22.257  1.00  0.00     0.027 A 
ATOM     10  C   UNL A   1      31.110  24.139  24.002  1.00  0.00     0.047 A 
ATOM     11  C   UNL A   1      33.121  22.613  22.833  1.00  0.00     0.019 A 
ATOM     12  C   UNL A   1      31.461  22.905  24.569  1.00  0.00     0.057 A 
ATOM     13  Cl  UNL A   1      30.621  22.430  26.002  1.00  0.00    -0.083 Cl
BRANCH   8  14
ATOM     14  N   UNL A   1      31.240  25.768  22.250  1.00  0.00    -0.322 N 
ATOM     15  C   UNL A   1      31.144  27.048  22.752  1.00  0.00     0.255 C 
ATOM     16  O   UNL A   1      30.387  27.839  22.185  1.00  0.00    -0.269 OA
ATOM     17  H   UNL A   1      30.918  25.673  21.323  1.00  0.00     0.170 HD
BRANCH  15  18
ATOM     18  C   UNL A   1      32.014  27.554  23.859  1.00  0.00     0.040 A 
ATOM     19  C   UNL A   1      34.428  28.994  27.158  1.00  0.00     0.044 C 
ATOM     20  C   UNL A   1      33.545  28.520  26.037  1.00  0.00    -0.048 A 
ATOM     21  C   UNL A   1      34.052  28.545  24.730  1.00  0.00     0.004 A 
ATOM     22  C   UNL A   1      32.220  28.099  26.245  1.00  0.00    -0.047 A 
ATOM     23  C   UNL A   1      33.277  28.111  23.651  1.00  0.00     0.014 A 
ATOM     24  C   UNL A   1      31.482  27.590  25.157  1.00  0.00     0.017 A 
ATOM     25  C   UNL A   1      31.514  28.237  27.567  1.00  0.00     0.044 C 
ENDBRANCH  15  18
ENDBRANCH   8  14
ENDBRANCH   5   7
ENDBRANCH   4   5
ENDBRANCH   3   4
ENDBRANCH   2   3
ENDBRANCH   1   2
BRANCH   1  26
ATOM     26  C   UNL A   1      37.269  19.592  24.945  1.00  0.00     0.202 C 
BRANCH  26  27
ATOM     27  C   UNL A   1      38.714  19.407  25.426  1.00  0.00     0.261 C 
BRANCH  27  28
ATOM     28  O   UNL A   1      39.338  20.668  25.739  1.00  0.00    -0.460 OA
BRANCH  28  29
ATOM     29  C   UNL A   1      40.304  20.607  26.685  1.00  0.00     0.338 C 
ATOM     30  O   UNL A   1      40.947  19.625  27.026  1.00  0.00    -0.246 OA
BRANCH  29  31
ATOM     31  C   UNL A   1      40.622  21.962  27.174  1.00  0.00     0.060 A 
ATOM     32  C   UNL A   1      40.003  23.041  26.531  1.00  0.00     0.016 A 
ATOM     33  C   UNL A   1      41.557  22.185  28.188  1.00  0.00     0.016 A 
ATOM     34  C   UNL A   1      40.353  24.348  26.865  1.00  0.00     0.010 A 
ATOM     35  C   UNL A   1      41.912  23.499  28.518  1.00  0.00     0.010 A 
ATOM     36  C   UNL A   1      41.336  24.585  27.834  1.00  0.00    -0.014 A 
BRANCH  36  37
ATOM     37  C   UNL A   1      41.844  25.965  28.031  1.00  0.00     0.031 A 
ATOM     38  C   UNL A   1      43.194  26.337  27.481  1.00  0.00     0.074 A 
ATOM     39  C   UNL A   1      41.094  26.889  28.656  1.00  0.00     0.049 A 
ATOM     40  N   UNL A   1      43.824  27.485  27.529  1.00  0.00    -0.248 NA
ATOM     41  C   UNL A   1      43.934  25.274  26.786  1.00  0.00     0.031 C 
ATOM     42  C   UNL A   1      39.762  26.659  29.209  1.00  0.00     0.029 A 
ATOM     43  N   UNL A   1      41.351  28.209  28.931  1.00  0.00    -0.354 N 
ATOM     44  C   UNL A   1      45.030  27.280  26.871  1.00  0.00     0.074 A 
ATOM     45  C   UNL A   1      45.060  25.892  26.465  1.00  0.00     0.031 C 
ATOM     46  C   UNL A   1      39.318  27.801  29.762  1.00  0.00     0.029 A 
ATOM     47  C   UNL A   1      40.344  28.833  29.624  1.00  0.00     0.049 A 
ATOM     48  H   UNL A   1      42.180  28.665  28.657  1.00  0.00     0.167 HD
ATOM     49  C   UNL A   1      46.018  28.173  26.619  1.00  0.00     0.037 A 
ATOM     50  C   UNL A   1      40.267  30.090  30.102  1.00  0.00     0.037 A 
ATOM     51  C   UNL A   1      45.988  29.555  27.021  1.00  0.00     0.049 A 
ATOM     52  C   UNL A   1      41.403  31.048  29.858  1.00  0.00     0.074 A 
ATOM     53  C   UNL A   1      46.928  30.544  26.790  1.00  0.00     0.029 A 
ATOM     54  N   UNL A   1      44.963  30.142  27.750  1.00  0.00    -0.354 N 
ATOM     55  N   UNL A   1      42.523  30.856  29.205  1.00  0.00    -0.248 NA
ATOM     56  C   UNL A   1      41.260  32.400  30.415  1.00  0.00     0.031 C 
ATOM     57  C   UNL A   1      46.497  31.716  27.420  1.00  0.00     0.029 A 
ATOM     58  C   UNL A   1      45.263  31.472  28.000  1.00  0.00     0.049 A 
ATOM     59  H   UNL A   1      44.144  29.682  28.046  1.00  0.00     0.167 HD
ATOM     60  C   UNL A   1      43.204  32.066  29.248  1.00  0.00     0.074 A 
ATOM     61  C   UNL A   1      42.363  32.990  29.980  1.00  0.00     0.031 C 
ATOM     62  C   UNL A   1      44.417  32.383  28.730  1.00  0.00     0.037 A 
BRANCH  49  63
ATOM     63  C   UNL A   1      47.230  27.674  25.888  1.00  0.00     0.064 A 
ATOM     64  C   UNL A   1      47.309  27.703  24.487  1.00  0.00     0.173 A 
ATOM     65  C   UNL A   1      48.338  27.191  26.598  1.00  0.00     0.173 A 
ATOM     66  F   UNL A   1      46.271  28.144  23.760  1.00  0.00    -0.203 F 
ATOM     67  C   UNL A   1      48.444  27.240  23.824  1.00  0.00     0.198 A 
ATOM     68  C   UNL A   1      49.482  26.756  25.934  1.00  0.00     0.198 A 
ATOM     69  F   UNL A   1      48.315  27.146  27.939  1.00  0.00    -0.203 F 
ATOM     70  F   UNL A   1      48.480  27.234  22.485  1.00  0.00    -0.200 F 
ATOM     71  C   UNL A   1      49.531  26.774  24.548  1.00  0.00     0.200 A 
ATOM     72  F   UNL A   1      50.536  26.315  26.635  1.00  0.00    -0.200 F 
ATOM     73  F   UNL A   1      50.624  26.335  23.910  1.00  0.00    -0.200 F 
ENDBRANCH  49  63
BRANCH  50  74
ATOM     74  C   UNL A   1      39.066  30.517  30.866  1.00  0.00     0.064 A 
ATOM     75  C   UNL A   1      39.020  30.412  32.263  1.00  0.00     0.173 A 
ATOM     76  C   UNL A   1      37.932  31.023  30.213  1.00  0.00     0.173 A 
ATOM     77  F   UNL A   1      40.069  29.908  32.930  1.00  0.00    -0.203 F 
ATOM     78  C   UNL A   1      37.882  30.781  32.975  1.00  0.00     0.198 A 
ATOM     79  C   UNL A   1      36.804  31.418  30.928  1.00  0.00     0.198 A 
ATOM     80  F   UNL A   1      37.924  31.139  28.876  1.00  0.00    -0.203 F 
ATOM     81  F   UNL A   1      37.848  30.627  34.306  1.00  0.00    -0.200 F 
ATOM     82  C   UNL A   1      36.777  31.289  32.308  1.00  0.00     0.200 A 
ATOM     83  F   UNL A   1      35.744  31.917  30.281  1.00  0.00    -0.200 F 
ATOM     84  F   UNL A   1      35.683  31.646  32.995  1.00  0.00    -0.200 F 
ENDBRANCH  50  74
BRANCH  62  85
ATOM     85  C   UNL A   1      44.895  33.795  28.910  1.00  0.00     0.064 A 
ATOM     86  C   UNL A   1      44.574  34.804  27.991  1.00  0.00     0.173 A 
ATOM     87  C   UNL A   1      45.662  34.148  30.031  1.00  0.00     0.173 A 
ATOM     88  F   UNL A   1      43.855  34.516  26.895  1.00  0.00    -0.203 F 
ATOM     89  C   UNL A   1      45.028  36.109  28.171  1.00  0.00     0.198 A 
ATOM     90  C   UNL A   1      46.088  35.460  30.224  1.00  0.00     0.198 A 
ATOM     91  F   UNL A   1      45.991  33.223  30.945  1.00  0.00    -0.203 F 
ATOM     92  F   UNL A   1      44.752  37.045  27.252  1.00  0.00    -0.200 F 
ATOM     93  C   UNL A   1      45.779  36.437  29.289  1.00  0.00     0.200 A 
ATOM     94  F   UNL A   1      46.803  35.778  31.312  1.00  0.00    -0.200 F 
ATOM     95  F   UNL A   1      46.213  37.693  29.463  1.00  0.00    -0.200 F 
ENDBRANCH  62  85
ENDBRANCH  36  37
ENDBRANCH  29  31
ENDBRANCH  28  29
ENDBRANCH  27  28
ENDBRANCH  26  27
ENDBRANCH   1  26
TORSDOF 16
ENDMDL
MODEL 3
REMARK VINA RESULT:     -12.2      1.139      1.735
REMARK SMILES Cc1ccc(C(=O)Nc2ccc(C(=O)OCCOCCOC(=O)c3ccc(-c4c5nc(c(-c6c(F)c(F)c(F)c(F)c6F)c6ccc([nH]6)c(-c6c(F)c(F)c(F)c(F)c6F)c6nc(c(-c7c(F)c(F)c(F)c(F)c7F)c7ccc4[nH]7)C=C6)C=C5)cc3)c(Cl)c2)cc1C
REMARK SMILES IDX 18 1 17 2 16 3 15 4 13 5 14 6 12 7 9 8 10 9 89 10 11 11
REMARK SMILES IDX 87 12 88 13 8 14 6 15 7 16 5 18 1 19 2 20 3 21 91 22 4 23
REMARK SMILES IDX 90 24 92 25 19 26 20 27 21 28 22 29 23 30 24 31 25 32 86 33
REMARK SMILES IDX 26 34 85 35 27 36 28 37 29 38 79 39 30 40 84 41 78 42 80 43
REMARK SMILES IDX 31 44 83 45 77 46 76 47 32 49 64 50 44 51 63 52 45 53 48 54
REMARK SMILES IDX 62 55 81 56 46 57 47 58 61 60 82 61 49 62 33 63 34 64 42 65
REMARK SMILES IDX 35 66 36 67 40 68 43 69 37 70 38 71 41 72 39 73 65 74 66 75
REMARK SMILES IDX 74 76 67 77 68 78 72 79 75 80 69 81 70 82 73 83 71 84 50 85
REMARK SMILES IDX 51 86 59 87 52 88 53 89 57 90 60 91 54 92 55 93 58 94 56 95
REMARK H PARENT 8 17 80 48 48 59
REMARK Flexibility Score: inf
ROOT
ATOM      1  O   UNL A   1      35.665  21.762  26.420  1.00  0.00    -0.374 OA
ENDROOT
BRANCH   1   2
ATOM      2  C   UNL A   1      34.533  22.633  26.456  1.00  0.00     0.202 C 
BRANCH   2   3
ATOM      3  C   UNL A   1      33.277  22.032  27.090  1.00  0.00     0.261 C 
BRANCH   3   4
ATOM      4  O   UNL A   1      32.116  22.382  26.318  1.00  0.00    -0.460 OA
BRANCH   4   5
ATOM      5  C   UNL A   1      32.158  22.067  25.003  1.00  0.00     0.339 C 
ATOM      6  O   UNL A   1      32.241  20.947  24.520  1.00  0.00    -0.246 OA
BRANCH   5   7
ATOM      7  C   UNL A   1      31.870  23.264  24.188  1.00  0.00     0.078 A 
ATOM      8  C   UNL A   1      31.197  25.633  22.841  1.00  0.00     0.043 A 
ATOM      9  C   UNL A   1      30.321  25.096  23.783  1.00  0.00     0.027 A 
ATOM     10  C   UNL A   1      32.368  24.940  22.514  1.00  0.00     0.047 A 
ATOM     11  C   UNL A   1      30.655  23.917  24.454  1.00  0.00     0.019 A 
ATOM     12  C   UNL A   1      32.722  23.770  23.202  1.00  0.00     0.057 A 
ATOM     13  Cl  UNL A   1      34.213  23.018  22.762  1.00  0.00    -0.083 Cl
BRANCH   8  14
ATOM     14  N   UNL A   1      30.958  26.849  22.186  1.00  0.00    -0.322 N 
ATOM     15  C   UNL A   1      30.999  28.154  22.630  1.00  0.00     0.255 C 
ATOM     16  O   UNL A   1      30.422  29.013  21.960  1.00  0.00    -0.269 OA
ATOM     17  H   UNL A   1      30.719  26.754  21.235  1.00  0.00     0.170 HD
BRANCH  15  18
ATOM     18  C   UNL A   1      31.820  28.587  23.803  1.00  0.00     0.040 A 
ATOM     19  C   UNL A   1      34.094  29.934  27.238  1.00  0.00     0.044 C 
ATOM     20  C   UNL A   1      33.288  29.520  26.038  1.00  0.00    -0.048 A 
ATOM     21  C   UNL A   1      33.836  28.581  25.154  1.00  0.00     0.004 A 
ATOM     22  C   UNL A   1      32.029  30.075  25.746  1.00  0.00    -0.047 A 
ATOM     23  C   UNL A   1      33.129  28.156  24.027  1.00  0.00     0.014 A 
ATOM     24  C   UNL A   1      31.297  29.576  24.650  1.00  0.00     0.017 A 
ATOM     25  C   UNL A   1      31.450  31.238  26.505  1.00  0.00     0.044 C 
ENDBRANCH  15  18
ENDBRANCH   8  14
ENDBRANCH   5   7
ENDBRANCH   4   5
ENDBRANCH   3   4
ENDBRANCH   2   3
ENDBRANCH   1   2
BRANCH   1  26
ATOM     26  C   UNL A   1      35.788  20.919  25.272  1.00  0.00     0.202 C 
BRANCH  26  27
ATOM     27  C   UNL A   1      37.200  20.386  25.000  1.00  0.00     0.261 C 
BRANCH  27  28
ATOM     28  O   UNL A   1      38.193  21.425  25.101  1.00  0.00    -0.460 OA
BRANCH  28  29
ATOM     29  C   UNL A   1      39.186  21.182  25.989  1.00  0.00     0.338 C 
ATOM     30  O   UNL A   1      39.763  20.122  26.183  1.00  0.00    -0.246 OA
BRANCH  29  31
ATOM     31  C   UNL A   1      39.626  22.442  26.617  1.00  0.00     0.060 A 
ATOM     32  C   UNL A   1      38.997  23.623  26.202  1.00  0.00     0.016 A 
ATOM     33  C   UNL A   1      40.676  22.486  27.537  1.00  0.00     0.016 A 
ATOM     34  C   UNL A   1      39.449  24.856  26.668  1.00  0.00     0.010 A 
ATOM     35  C   UNL A   1      41.133  23.726  27.999  1.00  0.00     0.010 A 
ATOM     36  C   UNL A   1      40.544  24.918  27.540  1.00  0.00    -0.014 A 
BRANCH  36  37
ATOM     37  C   UNL A   1      41.142  26.237  27.862  1.00  0.00     0.031 A 
ATOM     38  C   UNL A   1      42.567  26.514  27.471  1.00  0.00     0.074 A 
ATOM     39  C   UNL A   1      40.411  27.193  28.461  1.00  0.00     0.049 A 
ATOM     40  N   UNL A   1      43.282  27.598  27.644  1.00  0.00    -0.248 NA
ATOM     41  C   UNL A   1      43.284  25.423  26.795  1.00  0.00     0.031 C 
ATOM     42  C   UNL A   1      39.013  27.057  28.865  1.00  0.00     0.029 A 
ATOM     43  N   UNL A   1      40.747  28.472  28.833  1.00  0.00    -0.354 N 
ATOM     44  C   UNL A   1      44.528  27.319  27.098  1.00  0.00     0.074 A 
ATOM     45  C   UNL A   1      44.485  25.953  26.621  1.00  0.00     0.031 C 
ATOM     46  C   UNL A   1      38.611  28.206  29.434  1.00  0.00     0.029 A 
ATOM     47  C   UNL A   1      39.728  29.149  29.456  1.00  0.00     0.049 A 
ATOM     48  H   UNL A   1      41.635  28.865  28.668  1.00  0.00     0.167 HD
ATOM     49  C   UNL A   1      45.608  28.131  26.996  1.00  0.00     0.037 A 
ATOM     50  C   UNL A   1      39.707  30.384  29.993  1.00  0.00     0.037 A 
ATOM     51  C   UNL A   1      45.651  29.490  27.469  1.00  0.00     0.049 A 
ATOM     52  C   UNL A   1      40.938  31.248  29.916  1.00  0.00     0.074 A 
ATOM     53  C   UNL A   1      46.689  30.402  27.387  1.00  0.00     0.029 A 
ATOM     54  N   UNL A   1      44.609  30.131  28.124  1.00  0.00    -0.354 N 
ATOM     55  N   UNL A   1      42.100  30.989  29.367  1.00  0.00    -0.248 NA
ATOM     56  C   UNL A   1      40.852  32.580  30.530  1.00  0.00     0.031 C 
ATOM     57  C   UNL A   1      46.295  31.577  28.036  1.00  0.00     0.029 A 
ATOM     58  C   UNL A   1      44.991  31.416  28.476  1.00  0.00     0.049 A 
ATOM     59  H   UNL A   1      43.729  29.731  28.312  1.00  0.00     0.167 HD
ATOM     60  C   UNL A   1      42.871  32.130  29.545  1.00  0.00     0.074 A 
ATOM     61  C   UNL A   1      42.039  33.090  30.240  1.00  0.00     0.031 C 
ATOM     62  C   UNL A   1      44.153  32.362  29.168  1.00  0.00     0.037 A 
BRANCH  49  63
ATOM     63  C   UNL A   1      46.843  27.562  26.361  1.00  0.00     0.064 A 
ATOM     64  C   UNL A   1      47.842  26.937  27.124  1.00  0.00     0.173 A 
ATOM     65  C   UNL A   1      47.016  27.615  24.971  1.00  0.00     0.173 A 
ATOM     66  F   UNL A   1      47.732  26.872  28.459  1.00  0.00    -0.203 F 
ATOM     67  C   UNL A   1      48.981  26.410  26.519  1.00  0.00     0.198 A 
ATOM     68  C   UNL A   1      48.142  27.062  24.366  1.00  0.00     0.198 A 
ATOM     69  F   UNL A   1      46.089  28.197  24.196  1.00  0.00    -0.203 F 
ATOM     70  F   UNL A   1      49.943  25.859  27.270  1.00  0.00    -0.200 F 
ATOM     71  C   UNL A   1      49.126  26.467  25.140  1.00  0.00     0.200 A 
ATOM     72  F   UNL A   1      48.275  27.108  23.033  1.00  0.00    -0.200 F 
ATOM     73  F   UNL A   1      50.219  25.954  24.559  1.00  0.00    -0.200 F 
ENDBRANCH  49  63
BRANCH  50  74
ATOM     74  C   UNL A   1      38.473  30.879  30.657  1.00  0.00     0.064 A 
ATOM     75  C   UNL A   1      37.432  31.453  29.915  1.00  0.00     0.173 A 
ATOM     76  C   UNL A   1      38.318  30.806  32.049  1.00  0.00     0.173 A 
ATOM     77  F   UNL A   1      37.546  31.571  28.583  1.00  0.00    -0.203 F 
ATOM     78  C   UNL A   1      36.290  31.948  30.540  1.00  0.00     0.198 A 
ATOM     79  C   UNL A   1      37.164  31.276  32.671  1.00  0.00     0.198 A 
ATOM     80  F   UNL A   1      39.288  30.269  32.805  1.00  0.00    -0.203 F 
ATOM     81  F   UNL A   1      35.330  32.534  29.812  1.00  0.00    -0.200 F 
ATOM     82  C   UNL A   1      36.155  31.854  31.917  1.00  0.00     0.200 A 
ATOM     83  F   UNL A   1      37.034  31.174  34.000  1.00  0.00    -0.200 F 
ATOM     84  F   UNL A   1      35.055  32.328  32.519  1.00  0.00    -0.200 F 
ENDBRANCH  50  74
BRANCH  62  85
ATOM     85  C   UNL A   1      44.725  33.718  29.472  1.00  0.00     0.064 A 
ATOM     86  C   UNL A   1      44.553  34.803  28.601  1.00  0.00     0.173 A 
ATOM     87  C   UNL A   1      45.434  33.938  30.664  1.00  0.00     0.173 A 
ATOM     88  F   UNL A   1      43.896  34.641  27.442  1.00  0.00    -0.203 F 
ATOM     89  C   UNL A   1      45.093  36.052  28.898  1.00  0.00     0.198 A 
ATOM     90  C   UNL A   1      45.946  35.196  30.971  1.00  0.00     0.198 A 
ATOM     91  F   UNL A   1      45.622  32.936  31.536  1.00  0.00    -0.203 F 
ATOM     92  F   UNL A   1      44.959  37.061  28.025  1.00  0.00    -0.200 F 
ATOM     93  C   UNL A   1      45.784  36.249  30.083  1.00  0.00     0.200 A 
ATOM     94  F   UNL A   1      46.601  35.387  32.124  1.00  0.00    -0.200 F 
ATOM     95  F   UNL A   1      46.300  37.452  30.368  1.00  0.00    -0.200 F 
ENDBRANCH  62  85
ENDBRANCH  36  37
ENDBRANCH  29  31
ENDBRANCH  28  29
ENDBRANCH  27  28
ENDBRANCH  26  27
ENDBRANCH   1  26
TORSDOF 16
ENDMDL
