MODEL 1
REMARK VINA RESULT:     -10.6      0.000      0.000
REMARK SMILES C[NH2+]C[C@H](C)C(=O)N1[C@H](C(=O)OCCOCCOC(=O)c2ccc(-c3c4nc(c(-c5c(F)c(F)c(F)c(F)c5F)c5ccc([nH]5)c(-c5c(F)c(F)c(F)c(F)c5F)c5nc(c(-c6c(F)c(F)c(F)c(F)c6F)c6ccc3[nH]6)C=C5)C=C4)cc2)CS[C@H]1C(C)C
REMARK SMILES IDX 14 1 13 2 12 3 10 4 11 5 9 6 8 7 86 8 84 9 85 10 6 11 7 12
REMARK SMILES IDX 4 13 5 14 3 15 2 16 1 17 87 20 88 21 89 22 15 23 16 24 17 25
REMARK SMILES IDX 18 26 19 27 20 28 21 29 22 30 83 31 23 32 82 33 24 34 25 35
REMARK SMILES IDX 26 36 76 37 27 38 81 39 75 40 77 41 28 42 80 43 74 44 73 45
REMARK SMILES IDX 29 47 61 48 41 49 60 50 42 51 45 52 59 53 78 54 43 55 44 56
REMARK SMILES IDX 58 58 79 59 46 60 30 61 31 62 39 63 32 64 33 65 37 66 40 67
REMARK SMILES IDX 34 68 35 69 38 70 36 71 62 72 63 73 71 74 64 75 65 76 69 77
REMARK SMILES IDX 72 78 66 79 67 80 70 81 68 82 47 83 48 84 56 85 49 86 50 87
REMARK SMILES IDX 54 88 57 89 51 90 52 91 55 92 53 93
REMARK H PARENT 2 18 2 19 77 46 45 57
REMARK Flexibility Score: inf
ROOT
ATOM      1  C   UNL A   1      34.934  22.386  26.071  1.00  0.00     0.202 C 
ENDROOT
BRANCH   1   2
ATOM      2  C   UNL A   1      33.896  22.765  27.136  1.00  0.00     0.261 C 
BRANCH   2   3
ATOM      3  O   UNL A   1      32.520  22.701  26.693  1.00  0.00    -0.462 OA
BRANCH   3   4
ATOM      4  C   UNL A   1      31.901  23.912  26.594  1.00  0.00     0.329 C 
ATOM      5  O   UNL A   1      30.987  24.276  27.333  1.00  0.00    -0.250 OA
BRANCH   4   6
ATOM      6  C   UNL A   1      32.338  24.786  25.401  1.00  0.00     0.206 C 
ATOM      7  N   UNL A   1      31.435  25.107  24.262  1.00  0.00    -0.315 N 
ATOM      8  C   UNL A   1      30.617  26.287  24.573  1.00  0.00     0.146 C 
ATOM      9  C   UNL A   1      32.859  26.097  26.005  1.00  0.00     0.109 C 
ATOM     10  S   UNL A   1      31.821  27.422  25.351  1.00  0.00    -0.134 SA
BRANCH   7  11
ATOM     11  C   UNL A   1      31.386  24.154  23.267  1.00  0.00     0.232 C 
ATOM     12  O   UNL A   1      30.297  23.580  23.089  1.00  0.00    -0.274 OA
BRANCH  11  13
ATOM     13  C   UNL A   1      32.585  23.432  22.609  1.00  0.00     0.130 C 
ATOM     14  C   UNL A   1      34.050  23.770  22.817  1.00  0.00     0.024 C 
BRANCH  13  15
ATOM     15  C   UNL A   1      32.373  21.905  22.687  1.00  0.00     0.273 C 
BRANCH  15  16
ATOM     16  N   UNL A   1      32.184  21.379  24.047  1.00  0.00    -0.348 N 
ATOM     17  C   UNL A   1      32.624  19.992  24.182  1.00  0.00     0.330 C 
ATOM     18  H   UNL A   1      32.720  21.956  24.696  1.00  0.00     0.346 HD
ATOM     19  H   UNL A   1      31.186  21.407  24.252  1.00  0.00     0.346 HD
ENDBRANCH  15  16
ENDBRANCH  13  15
ENDBRANCH  11  13
ENDBRANCH   7  11
BRANCH   8  20
ATOM     20  C   UNL A   1      29.745  26.950  23.501  1.00  0.00     0.016 C 
ATOM     21  C   UNL A   1      28.263  26.751  23.852  1.00  0.00     0.010 C 
ATOM     22  C   UNL A   1      29.959  28.461  23.307  1.00  0.00     0.010 C 
ENDBRANCH   8  20
ENDBRANCH   4   6
ENDBRANCH   3   4
ENDBRANCH   2   3
ENDBRANCH   1   2
BRANCH   1  23
ATOM     23  O   UNL A   1      35.558  21.109  26.145  1.00  0.00    -0.374 OA
BRANCH  23  24
ATOM     24  C   UNL A   1      36.155  20.605  24.953  1.00  0.00     0.202 C 
BRANCH  24  25
ATOM     25  C   UNL A   1      37.665  20.317  24.983  1.00  0.00     0.261 C 
BRANCH  25  26
ATOM     26  O   UNL A   1      38.475  21.472  25.273  1.00  0.00    -0.460 OA
BRANCH  26  27
ATOM     27  C   UNL A   1      39.494  21.234  26.135  1.00  0.00     0.338 C 
ATOM     28  O   UNL A   1      40.115  20.198  26.289  1.00  0.00    -0.246 OA
BRANCH  27  29
ATOM     29  C   UNL A   1      39.902  22.484  26.801  1.00  0.00     0.060 A 
ATOM     30  C   UNL A   1      39.217  23.654  26.450  1.00  0.00     0.016 A 
ATOM     31  C   UNL A   1      40.998  22.532  27.665  1.00  0.00     0.016 A 
ATOM     32  C   UNL A   1      39.656  24.887  26.924  1.00  0.00     0.010 A 
ATOM     33  C   UNL A   1      41.444  23.773  28.133  1.00  0.00     0.010 A 
ATOM     34  C   UNL A   1      40.796  24.957  27.735  1.00  0.00    -0.014 A 
BRANCH  34  35
ATOM     35  C   UNL A   1      41.389  26.282  28.036  1.00  0.00     0.031 A 
ATOM     36  C   UNL A   1      42.787  26.579  27.570  1.00  0.00     0.074 A 
ATOM     37  C   UNL A   1      40.672  27.221  28.677  1.00  0.00     0.049 A 
ATOM     38  N   UNL A   1      43.500  27.667  27.717  1.00  0.00    -0.248 NA
ATOM     39  C   UNL A   1      43.474  25.505  26.835  1.00  0.00     0.031 C 
ATOM     40  C   UNL A   1      39.297  27.058  29.142  1.00  0.00     0.029 A 
ATOM     41  N   UNL A   1      41.006  28.500  29.046  1.00  0.00    -0.354 N 
ATOM     42  C   UNL A   1      44.716  27.407  27.099  1.00  0.00     0.074 A 
ATOM     43  C   UNL A   1      44.659  26.049  26.603  1.00  0.00     0.031 C 
ATOM     44  C   UNL A   1      38.904  28.195  29.743  1.00  0.00     0.029 A 
ATOM     45  C   UNL A   1      40.008  29.152  29.726  1.00  0.00     0.049 A 
ATOM     46  H   UNL A   1      41.876  28.910  28.842  1.00  0.00     0.167 HD
ATOM     47  C   UNL A   1      45.779  28.232  26.949  1.00  0.00     0.037 A 
ATOM     48  C   UNL A   1      39.997  30.377  30.284  1.00  0.00     0.037 A 
ATOM     49  C   UNL A   1      45.830  29.584  27.444  1.00  0.00     0.049 A 
ATOM     50  C   UNL A   1      41.217  31.253  30.161  1.00  0.00     0.074 A 
ATOM     51  C   UNL A   1      46.849  30.511  27.322  1.00  0.00     0.029 A 
ATOM     52  N   UNL A   1      44.814  30.198  28.161  1.00  0.00    -0.354 N 
ATOM     53  N   UNL A   1      42.350  31.012  29.547  1.00  0.00    -0.248 NA
ATOM     54  C   UNL A   1      41.155  32.572  30.807  1.00  0.00     0.031 C 
ATOM     55  C   UNL A   1      46.472  31.669  28.011  1.00  0.00     0.029 A 
ATOM     56  C   UNL A   1      45.195  31.481  28.518  1.00  0.00     0.049 A 
ATOM     57  H   UNL A   1      43.950  29.782  28.386  1.00  0.00     0.167 HD
ATOM     58  C   UNL A   1      43.125  32.153  29.711  1.00  0.00     0.074 A 
ATOM     59  C   UNL A   1      42.326  33.094  30.469  1.00  0.00     0.031 C 
ATOM     60  C   UNL A   1      44.385  32.402  29.274  1.00  0.00     0.037 A 
BRANCH  47  61
ATOM     61  C   UNL A   1      46.986  27.688  26.242  1.00  0.00     0.064 A 
ATOM     62  C   UNL A   1      48.030  27.061  26.940  1.00  0.00     0.173 A 
ATOM     63  C   UNL A   1      47.087  27.770  24.846  1.00  0.00     0.173 A 
ATOM     64  F   UNL A   1      47.988  26.970  28.278  1.00  0.00    -0.203 F 
ATOM     65  C   UNL A   1      49.142  26.560  26.267  1.00  0.00     0.198 A 
ATOM     66  C   UNL A   1      48.188  27.243  24.174  1.00  0.00     0.198 A 
ATOM     67  F   UNL A   1      46.116  28.356  24.130  1.00  0.00    -0.203 F 
ATOM     68  F   UNL A   1      50.149  26.008  26.959  1.00  0.00    -0.200 F 
ATOM     69  C   UNL A   1      49.217  26.646  24.885  1.00  0.00     0.200 A 
ATOM     70  F   UNL A   1      48.254  27.318  22.837  1.00  0.00    -0.200 F 
ATOM     71  F   UNL A   1      50.285  26.160  24.239  1.00  0.00    -0.200 F 
ENDBRANCH  47  61
BRANCH  48  72
ATOM     72  C   UNL A   1      38.793  30.848  31.017  1.00  0.00     0.064 A 
ATOM     73  C   UNL A   1      38.685  30.702  32.406  1.00  0.00     0.173 A 
ATOM     74  C   UNL A   1      37.721  31.449  30.339  1.00  0.00     0.173 A 
ATOM     75  F   UNL A   1      39.673  30.111  33.095  1.00  0.00    -0.203 F 
ATOM     76  C   UNL A   1      37.546  31.122  33.088  1.00  0.00     0.198 A 
ATOM     77  C   UNL A   1      36.594  31.895  31.026  1.00  0.00     0.198 A 
ATOM     78  F   UNL A   1      37.774  31.613  29.010  1.00  0.00    -0.203 F 
ATOM     79  F   UNL A   1      37.450  30.931  34.411  1.00  0.00    -0.200 F 
ATOM     80  C   UNL A   1      36.503  31.724  32.399  1.00  0.00     0.200 A 
ATOM     81  F   UNL A   1      35.595  32.487  30.357  1.00  0.00    -0.200 F 
ATOM     82  F   UNL A   1      35.410  32.134  33.057  1.00  0.00    -0.200 F 
ENDBRANCH  48  72
BRANCH  60  83
ATOM     83  C   UNL A   1      44.968  33.750  29.586  1.00  0.00     0.064 A 
ATOM     84  C   UNL A   1      45.759  33.961  30.725  1.00  0.00     0.173 A 
ATOM     85  C   UNL A   1      44.770  34.829  28.712  1.00  0.00     0.173 A 
ATOM     86  F   UNL A   1      45.965  32.964  31.598  1.00  0.00    -0.203 F 
ATOM     87  C   UNL A   1      46.312  35.211  30.990  1.00  0.00     0.198 A 
ATOM     88  C   UNL A   1      45.348  36.070  28.965  1.00  0.00     0.198 A 
ATOM     89  F   UNL A   1      44.028  34.678  27.606  1.00  0.00    -0.203 F 
ATOM     90  F   UNL A   1      47.026  35.402  32.107  1.00  0.00    -0.200 F 
ATOM     91  C   UNL A   1      46.112  36.262  30.107  1.00  0.00     0.200 A 
ATOM     92  F   UNL A   1      45.166  37.081  28.103  1.00  0.00    -0.200 F 
ATOM     93  F   UNL A   1      46.650  37.463  30.359  1.00  0.00    -0.200 F 
ENDBRANCH  60  83
ENDBRANCH  34  35
ENDBRANCH  27  29
ENDBRANCH  26  27
ENDBRANCH  25  26
ENDBRANCH  24  25
ENDBRANCH  23  24
ENDBRANCH   1  23
TORSDOF 19
ENDMDL
MODEL 2
REMARK VINA RESULT:     -10.2      4.215      7.013
REMARK SMILES C[NH2+]C[C@H](C)C(=O)N1[C@H](C(=O)OCCOCCOC(=O)c2ccc(-c3c4nc(c(-c5c(F)c(F)c(F)c(F)c5F)c5ccc([nH]5)c(-c5c(F)c(F)c(F)c(F)c5F)c5nc(c(-c6c(F)c(F)c(F)c(F)c6F)c6ccc3[nH]6)C=C5)C=C4)cc2)CS[C@H]1C(C)C
REMARK SMILES IDX 14 1 13 2 12 3 10 4 11 5 9 6 8 7 86 8 84 9 85 10 6 11 7 12
REMARK SMILES IDX 4 13 5 14 3 15 2 16 1 17 87 20 88 21 89 22 15 23 16 24 17 25
REMARK SMILES IDX 18 26 19 27 20 28 21 29 22 30 83 31 23 32 82 33 24 34 25 35
REMARK SMILES IDX 26 36 76 37 27 38 81 39 75 40 77 41 28 42 80 43 74 44 73 45
REMARK SMILES IDX 29 47 61 48 41 49 60 50 42 51 45 52 59 53 78 54 43 55 44 56
REMARK SMILES IDX 58 58 79 59 46 60 30 61 31 62 39 63 32 64 33 65 37 66 40 67
REMARK SMILES IDX 34 68 35 69 38 70 36 71 62 72 63 73 71 74 64 75 65 76 69 77
REMARK SMILES IDX 72 78 66 79 67 80 70 81 68 82 47 83 48 84 56 85 49 86 50 87
REMARK SMILES IDX 54 88 57 89 51 90 52 91 55 92 53 93
REMARK H PARENT 2 18 2 19 77 46 45 57
REMARK Flexibility Score: inf
ROOT
ATOM      1  C   UNL A   1      31.401  28.263  23.055  1.00  0.00     0.202 C 
ENDROOT
BRANCH   1   2
ATOM      2  C   UNL A   1      30.702  26.900  22.968  1.00  0.00     0.261 C 
BRANCH   2   3
ATOM      3  O   UNL A   1      31.366  25.929  22.126  1.00  0.00    -0.462 OA
BRANCH   3   4
ATOM      4  C   UNL A   1      32.640  25.626  22.509  1.00  0.00     0.329 C 
ATOM      5  O   UNL A   1      33.642  25.968  21.882  1.00  0.00    -0.250 OA
BRANCH   4   6
ATOM      6  C   UNL A   1      32.763  24.707  23.741  1.00  0.00     0.206 C 
ATOM      7  N   UNL A   1      33.718  23.567  23.806  1.00  0.00    -0.315 N 
ATOM      8  C   UNL A   1      35.036  24.027  24.263  1.00  0.00     0.146 C 
ATOM      9  C   UNL A   1      33.017  25.635  24.936  1.00  0.00     0.109 C 
ATOM     10  S   UNL A   1      34.616  25.165  25.631  1.00  0.00    -0.134 SA
BRANCH   7  11
ATOM     11  C   UNL A   1      33.266  22.392  23.246  1.00  0.00     0.232 C 
ATOM     12  O   UNL A   1      32.882  22.442  22.063  1.00  0.00    -0.274 OA
BRANCH  11  13
ATOM     13  C   UNL A   1      32.809  21.118  23.995  1.00  0.00     0.130 C 
ATOM     14  C   UNL A   1      32.182  19.890  23.360  1.00  0.00     0.024 C 
BRANCH  13  15
ATOM     15  C   UNL A   1      33.894  20.701  25.010  1.00  0.00     0.273 C 
BRANCH  15  16
ATOM     16  N   UNL A   1      33.424  20.579  26.398  1.00  0.00    -0.348 N 
ATOM     17  C   UNL A   1      33.808  21.720  27.226  1.00  0.00     0.330 C 
ATOM     18  H   UNL A   1      32.406  20.509  26.392  1.00  0.00     0.346 HD
ATOM     19  H   UNL A   1      33.857  19.748  26.798  1.00  0.00     0.346 HD
ENDBRANCH  15  16
ENDBRANCH  13  15
ENDBRANCH  11  13
ENDBRANCH   7  11
BRANCH   8  20
ATOM     20  C   UNL A   1      36.148  23.030  24.607  1.00  0.00     0.016 C 
ATOM     21  C   UNL A   1      36.936  22.683  23.336  1.00  0.00     0.010 C 
ATOM     22  C   UNL A   1      37.171  23.506  25.652  1.00  0.00     0.010 C 
ENDBRANCH   8  20
ENDBRANCH   4   6
ENDBRANCH   3   4
ENDBRANCH   2   3
ENDBRANCH   1   2
BRANCH   1  23
ATOM     23  O   UNL A   1      31.728  28.785  24.338  1.00  0.00    -0.374 OA
BRANCH  23  24
ATOM     24  C   UNL A   1      31.073  29.984  24.741  1.00  0.00     0.202 C 
BRANCH  24  25
ATOM     25  C   UNL A   1      31.539  30.644  26.048  1.00  0.00     0.261 C 
BRANCH  25  26
ATOM     26  O   UNL A   1      32.970  30.682  26.206  1.00  0.00    -0.460 OA
BRANCH  26  27
ATOM     27  C   UNL A   1      33.407  31.609  27.094  1.00  0.00     0.338 C 
ATOM     28  O   UNL A   1      32.791  32.555  27.550  1.00  0.00    -0.246 OA
BRANCH  27  29
ATOM     29  C   UNL A   1      34.741  31.239  27.603  1.00  0.00     0.060 A 
ATOM     30  C   UNL A   1      34.962  29.892  27.913  1.00  0.00     0.016 A 
ATOM     31  C   UNL A   1      35.716  32.202  27.873  1.00  0.00     0.016 A 
ATOM     32  C   UNL A   1      36.142  29.506  28.541  1.00  0.00     0.010 A 
ATOM     33  C   UNL A   1      36.898  31.814  28.513  1.00  0.00     0.010 A 
ATOM     34  C   UNL A   1      37.099  30.471  28.882  1.00  0.00    -0.014 A 
BRANCH  34  35
ATOM     35  C   UNL A   1      38.234  30.086  29.755  1.00  0.00     0.031 A 
ATOM     36  C   UNL A   1      39.265  29.127  29.231  1.00  0.00     0.074 A 
ATOM     37  C   UNL A   1      38.364  30.621  30.981  1.00  0.00     0.049 A 
ATOM     38  N   UNL A   1      40.338  28.656  29.815  1.00  0.00    -0.248 NA
ATOM     39  C   UNL A   1      39.062  28.631  27.860  1.00  0.00     0.031 C 
ATOM     40  C   UNL A   1      37.446  31.589  31.578  1.00  0.00     0.029 A 
ATOM     41  N   UNL A   1      39.323  30.425  31.942  1.00  0.00    -0.354 N 
ATOM     42  C   UNL A   1      40.933  27.810  28.888  1.00  0.00     0.074 A 
ATOM     43  C   UNL A   1      40.086  27.805  27.715  1.00  0.00     0.031 C 
ATOM     44  C   UNL A   1      37.883  31.898  32.812  1.00  0.00     0.029 A 
ATOM     45  C   UNL A   1      39.095  31.132  33.097  1.00  0.00     0.049 A 
ATOM     46  H   UNL A   1      40.100  29.835  31.816  1.00  0.00     0.167 HD
ATOM     47  C   UNL A   1      42.087  27.112  29.003  1.00  0.00     0.037 A 
ATOM     48  C   UNL A   1      39.780  31.143  34.255  1.00  0.00     0.037 A 
ATOM     49  C   UNL A   1      42.926  27.123  30.173  1.00  0.00     0.049 A 
ATOM     50  C   UNL A   1      41.026  30.305  34.382  1.00  0.00     0.074 A 
ATOM     51  C   UNL A   1      44.128  26.471  30.381  1.00  0.00     0.029 A 
ATOM     52  N   UNL A   1      42.643  27.821  31.338  1.00  0.00    -0.354 N 
ATOM     53  N   UNL A   1      41.599  29.534  33.490  1.00  0.00    -0.248 NA
ATOM     54  C   UNL A   1      41.721  30.341  35.676  1.00  0.00     0.031 C 
ATOM     55  C   UNL A   1      44.546  26.732  31.690  1.00  0.00     0.029 A 
ATOM     56  C   UNL A   1      43.631  27.589  32.281  1.00  0.00     0.049 A 
ATOM     57  H   UNL A   1      41.855  28.395  31.475  1.00  0.00     0.167 HD
ATOM     58  C   UNL A   1      42.731  29.014  34.104  1.00  0.00     0.074 A 
ATOM     59  C   UNL A   1      42.773  29.569  35.440  1.00  0.00     0.031 C 
ATOM     60  C   UNL A   1      43.654  28.152  33.607  1.00  0.00     0.037 A 
BRANCH  47  61
ATOM     61  C   UNL A   1      42.498  26.256  27.841  1.00  0.00     0.064 A 
ATOM     62  C   UNL A   1      43.412  26.710  26.876  1.00  0.00     0.173 A 
ATOM     63  C   UNL A   1      41.992  24.956  27.703  1.00  0.00     0.173 A 
ATOM     64  F   UNL A   1      43.913  27.952  26.955  1.00  0.00    -0.203 F 
ATOM     65  C   UNL A   1      43.783  25.902  25.805  1.00  0.00     0.198 A 
ATOM     66  C   UNL A   1      42.388  24.140  26.645  1.00  0.00     0.198 A 
ATOM     67  F   UNL A   1      41.118  24.471  28.598  1.00  0.00    -0.203 F 
ATOM     68  F   UNL A   1      44.620  26.375  24.871  1.00  0.00    -0.200 F 
ATOM     69  C   UNL A   1      43.276  24.617  25.693  1.00  0.00     0.200 A 
ATOM     70  F   UNL A   1      41.904  22.894  26.544  1.00  0.00    -0.200 F 
ATOM     71  F   UNL A   1      43.636  23.839  24.663  1.00  0.00    -0.200 F 
ENDBRANCH  47  61
BRANCH  48  72
ATOM     72  C   UNL A   1      39.301  31.970  35.393  1.00  0.00     0.064 A 
ATOM     73  C   UNL A   1      39.678  33.313  35.522  1.00  0.00     0.173 A 
ATOM     74  C   UNL A   1      38.460  31.431  36.378  1.00  0.00     0.173 A 
ATOM     75  F   UNL A   1      40.500  33.867  34.619  1.00  0.00    -0.203 F 
ATOM     76  C   UNL A   1      39.246  34.082  36.602  1.00  0.00     0.198 A 
ATOM     77  C   UNL A   1      38.007  32.208  37.442  1.00  0.00     0.198 A 
ATOM     78  F   UNL A   1      38.070  30.151  36.301  1.00  0.00    -0.203 F 
ATOM     79  F   UNL A   1      39.656  35.352  36.724  1.00  0.00    -0.200 F 
ATOM     80  C   UNL A   1      38.406  33.530  37.557  1.00  0.00     0.200 A 
ATOM     81  F   UNL A   1      37.185  31.674  38.356  1.00  0.00    -0.200 F 
ATOM     82  F   UNL A   1      37.986  34.272  38.592  1.00  0.00    -0.200 F 
ENDBRANCH  48  72
BRANCH  60  83
ATOM     83  C   UNL A   1      44.797  27.776  34.504  1.00  0.00     0.064 A 
ATOM     84  C   UNL A   1      45.967  28.549  34.565  1.00  0.00     0.173 A 
ATOM     85  C   UNL A   1      44.703  26.656  35.344  1.00  0.00     0.173 A 
ATOM     86  F   UNL A   1      46.110  29.620  33.772  1.00  0.00    -0.203 F 
ATOM     87  C   UNL A   1      47.010  28.200  35.419  1.00  0.00     0.198 A 
ATOM     88  C   UNL A   1      45.737  26.327  36.216  1.00  0.00     0.198 A 
ATOM     89  F   UNL A   1      43.604  25.888  35.328  1.00  0.00    -0.203 F 
ATOM     90  F   UNL A   1      48.136  28.926  35.428  1.00  0.00    -0.200 F 
ATOM     91  C   UNL A   1      46.892  27.094  36.248  1.00  0.00     0.200 A 
ATOM     92  F   UNL A   1      45.615  25.266  37.027  1.00  0.00    -0.200 F 
ATOM     93  F   UNL A   1      47.894  26.763  37.074  1.00  0.00    -0.200 F 
ENDBRANCH  60  83
ENDBRANCH  34  35
ENDBRANCH  27  29
ENDBRANCH  26  27
ENDBRANCH  25  26
ENDBRANCH  24  25
ENDBRANCH  23  24
ENDBRANCH   1  23
TORSDOF 19
ENDMDL
MODEL 3
REMARK VINA RESULT:     -10.1      2.046      7.996
REMARK SMILES C[NH2+]C[C@H](C)C(=O)N1[C@H](C(=O)OCCOCCOC(=O)c2ccc(-c3c4nc(c(-c5c(F)c(F)c(F)c(F)c5F)c5ccc([nH]5)c(-c5c(F)c(F)c(F)c(F)c5F)c5nc(c(-c6c(F)c(F)c(F)c(F)c6F)c6ccc3[nH]6)C=C5)C=C4)cc2)CS[C@H]1C(C)C
REMARK SMILES IDX 14 1 13 2 12 3 10 4 11 5 9 6 8 7 86 8 84 9 85 10 6 11 7 12
REMARK SMILES IDX 4 13 5 14 3 15 2 16 1 17 87 20 88 21 89 22 15 23 16 24 17 25
REMARK SMILES IDX 18 26 19 27 20 28 21 29 22 30 83 31 23 32 82 33 24 34 25 35
REMARK SMILES IDX 26 36 76 37 27 38 81 39 75 40 77 41 28 42 80 43 74 44 73 45
REMARK SMILES IDX 29 47 61 48 41 49 60 50 42 51 45 52 59 53 78 54 43 55 44 56
REMARK SMILES IDX 58 58 79 59 46 60 30 61 31 62 39 63 32 64 33 65 37 66 40 67
REMARK SMILES IDX 34 68 35 69 38 70 36 71 62 72 63 73 71 74 64 75 65 76 69 77
REMARK SMILES IDX 72 78 66 79 67 80 70 81 68 82 47 83 48 84 56 85 49 86 50 87
REMARK SMILES IDX 54 88 57 89 51 90 52 91 55 92 53 93
REMARK H PARENT 2 18 2 19 77 46 45 57
REMARK Flexibility Score: inf
ROOT
ATOM      1  C   UNL A   1      37.970  22.795  26.266  1.00  0.00     0.202 C 
ENDROOT
BRANCH   1   2
ATOM      2  C   UNL A   1      36.896  23.733  25.699  1.00  0.00     0.261 C 
BRANCH   2   3
ATOM      3  O   UNL A   1      35.764  23.066  25.092  1.00  0.00    -0.462 OA
BRANCH   3   4
ATOM      4  C   UNL A   1      34.609  23.144  25.813  1.00  0.00     0.329 C 
ATOM      5  O   UNL A   1      34.566  23.110  27.042  1.00  0.00    -0.250 OA
BRANCH   4   6
ATOM      6  C   UNL A   1      33.309  23.160  24.984  1.00  0.00     0.206 C 
ATOM      7  N   UNL A   1      32.702  24.414  24.459  1.00  0.00    -0.315 N 
ATOM      8  C   UNL A   1      33.298  24.770  23.165  1.00  0.00     0.146 C 
ATOM      9  C   UNL A   1      33.541  22.194  23.814  1.00  0.00     0.109 C 
ATOM     10  S   UNL A   1      33.377  23.161  22.299  1.00  0.00    -0.134 SA
BRANCH   7  11
ATOM     11  C   UNL A   1      31.889  25.087  25.346  1.00  0.00     0.232 C 
ATOM     12  O   UNL A   1      30.670  24.847  25.286  1.00  0.00    -0.274 OA
BRANCH  11  13
ATOM     13  C   UNL A   1      32.233  26.374  26.133  1.00  0.00     0.130 C 
ATOM     14  C   UNL A   1      33.570  27.092  26.121  1.00  0.00     0.024 C 
BRANCH  13  15
ATOM     15  C   UNL A   1      31.079  27.388  25.990  1.00  0.00     0.273 C 
BRANCH  15  16
ATOM     16  N   UNL A   1      30.727  27.730  24.603  1.00  0.00    -0.348 N 
ATOM     17  C   UNL A   1      31.077  29.105  24.255  1.00  0.00     0.330 C 
ATOM     18  H   UNL A   1      31.225  27.097  23.976  1.00  0.00     0.346 HD
ATOM     19  H   UNL A   1      29.717  27.636  24.510  1.00  0.00     0.346 HD
ENDBRANCH  15  16
ENDBRANCH  13  15
ENDBRANCH  11  13
ENDBRANCH   7  11
BRANCH   8  20
ATOM     20  C   UNL A   1      32.721  25.904  22.311  1.00  0.00     0.016 C 
ATOM     21  C   UNL A   1      33.648  27.127  22.389  1.00  0.00     0.010 C 
ATOM     22  C   UNL A   1      32.526  25.585  20.819  1.00  0.00     0.010 C 
ENDBRANCH   8  20
ENDBRANCH   4   6
ENDBRANCH   3   4
ENDBRANCH   2   3
ENDBRANCH   1   2
BRANCH   1  23
ATOM     23  O   UNL A   1      38.665  21.931  25.374  1.00  0.00    -0.374 OA
BRANCH  23  24
ATOM     24  C   UNL A   1      38.197  20.589  25.269  1.00  0.00     0.202 C 
BRANCH  24  25
ATOM     25  C   UNL A   1      39.225  19.462  25.458  1.00  0.00     0.261 C 
BRANCH  25  26
ATOM     26  O   UNL A   1      40.137  19.680  26.551  1.00  0.00    -0.460 OA
BRANCH  26  27
ATOM     27  C   UNL A   1      41.437  19.437  26.246  1.00  0.00     0.338 C 
ATOM     28  O   UNL A   1      41.912  18.431  25.751  1.00  0.00    -0.246 OA
BRANCH  27  29
ATOM     29  C   UNL A   1      42.244  20.655  26.446  1.00  0.00     0.060 A 
ATOM     30  C   UNL A   1      42.273  21.204  27.734  1.00  0.00     0.016 A 
ATOM     31  C   UNL A   1      42.868  21.304  25.379  1.00  0.00     0.016 A 
ATOM     32  C   UNL A   1      42.886  22.435  27.952  1.00  0.00     0.010 A 
ATOM     33  C   UNL A   1      43.476  22.545  25.599  1.00  0.00     0.010 A 
ATOM     34  C   UNL A   1      43.455  23.131  26.878  1.00  0.00    -0.014 A 
BRANCH  34  35
ATOM     35  C   UNL A   1      43.891  24.534  27.076  1.00  0.00     0.031 A 
ATOM     36  C   UNL A   1      42.894  25.544  27.573  1.00  0.00     0.074 A 
ATOM     37  C   UNL A   1      45.168  24.890  26.858  1.00  0.00     0.049 A 
ATOM     38  N   UNL A   1      43.054  26.820  27.820  1.00  0.00    -0.248 NA
ATOM     39  C   UNL A   1      41.532  25.049  27.829  1.00  0.00     0.031 C 
ATOM     40  C   UNL A   1      46.227  23.989  26.411  1.00  0.00     0.029 A 
ATOM     41  N   UNL A   1      45.788  26.108  26.983  1.00  0.00    -0.354 N 
ATOM     42  C   UNL A   1      41.818  27.278  28.255  1.00  0.00     0.074 A 
ATOM     43  C   UNL A   1      40.908  26.153  28.208  1.00  0.00     0.031 C 
ATOM     44  C   UNL A   1      47.371  24.687  26.293  1.00  0.00     0.029 A 
ATOM     45  C   UNL A   1      47.114  26.086  26.631  1.00  0.00     0.049 A 
ATOM     46  H   UNL A   1      45.327  26.918  27.297  1.00  0.00     0.167 HD
ATOM     47  C   UNL A   1      41.476  28.521  28.668  1.00  0.00     0.037 A 
ATOM     48  C   UNL A   1      48.012  27.088  26.573  1.00  0.00     0.037 A 
ATOM     49  C   UNL A   1      42.387  29.636  28.715  1.00  0.00     0.049 A 
ATOM     50  C   UNL A   1      47.590  28.478  26.975  1.00  0.00     0.074 A 
ATOM     51  C   UNL A   1      42.148  30.930  29.141  1.00  0.00     0.029 A 
ATOM     52  N   UNL A   1      43.713  29.586  28.313  1.00  0.00    -0.354 N 
ATOM     53  N   UNL A   1      46.429  28.896  27.416  1.00  0.00    -0.248 NA
ATOM     54  C   UNL A   1      48.607  29.535  26.872  1.00  0.00     0.031 C 
ATOM     55  C   UNL A   1      43.315  31.676  28.949  1.00  0.00     0.029 A 
ATOM     56  C   UNL A   1      44.298  30.834  28.451  1.00  0.00     0.049 A 
ATOM     57  H   UNL A   1      44.173  28.781  27.978  1.00  0.00     0.167 HD
ATOM     58  C   UNL A   1      46.580  30.253  27.666  1.00  0.00     0.074 A 
ATOM     59  C   UNL A   1      47.951  30.587  27.342  1.00  0.00     0.031 C 
ATOM     60  C   UNL A   1      45.666  31.146  28.122  1.00  0.00     0.037 A 
BRANCH  47  61
ATOM     61  C   UNL A   1      40.051  28.749  29.080  1.00  0.00     0.064 A 
ATOM     62  C   UNL A   1      39.068  29.135  28.154  1.00  0.00     0.173 A 
ATOM     63  C   UNL A   1      39.657  28.553  30.411  1.00  0.00     0.173 A 
ATOM     64  F   UNL A   1      39.397  29.350  26.872  1.00  0.00    -0.203 F 
ATOM     65  C   UNL A   1      37.751  29.341  28.554  1.00  0.00     0.198 A 
ATOM     66  C   UNL A   1      38.332  28.732  30.801  1.00  0.00     0.198 A 
ATOM     67  F   UNL A   1      40.556  28.180  31.335  1.00  0.00    -0.203 F 
ATOM     68  F   UNL A   1      36.840  29.756  27.662  1.00  0.00    -0.200 F 
ATOM     69  C   UNL A   1      37.382  29.134  29.874  1.00  0.00     0.200 A 
ATOM     70  F   UNL A   1      37.975  28.522  32.076  1.00  0.00    -0.200 F 
ATOM     71  F   UNL A   1      36.113  29.328  30.257  1.00  0.00    -0.200 F 
ENDBRANCH  47  61
BRANCH  48  72
ATOM     72  C   UNL A   1      49.398  26.817  26.110  1.00  0.00     0.064 A 
ATOM     73  C   UNL A   1      49.757  26.969  24.765  1.00  0.00     0.173 A 
ATOM     74  C   UNL A   1      50.391  26.392  27.006  1.00  0.00     0.173 A 
ATOM     75  F   UNL A   1      48.836  27.350  23.866  1.00  0.00    -0.203 F 
ATOM     76  C   UNL A   1      51.050  26.692  24.328  1.00  0.00     0.198 A 
ATOM     77  C   UNL A   1      51.691  26.141  26.573  1.00  0.00     0.198 A 
ATOM     78  F   UNL A   1      50.099  26.229  28.304  1.00  0.00    -0.203 F 
ATOM     79  F   UNL A   1      51.356  26.805  23.028  1.00  0.00    -0.200 F 
ATOM     80  C   UNL A   1      52.019  26.284  25.234  1.00  0.00     0.200 A 
ATOM     81  F   UNL A   1      52.626  25.759  27.455  1.00  0.00    -0.200 F 
ATOM     82  F   UNL A   1      53.264  26.023  24.815  1.00  0.00    -0.200 F 
ENDBRANCH  48  72
BRANCH  60  83
ATOM     83  C   UNL A   1      46.125  32.561  28.319  1.00  0.00     0.064 A 
ATOM     84  C   UNL A   1      46.709  32.983  29.522  1.00  0.00     0.173 A 
ATOM     85  C   UNL A   1      46.019  33.494  27.276  1.00  0.00     0.173 A 
ATOM     86  F   UNL A   1      46.820  32.133  30.553  1.00  0.00    -0.203 F 
ATOM     87  C   UNL A   1      47.150  34.294  29.682  1.00  0.00     0.198 A 
ATOM     88  C   UNL A   1      46.487  34.796  27.430  1.00  0.00     0.198 A 
ATOM     89  F   UNL A   1      45.473  33.140  26.103  1.00  0.00    -0.203 F 
ATOM     90  F   UNL A   1      47.664  34.687  30.855  1.00  0.00    -0.200 F 
ATOM     91  C   UNL A   1      47.045  35.197  28.634  1.00  0.00     0.200 A 
ATOM     92  F   UNL A   1      46.398  35.664  26.412  1.00  0.00    -0.200 F 
ATOM     93  F   UNL A   1      47.477  36.456  28.787  1.00  0.00    -0.200 F 
ENDBRANCH  60  83
ENDBRANCH  34  35
ENDBRANCH  27  29
ENDBRANCH  26  27
ENDBRANCH  25  26
ENDBRANCH  24  25
ENDBRANCH  23  24
ENDBRANCH   1  23
TORSDOF 19
ENDMDL
