MODEL 1
REMARK VINA RESULT:     -12.2      0.000      0.000
REMARK SMILES O=C(OCCOCCOC(=O)[C@@H]1CCCC[C@@H]1NS(=O)(=O)c1ccc2ccccc2c1)c1ccc(-c2c3nc(c(-c4c(F)c(F)c(F)c(F)c4F)c4ccc([nH]4)c(-c4c(F)c(F)c(F)c(F)c4F)c4nc(c(-c5c(F)c(F)c(F)c(F)c5F)c5ccc2[nH]5)C=C4)C=C3)cc1
REMARK SMILES IDX 7 1 6 2 5 3 4 4 3 5 2 6 1 7 32 8 33 9 94 10 34 11 93 12
REMARK SMILES IDX 35 13 36 14 37 15 87 16 38 17 92 18 86 19 88 20 39 21 91 22
REMARK SMILES IDX 85 23 84 24 40 26 72 27 52 28 71 29 53 30 56 31 70 32 89 33
REMARK SMILES IDX 54 34 55 35 69 37 90 38 57 39 41 40 42 41 50 42 43 43 44 44
REMARK SMILES IDX 48 45 51 46 45 47 46 48 49 49 47 50 73 51 74 52 82 53 75 54
REMARK SMILES IDX 76 55 80 56 83 57 77 58 78 59 81 60 79 61 58 62 59 63 67 64
REMARK SMILES IDX 60 65 61 66 65 67 68 68 62 69 63 70 66 71 64 72 8 73 9 74
REMARK SMILES IDX 10 75 11 76 12 77 13 78 17 79 14 80 16 81 15 82 18 83 19 85
REMARK SMILES IDX 20 86 21 87 22 88 23 89 31 90 24 91 30 92 25 93 29 94 26 95
REMARK SMILES IDX 28 96 27 97
REMARK H PARENT 88 25 56 36 18 84
REMARK Flexibility Score: inf
ROOT
ATOM      1  C   UNL A   1      32.716  28.777  27.205  1.00  0.00     0.202 C 
ENDROOT
BRANCH   1   2
ATOM      2  O   UNL A   1      31.966  29.983  27.019  1.00  0.00    -0.374 OA
BRANCH   2   3
ATOM      3  C   UNL A   1      32.663  31.234  26.916  1.00  0.00     0.202 C 
BRANCH   3   4
ATOM      4  C   UNL A   1      31.917  32.533  27.250  1.00  0.00     0.261 C 
BRANCH   4   5
ATOM      5  O   UNL A   1      32.833  33.620  27.448  1.00  0.00    -0.460 OA
BRANCH   5   6
ATOM      6  C   UNL A   1      33.232  34.174  28.619  1.00  0.00     0.338 C 
ATOM      7  O   UNL A   1      32.602  35.089  29.142  1.00  0.00    -0.246 OA
BRANCH   6   8
ATOM      8  C   UNL A   1      34.444  33.682  29.274  1.00  0.00     0.060 A 
ATOM      9  C   UNL A   1      34.403  32.652  30.209  1.00  0.00     0.016 A 
ATOM     10  C   UNL A   1      35.668  34.228  28.883  1.00  0.00     0.016 A 
ATOM     11  C   UNL A   1      35.508  32.268  30.891  1.00  0.00     0.010 A 
ATOM     12  C   UNL A   1      36.824  33.773  29.485  1.00  0.00     0.010 A 
ATOM     13  C   UNL A   1      36.712  32.805  30.487  1.00  0.00    -0.014 A 
BRANCH  13  14
ATOM     14  C   UNL A   1      37.859  32.239  31.145  1.00  0.00     0.031 A 
ATOM     15  C   UNL A   1      38.601  31.193  30.417  1.00  0.00     0.074 A 
ATOM     16  C   UNL A   1      38.207  32.828  32.297  1.00  0.00     0.049 A 
ATOM     17  N   UNL A   1      39.595  30.474  30.830  1.00  0.00    -0.248 NA
ATOM     18  C   UNL A   1      38.173  30.920  29.032  1.00  0.00     0.031 C 
ATOM     19  C   UNL A   1      37.523  33.989  32.893  1.00  0.00     0.029 A 
ATOM     20  N   UNL A   1      39.210  32.549  33.163  1.00  0.00    -0.354 N 
ATOM     21  C   UNL A   1      39.890  29.626  29.778  1.00  0.00     0.074 A 
ATOM     22  C   UNL A   1      38.982  29.928  28.697  1.00  0.00     0.031 C 
ATOM     23  C   UNL A   1      38.109  34.291  34.057  1.00  0.00     0.029 A 
ATOM     24  C   UNL A   1      39.136  33.296  34.309  1.00  0.00     0.049 A 
ATOM     25  H   UNL A   1      39.914  31.883  32.989  1.00  0.00     0.167 HD
ATOM     26  C   UNL A   1      40.832  28.661  29.780  1.00  0.00     0.037 A 
ATOM     27  C   UNL A   1      39.790  33.108  35.464  1.00  0.00     0.037 A 
ATOM     28  C   UNL A   1      41.641  28.422  30.946  1.00  0.00     0.049 A 
ATOM     29  C   UNL A   1      40.762  31.966  35.476  1.00  0.00     0.074 A 
ATOM     30  C   UNL A   1      42.597  27.455  31.162  1.00  0.00     0.029 A 
ATOM     31  N   UNL A   1      41.554  29.178  32.119  1.00  0.00    -0.354 N 
ATOM     32  N   UNL A   1      41.025  31.107  34.515  1.00  0.00    -0.248 NA
ATOM     33  C   UNL A   1      41.526  31.761  36.702  1.00  0.00     0.031 C 
ATOM     34  C   UNL A   1      43.042  27.589  32.484  1.00  0.00     0.029 A 
ATOM     35  C   UNL A   1      42.420  28.687  33.073  1.00  0.00     0.049 A 
ATOM     36  H   UNL A   1      40.957  29.952  32.246  1.00  0.00     0.167 HD
ATOM     37  C   UNL A   1      42.010  30.270  35.001  1.00  0.00     0.074 A 
ATOM     38  C   UNL A   1      42.290  30.734  36.354  1.00  0.00     0.031 C 
ATOM     39  C   UNL A   1      42.636  29.227  34.399  1.00  0.00     0.037 A 
BRANCH  26  40
ATOM     40  C   UNL A   1      40.904  27.782  28.568  1.00  0.00     0.064 A 
ATOM     41  C   UNL A   1      41.694  28.104  27.453  1.00  0.00     0.173 A 
ATOM     42  C   UNL A   1      40.079  26.651  28.474  1.00  0.00     0.173 A 
ATOM     43  F   UNL A   1      42.471  29.199  27.469  1.00  0.00    -0.203 F 
ATOM     44  C   UNL A   1      41.622  27.357  26.278  1.00  0.00     0.198 A 
ATOM     45  C   UNL A   1      40.034  25.886  27.310  1.00  0.00     0.198 A 
ATOM     46  F   UNL A   1      39.283  26.307  29.497  1.00  0.00    -0.203 F 
ATOM     47  F   UNL A   1      42.318  27.740  25.197  1.00  0.00    -0.200 F 
ATOM     48  C   UNL A   1      40.793  26.248  26.209  1.00  0.00     0.200 A 
ATOM     49  F   UNL A   1      39.229  24.817  27.245  1.00  0.00    -0.200 F 
ATOM     50  F   UNL A   1      40.707  25.543  25.071  1.00  0.00    -0.200 F 
ENDBRANCH  26  40
BRANCH  27  51
ATOM     51  C   UNL A   1      39.487  33.980  36.621  1.00  0.00     0.064 A 
ATOM     52  C   UNL A   1      38.703  33.521  37.683  1.00  0.00     0.173 A 
ATOM     53  C   UNL A   1      40.078  35.250  36.748  1.00  0.00     0.173 A 
ATOM     54  F   UNL A   1      38.127  32.311  37.615  1.00  0.00    -0.203 F 
ATOM     55  C   UNL A   1      38.515  34.296  38.827  1.00  0.00     0.198 A 
ATOM     56  C   UNL A   1      39.911  36.014  37.902  1.00  0.00     0.198 A 
ATOM     57  F   UNL A   1      40.866  35.727  35.773  1.00  0.00    -0.203 F 
ATOM     58  F   UNL A   1      37.751  33.836  39.827  1.00  0.00    -0.200 F 
ATOM     59  C   UNL A   1      39.125  35.537  38.940  1.00  0.00     0.200 A 
ATOM     60  F   UNL A   1      40.530  37.197  38.018  1.00  0.00    -0.200 F 
ATOM     61  F   UNL A   1      38.963  36.270  40.050  1.00  0.00    -0.200 F 
ENDBRANCH  27  51
BRANCH  39  62
ATOM     62  C   UNL A   1      43.719  28.572  35.193  1.00  0.00     0.064 A 
ATOM     63  C   UNL A   1      43.463  27.463  36.008  1.00  0.00     0.173 A 
ATOM     64  C   UNL A   1      45.041  29.015  35.052  1.00  0.00     0.173 A 
ATOM     65  F   UNL A   1      42.207  27.024  36.179  1.00  0.00    -0.203 F 
ATOM     66  C   UNL A   1      44.503  26.819  36.665  1.00  0.00     0.198 A 
ATOM     67  C   UNL A   1      46.081  28.346  35.683  1.00  0.00     0.198 A 
ATOM     68  F   UNL A   1      45.323  30.071  34.274  1.00  0.00    -0.203 F 
ATOM     69  F   UNL A   1      44.241  25.780  37.469  1.00  0.00    -0.200 F 
ATOM     70  C   UNL A   1      45.811  27.252  36.490  1.00  0.00     0.200 A 
ATOM     71  F   UNL A   1      47.344  28.752  35.497  1.00  0.00    -0.200 F 
ATOM     72  F   UNL A   1      46.815  26.611  37.103  1.00  0.00    -0.200 F 
ENDBRANCH  39  62
ENDBRANCH  13  14
ENDBRANCH   6   8
ENDBRANCH   5   6
ENDBRANCH   4   5
ENDBRANCH   3   4
ENDBRANCH   2   3
ENDBRANCH   1   2
BRANCH   1  73
ATOM     73  C   UNL A   1      33.982  28.697  26.372  1.00  0.00     0.261 C 
BRANCH  73  74
ATOM     74  O   UNL A   1      33.768  27.638  25.427  1.00  0.00    -0.463 OA
BRANCH  74  75
ATOM     75  C   UNL A   1      33.251  28.088  24.260  1.00  0.00     0.310 C 
ATOM     76  O   UNL A   1      33.431  29.209  23.794  1.00  0.00    -0.252 OA
BRANCH  75  77
ATOM     77  C   UNL A   1      32.335  27.088  23.610  1.00  0.00     0.117 C 
ATOM     78  C   UNL A   1      31.007  27.334  24.327  1.00  0.00     0.017 C 
ATOM     79  C   UNL A   1      32.764  25.591  23.331  1.00  0.00     0.084 C 
ATOM     80  C   UNL A   1      29.891  26.535  23.705  1.00  0.00     0.001 C 
ATOM     81  C   UNL A   1      31.511  24.817  22.878  1.00  0.00     0.021 C 
ATOM     82  C   UNL A   1      30.270  25.066  23.735  1.00  0.00     0.002 C 
BRANCH  79  83
ATOM     83  N   UNL A   1      33.548  24.909  24.391  1.00  0.00    -0.207 NA
ATOM     84  H   UNL A   1      32.849  24.458  24.982  1.00  0.00     0.141 HD
BRANCH  83  85
ATOM     85  S   UNL A   1      34.775  23.733  24.200  1.00  0.00     0.240 S 
ATOM     86  O   UNL A   1      35.136  23.829  22.798  1.00  0.00    -0.207 OA
ATOM     87  O   UNL A   1      35.783  23.916  25.217  1.00  0.00    -0.207 OA
BRANCH  85  88
ATOM     88  C   UNL A   1      34.104  22.084  24.445  1.00  0.00     0.083 A 
ATOM     89  C   UNL A   1      32.727  21.896  24.567  1.00  0.00     0.022 A 
ATOM     90  C   UNL A   1      34.958  20.978  24.616  1.00  0.00     0.030 A 
ATOM     91  C   UNL A   1      32.203  20.593  24.660  1.00  0.00     0.010 A 
ATOM     92  C   UNL A   1      34.441  19.655  24.664  1.00  0.00    -0.017 A 
ATOM     93  C   UNL A   1      33.043  19.463  24.620  1.00  0.00    -0.018 A 
ATOM     94  C   UNL A   1      35.279  18.520  24.626  1.00  0.00     0.009 A 
ATOM     95  C   UNL A   1      32.529  18.158  24.468  1.00  0.00     0.009 A 
ATOM     96  C   UNL A   1      34.754  17.234  24.446  1.00  0.00     0.001 A 
ATOM     97  C   UNL A   1      33.380  17.056  24.345  1.00  0.00     0.001 A 
ENDBRANCH  85  88
ENDBRANCH  83  85
ENDBRANCH  79  83
ENDBRANCH  75  77
ENDBRANCH  74  75
ENDBRANCH  73  74
ENDBRANCH   1  73
TORSDOF 17
ENDMDL
MODEL 2
REMARK VINA RESULT:     -12.2      1.212      2.446
REMARK SMILES O=C(OCCOCCOC(=O)[C@@H]1CCCC[C@@H]1NS(=O)(=O)c1ccc2ccccc2c1)c1ccc(-c2c3nc(c(-c4c(F)c(F)c(F)c(F)c4F)c4ccc([nH]4)c(-c4c(F)c(F)c(F)c(F)c4F)c4nc(c(-c5c(F)c(F)c(F)c(F)c5F)c5ccc2[nH]5)C=C4)C=C3)cc1
REMARK SMILES IDX 7 1 6 2 5 3 4 4 3 5 2 6 1 7 32 8 33 9 94 10 34 11 93 12
REMARK SMILES IDX 35 13 36 14 37 15 87 16 38 17 92 18 86 19 88 20 39 21 91 22
REMARK SMILES IDX 85 23 84 24 40 26 72 27 52 28 71 29 53 30 56 31 70 32 89 33
REMARK SMILES IDX 54 34 55 35 69 37 90 38 57 39 41 40 42 41 50 42 43 43 44 44
REMARK SMILES IDX 48 45 51 46 45 47 46 48 49 49 47 50 73 51 74 52 82 53 75 54
REMARK SMILES IDX 76 55 80 56 83 57 77 58 78 59 81 60 79 61 58 62 59 63 67 64
REMARK SMILES IDX 60 65 61 66 65 67 68 68 62 69 63 70 66 71 64 72 8 73 9 74
REMARK SMILES IDX 10 75 11 76 12 77 13 78 17 79 14 80 16 81 15 82 18 83 19 85
REMARK SMILES IDX 20 86 21 87 22 88 23 89 31 90 24 91 30 92 25 93 29 94 26 95
REMARK SMILES IDX 28 96 27 97
REMARK H PARENT 88 25 56 36 18 84
REMARK Flexibility Score: inf
ROOT
ATOM      1  C   UNL A   1      34.473  29.820  27.606  1.00  0.00     0.202 C 
ENDROOT
BRANCH   1   2
ATOM      2  O   UNL A   1      33.338  30.693  27.660  1.00  0.00    -0.374 OA
BRANCH   2   3
ATOM      3  C   UNL A   1      33.491  32.069  27.280  1.00  0.00     0.202 C 
BRANCH   3   4
ATOM      4  C   UNL A   1      32.332  33.044  27.522  1.00  0.00     0.261 C 
BRANCH   4   5
ATOM      5  O   UNL A   1      32.806  34.294  28.043  1.00  0.00    -0.460 OA
BRANCH   5   6
ATOM      6  C   UNL A   1      33.166  34.586  29.317  1.00  0.00     0.338 C 
ATOM      7  O   UNL A   1      32.475  35.311  30.027  1.00  0.00    -0.246 OA
BRANCH   6   8
ATOM      8  C   UNL A   1      34.409  34.037  29.860  1.00  0.00     0.060 A 
ATOM      9  C   UNL A   1      34.405  33.069  30.860  1.00  0.00     0.016 A 
ATOM     10  C   UNL A   1      35.614  34.459  29.295  1.00  0.00     0.016 A 
ATOM     11  C   UNL A   1      35.552  32.637  31.434  1.00  0.00     0.010 A 
ATOM     12  C   UNL A   1      36.797  33.949  29.789  1.00  0.00     0.010 A 
ATOM     13  C   UNL A   1      36.735  33.052  30.859  1.00  0.00    -0.014 A 
BRANCH  13  14
ATOM     14  C   UNL A   1      37.908  32.434  31.418  1.00  0.00     0.031 A 
ATOM     15  C   UNL A   1      38.585  31.414  30.595  1.00  0.00     0.074 A 
ATOM     16  C   UNL A   1      38.337  32.958  32.573  1.00  0.00     0.049 A 
ATOM     17  N   UNL A   1      39.587  30.658  30.911  1.00  0.00    -0.248 NA
ATOM     18  C   UNL A   1      38.068  31.218  29.227  1.00  0.00     0.031 C 
ATOM     19  C   UNL A   1      37.713  34.099  33.266  1.00  0.00     0.029 A 
ATOM     20  N   UNL A   1      39.385  32.620  33.362  1.00  0.00    -0.354 N 
ATOM     21  C   UNL A   1      39.802  29.860  29.802  1.00  0.00     0.074 A 
ATOM     22  C   UNL A   1      38.836  30.231  28.795  1.00  0.00     0.031 C 
ATOM     23  C   UNL A   1      38.374  34.333  34.406  1.00  0.00     0.029 A 
ATOM     24  C   UNL A   1      39.395  33.310  34.546  1.00  0.00     0.049 A 
ATOM     25  H   UNL A   1      40.064  31.952  33.113  1.00  0.00     0.167 HD
ATOM     26  C   UNL A   1      40.723  28.880  29.699  1.00  0.00     0.037 A 
ATOM     27  C   UNL A   1      40.113  33.053  35.647  1.00  0.00     0.037 A 
ATOM     28  C   UNL A   1      41.595  28.569  30.800  1.00  0.00     0.049 A 
ATOM     29  C   UNL A   1      41.061  31.896  35.544  1.00  0.00     0.074 A 
ATOM     30  C   UNL A   1      42.544  27.576  30.910  1.00  0.00     0.029 A 
ATOM     31  N   UNL A   1      41.594  29.267  32.012  1.00  0.00    -0.354 N 
ATOM     32  N   UNL A   1      41.249  31.082  34.528  1.00  0.00    -0.248 NA
ATOM     33  C   UNL A   1      41.894  31.617  36.710  1.00  0.00     0.031 C 
ATOM     34  C   UNL A   1      43.069  27.636  32.208  1.00  0.00     0.029 A 
ATOM     35  C   UNL A   1      42.506  28.714  32.886  1.00  0.00     0.049 A 
ATOM     36  H   UNL A   1      41.022  30.043  32.213  1.00  0.00     0.167 HD
ATOM     37  C   UNL A   1      42.245  30.205  34.911  1.00  0.00     0.074 A 
ATOM     38  C   UNL A   1      42.615  30.595  36.265  1.00  0.00     0.031 C 
ATOM     39  C   UNL A   1      42.813  29.183  34.222  1.00  0.00     0.037 A 
BRANCH  26  40
ATOM     40  C   UNL A   1      40.703  28.062  28.443  1.00  0.00     0.064 A 
ATOM     41  C   UNL A   1      40.018  26.839  28.355  1.00  0.00     0.173 A 
ATOM     42  C   UNL A   1      41.478  28.453  27.341  1.00  0.00     0.173 A 
ATOM     43  F   UNL A   1      39.296  26.393  29.395  1.00  0.00    -0.203 F 
ATOM     44  C   UNL A   1      40.146  26.021  27.233  1.00  0.00     0.198 A 
ATOM     45  C   UNL A   1      41.577  27.649  26.207  1.00  0.00     0.198 A 
ATOM     46  F   UNL A   1      42.175  29.599  27.376  1.00  0.00    -0.203 F 
ATOM     47  F   UNL A   1      39.555  24.817  27.212  1.00  0.00    -0.200 F 
ATOM     48  C   UNL A   1      40.923  26.427  26.161  1.00  0.00     0.200 A 
ATOM     49  F   UNL A   1      42.333  28.043  25.174  1.00  0.00    -0.200 F 
ATOM     50  F   UNL A   1      41.064  25.630  25.092  1.00  0.00    -0.200 F 
ENDBRANCH  26  40
BRANCH  27  51
ATOM     51  C   UNL A   1      39.898  33.871  36.862  1.00  0.00     0.064 A 
ATOM     52  C   UNL A   1      40.480  35.136  36.990  1.00  0.00     0.173 A 
ATOM     53  C   UNL A   1      39.007  33.459  37.868  1.00  0.00     0.173 A 
ATOM     54  F   UNL A   1      41.327  35.581  36.050  1.00  0.00    -0.203 F 
ATOM     55  C   UNL A   1      40.184  35.957  38.078  1.00  0.00     0.198 A 
ATOM     56  C   UNL A   1      38.692  34.290  38.942  1.00  0.00     0.198 A 
ATOM     57  F   UNL A   1      38.396  32.267  37.781  1.00  0.00    -0.203 F 
ATOM     58  F   UNL A   1      40.762  37.162  38.180  1.00  0.00    -0.200 F 
ATOM     59  C   UNL A   1      39.285  35.538  39.048  1.00  0.00     0.200 A 
ATOM     60  F   UNL A   1      37.798  33.892  39.858  1.00  0.00    -0.200 F 
ATOM     61  F   UNL A   1      38.984  36.339  40.079  1.00  0.00    -0.200 F 
ENDBRANCH  27  51
BRANCH  39  62
ATOM     62  C   UNL A   1      43.928  28.471  34.915  1.00  0.00     0.064 A 
ATOM     63  C   UNL A   1      45.245  28.940  34.859  1.00  0.00     0.173 A 
ATOM     64  C   UNL A   1      43.641  27.359  35.720  1.00  0.00     0.173 A 
ATOM     65  F   UNL A   1      45.557  29.990  34.085  1.00  0.00    -0.203 F 
ATOM     66  C   UNL A   1      46.247  28.310  35.586  1.00  0.00     0.198 A 
ATOM     67  C   UNL A   1      44.639  26.755  36.471  1.00  0.00     0.198 A 
ATOM     68  F   UNL A   1      42.388  26.887  35.802  1.00  0.00    -0.203 F 
ATOM     69  F   UNL A   1      47.510  28.748  35.497  1.00  0.00    -0.200 F 
ATOM     70  C   UNL A   1      45.940  27.229  36.402  1.00  0.00     0.200 A 
ATOM     71  F   UNL A   1      44.338  25.726  37.274  1.00  0.00    -0.200 F 
ATOM     72  F   UNL A   1      46.904  26.642  37.123  1.00  0.00    -0.200 F 
ENDBRANCH  39  62
ENDBRANCH  13  14
ENDBRANCH   6   8
ENDBRANCH   5   6
ENDBRANCH   4   5
ENDBRANCH   3   4
ENDBRANCH   2   3
ENDBRANCH   1   2
BRANCH   1  73
ATOM     73  C   UNL A   1      34.217  28.511  26.881  1.00  0.00     0.261 C 
BRANCH  73  74
ATOM     74  O   UNL A   1      32.839  28.544  26.480  1.00  0.00    -0.463 OA
BRANCH  74  75
ATOM     75  C   UNL A   1      32.335  27.306  26.276  1.00  0.00     0.310 C 
ATOM     76  O   UNL A   1      31.405  26.809  26.904  1.00  0.00    -0.252 OA
BRANCH  75  77
ATOM     77  C   UNL A   1      33.099  26.535  25.234  1.00  0.00     0.117 C 
ATOM     78  C   UNL A   1      32.751  27.279  23.944  1.00  0.00     0.017 C 
ATOM     79  C   UNL A   1      33.136  24.954  25.195  1.00  0.00     0.084 C 
ATOM     80  C   UNL A   1      33.554  26.763  22.778  1.00  0.00     0.001 C 
ATOM     81  C   UNL A   1      33.811  24.530  23.877  1.00  0.00     0.021 C 
ATOM     82  C   UNL A   1      33.307  25.273  22.640  1.00  0.00     0.002 C 
BRANCH  79  83
ATOM     83  N   UNL A   1      31.863  24.247  25.480  1.00  0.00    -0.207 NA
ATOM     84  H   UNL A   1      31.446  24.084  24.563  1.00  0.00     0.141 HD
BRANCH  83  85
ATOM     85  S   UNL A   1      31.643  22.774  26.321  1.00  0.00     0.240 S 
ATOM     86  O   UNL A   1      32.173  23.045  27.644  1.00  0.00    -0.207 OA
ATOM     87  O   UNL A   1      30.279  22.328  26.169  1.00  0.00    -0.207 OA
BRANCH  85  88
ATOM     88  C   UNL A   1      32.677  21.488  25.610  1.00  0.00     0.083 A 
ATOM     89  C   UNL A   1      34.031  21.410  25.940  1.00  0.00     0.022 A 
ATOM     90  C   UNL A   1      32.165  20.607  24.638  1.00  0.00     0.030 A 
ATOM     91  C   UNL A   1      34.810  20.343  25.456  1.00  0.00     0.010 A 
ATOM     92  C   UNL A   1      32.927  19.500  24.178  1.00  0.00    -0.017 A 
ATOM     93  C   UNL A   1      34.248  19.335  24.648  1.00  0.00    -0.018 A 
ATOM     94  C   UNL A   1      32.369  18.489  23.367  1.00  0.00     0.009 A 
ATOM     95  C   UNL A   1      34.941  18.142  24.357  1.00  0.00     0.009 A 
ATOM     96  C   UNL A   1      33.060  17.298  23.111  1.00  0.00     0.001 A 
ATOM     97  C   UNL A   1      34.338  17.116  23.625  1.00  0.00     0.001 A 
ENDBRANCH  85  88
ENDBRANCH  83  85
ENDBRANCH  79  83
ENDBRANCH  75  77
ENDBRANCH  74  75
ENDBRANCH  73  74
ENDBRANCH   1  73
TORSDOF 17
ENDMDL
MODEL 3
REMARK VINA RESULT:     -12.1      1.237      1.992
REMARK SMILES O=C(OCCOCCOC(=O)[C@@H]1CCCC[C@@H]1NS(=O)(=O)c1ccc2ccccc2c1)c1ccc(-c2c3nc(c(-c4c(F)c(F)c(F)c(F)c4F)c4ccc([nH]4)c(-c4c(F)c(F)c(F)c(F)c4F)c4nc(c(-c5c(F)c(F)c(F)c(F)c5F)c5ccc2[nH]5)C=C4)C=C3)cc1
REMARK SMILES IDX 7 1 6 2 5 3 4 4 3 5 2 6 1 7 32 8 33 9 94 10 34 11 93 12
REMARK SMILES IDX 35 13 36 14 37 15 87 16 38 17 92 18 86 19 88 20 39 21 91 22
REMARK SMILES IDX 85 23 84 24 40 26 72 27 52 28 71 29 53 30 56 31 70 32 89 33
REMARK SMILES IDX 54 34 55 35 69 37 90 38 57 39 41 40 42 41 50 42 43 43 44 44
REMARK SMILES IDX 48 45 51 46 45 47 46 48 49 49 47 50 73 51 74 52 82 53 75 54
REMARK SMILES IDX 76 55 80 56 83 57 77 58 78 59 81 60 79 61 58 62 59 63 67 64
REMARK SMILES IDX 60 65 61 66 65 67 68 68 62 69 63 70 66 71 64 72 8 73 9 74
REMARK SMILES IDX 10 75 11 76 12 77 13 78 17 79 14 80 16 81 15 82 18 83 19 85
REMARK SMILES IDX 20 86 21 87 22 88 23 89 31 90 24 91 30 92 25 93 29 94 26 95
REMARK SMILES IDX 28 96 27 97
REMARK H PARENT 88 25 56 36 18 84
REMARK Flexibility Score: inf
ROOT
ATOM      1  C   UNL A   1      32.707  30.072  25.597  1.00  0.00     0.202 C 
ENDROOT
BRANCH   1   2
ATOM      2  O   UNL A   1      31.421  30.681  25.769  1.00  0.00    -0.374 OA
BRANCH   2   3
ATOM      3  C   UNL A   1      31.315  31.893  26.532  1.00  0.00     0.202 C 
BRANCH   3   4
ATOM      4  C   UNL A   1      32.558  32.431  27.253  1.00  0.00     0.261 C 
BRANCH   4   5
ATOM      5  O   UNL A   1      32.372  33.795  27.658  1.00  0.00    -0.460 OA
BRANCH   5   6
ATOM      6  C   UNL A   1      33.093  34.505  28.561  1.00  0.00     0.338 C 
ATOM      7  O   UNL A   1      32.784  35.654  28.865  1.00  0.00    -0.246 OA
BRANCH   6   8
ATOM      8  C   UNL A   1      34.270  33.898  29.183  1.00  0.00     0.060 A 
ATOM      9  C   UNL A   1      35.560  34.310  28.863  1.00  0.00     0.016 A 
ATOM     10  C   UNL A   1      34.065  32.931  30.168  1.00  0.00     0.016 A 
ATOM     11  C   UNL A   1      36.650  33.679  29.359  1.00  0.00     0.010 A 
ATOM     12  C   UNL A   1      35.162  32.350  30.771  1.00  0.00     0.010 A 
ATOM     13  C   UNL A   1      36.434  32.735  30.340  1.00  0.00    -0.014 A 
BRANCH  13  14
ATOM     14  C   UNL A   1      37.640  32.218  30.933  1.00  0.00     0.031 A 
ATOM     15  C   UNL A   1      38.389  31.212  30.157  1.00  0.00     0.074 A 
ATOM     16  C   UNL A   1      38.021  32.816  32.069  1.00  0.00     0.049 A 
ATOM     17  N   UNL A   1      39.436  30.537  30.510  1.00  0.00    -0.248 NA
ATOM     18  C   UNL A   1      37.901  30.928  28.794  1.00  0.00     0.031 C 
ATOM     19  C   UNL A   1      37.318  33.940  32.710  1.00  0.00     0.029 A 
ATOM     20  N   UNL A   1      39.081  32.578  32.878  1.00  0.00    -0.354 N 
ATOM     21  C   UNL A   1      39.713  29.711  29.437  1.00  0.00     0.074 A 
ATOM     22  C   UNL A   1      38.736  29.977  28.408  1.00  0.00     0.031 C 
ATOM     23  C   UNL A   1      37.950  34.262  33.844  1.00  0.00     0.029 A 
ATOM     24  C   UNL A   1      39.034  33.315  34.033  1.00  0.00     0.049 A 
ATOM     25  H   UNL A   1      39.805  31.947  32.661  1.00  0.00     0.167 HD
ATOM     26  C   UNL A   1      40.697  28.791  29.380  1.00  0.00     0.037 A 
ATOM     27  C   UNL A   1      39.757  33.150  35.149  1.00  0.00     0.037 A 
ATOM     28  C   UNL A   1      41.578  28.582  30.500  1.00  0.00     0.049 A 
ATOM     29  C   UNL A   1      40.780  32.055  35.100  1.00  0.00     0.074 A 
ATOM     30  C   UNL A   1      42.588  27.660  30.657  1.00  0.00     0.029 A 
ATOM     31  N   UNL A   1      41.519  29.327  31.682  1.00  0.00    -0.354 N 
ATOM     32  N   UNL A   1      41.031  31.215  34.119  1.00  0.00    -0.248 NA
ATOM     33  C   UNL A   1      41.617  31.878  36.283  1.00  0.00     0.031 C 
ATOM     34  C   UNL A   1      43.096  27.806  31.955  1.00  0.00     0.029 A 
ATOM     35  C   UNL A   1      42.456  28.870  32.584  1.00  0.00     0.049 A 
ATOM     36  H   UNL A   1      40.895  30.071  31.847  1.00  0.00     0.167 HD
ATOM     37  C   UNL A   1      42.078  30.422  34.545  1.00  0.00     0.074 A 
ATOM     38  C   UNL A   1      42.408  30.889  35.885  1.00  0.00     0.031 C 
ATOM     39  C   UNL A   1      42.718  29.412  33.902  1.00  0.00     0.037 A 
BRANCH  26  40
ATOM     40  C   UNL A   1      40.745  27.923  28.159  1.00  0.00     0.064 A 
ATOM     41  C   UNL A   1      40.131  26.661  28.112  1.00  0.00     0.173 A 
ATOM     42  C   UNL A   1      41.512  28.314  27.052  1.00  0.00     0.173 A 
ATOM     43  F   UNL A   1      39.419  26.215  29.159  1.00  0.00    -0.203 F 
ATOM     44  C   UNL A   1      40.323  25.807  27.025  1.00  0.00     0.198 A 
ATOM     45  C   UNL A   1      41.675  27.473  25.953  1.00  0.00     0.198 A 
ATOM     46  F   UNL A   1      42.143  29.499  27.049  1.00  0.00    -0.203 F 
ATOM     47  F   UNL A   1      39.802  24.572  27.046  1.00  0.00    -0.200 F 
ATOM     48  C   UNL A   1      41.093  26.215  25.948  1.00  0.00     0.200 A 
ATOM     49  F   UNL A   1      42.423  27.868  24.914  1.00  0.00    -0.200 F 
ATOM     50  F   UNL A   1      41.295  25.385  24.914  1.00  0.00    -0.200 F 
ENDBRANCH  26  40
BRANCH  27  51
ATOM     51  C   UNL A   1      39.477  34.001  36.329  1.00  0.00     0.064 A 
ATOM     52  C   UNL A   1      38.706  33.524  37.393  1.00  0.00     0.173 A 
ATOM     53  C   UNL A   1      40.077  35.264  36.473  1.00  0.00     0.173 A 
ATOM     54  F   UNL A   1      38.122  32.319  37.309  1.00  0.00    -0.203 F 
ATOM     55  C   UNL A   1      38.539  34.277  38.555  1.00  0.00     0.198 A 
ATOM     56  C   UNL A   1      39.932  36.005  37.644  1.00  0.00     0.198 A 
ATOM     57  F   UNL A   1      40.853  35.757  35.495  1.00  0.00    -0.203 F 
ATOM     58  F   UNL A   1      37.788  33.801  39.557  1.00  0.00    -0.200 F 
ATOM     59  C   UNL A   1      39.158  35.512  38.683  1.00  0.00     0.200 A 
ATOM     60  F   UNL A   1      40.559  37.183  37.774  1.00  0.00    -0.200 F 
ATOM     61  F   UNL A   1      39.018  36.223  39.810  1.00  0.00    -0.200 F 
ENDBRANCH  27  51
BRANCH  39  62
ATOM     62  C   UNL A   1      43.871  28.804  34.632  1.00  0.00     0.064 A 
ATOM     63  C   UNL A   1      43.714  27.668  35.435  1.00  0.00     0.173 A 
ATOM     64  C   UNL A   1      45.159  29.321  34.440  1.00  0.00     0.173 A 
ATOM     65  F   UNL A   1      42.493  27.157  35.655  1.00  0.00    -0.203 F 
ATOM     66  C   UNL A   1      44.817  27.070  36.030  1.00  0.00     0.198 A 
ATOM     67  C   UNL A   1      46.262  28.699  35.007  1.00  0.00     0.198 A 
ATOM     68  F   UNL A   1      45.346  30.405  33.671  1.00  0.00    -0.203 F 
ATOM     69  F   UNL A   1      44.650  26.003  36.823  1.00  0.00    -0.200 F 
ATOM     70  C   UNL A   1      46.090  27.577  35.803  1.00  0.00     0.200 A 
ATOM     71  F   UNL A   1      47.491  29.177  34.772  1.00  0.00    -0.200 F 
ATOM     72  F   UNL A   1      47.155  26.981  36.356  1.00  0.00    -0.200 F 
ENDBRANCH  39  62
ENDBRANCH  13  14
ENDBRANCH   6   8
ENDBRANCH   5   6
ENDBRANCH   4   5
ENDBRANCH   3   4
ENDBRANCH   2   3
ENDBRANCH   1   2
BRANCH   1  73
ATOM     73  C   UNL A   1      32.753  28.601  25.968  1.00  0.00     0.261 C 
BRANCH  73  74
ATOM     74  O   UNL A   1      31.390  28.152  25.974  1.00  0.00    -0.463 OA
BRANCH  74  75
ATOM     75  C   UNL A   1      31.130  27.287  24.967  1.00  0.00     0.310 C 
ATOM     76  O   UNL A   1      30.022  27.078  24.484  1.00  0.00    -0.252 OA
BRANCH  75  77
ATOM     77  C   UNL A   1      32.349  26.516  24.539  1.00  0.00     0.117 C 
ATOM     78  C   UNL A   1      32.364  26.726  23.024  1.00  0.00     0.017 C 
ATOM     79  C   UNL A   1      32.687  25.074  25.093  1.00  0.00     0.084 C 
ATOM     80  C   UNL A   1      33.616  26.164  22.404  1.00  0.00     0.001 C 
ATOM     81  C   UNL A   1      33.861  24.514  24.269  1.00  0.00     0.021 C 
ATOM     82  C   UNL A   1      33.714  24.692  22.758  1.00  0.00     0.002 C 
BRANCH  79  83
ATOM     83  N   UNL A   1      31.550  24.131  25.249  1.00  0.00    -0.207 NA
ATOM     84  H   UNL A   1      31.355  23.803  24.302  1.00  0.00     0.141 HD
BRANCH  83  85
ATOM     85  S   UNL A   1      31.476  22.724  26.218  1.00  0.00     0.240 S 
ATOM     86  O   UNL A   1      32.052  23.140  27.482  1.00  0.00    -0.207 OA
ATOM     87  O   UNL A   1      30.139  22.181  26.179  1.00  0.00    -0.207 OA
BRANCH  85  88
ATOM     88  C   UNL A   1      32.557  21.451  25.556  1.00  0.00     0.083 A 
ATOM     89  C   UNL A   1      33.881  21.359  25.988  1.00  0.00     0.022 A 
ATOM     90  C   UNL A   1      32.119  20.598  24.525  1.00  0.00     0.030 A 
ATOM     91  C   UNL A   1      34.692  20.300  25.539  1.00  0.00     0.010 A 
ATOM     92  C   UNL A   1      32.912  19.499  24.098  1.00  0.00    -0.017 A 
ATOM     93  C   UNL A   1      34.192  19.316  24.664  1.00  0.00    -0.018 A 
ATOM     94  C   UNL A   1      32.415  18.511  23.221  1.00  0.00     0.009 A 
ATOM     95  C   UNL A   1      34.902  18.127  24.397  1.00  0.00     0.009 A 
ATOM     96  C   UNL A   1      33.120  17.324  22.989  1.00  0.00     0.001 A 
ATOM     97  C   UNL A   1      34.355  17.123  23.595  1.00  0.00     0.001 A 
ENDBRANCH  85  88
ENDBRANCH  83  85
ENDBRANCH  79  83
ENDBRANCH  75  77
ENDBRANCH  74  75
ENDBRANCH  73  74
ENDBRANCH   1  73
TORSDOF 17
ENDMDL
