MODEL 1
REMARK VINA RESULT:     -14.0      0.000      0.000
REMARK SMILES Cc1ccc([C@H]2NC(=O)N(C)C3=C2C(=O)N(c2cccc(C(=O)OCCOCCOC(=O)c4ccc(-c5c6nc(c(-c7c(F)c(F)c(F)c(F)c7F)c7ccc([nH]7)c(-c7c(F)c(F)c(F)c(F)c7F)c7nc(c(-c8c(F)c(F)c(F)c(F)c8F)c8ccc5[nH]8)C=C7)C=C6)cc4)c2)C3)cc1
REMARK SMILES IDX 27 1 26 2 25 3 24 4 22 5 23 6 21 7 17 8 18 9 96 10 19 11
REMARK SMILES IDX 20 12 16 13 6 14 7 15 13 16 8 17 12 19 14 20 9 21 10 22
REMARK SMILES IDX 97 23 15 24 11 25 5 26 1 27 2 28 3 29 99 30 4 31 98 32 28 33
REMARK SMILES IDX 29 34 30 35 31 36 32 37 33 38 34 39 95 40 35 41 94 42 36 43
REMARK SMILES IDX 37 44 38 45 88 46 39 47 93 48 87 49 89 50 40 51 92 52 86 53
REMARK SMILES IDX 85 54 41 56 73 57 53 58 72 59 54 60 57 61 71 62 90 63 55 64
REMARK SMILES IDX 56 65 70 67 91 68 58 69 42 70 43 71 51 72 44 73 45 74 49 75
REMARK SMILES IDX 52 76 46 77 47 78 50 79 48 80 74 81 75 82 83 83 76 84 77 85
REMARK SMILES IDX 81 86 84 87 78 88 79 89 82 90 80 91 59 92 60 93 68 94 61 95
REMARK SMILES IDX 62 96 66 97 69 98 63 99 64 100 67 101 65 102
REMARK H PARENT 7 18 89 55 57 66
REMARK Flexibility Score: inf
ROOT
ATOM      1  O   UNL A   1      41.444  19.979  25.724  1.00  0.00    -0.374 OA
ENDROOT
BRANCH   1   2
ATOM      2  C   UNL A   1      40.691  20.534  26.790  1.00  0.00     0.202 C 
BRANCH   2   3
ATOM      3  C   UNL A   1      40.071  21.791  26.250  1.00  0.00     0.261 C 
BRANCH   3   4
ATOM      4  O   UNL A   1      38.671  21.611  25.994  1.00  0.00    -0.460 OA
BRANCH   4   5
ATOM      5  C   UNL A   1      37.889  22.714  25.815  1.00  0.00     0.338 C 
ATOM      6  O   UNL A   1      38.200  23.872  25.864  1.00  0.00    -0.246 OA
BRANCH   5   7
ATOM      7  C   UNL A   1      36.550  22.222  25.444  1.00  0.00     0.062 A 
ATOM      8  C   UNL A   1      34.354  22.785  24.662  1.00  0.00     0.045 A 
ATOM      9  C   UNL A   1      34.059  21.423  24.537  1.00  0.00     0.026 A 
ATOM     10  C   UNL A   1      35.602  23.187  25.124  1.00  0.00     0.042 A 
ATOM     11  C   UNL A   1      35.014  20.461  24.860  1.00  0.00     0.003 A 
ATOM     12  C   UNL A   1      36.259  20.859  25.331  1.00  0.00     0.016 A 
BRANCH   8  13
ATOM     13  N   UNL A   1      33.398  23.754  24.349  1.00  0.00    -0.303 N 
ATOM     14  C   UNL A   1      31.331  26.685  25.187  1.00  0.00     0.152 C 
ATOM     15  N   UNL A   1      30.591  27.357  24.125  1.00  0.00    -0.327 N 
ATOM     16  C   UNL A   1      31.991  25.516  24.593  1.00  0.00     0.066 C 
ATOM     17  C   UNL A   1      30.802  27.234  22.777  1.00  0.00     0.322 C 
ATOM     18  H   UNL A   1      29.866  27.962  24.405  1.00  0.00     0.166 HD
ATOM     19  C   UNL A   1      32.234  25.368  23.293  1.00  0.00     0.053 C 
ATOM     20  C   UNL A   1      32.645  24.423  25.304  1.00  0.00     0.258 C 
ATOM     21  O   UNL A   1      30.195  27.970  22.005  1.00  0.00    -0.248 OA
ATOM     22  N   UNL A   1      31.685  26.232  22.374  1.00  0.00    -0.299 N 
ATOM     23  C   UNL A   1      33.198  24.272  23.015  1.00  0.00     0.180 C 
ATOM     24  O   UNL A   1      32.567  24.239  26.504  1.00  0.00    -0.269 OA
ATOM     25  C   UNL A   1      31.959  26.058  20.955  1.00  0.00     0.155 C 
BRANCH  14  26
ATOM     26  C   UNL A   1      32.281  27.674  25.866  1.00  0.00    -0.021 A 
ATOM     27  C   UNL A   1      34.842  30.548  27.867  1.00  0.00     0.044 C 
ATOM     28  C   UNL A   1      33.963  29.553  27.170  1.00  0.00    -0.051 A 
ATOM     29  C   UNL A   1      32.572  29.691  27.210  1.00  0.00     0.004 A 
ATOM     30  C   UNL A   1      34.513  28.480  26.468  1.00  0.00     0.004 A 
ATOM     31  C   UNL A   1      31.742  28.762  26.571  1.00  0.00     0.006 A 
ATOM     32  C   UNL A   1      33.684  27.559  25.817  1.00  0.00     0.006 A 
ENDBRANCH  14  26
ENDBRANCH   8  13
ENDBRANCH   5   7
ENDBRANCH   4   5
ENDBRANCH   3   4
ENDBRANCH   2   3
ENDBRANCH   1   2
BRANCH   1  33
ATOM     33  C   UNL A   1      42.355  18.960  26.081  1.00  0.00     0.202 C 
BRANCH  33  34
ATOM     34  C   UNL A   1      43.678  19.044  25.307  1.00  0.00     0.261 C 
BRANCH  34  35
ATOM     35  O   UNL A   1      43.733  20.280  24.563  1.00  0.00    -0.460 OA
BRANCH  35  36
ATOM     36  C   UNL A   1      44.644  21.197  24.997  1.00  0.00     0.338 C 
ATOM     37  O   UNL A   1      45.832  20.983  25.173  1.00  0.00    -0.246 OA
BRANCH  36  38
ATOM     38  C   UNL A   1      43.934  22.409  25.504  1.00  0.00     0.060 A 
ATOM     39  C   UNL A   1      43.755  23.527  24.665  1.00  0.00     0.016 A 
ATOM     40  C   UNL A   1      43.769  22.539  26.879  1.00  0.00     0.016 A 
ATOM     41  C   UNL A   1      43.547  24.801  25.220  1.00  0.00     0.010 A 
ATOM     42  C   UNL A   1      43.698  23.804  27.418  1.00  0.00     0.010 A 
ATOM     43  C   UNL A   1      43.590  24.944  26.606  1.00  0.00    -0.014 A 
BRANCH  43  44
ATOM     44  C   UNL A   1      43.605  26.205  27.349  1.00  0.00     0.031 A 
ATOM     45  C   UNL A   1      42.312  26.862  27.652  1.00  0.00     0.074 A 
ATOM     46  C   UNL A   1      44.721  26.635  27.987  1.00  0.00     0.049 A 
ATOM     47  N   UNL A   1      42.206  28.097  28.006  1.00  0.00    -0.248 NA
ATOM     48  C   UNL A   1      41.017  26.194  27.547  1.00  0.00     0.031 C 
ATOM     49  C   UNL A   1      44.790  27.472  29.186  1.00  0.00     0.029 A 
ATOM     50  N   UNL A   1      46.063  26.363  27.706  1.00  0.00    -0.354 N 
ATOM     51  C   UNL A   1      40.929  28.285  28.476  1.00  0.00     0.074 A 
ATOM     52  C   UNL A   1      40.202  27.103  28.086  1.00  0.00     0.031 C 
ATOM     53  C   UNL A   1      46.065  27.824  29.417  1.00  0.00     0.029 A 
ATOM     54  C   UNL A   1      46.863  27.349  28.301  1.00  0.00     0.049 A 
ATOM     55  H   UNL A   1      46.394  25.602  27.176  1.00  0.00     0.167 HD
ATOM     56  C   UNL A   1      40.668  29.355  29.278  1.00  0.00     0.037 A 
ATOM     57  C   UNL A   1      47.748  28.069  27.560  1.00  0.00     0.037 A 
ATOM     58  C   UNL A   1      41.899  30.107  29.550  1.00  0.00     0.049 A 
ATOM     59  C   UNL A   1      47.298  29.498  27.498  1.00  0.00     0.074 A 
ATOM     60  C   UNL A   1      42.757  30.117  30.639  1.00  0.00     0.029 A 
ATOM     61  N   UNL A   1      42.599  30.705  28.502  1.00  0.00    -0.354 N 
ATOM     62  N   UNL A   1      46.083  29.851  27.810  1.00  0.00    -0.248 NA
ATOM     63  C   UNL A   1      48.132  30.633  27.130  1.00  0.00     0.031 C 
ATOM     64  C   UNL A   1      43.983  30.705  30.234  1.00  0.00     0.029 A 
ATOM     65  C   UNL A   1      43.871  31.077  28.903  1.00  0.00     0.049 A 
ATOM     66  H   UNL A   1      42.238  30.844  27.597  1.00  0.00     0.167 HD
ATOM     67  C   UNL A   1      45.955  31.198  27.724  1.00  0.00     0.074 A 
ATOM     68  C   UNL A   1      47.262  31.650  27.280  1.00  0.00     0.031 C 
ATOM     69  C   UNL A   1      44.770  31.806  28.014  1.00  0.00     0.037 A 
BRANCH  56  70
ATOM     70  C   UNL A   1      39.379  29.526  30.057  1.00  0.00     0.064 A 
ATOM     71  C   UNL A   1      38.506  30.605  29.799  1.00  0.00     0.173 A 
ATOM     72  C   UNL A   1      38.951  28.665  31.088  1.00  0.00     0.173 A 
ATOM     73  F   UNL A   1      38.715  31.445  28.778  1.00  0.00    -0.203 F 
ATOM     74  C   UNL A   1      37.374  30.861  30.578  1.00  0.00     0.198 A 
ATOM     75  C   UNL A   1      37.855  28.955  31.909  1.00  0.00     0.198 A 
ATOM     76  F   UNL A   1      39.542  27.480  31.296  1.00  0.00    -0.203 F 
ATOM     77  F   UNL A   1      36.583  31.901  30.278  1.00  0.00    -0.200 F 
ATOM     78  C   UNL A   1      37.068  30.058  31.657  1.00  0.00     0.200 A 
ATOM     79  F   UNL A   1      37.561  28.146  32.938  1.00  0.00    -0.200 F 
ATOM     80  F   UNL A   1      36.004  30.326  32.426  1.00  0.00    -0.200 F 
ENDBRANCH  56  70
BRANCH  57  81
ATOM     81  C   UNL A   1      48.384  27.257  26.484  1.00  0.00     0.064 A 
ATOM     82  C   UNL A   1      47.915  27.454  25.168  1.00  0.00     0.173 A 
ATOM     83  C   UNL A   1      49.672  26.720  26.634  1.00  0.00     0.173 A 
ATOM     84  F   UNL A   1      46.714  28.017  24.962  1.00  0.00    -0.203 F 
ATOM     85  C   UNL A   1      48.733  27.223  24.060  1.00  0.00     0.198 A 
ATOM     86  C   UNL A   1      50.498  26.518  25.522  1.00  0.00     0.198 A 
ATOM     87  F   UNL A   1      50.187  26.535  27.857  1.00  0.00    -0.203 F 
ATOM     88  F   UNL A   1      48.310  27.565  22.834  1.00  0.00    -0.200 F 
ATOM     89  C   UNL A   1      50.037  26.791  24.243  1.00  0.00     0.200 A 
ATOM     90  F   UNL A   1      51.780  26.167  25.698  1.00  0.00    -0.200 F 
ATOM     91  F   UNL A   1      50.875  26.739  23.197  1.00  0.00    -0.200 F 
ENDBRANCH  57  81
BRANCH  69  92
ATOM     92  C   UNL A   1      44.397  33.185  27.559  1.00  0.00     0.064 A 
ATOM     93  C   UNL A   1      43.874  33.456  26.284  1.00  0.00     0.173 A 
ATOM     94  C   UNL A   1      44.389  34.263  28.473  1.00  0.00     0.173 A 
ATOM     95  F   UNL A   1      43.706  32.489  25.373  1.00  0.00    -0.203 F 
ATOM     96  C   UNL A   1      43.441  34.731  25.926  1.00  0.00     0.198 A 
ATOM     97  C   UNL A   1      43.886  35.514  28.135  1.00  0.00     0.198 A 
ATOM     98  F   UNL A   1      44.833  34.127  29.731  1.00  0.00    -0.203 F 
ATOM     99  F   UNL A   1      42.999  34.951  24.681  1.00  0.00    -0.200 F 
ATOM    100  C   UNL A   1      43.432  35.754  26.854  1.00  0.00     0.200 A 
ATOM    101  F   UNL A   1      43.820  36.477  29.064  1.00  0.00    -0.200 F 
ATOM    102  F   UNL A   1      42.965  36.964  26.521  1.00  0.00    -0.200 F 
ENDBRANCH  69  92
ENDBRANCH  43  44
ENDBRANCH  36  38
ENDBRANCH  35  36
ENDBRANCH  34  35
ENDBRANCH  33  34
ENDBRANCH   1  33
TORSDOF 16
ENDMDL
MODEL 2
REMARK VINA RESULT:     -13.5      4.715     10.985
REMARK SMILES Cc1ccc([C@H]2NC(=O)N(C)C3=C2C(=O)N(c2cccc(C(=O)OCCOCCOC(=O)c4ccc(-c5c6nc(c(-c7c(F)c(F)c(F)c(F)c7F)c7ccc([nH]7)c(-c7c(F)c(F)c(F)c(F)c7F)c7nc(c(-c8c(F)c(F)c(F)c(F)c8F)c8ccc5[nH]8)C=C7)C=C6)cc4)c2)C3)cc1
REMARK SMILES IDX 27 1 26 2 25 3 24 4 22 5 23 6 21 7 17 8 18 9 96 10 19 11
REMARK SMILES IDX 20 12 16 13 6 14 7 15 13 16 8 17 12 19 14 20 9 21 10 22
REMARK SMILES IDX 97 23 15 24 11 25 5 26 1 27 2 28 3 29 99 30 4 31 98 32 28 33
REMARK SMILES IDX 29 34 30 35 31 36 32 37 33 38 34 39 95 40 35 41 94 42 36 43
REMARK SMILES IDX 37 44 38 45 88 46 39 47 93 48 87 49 89 50 40 51 92 52 86 53
REMARK SMILES IDX 85 54 41 56 73 57 53 58 72 59 54 60 57 61 71 62 90 63 55 64
REMARK SMILES IDX 56 65 70 67 91 68 58 69 42 70 43 71 51 72 44 73 45 74 49 75
REMARK SMILES IDX 52 76 46 77 47 78 50 79 48 80 74 81 75 82 83 83 76 84 77 85
REMARK SMILES IDX 81 86 84 87 78 88 79 89 82 90 80 91 59 92 60 93 68 94 61 95
REMARK SMILES IDX 62 96 66 97 69 98 63 99 64 100 67 101 65 102
REMARK H PARENT 7 18 89 55 57 66
REMARK Flexibility Score: inf
ROOT
ATOM      1  O   UNL A   1      33.660  34.528  28.428  1.00  0.00    -0.374 OA
ENDROOT
BRANCH   1   2
ATOM      2  C   UNL A   1      32.910  33.570  27.699  1.00  0.00     0.202 C 
BRANCH   2   3
ATOM      3  C   UNL A   1      33.619  32.259  27.884  1.00  0.00     0.261 C 
BRANCH   3   4
ATOM      4  O   UNL A   1      32.836  31.169  27.375  1.00  0.00    -0.460 OA
BRANCH   4   5
ATOM      5  C   UNL A   1      33.480  30.070  26.889  1.00  0.00     0.338 C 
ATOM      6  O   UNL A   1      34.531  29.602  27.231  1.00  0.00    -0.246 OA
BRANCH   5   7
ATOM      7  C   UNL A   1      32.583  29.469  25.886  1.00  0.00     0.062 A 
ATOM      8  C   UNL A   1      31.784  27.451  24.865  1.00  0.00     0.045 A 
ATOM      9  C   UNL A   1      30.814  28.193  24.180  1.00  0.00     0.026 A 
ATOM     10  C   UNL A   1      32.676  28.093  25.716  1.00  0.00     0.042 A 
ATOM     11  C   UNL A   1      30.727  29.573  24.355  1.00  0.00     0.003 A 
ATOM     12  C   UNL A   1      31.623  30.218  25.198  1.00  0.00     0.016 A 
BRANCH   8  13
ATOM     13  N   UNL A   1      31.883  26.070  24.687  1.00  0.00    -0.303 N 
ATOM     14  C   UNL A   1      33.752  23.024  23.798  1.00  0.00     0.152 C 
ATOM     15  N   UNL A   1      33.157  21.722  24.075  1.00  0.00    -0.327 N 
ATOM     16  C   UNL A   1      32.768  24.047  24.170  1.00  0.00     0.066 C 
ATOM     17  C   UNL A   1      32.107  21.464  24.918  1.00  0.00     0.322 C 
ATOM     18  H   UNL A   1      33.550  20.947  23.610  1.00  0.00     0.166 HD
ATOM     19  C   UNL A   1      31.747  23.844  25.001  1.00  0.00     0.053 C 
ATOM     20  C   UNL A   1      32.823  25.471  23.859  1.00  0.00     0.258 C 
ATOM     21  O   UNL A   1      31.805  20.299  25.161  1.00  0.00    -0.248 OA
ATOM     22  N   UNL A   1      31.424  22.572  25.417  1.00  0.00    -0.299 N 
ATOM     23  C   UNL A   1      31.123  25.112  25.457  1.00  0.00     0.180 C 
ATOM     24  O   UNL A   1      33.609  25.974  23.080  1.00  0.00    -0.269 OA
ATOM     25  C   UNL A   1      30.306  22.365  26.325  1.00  0.00     0.155 C 
BRANCH  14  26
ATOM     26  C   UNL A   1      35.097  23.145  24.518  1.00  0.00    -0.021 A 
ATOM     27  C   UNL A   1      38.986  23.434  26.420  1.00  0.00     0.044 C 
ATOM     28  C   UNL A   1      37.638  23.335  25.770  1.00  0.00    -0.051 A 
ATOM     29  C   UNL A   1      37.498  22.703  24.530  1.00  0.00     0.004 A 
ATOM     30  C   UNL A   1      36.504  23.862  26.388  1.00  0.00     0.004 A 
ATOM     31  C   UNL A   1      36.246  22.613  23.910  1.00  0.00     0.006 A 
ATOM     32  C   UNL A   1      35.251  23.760  25.776  1.00  0.00     0.006 A 
ENDBRANCH  14  26
ENDBRANCH   8  13
ENDBRANCH   5   7
ENDBRANCH   4   5
ENDBRANCH   3   4
ENDBRANCH   2   3
ENDBRANCH   1   2
BRANCH   1  33
ATOM     33  C   UNL A   1      32.969  35.709  28.782  1.00  0.00     0.202 C 
BRANCH  33  34
ATOM     34  C   UNL A   1      32.960  35.962  30.296  1.00  0.00     0.261 C 
BRANCH  34  35
ATOM     35  O   UNL A   1      34.173  35.448  30.887  1.00  0.00    -0.460 OA
BRANCH  35  36
ATOM     36  C   UNL A   1      34.019  34.413  31.760  1.00  0.00     0.338 C 
ATOM     37  O   UNL A   1      33.398  34.459  32.808  1.00  0.00    -0.246 OA
BRANCH  36  38
ATOM     38  C   UNL A   1      34.956  33.308  31.398  1.00  0.00     0.060 A 
ATOM     39  C   UNL A   1      34.975  32.118  32.154  1.00  0.00     0.016 A 
ATOM     40  C   UNL A   1      36.016  33.606  30.547  1.00  0.00     0.016 A 
ATOM     41  C   UNL A   1      36.118  31.301  32.158  1.00  0.00     0.010 A 
ATOM     42  C   UNL A   1      37.177  32.874  30.657  1.00  0.00     0.010 A 
ATOM     43  C   UNL A   1      37.248  31.724  31.459  1.00  0.00    -0.014 A 
BRANCH  43  44
ATOM     44  C   UNL A   1      38.581  31.122  31.516  1.00  0.00     0.031 A 
ATOM     45  C   UNL A   1      38.878  29.978  30.623  1.00  0.00     0.074 A 
ATOM     46  C   UNL A   1      39.607  31.740  32.149  1.00  0.00     0.049 A 
ATOM     47  N   UNL A   1      39.874  29.178  30.797  1.00  0.00    -0.248 NA
ATOM     48  C   UNL A   1      38.056  29.611  29.471  1.00  0.00     0.031 C 
ATOM     49  C   UNL A   1      41.033  31.633  31.838  1.00  0.00     0.029 A 
ATOM     50  N   UNL A   1      39.575  32.653  33.208  1.00  0.00    -0.354 N 
ATOM     51  C   UNL A   1      40.011  28.432  29.651  1.00  0.00     0.074 A 
ATOM     52  C   UNL A   1      38.807  28.671  28.894  1.00  0.00     0.031 C 
ATOM     53  C   UNL A   1      41.750  32.255  32.789  1.00  0.00     0.029 A 
ATOM     54  C   UNL A   1      40.830  32.671  33.832  1.00  0.00     0.049 A 
ATOM     55  H   UNL A   1      38.797  33.195  33.473  1.00  0.00     0.167 HD
ATOM     56  C   UNL A   1      41.201  27.816  29.400  1.00  0.00     0.037 A 
ATOM     57  C   UNL A   1      40.947  32.442  35.168  1.00  0.00     0.037 A 
ATOM     58  C   UNL A   1      42.181  28.146  30.441  1.00  0.00     0.049 A 
ATOM     59  C   UNL A   1      41.663  31.142  35.388  1.00  0.00     0.074 A 
ATOM     60  C   UNL A   1      43.220  29.064  30.477  1.00  0.00     0.029 A 
ATOM     61  N   UNL A   1      41.947  27.776  31.765  1.00  0.00    -0.354 N 
ATOM     62  N   UNL A   1      41.800  30.263  34.437  1.00  0.00    -0.248 NA
ATOM     63  C   UNL A   1      42.300  30.727  36.630  1.00  0.00     0.031 C 
ATOM     64  C   UNL A   1      43.594  29.258  31.832  1.00  0.00     0.029 A 
ATOM     65  C   UNL A   1      42.801  28.444  32.625  1.00  0.00     0.049 A 
ATOM     66  H   UNL A   1      41.264  27.127  32.051  1.00  0.00     0.167 HD
ATOM     67  C   UNL A   1      42.531  29.210  34.881  1.00  0.00     0.074 A 
ATOM     68  C   UNL A   1      42.814  29.535  36.268  1.00  0.00     0.031 C 
ATOM     69  C   UNL A   1      42.817  28.163  34.058  1.00  0.00     0.037 A 
BRANCH  56  70
ATOM     70  C   UNL A   1      41.555  27.188  28.066  1.00  0.00     0.064 A 
ATOM     71  C   UNL A   1      41.728  25.793  27.938  1.00  0.00     0.173 A 
ATOM     72  C   UNL A   1      41.757  27.912  26.873  1.00  0.00     0.173 A 
ATOM     73  F   UNL A   1      41.463  24.959  28.951  1.00  0.00    -0.203 F 
ATOM     74  C   UNL A   1      42.173  25.195  26.756  1.00  0.00     0.198 A 
ATOM     75  C   UNL A   1      42.263  27.324  25.709  1.00  0.00     0.198 A 
ATOM     76  F   UNL A   1      41.409  29.203  26.775  1.00  0.00    -0.203 F 
ATOM     77  F   UNL A   1      42.314  23.863  26.698  1.00  0.00    -0.200 F 
ATOM     78  C   UNL A   1      42.478  25.964  25.652  1.00  0.00     0.200 A 
ATOM     79  F   UNL A   1      42.528  28.087  24.638  1.00  0.00    -0.200 F 
ATOM     80  F   UNL A   1      42.940  25.393  24.531  1.00  0.00    -0.200 F 
ENDBRANCH  56  70
BRANCH  57  81
ATOM     81  C   UNL A   1      39.809  33.009  35.946  1.00  0.00     0.064 A 
ATOM     82  C   UNL A   1      38.837  32.101  36.416  1.00  0.00     0.173 A 
ATOM     83  C   UNL A   1      39.917  34.238  36.613  1.00  0.00     0.173 A 
ATOM     84  F   UNL A   1      38.726  30.886  35.854  1.00  0.00    -0.203 F 
ATOM     85  C   UNL A   1      38.083  32.367  37.560  1.00  0.00     0.198 A 
ATOM     86  C   UNL A   1      39.180  34.489  37.776  1.00  0.00     0.198 A 
ATOM     87  F   UNL A   1      40.839  35.133  36.234  1.00  0.00    -0.203 F 
ATOM     88  F   UNL A   1      37.279  31.421  38.067  1.00  0.00    -0.200 F 
ATOM     89  C   UNL A   1      38.284  33.547  38.260  1.00  0.00     0.200 A 
ATOM     90  F   UNL A   1      39.420  35.596  38.495  1.00  0.00    -0.200 F 
ATOM     91  F   UNL A   1      37.692  33.725  39.450  1.00  0.00    -0.200 F 
ENDBRANCH  57  81
BRANCH  69  92
ATOM     92  C   UNL A   1      43.229  26.803  34.537  1.00  0.00     0.064 A 
ATOM     93  C   UNL A   1      42.309  25.821  34.940  1.00  0.00     0.173 A 
ATOM     94  C   UNL A   1      44.574  26.384  34.430  1.00  0.00     0.173 A 
ATOM     95  F   UNL A   1      40.990  26.056  34.952  1.00  0.00    -0.203 F 
ATOM     96  C   UNL A   1      42.715  24.533  35.282  1.00  0.00     0.198 A 
ATOM     97  C   UNL A   1      44.964  25.076  34.701  1.00  0.00     0.198 A 
ATOM     98  F   UNL A   1      45.545  27.216  34.027  1.00  0.00    -0.203 F 
ATOM     99  F   UNL A   1      41.806  23.647  35.711  1.00  0.00    -0.200 F 
ATOM    100  C   UNL A   1      44.038  24.157  35.147  1.00  0.00     0.200 A 
ATOM    101  F   UNL A   1      46.236  24.708  34.500  1.00  0.00    -0.200 F 
ATOM    102  F   UNL A   1      44.414  22.902  35.426  1.00  0.00    -0.200 F 
ENDBRANCH  69  92
ENDBRANCH  43  44
ENDBRANCH  36  38
ENDBRANCH  35  36
ENDBRANCH  34  35
ENDBRANCH  33  34
ENDBRANCH   1  33
TORSDOF 16
ENDMDL
MODEL 3
REMARK VINA RESULT:     -12.9      5.180     11.235
REMARK SMILES Cc1ccc([C@H]2NC(=O)N(C)C3=C2C(=O)N(c2cccc(C(=O)OCCOCCOC(=O)c4ccc(-c5c6nc(c(-c7c(F)c(F)c(F)c(F)c7F)c7ccc([nH]7)c(-c7c(F)c(F)c(F)c(F)c7F)c7nc(c(-c8c(F)c(F)c(F)c(F)c8F)c8ccc5[nH]8)C=C7)C=C6)cc4)c2)C3)cc1
REMARK SMILES IDX 27 1 26 2 25 3 24 4 22 5 23 6 21 7 17 8 18 9 96 10 19 11
REMARK SMILES IDX 20 12 16 13 6 14 7 15 13 16 8 17 12 19 14 20 9 21 10 22
REMARK SMILES IDX 97 23 15 24 11 25 5 26 1 27 2 28 3 29 99 30 4 31 98 32 28 33
REMARK SMILES IDX 29 34 30 35 31 36 32 37 33 38 34 39 95 40 35 41 94 42 36 43
REMARK SMILES IDX 37 44 38 45 88 46 39 47 93 48 87 49 89 50 40 51 92 52 86 53
REMARK SMILES IDX 85 54 41 56 73 57 53 58 72 59 54 60 57 61 71 62 90 63 55 64
REMARK SMILES IDX 56 65 70 67 91 68 58 69 42 70 43 71 51 72 44 73 45 74 49 75
REMARK SMILES IDX 52 76 46 77 47 78 50 79 48 80 74 81 75 82 83 83 76 84 77 85
REMARK SMILES IDX 81 86 84 87 78 88 79 89 82 90 80 91 59 92 60 93 68 94 61 95
REMARK SMILES IDX 62 96 66 97 69 98 63 99 64 100 67 101 65 102
REMARK H PARENT 7 18 89 55 57 66
REMARK Flexibility Score: inf
ROOT
ATOM      1  O   UNL A   1      35.016  34.054  28.728  1.00  0.00    -0.374 OA
ENDROOT
BRANCH   1   2
ATOM      2  C   UNL A   1      35.485  32.938  27.989  1.00  0.00     0.202 C 
BRANCH   2   3
ATOM      3  C   UNL A   1      34.698  31.755  28.478  1.00  0.00     0.261 C 
BRANCH   3   4
ATOM      4  O   UNL A   1      34.008  31.109  27.399  1.00  0.00    -0.460 OA
BRANCH   4   5
ATOM      5  C   UNL A   1      34.335  29.822  27.089  1.00  0.00     0.338 C 
ATOM      6  O   UNL A   1      35.240  29.155  27.507  1.00  0.00    -0.246 OA
BRANCH   5   7
ATOM      7  C   UNL A   1      33.286  29.333  26.177  1.00  0.00     0.062 A 
ATOM      8  C   UNL A   1      32.236  27.425  25.169  1.00  0.00     0.045 A 
ATOM      9  C   UNL A   1      31.244  28.261  24.643  1.00  0.00     0.026 A 
ATOM     10  C   UNL A   1      33.265  27.964  25.933  1.00  0.00     0.042 A 
ATOM     11  C   UNL A   1      31.272  29.633  24.890  1.00  0.00     0.003 A 
ATOM     12  C   UNL A   1      32.304  30.175  25.646  1.00  0.00     0.016 A 
BRANCH   8  13
ATOM     13  N   UNL A   1      32.219  26.052  24.917  1.00  0.00    -0.303 N 
ATOM     14  C   UNL A   1      33.810  22.924  23.799  1.00  0.00     0.152 C 
ATOM     15  N   UNL A   1      33.125  21.658  24.033  1.00  0.00    -0.327 N 
ATOM     16  C   UNL A   1      32.923  23.998  24.262  1.00  0.00     0.066 C 
ATOM     17  C   UNL A   1      32.090  21.437  24.904  1.00  0.00     0.322 C 
ATOM     18  H   UNL A   1      33.438  20.882  23.514  1.00  0.00     0.166 HD
ATOM     19  C   UNL A   1      31.921  23.829  25.123  1.00  0.00     0.053 C 
ATOM     20  C   UNL A   1      33.079  25.428  24.023  1.00  0.00     0.258 C 
ATOM     21  O   UNL A   1      31.706  20.287  25.100  1.00  0.00    -0.248 OA
ATOM     22  N   UNL A   1      31.514  22.566  25.486  1.00  0.00    -0.299 N 
ATOM     23  C   UNL A   1      31.416  25.115  25.668  1.00  0.00     0.180 C 
ATOM     24  O   UNL A   1      33.873  25.911  23.238  1.00  0.00    -0.269 OA
ATOM     25  C   UNL A   1      30.417  22.395  26.427  1.00  0.00     0.155 C 
BRANCH  14  26
ATOM     26  C   UNL A   1      35.186  22.903  24.468  1.00  0.00    -0.021 A 
ATOM     27  C   UNL A   1      39.136  22.730  26.254  1.00  0.00     0.044 C 
ATOM     28  C   UNL A   1      37.768  22.793  25.644  1.00  0.00    -0.051 A 
ATOM     29  C   UNL A   1      37.385  21.863  24.673  1.00  0.00     0.004 A 
ATOM     30  C   UNL A   1      36.854  23.773  26.034  1.00  0.00     0.004 A 
ATOM     31  C   UNL A   1      36.113  21.919  24.090  1.00  0.00     0.006 A 
ATOM     32  C   UNL A   1      35.578  23.821  25.462  1.00  0.00     0.006 A 
ENDBRANCH  14  26
ENDBRANCH   8  13
ENDBRANCH   5   7
ENDBRANCH   4   5
ENDBRANCH   3   4
ENDBRANCH   2   3
ENDBRANCH   1   2
BRANCH   1  33
ATOM     33  C   UNL A   1      33.665  33.995  29.139  1.00  0.00     0.202 C 
BRANCH  33  34
ATOM     34  C   UNL A   1      33.076  35.378  29.448  1.00  0.00     0.261 C 
BRANCH  34  35
ATOM     35  O   UNL A   1      33.562  35.844  30.725  1.00  0.00    -0.460 OA
BRANCH  35  36
ATOM     36  C   UNL A   1      33.192  35.106  31.810  1.00  0.00     0.338 C 
ATOM     37  O   UNL A   1      32.078  35.089  32.305  1.00  0.00    -0.246 OA
BRANCH  36  38
ATOM     38  C   UNL A   1      34.407  34.555  32.479  1.00  0.00     0.060 A 
ATOM     39  C   UNL A   1      35.530  35.378  32.700  1.00  0.00     0.016 A 
ATOM     40  C   UNL A   1      34.534  33.172  32.562  1.00  0.00     0.016 A 
ATOM     41  C   UNL A   1      36.804  34.808  32.865  1.00  0.00     0.010 A 
ATOM     42  C   UNL A   1      35.798  32.626  32.591  1.00  0.00     0.010 A 
ATOM     43  C   UNL A   1      36.942  33.427  32.738  1.00  0.00    -0.014 A 
BRANCH  43  44
ATOM     44  C   UNL A   1      38.200  32.682  32.670  1.00  0.00     0.031 A 
ATOM     45  C   UNL A   1      38.233  31.421  31.892  1.00  0.00     0.074 A 
ATOM     46  C   UNL A   1      39.372  33.239  33.060  1.00  0.00     0.049 A 
ATOM     47  N   UNL A   1      39.159  30.533  32.013  1.00  0.00    -0.248 NA
ATOM     48  C   UNL A   1      37.203  31.031  30.932  1.00  0.00     0.031 C 
ATOM     49  C   UNL A   1      40.711  32.932  32.554  1.00  0.00     0.029 A 
ATOM     50  N   UNL A   1      39.603  34.258  33.989  1.00  0.00    -0.354 N 
ATOM     51  C   UNL A   1      39.034  29.657  30.962  1.00  0.00     0.074 A 
ATOM     52  C   UNL A   1      37.753  29.952  30.371  1.00  0.00     0.031 C 
ATOM     53  C   UNL A   1      41.631  33.564  33.302  1.00  0.00     0.029 A 
ATOM     54  C   UNL A   1      40.939  34.196  34.411  1.00  0.00     0.049 A 
ATOM     55  H   UNL A   1      38.937  34.913  34.297  1.00  0.00     0.167 HD
ATOM     56  C   UNL A   1      40.100  28.881  30.615  1.00  0.00     0.037 A 
ATOM     57  C   UNL A   1      41.248  34.099  35.733  1.00  0.00     0.037 A 
ATOM     58  C   UNL A   1      41.264  29.204  31.448  1.00  0.00     0.049 A 
ATOM     59  C   UNL A   1      41.858  32.756  36.003  1.00  0.00     0.074 A 
ATOM     60  C   UNL A   1      42.381  29.991  31.213  1.00  0.00     0.029 A 
ATOM     61  N   UNL A   1      41.213  29.009  32.828  1.00  0.00    -0.354 N 
ATOM     62  N   UNL A   1      41.750  31.769  35.160  1.00  0.00    -0.248 NA
ATOM     63  C   UNL A   1      42.644  32.405  37.178  1.00  0.00     0.031 C 
ATOM     64  C   UNL A   1      42.988  30.285  32.462  1.00  0.00     0.029 A 
ATOM     65  C   UNL A   1      42.258  29.660  33.460  1.00  0.00     0.049 A 
ATOM     66  H   UNL A   1      40.525  28.479  33.292  1.00  0.00     0.167 HD
ATOM     67  C   UNL A   1      42.436  30.692  35.617  1.00  0.00     0.074 A 
ATOM     68  C   UNL A   1      42.970  31.129  36.895  1.00  0.00     0.031 C 
ATOM     69  C   UNL A   1      42.478  29.535  34.898  1.00  0.00     0.037 A 
BRANCH  56  70
ATOM     70  C   UNL A   1      40.169  28.076  29.333  1.00  0.00     0.064 A 
ATOM     71  C   UNL A   1      39.537  26.819  29.224  1.00  0.00     0.173 A 
ATOM     72  C   UNL A   1      40.860  28.483  28.173  1.00  0.00     0.173 A 
ATOM     73  F   UNL A   1      38.749  26.344  30.198  1.00  0.00    -0.203 F 
ATOM     74  C   UNL A   1      39.682  25.997  28.102  1.00  0.00     0.198 A 
ATOM     75  C   UNL A   1      41.059  27.636  27.076  1.00  0.00     0.198 A 
ATOM     76  F   UNL A   1      41.312  29.736  28.035  1.00  0.00    -0.203 F 
ATOM     77  F   UNL A   1      39.052  24.814  28.060  1.00  0.00    -0.200 F 
ATOM     78  C   UNL A   1      40.474  26.388  27.043  1.00  0.00     0.200 A 
ATOM     79  F   UNL A   1      41.812  28.047  26.045  1.00  0.00    -0.200 F 
ATOM     80  F   UNL A   1      40.643  25.584  25.985  1.00  0.00    -0.200 F 
ENDBRANCH  56  70
BRANCH  57  81
ATOM     81  C   UNL A   1      40.314  34.877  36.594  1.00  0.00     0.064 A 
ATOM     82  C   UNL A   1      39.332  34.148  37.298  1.00  0.00     0.173 A 
ATOM     83  C   UNL A   1      40.658  36.141  37.097  1.00  0.00     0.173 A 
ATOM     84  F   UNL A   1      39.001  32.909  36.898  1.00  0.00    -0.203 F 
ATOM     85  C   UNL A   1      38.798  34.615  38.500  1.00  0.00     0.198 A 
ATOM     86  C   UNL A   1      40.142  36.593  38.317  1.00  0.00     0.198 A 
ATOM     87  F   UNL A   1      41.604  36.872  36.492  1.00  0.00    -0.203 F 
ATOM     88  F   UNL A   1      37.983  33.831  39.220  1.00  0.00    -0.200 F 
ATOM     89  C   UNL A   1      39.233  35.822  39.026  1.00  0.00     0.200 A 
ATOM     90  F   UNL A   1      40.612  37.724  38.863  1.00  0.00    -0.200 F 
ATOM     91  F   UNL A   1      38.856  36.186  40.260  1.00  0.00    -0.200 F 
ENDBRANCH  57  81
BRANCH  69  92
ATOM     92  C   UNL A   1      42.825  28.196  35.476  1.00  0.00     0.064 A 
ATOM     93  C   UNL A   1      44.097  27.613  35.350  1.00  0.00     0.173 A 
ATOM     94  C   UNL A   1      41.924  27.533  36.340  1.00  0.00     0.173 A 
ATOM     95  F   UNL A   1      45.080  28.213  34.667  1.00  0.00    -0.203 F 
ATOM     96  C   UNL A   1      44.420  26.415  35.983  1.00  0.00     0.198 A 
ATOM     97  C   UNL A   1      42.276  26.378  37.030  1.00  0.00     0.198 A 
ATOM     98  F   UNL A   1      40.689  28.003  36.570  1.00  0.00    -0.203 F 
ATOM     99  F   UNL A   1      45.629  25.872  35.790  1.00  0.00    -0.200 F 
ATOM    100  C   UNL A   1      43.517  25.808  36.835  1.00  0.00     0.200 A 
ATOM    101  F   UNL A   1      41.416  25.839  37.903  1.00  0.00    -0.200 F 
ATOM    102  F   UNL A   1      43.851  24.685  37.483  1.00  0.00    -0.200 F 
ENDBRANCH  69  92
ENDBRANCH  43  44
ENDBRANCH  36  38
ENDBRANCH  35  36
ENDBRANCH  34  35
ENDBRANCH  33  34
ENDBRANCH   1  33
TORSDOF 16
ENDMDL
