MODEL 1
REMARK VINA RESULT:     -10.1      0.000      0.000
REMARK SMILES C[C@H](C(=O)OCCOCCOC(=O)c1ccc(-c2c3nc(c(-c4c(F)c(F)c(F)c(F)c4F)c4ccc([nH]4)c(-c4c(F)c(F)c(F)c(F)c4F)c4nc(c(-c5c(F)c(F)c(F)c(F)c5F)c5ccc2[nH]5)C=C4)C=C3)cc1)[C@H](C)[NH+]1CC[NH+](CCO)CC1
REMARK SMILES IDX 6 1 5 2 3 3 4 4 2 5 1 6 77 7 78 8 79 9 80 10 87 11 81 13
REMARK SMILES IDX 86 14 82 15 83 17 84 18 85 19 7 21 8 22 9 23 10 24 11 25
REMARK SMILES IDX 12 26 13 27 14 28 15 29 76 30 16 31 75 32 17 33 18 34 19 35
REMARK SMILES IDX 69 36 20 37 74 38 68 39 70 40 21 41 73 42 67 43 66 44 22 46
REMARK SMILES IDX 54 47 34 48 53 49 35 50 38 51 52 52 71 53 36 54 37 55 51 57
REMARK SMILES IDX 72 58 39 59 23 60 24 61 32 62 25 63 26 64 30 65 33 66 27 67
REMARK SMILES IDX 28 68 31 69 29 70 55 71 56 72 64 73 57 74 58 75 62 76 65 77
REMARK SMILES IDX 59 78 60 79 63 80 61 81 40 82 41 83 49 84 42 85 43 86 47 87
REMARK SMILES IDX 50 88 44 89 45 90 48 91 46 92
REMARK H PARENT 79 12 82 16 85 20 70 45 38 56
REMARK Flexibility Score: inf
ROOT
ATOM      1  C   UNL A   1      31.521  29.107  24.177  1.00  0.00     0.261 C 
ENDROOT
BRANCH   1   2
ATOM      2  O   UNL A   1      31.333  27.680  24.052  1.00  0.00    -0.463 OA
BRANCH   2   3
ATOM      3  C   UNL A   1      32.366  27.010  23.453  1.00  0.00     0.314 C 
ATOM      4  O   UNL A   1      32.864  27.370  22.400  1.00  0.00    -0.252 OA
BRANCH   3   5
ATOM      5  C   UNL A   1      32.748  25.754  24.237  1.00  0.00     0.154 C 
ATOM      6  C   UNL A   1      33.994  26.077  25.055  1.00  0.00     0.026 C 
BRANCH   5   7
ATOM      7  C   UNL A   1      31.588  24.944  24.965  1.00  0.00     0.195 C 
ATOM      8  C   UNL A   1      31.716  25.149  26.481  1.00  0.00     0.076 C 
BRANCH   7   9
ATOM      9  N   UNL A   1      31.041  23.618  24.587  1.00  0.00    -0.323 N 
ATOM     10  C   UNL A   1      31.435  23.004  23.324  1.00  0.00     0.324 C 
ATOM     11  C   UNL A   1      30.988  22.544  25.602  1.00  0.00     0.324 C 
ATOM     12  H   UNL A   1      30.108  24.011  24.471  1.00  0.00     0.348 HD
ATOM     13  C   UNL A   1      32.791  22.285  23.407  1.00  0.00     0.324 C 
ATOM     14  C   UNL A   1      32.287  21.706  25.727  1.00  0.00     0.324 C 
ATOM     15  N   UNL A   1      32.908  21.281  24.464  1.00  0.00    -0.324 N 
ATOM     16  H   UNL A   1      33.906  21.236  24.673  1.00  0.00     0.348 HD
BRANCH  15  17
ATOM     17  C   UNL A   1      32.657  19.899  24.057  1.00  0.00     0.291 C 
BRANCH  17  18
ATOM     18  C   UNL A   1      33.369  18.777  24.826  1.00  0.00     0.217 C 
BRANCH  18  19
ATOM     19  O   UNL A   1      34.788  18.889  24.785  1.00  0.00    -0.391 OA
ATOM     20  H   UNL A   1      35.036  19.717  24.346  1.00  0.00     0.210 HD
ENDBRANCH  18  19
ENDBRANCH  17  18
ENDBRANCH  15  17
ENDBRANCH   7   9
ENDBRANCH   5   7
ENDBRANCH   3   5
ENDBRANCH   2   3
ENDBRANCH   1   2
BRANCH   1  21
ATOM     21  C   UNL A   1      32.833  29.472  24.878  1.00  0.00     0.202 C 
BRANCH  21  22
ATOM     22  O   UNL A   1      32.795  30.107  26.158  1.00  0.00    -0.374 OA
BRANCH  22  23
ATOM     23  C   UNL A   1      31.696  30.963  26.436  1.00  0.00     0.202 C 
BRANCH  23  24
ATOM     24  C   UNL A   1      31.961  32.311  27.120  1.00  0.00     0.261 C 
BRANCH  24  25
ATOM     25  O   UNL A   1      33.295  32.769  26.931  1.00  0.00    -0.460 OA
BRANCH  25  26
ATOM     26  C   UNL A   1      33.815  33.346  28.037  1.00  0.00     0.338 C 
ATOM     27  O   UNL A   1      33.296  34.170  28.773  1.00  0.00    -0.246 OA
BRANCH  26  28
ATOM     28  C   UNL A   1      35.068  32.664  28.356  1.00  0.00     0.060 A 
ATOM     29  C   UNL A   1      34.988  31.295  28.638  1.00  0.00     0.016 A 
ATOM     30  C   UNL A   1      36.283  33.350  28.373  1.00  0.00     0.016 A 
ATOM     31  C   UNL A   1      36.130  30.610  29.004  1.00  0.00     0.010 A 
ATOM     32  C   UNL A   1      37.429  32.666  28.758  1.00  0.00     0.010 A 
ATOM     33  C   UNL A   1      37.336  31.311  29.120  1.00  0.00    -0.014 A 
BRANCH  33  34
ATOM     34  C   UNL A   1      38.436  30.671  29.854  1.00  0.00     0.031 A 
ATOM     35  C   UNL A   1      38.604  31.027  31.302  1.00  0.00     0.074 A 
ATOM     36  C   UNL A   1      39.200  29.753  29.247  1.00  0.00     0.049 A 
ATOM     37  N   UNL A   1      39.486  30.600  32.164  1.00  0.00    -0.248 NA
ATOM     38  C   UNL A   1      37.647  32.003  31.853  1.00  0.00     0.031 C 
ATOM     39  C   UNL A   1      39.056  29.323  27.857  1.00  0.00     0.029 A 
ATOM     40  N   UNL A   1      40.246  29.014  29.726  1.00  0.00    -0.354 N 
ATOM     41  C   UNL A   1      39.195  31.259  33.351  1.00  0.00     0.074 A 
ATOM     42  C   UNL A   1      38.082  32.142  33.095  1.00  0.00     0.031 C 
ATOM     43  C   UNL A   1      39.985  28.389  27.593  1.00  0.00     0.029 A 
ATOM     44  C   UNL A   1      40.805  28.189  28.785  1.00  0.00     0.049 A 
ATOM     45  H   UNL A   1      40.565  29.068  30.656  1.00  0.00     0.167 HD
ATOM     46  C   UNL A   1      39.807  31.122  34.549  1.00  0.00     0.037 A 
ATOM     47  C   UNL A   1      41.876  27.382  28.887  1.00  0.00     0.037 A 
ATOM     48  C   UNL A   1      40.912  30.231  34.768  1.00  0.00     0.049 A 
ATOM     49  C   UNL A   1      42.582  27.303  30.216  1.00  0.00     0.074 A 
ATOM     50  C   UNL A   1      41.610  29.990  35.936  1.00  0.00     0.029 A 
ATOM     51  N   UNL A   1      41.486  29.437  33.783  1.00  0.00    -0.354 N 
ATOM     52  N   UNL A   1      42.293  27.909  31.345  1.00  0.00    -0.248 NA
ATOM     53  C   UNL A   1      43.756  26.427  30.287  1.00  0.00     0.031 C 
ATOM     54  C   UNL A   1      42.648  29.099  35.642  1.00  0.00     0.029 A 
ATOM     55  C   UNL A   1      42.552  28.728  34.309  1.00  0.00     0.049 A 
ATOM     56  H   UNL A   1      41.179  29.385  32.849  1.00  0.00     0.167 HD
ATOM     57  C   UNL A   1      43.229  27.464  32.269  1.00  0.00     0.074 A 
ATOM     58  C   UNL A   1      44.082  26.525  31.568  1.00  0.00     0.031 C 
ATOM     59  C   UNL A   1      43.375  27.796  33.576  1.00  0.00     0.037 A 
BRANCH  46  60
ATOM     60  C   UNL A   1      39.323  31.981  35.680  1.00  0.00     0.064 A 
ATOM     61  C   UNL A   1      39.763  33.303  35.855  1.00  0.00     0.173 A 
ATOM     62  C   UNL A   1      38.391  31.476  36.600  1.00  0.00     0.173 A 
ATOM     63  F   UNL A   1      40.672  33.829  35.019  1.00  0.00    -0.203 F 
ATOM     64  C   UNL A   1      39.307  34.077  36.920  1.00  0.00     0.198 A 
ATOM     65  C   UNL A   1      37.912  32.263  37.643  1.00  0.00     0.198 A 
ATOM     66  F   UNL A   1      37.942  30.218  36.485  1.00  0.00    -0.203 F 
ATOM     67  F   UNL A   1      39.782  35.317  37.097  1.00  0.00    -0.200 F 
ATOM     68  C   UNL A   1      38.375  33.559  37.808  1.00  0.00     0.200 A 
ATOM     69  F   UNL A   1      37.004  31.764  38.493  1.00  0.00    -0.200 F 
ATOM     70  F   UNL A   1      37.930  34.307  38.826  1.00  0.00    -0.200 F 
ENDBRANCH  46  60
BRANCH  47  71
ATOM     71  C   UNL A   1      42.338  26.603  27.711  1.00  0.00     0.064 A 
ATOM     72  C   UNL A   1      41.852  25.314  27.458  1.00  0.00     0.173 A 
ATOM     73  C   UNL A   1      43.279  27.131  26.813  1.00  0.00     0.173 A 
ATOM     74  F   UNL A   1      40.962  24.759  28.294  1.00  0.00    -0.203 F 
ATOM     75  C   UNL A   1      42.306  24.573  26.368  1.00  0.00     0.198 A 
ATOM     76  C   UNL A   1      43.708  26.403  25.706  1.00  0.00     0.198 A 
ATOM     77  F   UNL A   1      43.772  28.364  27.002  1.00  0.00    -0.203 F 
ATOM     78  F   UNL A   1      41.860  23.324  26.179  1.00  0.00    -0.200 F 
ATOM     79  C   UNL A   1      43.229  25.121  25.490  1.00  0.00     0.200 A 
ATOM     80  F   UNL A   1      44.585  26.945  24.849  1.00  0.00    -0.200 F 
ATOM     81  F   UNL A   1      43.662  24.409  24.440  1.00  0.00    -0.200 F 
ENDBRANCH  47  71
BRANCH  59  82
ATOM     82  C   UNL A   1      44.469  27.107  34.337  1.00  0.00     0.064 A 
ATOM     83  C   UNL A   1      45.747  27.670  34.464  1.00  0.00     0.173 A 
ATOM     84  C   UNL A   1      44.219  25.885  34.980  1.00  0.00     0.173 A 
ATOM     85  F   UNL A   1      46.039  28.829  33.856  1.00  0.00    -0.203 F 
ATOM     86  C   UNL A   1      46.745  27.017  35.182  1.00  0.00     0.198 A 
ATOM     87  C   UNL A   1      45.207  25.255  35.730  1.00  0.00     0.198 A 
ATOM     88  F   UNL A   1      43.009  25.312  34.898  1.00  0.00    -0.203 F 
ATOM     89  F   UNL A   1      47.976  27.543  35.242  1.00  0.00    -0.200 F 
ATOM     90  C   UNL A   1      46.472  25.817  35.821  1.00  0.00     0.200 A 
ATOM     91  F   UNL A   1      44.935  24.107  36.365  1.00  0.00    -0.200 F 
ATOM     92  F   UNL A   1      47.431  25.196  36.520  1.00  0.00    -0.200 F 
ENDBRANCH  59  82
ENDBRANCH  33  34
ENDBRANCH  26  28
ENDBRANCH  25  26
ENDBRANCH  24  25
ENDBRANCH  23  24
ENDBRANCH  22  23
ENDBRANCH  21  22
ENDBRANCH   1  21
TORSDOF 19
ENDMDL
MODEL 2
REMARK VINA RESULT:      -9.8      1.686      2.916
REMARK SMILES C[C@H](C(=O)OCCOCCOC(=O)c1ccc(-c2c3nc(c(-c4c(F)c(F)c(F)c(F)c4F)c4ccc([nH]4)c(-c4c(F)c(F)c(F)c(F)c4F)c4nc(c(-c5c(F)c(F)c(F)c(F)c5F)c5ccc2[nH]5)C=C4)C=C3)cc1)[C@H](C)[NH+]1CC[NH+](CCO)CC1
REMARK SMILES IDX 6 1 5 2 3 3 4 4 2 5 1 6 77 7 78 8 79 9 80 10 87 11 81 13
REMARK SMILES IDX 86 14 82 15 83 17 84 18 85 19 7 21 8 22 9 23 10 24 11 25
REMARK SMILES IDX 12 26 13 27 14 28 15 29 76 30 16 31 75 32 17 33 18 34 19 35
REMARK SMILES IDX 69 36 20 37 74 38 68 39 70 40 21 41 73 42 67 43 66 44 22 46
REMARK SMILES IDX 54 47 34 48 53 49 35 50 38 51 52 52 71 53 36 54 37 55 51 57
REMARK SMILES IDX 72 58 39 59 23 60 24 61 32 62 25 63 26 64 30 65 33 66 27 67
REMARK SMILES IDX 28 68 31 69 29 70 55 71 56 72 64 73 57 74 58 75 62 76 65 77
REMARK SMILES IDX 59 78 60 79 63 80 61 81 40 82 41 83 49 84 42 85 43 86 47 87
REMARK SMILES IDX 50 88 44 89 45 90 48 91 46 92
REMARK H PARENT 79 12 82 16 85 20 70 45 38 56
REMARK Flexibility Score: inf
ROOT
ATOM      1  C   UNL A   1      31.382  30.229  25.476  1.00  0.00     0.261 C 
ENDROOT
BRANCH   1   2
ATOM      2  O   UNL A   1      32.130  29.359  24.598  1.00  0.00    -0.463 OA
BRANCH   2   3
ATOM      3  C   UNL A   1      31.875  28.022  24.751  1.00  0.00     0.314 C 
ATOM      4  O   UNL A   1      30.757  27.583  24.958  1.00  0.00    -0.252 OA
BRANCH   3   5
ATOM      5  C   UNL A   1      33.162  27.197  24.693  1.00  0.00     0.154 C 
ATOM      6  C   UNL A   1      33.656  27.005  26.123  1.00  0.00     0.026 C 
BRANCH   5   7
ATOM      7  C   UNL A   1      33.194  25.929  23.733  1.00  0.00     0.195 C 
ATOM      8  C   UNL A   1      33.651  26.375  22.337  1.00  0.00     0.076 C 
BRANCH   7   9
ATOM      9  N   UNL A   1      32.244  24.791  23.713  1.00  0.00    -0.323 N 
ATOM     10  C   UNL A   1      32.427  23.709  22.752  1.00  0.00     0.324 C 
ATOM     11  C   UNL A   1      31.826  24.177  24.992  1.00  0.00     0.324 C 
ATOM     12  H   UNL A   1      31.495  25.392  23.374  1.00  0.00     0.348 HD
ATOM     13  C   UNL A   1      33.467  22.674  23.208  1.00  0.00     0.324 C 
ATOM     14  C   UNL A   1      32.773  23.066  25.518  1.00  0.00     0.324 C 
ATOM     15  N   UNL A   1      33.233  22.084  24.527  1.00  0.00    -0.324 N 
ATOM     16  H   UNL A   1      34.157  21.803  24.856  1.00  0.00     0.348 HD
BRANCH  15  17
ATOM     17  C   UNL A   1      32.543  20.795  24.530  1.00  0.00     0.291 C 
BRANCH  17  18
ATOM     18  C   UNL A   1      33.153  19.650  25.352  1.00  0.00     0.217 C 
BRANCH  18  19
ATOM     19  O   UNL A   1      34.569  19.562  25.219  1.00  0.00    -0.391 OA
ATOM     20  H   UNL A   1      34.954  19.254  26.054  1.00  0.00     0.210 HD
ENDBRANCH  18  19
ENDBRANCH  17  18
ENDBRANCH  15  17
ENDBRANCH   7   9
ENDBRANCH   5   7
ENDBRANCH   3   5
ENDBRANCH   2   3
ENDBRANCH   1   2
BRANCH   1  21
ATOM     21  C   UNL A   1      32.010  30.346  26.868  1.00  0.00     0.202 C 
BRANCH  21  22
ATOM     22  O   UNL A   1      33.379  30.737  26.994  1.00  0.00    -0.374 OA
BRANCH  22  23
ATOM     23  C   UNL A   1      33.667  31.878  27.790  1.00  0.00     0.202 C 
BRANCH  23  24
ATOM     24  C   UNL A   1      33.002  33.215  27.437  1.00  0.00     0.261 C 
BRANCH  24  25
ATOM     25  O   UNL A   1      32.518  33.908  28.584  1.00  0.00    -0.460 OA
BRANCH  25  26
ATOM     26  C   UNL A   1      33.269  34.984  28.903  1.00  0.00     0.338 C 
ATOM     27  O   UNL A   1      33.014  36.165  28.721  1.00  0.00    -0.246 OA
BRANCH  26  28
ATOM     28  C   UNL A   1      34.396  34.525  29.714  1.00  0.00     0.060 A 
ATOM     29  C   UNL A   1      35.671  34.649  29.151  1.00  0.00     0.016 A 
ATOM     30  C   UNL A   1      34.201  33.991  30.989  1.00  0.00     0.016 A 
ATOM     31  C   UNL A   1      36.768  34.177  29.846  1.00  0.00     0.010 A 
ATOM     32  C   UNL A   1      35.302  33.501  31.681  1.00  0.00     0.010 A 
ATOM     33  C   UNL A   1      36.572  33.552  31.082  1.00  0.00    -0.014 A 
BRANCH  33  34
ATOM     34  C   UNL A   1      37.671  32.740  31.624  1.00  0.00     0.031 A 
ATOM     35  C   UNL A   1      38.188  33.094  32.987  1.00  0.00     0.074 A 
ATOM     36  C   UNL A   1      38.124  31.683  30.936  1.00  0.00     0.049 A 
ATOM     37  N   UNL A   1      39.138  32.534  33.684  1.00  0.00    -0.248 NA
ATOM     38  C   UNL A   1      37.547  34.241  33.655  1.00  0.00     0.031 C 
ATOM     39  C   UNL A   1      37.628  31.253  29.629  1.00  0.00     0.029 A 
ATOM     40  N   UNL A   1      39.101  30.778  31.245  1.00  0.00    -0.354 N 
ATOM     41  C   UNL A   1      39.214  33.263  34.864  1.00  0.00     0.074 A 
ATOM     42  C   UNL A   1      38.242  34.329  34.777  1.00  0.00     0.031 C 
ATOM     43  C   UNL A   1      38.308  30.160  29.246  1.00  0.00     0.029 A 
ATOM     44  C   UNL A   1      39.306  29.843  30.264  1.00  0.00     0.049 A 
ATOM     45  H   UNL A   1      39.607  30.796  32.090  1.00  0.00     0.167 HD
ATOM     46  C   UNL A   1      40.022  33.047  35.925  1.00  0.00     0.037 A 
ATOM     47  C   UNL A   1      40.219  28.857  30.204  1.00  0.00     0.037 A 
ATOM     48  C   UNL A   1      40.977  31.975  35.978  1.00  0.00     0.049 A 
ATOM     49  C   UNL A   1      41.155  28.683  31.372  1.00  0.00     0.074 A 
ATOM     50  C   UNL A   1      41.845  31.639  36.999  1.00  0.00     0.029 A 
ATOM     51  N   UNL A   1      41.193  31.066  34.949  1.00  0.00    -0.354 N 
ATOM     52  N   UNL A   1      41.211  29.358  32.497  1.00  0.00    -0.248 NA
ATOM     53  C   UNL A   1      42.149  27.610  31.265  1.00  0.00     0.031 C 
ATOM     54  C   UNL A   1      42.631  30.567  36.562  1.00  0.00     0.029 A 
ATOM     55  C   UNL A   1      42.204  30.188  35.298  1.00  0.00     0.049 A 
ATOM     56  H   UNL A   1      40.698  31.048  34.097  1.00  0.00     0.167 HD
ATOM     57  C   UNL A   1      42.223  28.773  33.246  1.00  0.00     0.074 A 
ATOM     58  C   UNL A   1      42.740  27.677  32.449  1.00  0.00     0.031 C 
ATOM     59  C   UNL A   1      42.686  29.105  34.477  1.00  0.00     0.037 A 
BRANCH  46  60
ATOM     60  C   UNL A   1      39.935  34.006  37.076  1.00  0.00     0.064 A 
ATOM     61  C   UNL A   1      39.083  33.785  38.169  1.00  0.00     0.173 A 
ATOM     62  C   UNL A   1      40.731  35.162  37.091  1.00  0.00     0.173 A 
ATOM     63  F   UNL A   1      38.282  32.707  38.195  1.00  0.00    -0.203 F 
ATOM     64  C   UNL A   1      39.012  34.696  39.220  1.00  0.00     0.198 A 
ATOM     65  C   UNL A   1      40.682  36.053  38.159  1.00  0.00     0.198 A 
ATOM     66  F   UNL A   1      41.558  35.427  36.070  1.00  0.00    -0.203 F 
ATOM     67  F   UNL A   1      38.151  34.491  40.227  1.00  0.00    -0.200 F 
ATOM     68  C   UNL A   1      39.819  35.825  39.219  1.00  0.00     0.200 A 
ATOM     69  F   UNL A   1      41.470  37.138  38.160  1.00  0.00    -0.200 F 
ATOM     70  F   UNL A   1      39.756  36.696  40.235  1.00  0.00    -0.200 F 
ENDBRANCH  46  60
BRANCH  47  71
ATOM     71  C   UNL A   1      40.290  27.979  29.009  1.00  0.00     0.064 A 
ATOM     72  C   UNL A   1      41.026  28.354  27.877  1.00  0.00     0.173 A 
ATOM     73  C   UNL A   1      39.622  26.746  28.972  1.00  0.00     0.173 A 
ATOM     74  F   UNL A   1      41.670  29.530  27.857  1.00  0.00    -0.203 F 
ATOM     75  C   UNL A   1      41.070  27.541  26.745  1.00  0.00     0.198 A 
ATOM     76  C   UNL A   1      39.694  25.919  27.852  1.00  0.00     0.198 A 
ATOM     77  F   UNL A   1      38.909  26.333  30.031  1.00  0.00    -0.203 F 
ATOM     78  F   UNL A   1      41.741  27.948  25.659  1.00  0.00    -0.200 F 
ATOM     79  C   UNL A   1      40.409  26.322  26.736  1.00  0.00     0.200 A 
ATOM     80  F   UNL A   1      39.069  24.733  27.857  1.00  0.00    -0.200 F 
ATOM     81  F   UNL A   1      40.456  25.540  25.649  1.00  0.00    -0.200 F 
ENDBRANCH  47  71
BRANCH  59  82
ATOM     82  C   UNL A   1      43.776  28.246  35.049  1.00  0.00     0.064 A 
ATOM     83  C   UNL A   1      45.131  28.557  34.871  1.00  0.00     0.173 A 
ATOM     84  C   UNL A   1      43.453  27.119  35.820  1.00  0.00     0.173 A 
ATOM     85  F   UNL A   1      45.490  29.617  34.131  1.00  0.00    -0.203 F 
ATOM     86  C   UNL A   1      46.125  27.752  35.419  1.00  0.00     0.198 A 
ATOM     87  C   UNL A   1      44.449  26.339  36.399  1.00  0.00     0.198 A 
ATOM     88  F   UNL A   1      42.171  26.785  36.029  1.00  0.00    -0.203 F 
ATOM     89  F   UNL A   1      47.415  28.034  35.188  1.00  0.00    -0.200 F 
ATOM     90  C   UNL A   1      45.784  26.650  36.188  1.00  0.00     0.200 A 
ATOM     91  F   UNL A   1      44.117  25.287  37.160  1.00  0.00    -0.200 F 
ATOM     92  F   UNL A   1      46.743  25.883  36.723  1.00  0.00    -0.200 F 
ENDBRANCH  59  82
ENDBRANCH  33  34
ENDBRANCH  26  28
ENDBRANCH  25  26
ENDBRANCH  24  25
ENDBRANCH  23  24
ENDBRANCH  22  23
ENDBRANCH  21  22
ENDBRANCH   1  21
TORSDOF 19
ENDMDL
MODEL 3
REMARK VINA RESULT:      -9.7      4.437     10.358
REMARK SMILES C[C@H](C(=O)OCCOCCOC(=O)c1ccc(-c2c3nc(c(-c4c(F)c(F)c(F)c(F)c4F)c4ccc([nH]4)c(-c4c(F)c(F)c(F)c(F)c4F)c4nc(c(-c5c(F)c(F)c(F)c(F)c5F)c5ccc2[nH]5)C=C4)C=C3)cc1)[C@H](C)[NH+]1CC[NH+](CCO)CC1
REMARK SMILES IDX 6 1 5 2 3 3 4 4 2 5 1 6 77 7 78 8 79 9 80 10 87 11 81 13
REMARK SMILES IDX 86 14 82 15 83 17 84 18 85 19 7 21 8 22 9 23 10 24 11 25
REMARK SMILES IDX 12 26 13 27 14 28 15 29 76 30 16 31 75 32 17 33 18 34 19 35
REMARK SMILES IDX 69 36 20 37 74 38 68 39 70 40 21 41 73 42 67 43 66 44 22 46
REMARK SMILES IDX 54 47 34 48 53 49 35 50 38 51 52 52 71 53 36 54 37 55 51 57
REMARK SMILES IDX 72 58 39 59 23 60 24 61 32 62 25 63 26 64 30 65 33 66 27 67
REMARK SMILES IDX 28 68 31 69 29 70 55 71 56 72 64 73 57 74 58 75 62 76 65 77
REMARK SMILES IDX 59 78 60 79 63 80 61 81 40 82 41 83 49 84 42 85 43 86 47 87
REMARK SMILES IDX 50 88 44 89 45 90 48 91 46 92
REMARK H PARENT 79 12 82 16 85 20 70 45 38 56
REMARK Flexibility Score: inf
ROOT
ATOM      1  C   UNL A   1      35.160  22.769  25.051  1.00  0.00     0.261 C 
ENDROOT
BRANCH   1   2
ATOM      2  O   UNL A   1      34.417  23.733  24.273  1.00  0.00    -0.463 OA
BRANCH   2   3
ATOM      3  C   UNL A   1      33.775  23.222  23.177  1.00  0.00     0.314 C 
ATOM      4  O   UNL A   1      34.241  23.283  22.052  1.00  0.00    -0.252 OA
BRANCH   3   5
ATOM      5  C   UNL A   1      32.409  22.642  23.547  1.00  0.00     0.154 C 
ATOM      6  C   UNL A   1      32.573  21.135  23.710  1.00  0.00     0.026 C 
BRANCH   5   7
ATOM      7  C   UNL A   1      31.545  23.405  24.644  1.00  0.00     0.195 C 
ATOM      8  C   UNL A   1      31.109  22.399  25.719  1.00  0.00     0.076 C 
BRANCH   7   9
ATOM      9  N   UNL A   1      30.569  24.499  24.420  1.00  0.00    -0.323 N 
ATOM     10  C   UNL A   1      30.391  25.531  25.435  1.00  0.00     0.324 C 
ATOM     11  C   UNL A   1      30.522  25.165  23.101  1.00  0.00     0.324 C 
ATOM     12  H   UNL A   1      29.789  23.847  24.491  1.00  0.00     0.348 HD
ATOM     13  C   UNL A   1      31.458  26.634  25.359  1.00  0.00     0.324 C 
ATOM     14  C   UNL A   1      31.517  26.343  22.934  1.00  0.00     0.324 C 
ATOM     15  N   UNL A   1      31.599  27.287  24.057  1.00  0.00    -0.324 N 
ATOM     16  H   UNL A   1      32.561  27.625  24.037  1.00  0.00     0.348 HD
BRANCH  15  17
ATOM     17  C   UNL A   1      30.869  28.543  23.896  1.00  0.00     0.291 C 
BRANCH  17  18
ATOM     18  C   UNL A   1      29.642  28.554  22.973  1.00  0.00     0.217 C 
BRANCH  18  19
ATOM     19  O   UNL A   1      29.943  28.995  21.652  1.00  0.00    -0.391 OA
ATOM     20  H   UNL A   1      29.259  28.680  21.041  1.00  0.00     0.210 HD
ENDBRANCH  18  19
ENDBRANCH  17  18
ENDBRANCH  15  17
ENDBRANCH   7   9
ENDBRANCH   5   7
ENDBRANCH   3   5
ENDBRANCH   2   3
ENDBRANCH   1   2
BRANCH   1  21
ATOM     21  C   UNL A   1      36.344  22.173  24.282  1.00  0.00     0.202 C 
BRANCH  21  22
ATOM     22  O   UNL A   1      37.031  21.038  24.812  1.00  0.00    -0.374 OA
BRANCH  22  23
ATOM     23  C   UNL A   1      38.239  21.273  25.523  1.00  0.00     0.202 C 
BRANCH  23  24
ATOM     24  C   UNL A   1      39.268  20.139  25.628  1.00  0.00     0.261 C 
BRANCH  24  25
ATOM     25  O   UNL A   1      40.094  20.254  26.783  1.00  0.00    -0.460 OA
BRANCH  25  26
ATOM     26  C   UNL A   1      41.336  20.703  26.498  1.00  0.00     0.338 C 
ATOM     27  O   UNL A   1      42.189  20.175  25.802  1.00  0.00    -0.246 OA
BRANCH  26  28
ATOM     28  C   UNL A   1      41.449  22.070  27.003  1.00  0.00     0.060 A 
ATOM     29  C   UNL A   1      40.934  23.087  26.191  1.00  0.00     0.016 A 
ATOM     30  C   UNL A   1      42.040  22.341  28.238  1.00  0.00     0.016 A 
ATOM     31  C   UNL A   1      41.065  24.404  26.588  1.00  0.00     0.010 A 
ATOM     32  C   UNL A   1      42.188  23.665  28.630  1.00  0.00     0.010 A 
ATOM     33  C   UNL A   1      41.744  24.691  27.778  1.00  0.00    -0.014 A 
BRANCH  33  34
ATOM     34  C   UNL A   1      42.196  26.072  27.996  1.00  0.00     0.031 A 
ATOM     35  C   UNL A   1      43.533  26.461  27.438  1.00  0.00     0.074 A 
ATOM     36  C   UNL A   1      41.391  26.950  28.611  1.00  0.00     0.049 A 
ATOM     37  N   UNL A   1      44.151  27.610  27.489  1.00  0.00    -0.248 NA
ATOM     38  C   UNL A   1      44.279  25.408  26.726  1.00  0.00     0.031 C 
ATOM     39  C   UNL A   1      40.058  26.650  29.131  1.00  0.00     0.029 A 
ATOM     40  N   UNL A   1      41.579  28.274  28.896  1.00  0.00    -0.354 N 
ATOM     41  C   UNL A   1      45.355  27.414  26.827  1.00  0.00     0.074 A 
ATOM     42  C   UNL A   1      45.403  26.031  26.414  1.00  0.00     0.031 C 
ATOM     43  C   UNL A   1      39.544  27.765  29.676  1.00  0.00     0.029 A 
ATOM     44  C   UNL A   1      40.528  28.838  29.572  1.00  0.00     0.049 A 
ATOM     45  H   UNL A   1      42.389  28.773  28.641  1.00  0.00     0.167 HD
ATOM     46  C   UNL A   1      46.326  28.322  26.582  1.00  0.00     0.037 A 
ATOM     47  C   UNL A   1      40.402  30.084  30.063  1.00  0.00     0.037 A 
ATOM     48  C   UNL A   1      46.244  29.692  27.007  1.00  0.00     0.049 A 
ATOM     49  C   UNL A   1      41.531  31.055  29.837  1.00  0.00     0.074 A 
ATOM     50  C   UNL A   1      47.152  30.714  26.810  1.00  0.00     0.029 A 
ATOM     51  N   UNL A   1      45.184  30.227  27.728  1.00  0.00    -0.354 N 
ATOM     52  N   UNL A   1      42.661  30.877  29.191  1.00  0.00    -0.248 NA
ATOM     53  C   UNL A   1      41.368  32.399  30.401  1.00  0.00     0.031 C 
ATOM     54  C   UNL A   1      46.672  31.851  27.468  1.00  0.00     0.029 A 
ATOM     55  C   UNL A   1      45.430  31.558  28.013  1.00  0.00     0.049 A 
ATOM     56  H   UNL A   1      44.376  29.732  27.996  1.00  0.00     0.167 HD
ATOM     57  C   UNL A   1      43.329  32.093  29.243  1.00  0.00     0.074 A 
ATOM     58  C   UNL A   1      42.466  33.003  29.971  1.00  0.00     0.031 C 
ATOM     59  C   UNL A   1      44.541  32.433  28.738  1.00  0.00     0.037 A 
BRANCH  46  60
ATOM     60  C   UNL A   1      47.560  27.849  25.870  1.00  0.00     0.064 A 
ATOM     61  C   UNL A   1      48.714  27.448  26.561  1.00  0.00     0.173 A 
ATOM     62  C   UNL A   1      47.583  27.783  24.468  1.00  0.00     0.173 A 
ATOM     63  F   UNL A   1      48.756  27.513  27.902  1.00  0.00    -0.203 F 
ATOM     64  C   UNL A   1      49.850  27.022  25.877  1.00  0.00     0.198 A 
ATOM     65  C   UNL A   1      48.707  27.326  23.789  1.00  0.00     0.198 A 
ATOM     66  F   UNL A   1      46.511  28.160  23.756  1.00  0.00    -0.203 F 
ATOM     67  F   UNL A   1      50.958  26.696  26.557  1.00  0.00    -0.200 F 
ATOM     68  C   UNL A   1      49.843  26.953  24.491  1.00  0.00     0.200 A 
ATOM     69  F   UNL A   1      48.694  27.250  22.450  1.00  0.00    -0.200 F 
ATOM     70  F   UNL A   1      50.933  26.535  23.834  1.00  0.00    -0.200 F 
ENDBRANCH  46  60
BRANCH  47  71
ATOM     71  C   UNL A   1      39.179  30.470  30.811  1.00  0.00     0.064 A 
ATOM     72  C   UNL A   1      38.092  31.071  30.162  1.00  0.00     0.173 A 
ATOM     73  C   UNL A   1      39.070  30.247  32.192  1.00  0.00     0.173 A 
ATOM     74  F   UNL A   1      38.152  31.319  28.846  1.00  0.00    -0.203 F 
ATOM     75  C   UNL A   1      36.955  31.458  30.870  1.00  0.00     0.198 A 
ATOM     76  C   UNL A   1      37.920  30.604  32.893  1.00  0.00     0.198 A 
ATOM     77  F   UNL A   1      40.077  29.668  32.863  1.00  0.00    -0.203 F 
ATOM     78  F   UNL A   1      35.951  32.076  30.232  1.00  0.00    -0.200 F 
ATOM     79  C   UNL A   1      36.867  31.218  32.233  1.00  0.00     0.200 A 
ATOM     80  F   UNL A   1      37.833  30.352  34.206  1.00  0.00    -0.200 F 
ATOM     81  F   UNL A   1      35.772  31.586  32.911  1.00  0.00    -0.200 F 
ENDBRANCH  47  71
BRANCH  59  82
ATOM     82  C   UNL A   1      44.980  33.856  28.921  1.00  0.00     0.064 A 
ATOM     83  C   UNL A   1      44.654  34.855  27.993  1.00  0.00     0.173 A 
ATOM     84  C   UNL A   1      45.704  34.229  30.064  1.00  0.00     0.173 A 
ATOM     85  F   UNL A   1      43.975  34.546  26.877  1.00  0.00    -0.203 F 
ATOM     86  C   UNL A   1      45.064  36.170  28.188  1.00  0.00     0.198 A 
ATOM     87  C   UNL A   1      46.078  35.552  30.275  1.00  0.00     0.198 A 
ATOM     88  F   UNL A   1      46.031  33.312  30.987  1.00  0.00    -0.203 F 
ATOM     89  F   UNL A   1      44.792  37.098  27.259  1.00  0.00    -0.200 F 
ATOM     90  C   UNL A   1      45.767  36.519  29.331  1.00  0.00     0.200 A 
ATOM     91  F   UNL A   1      46.738  35.890  31.391  1.00  0.00    -0.200 F 
ATOM     92  F   UNL A   1      46.152  37.788  29.521  1.00  0.00    -0.200 F 
ENDBRANCH  59  82
ENDBRANCH  33  34
ENDBRANCH  26  28
ENDBRANCH  25  26
ENDBRANCH  24  25
ENDBRANCH  23  24
ENDBRANCH  22  23
ENDBRANCH  21  22
ENDBRANCH   1  21
TORSDOF 19
ENDMDL
