MODEL 1
REMARK VINA RESULT:     -12.8      0.000      0.000
REMARK SMILES O=C(OCCOCCOC(=O)[C@@H](c1ccccc1)N1C(=O)/C(=C\c2ccc(-c3ccc(F)cc3)o2)SC1=S)c1ccc(-c2c3nc(c(-c4c(F)c(F)c(F)c(F)c4F)c4ccc([nH]4)c(-c4c(F)c(F)c(F)c(F)c4F)c4nc(c(-c5c(F)c(F)c(F)c(F)c5F)c5ccc2[nH]5)C=C4)C=C3)cc1
REMARK SMILES IDX 7 1 6 2 5 3 4 4 3 5 2 6 1 7 39 8 40 9 101 10 41 11 100 12
REMARK SMILES IDX 42 13 43 14 44 15 94 16 45 17 99 18 93 19 95 20 46 21 98 22
REMARK SMILES IDX 92 23 91 24 47 26 79 27 59 28 78 29 60 30 63 31 77 32 96 33
REMARK SMILES IDX 61 34 62 35 76 37 97 38 64 39 48 40 49 41 57 42 50 43 51 44
REMARK SMILES IDX 55 45 58 46 52 47 53 48 56 49 54 50 80 51 81 52 89 53 82 54
REMARK SMILES IDX 83 55 87 56 90 57 84 58 85 59 88 60 86 61 65 62 66 63 74 64
REMARK SMILES IDX 67 65 68 66 72 67 75 68 69 69 70 70 73 71 71 72 8 73 9 74
REMARK SMILES IDX 10 75 11 76 12 77 13 78 14 79 18 80 15 81 17 82 16 83 19 84
REMARK SMILES IDX 20 85 37 86 21 87 22 88 36 89 38 90 23 91 24 92 25 93 35 94
REMARK SMILES IDX 26 95 27 96 28 97 29 98 34 99 30 100 33 101 31 102 32 103
REMARK H PARENT 95 25 63 36
REMARK Flexibility Score: inf
ROOT
ATOM      1  C   UNL A   1      34.231  24.608  23.138  1.00  0.00     0.202 C 
ENDROOT
BRANCH   1   2
ATOM      2  O   UNL A   1      34.939  23.383  22.923  1.00  0.00    -0.374 OA
BRANCH   2   3
ATOM      3  C   UNL A   1      36.176  23.137  23.607  1.00  0.00     0.202 C 
BRANCH   3   4
ATOM      4  C   UNL A   1      36.435  21.762  24.280  1.00  0.00     0.261 C 
BRANCH   4   5
ATOM      5  O   UNL A   1      37.057  21.847  25.577  1.00  0.00    -0.460 OA
BRANCH   5   6
ATOM      6  C   UNL A   1      38.380  21.827  25.883  1.00  0.00     0.338 C 
ATOM      7  O   UNL A   1      39.013  20.783  25.740  1.00  0.00    -0.246 OA
BRANCH   6   8
ATOM      8  C   UNL A   1      39.091  23.004  26.465  1.00  0.00     0.060 A 
ATOM      9  C   UNL A   1      38.690  24.322  26.262  1.00  0.00     0.016 A 
ATOM     10  C   UNL A   1      40.178  22.779  27.325  1.00  0.00     0.016 A 
ATOM     11  C   UNL A   1      39.315  25.389  26.843  1.00  0.00     0.010 A 
ATOM     12  C   UNL A   1      40.853  23.857  27.907  1.00  0.00     0.010 A 
ATOM     13  C   UNL A   1      40.418  25.158  27.639  1.00  0.00    -0.014 A 
BRANCH  13  14
ATOM     14  C   UNL A   1      41.198  26.355  27.923  1.00  0.00     0.031 A 
ATOM     15  C   UNL A   1      40.569  27.357  28.829  1.00  0.00     0.074 A 
ATOM     16  C   UNL A   1      42.500  26.369  27.603  1.00  0.00     0.049 A 
ATOM     17  N   UNL A   1      40.988  28.537  29.175  1.00  0.00    -0.248 NA
ATOM     18  C   UNL A   1      39.292  26.961  29.456  1.00  0.00     0.031 C 
ATOM     19  C   UNL A   1      43.219  25.268  26.951  1.00  0.00     0.029 A 
ATOM     20  N   UNL A   1      43.453  27.319  27.811  1.00  0.00    -0.354 N 
ATOM     21  C   UNL A   1      39.996  29.053  29.996  1.00  0.00     0.074 A 
ATOM     22  C   UNL A   1      38.974  28.046  30.138  1.00  0.00     0.031 C 
ATOM     23  C   UNL A   1      44.502  25.622  26.791  1.00  0.00     0.029 A 
ATOM     24  C   UNL A   1      44.655  27.000  27.235  1.00  0.00     0.049 A 
ATOM     25  H   UNL A   1      43.295  28.144  28.324  1.00  0.00     0.167 HD
ATOM     26  C   UNL A   1      39.953  30.292  30.532  1.00  0.00     0.037 A 
ATOM     27  C   UNL A   1      45.718  27.793  27.018  1.00  0.00     0.037 A 
ATOM     28  C   UNL A   1      41.017  31.235  30.329  1.00  0.00     0.049 A 
ATOM     29  C   UNL A   1      45.607  29.212  27.505  1.00  0.00     0.074 A 
ATOM     30  C   UNL A   1      41.099  32.556  30.711  1.00  0.00     0.029 A 
ATOM     31  N   UNL A   1      42.203  30.926  29.663  1.00  0.00    -0.354 N 
ATOM     32  N   UNL A   1      44.617  29.781  28.156  1.00  0.00    -0.248 NA
ATOM     33  C   UNL A   1      46.731  30.104  27.215  1.00  0.00     0.031 C 
ATOM     34  C   UNL A   1      42.309  33.063  30.221  1.00  0.00     0.029 A 
ATOM     35  C   UNL A   1      43.016  32.040  29.599  1.00  0.00     0.049 A 
ATOM     36  H   UNL A   1      42.427  30.043  29.292  1.00  0.00     0.167 HD
ATOM     37  C   UNL A   1      45.000  31.092  28.376  1.00  0.00     0.074 A 
ATOM     38  C   UNL A   1      46.321  31.230  27.785  1.00  0.00     0.031 C 
ATOM     39  C   UNL A   1      44.333  32.093  29.007  1.00  0.00     0.037 A 
BRANCH  26  40
ATOM     40  C   UNL A   1      38.676  30.690  31.212  1.00  0.00     0.064 A 
ATOM     41  C   UNL A   1      37.571  31.201  30.513  1.00  0.00     0.173 A 
ATOM     42  C   UNL A   1      38.603  30.667  32.614  1.00  0.00     0.173 A 
ATOM     43  F   UNL A   1      37.600  31.287  29.174  1.00  0.00    -0.203 F 
ATOM     44  C   UNL A   1      36.468  31.718  31.192  1.00  0.00     0.198 A 
ATOM     45  C   UNL A   1      37.487  31.154  33.288  1.00  0.00     0.198 A 
ATOM     46  F   UNL A   1      39.636  30.208  33.337  1.00  0.00    -0.203 F 
ATOM     47  F   UNL A   1      35.466  32.287  30.505  1.00  0.00    -0.200 F 
ATOM     48  C   UNL A   1      36.427  31.693  32.578  1.00  0.00     0.200 A 
ATOM     49  F   UNL A   1      37.452  31.131  34.627  1.00  0.00    -0.200 F 
ATOM     50  F   UNL A   1      35.377  32.216  33.229  1.00  0.00    -0.200 F 
ENDBRANCH  26  40
BRANCH  27  51
ATOM     51  C   UNL A   1      46.868  27.279  26.234  1.00  0.00     0.064 A 
ATOM     52  C   UNL A   1      46.959  27.474  24.851  1.00  0.00     0.173 A 
ATOM     53  C   UNL A   1      47.947  26.638  26.871  1.00  0.00     0.173 A 
ATOM     54  F   UNL A   1      45.955  28.069  24.192  1.00  0.00    -0.203 F 
ATOM     55  C   UNL A   1      48.082  27.053  24.137  1.00  0.00     0.198 A 
ATOM     56  C   UNL A   1      49.080  26.245  26.163  1.00  0.00     0.198 A 
ATOM     57  F   UNL A   1      47.917  26.430  28.196  1.00  0.00    -0.203 F 
ATOM     58  F   UNL A   1      48.135  27.234  22.811  1.00  0.00    -0.200 F 
ATOM     59  C   UNL A   1      49.144  26.449  24.794  1.00  0.00     0.200 A 
ATOM     60  F   UNL A   1      50.111  25.683  26.808  1.00  0.00    -0.200 F 
ATOM     61  F   UNL A   1      50.231  26.065  24.110  1.00  0.00    -0.200 F 
ENDBRANCH  27  51
BRANCH  39  62
ATOM     62  C   UNL A   1      45.053  33.396  29.141  1.00  0.00     0.064 A 
ATOM     63  C   UNL A   1      44.878  34.431  28.214  1.00  0.00     0.173 A 
ATOM     64  C   UNL A   1      45.835  33.641  30.279  1.00  0.00     0.173 A 
ATOM     65  F   UNL A   1      44.149  34.232  27.106  1.00  0.00    -0.203 F 
ATOM     66  C   UNL A   1      45.469  35.672  28.423  1.00  0.00     0.198 A 
ATOM     67  C   UNL A   1      46.396  34.891  30.499  1.00  0.00     0.198 A 
ATOM     68  F   UNL A   1      46.017  32.676  31.194  1.00  0.00    -0.203 F 
ATOM     69  F   UNL A   1      45.313  36.645  27.515  1.00  0.00    -0.200 F 
ATOM     70  C   UNL A   1      46.214  35.905  29.571  1.00  0.00     0.200 A 
ATOM     71  F   UNL A   1      47.098  35.120  31.617  1.00  0.00    -0.200 F 
ATOM     72  F   UNL A   1      46.756  37.111  29.784  1.00  0.00    -0.200 F 
ENDBRANCH  39  62
ENDBRANCH  13  14
ENDBRANCH   6   8
ENDBRANCH   5   6
ENDBRANCH   4   5
ENDBRANCH   3   4
ENDBRANCH   2   3
ENDBRANCH   1   2
BRANCH   1  73
ATOM     73  C   UNL A   1      33.181  24.875  22.076  1.00  0.00     0.261 C 
BRANCH  73  74
ATOM     74  O   UNL A   1      32.040  25.371  22.773  1.00  0.00    -0.461 OA
BRANCH  74  75
ATOM     75  C   UNL A   1      31.386  26.369  22.141  1.00  0.00     0.334 C 
ATOM     76  O   UNL A   1      31.033  26.331  20.965  1.00  0.00    -0.249 OA
BRANCH  75  77
ATOM     77  C   UNL A   1      31.259  27.610  22.996  1.00  0.00     0.232 C 
BRANCH  77  78
ATOM     78  C   UNL A   1      29.952  28.358  23.258  1.00  0.00    -0.014 A 
ATOM     79  C   UNL A   1      28.686  27.773  23.117  1.00  0.00     0.006 A 
ATOM     80  C   UNL A   1      29.992  29.763  23.363  1.00  0.00     0.006 A 
ATOM     81  C   UNL A   1      27.529  28.546  22.967  1.00  0.00     0.000 A 
ATOM     82  C   UNL A   1      28.833  30.538  23.261  1.00  0.00     0.000 A 
ATOM     83  C   UNL A   1      27.604  29.931  23.026  1.00  0.00     0.000 A 
ENDBRANCH  77  78
BRANCH  77  84
ATOM     84  N   UNL A   1      32.120  27.357  24.147  1.00  0.00    -0.274 N 
ATOM     85  C   UNL A   1      31.620  26.509  25.116  1.00  0.00     0.267 C 
ATOM     86  C   UNL A   1      33.323  27.970  24.425  1.00  0.00     0.149 C 
ATOM     87  O   UNL A   1      30.520  26.001  25.126  1.00  0.00    -0.268 OA
ATOM     88  C   UNL A   1      32.666  26.296  26.147  1.00  0.00     0.084 C 
ATOM     89  S   UNL A   1      33.807  27.577  26.081  1.00  0.00    -0.054 SA
ATOM     90  S   UNL A   1      34.267  28.933  23.447  1.00  0.00    -0.052 S 
ATOM     91  C   UNL A   1      32.843  25.163  26.830  1.00  0.00     0.068 C 
BRANCH  91  92
ATOM     92  C   UNL A   1      32.131  23.997  26.454  1.00  0.00     0.128 A 
ATOM     93  C   UNL A   1      30.903  23.547  26.934  1.00  0.00     0.051 A 
ATOM     94  O   UNL A   1      32.580  23.094  25.530  1.00  0.00    -0.457 OA
ATOM     95  C   UNL A   1      30.618  22.320  26.303  1.00  0.00     0.051 A 
ATOM     96  C   UNL A   1      31.671  22.086  25.453  1.00  0.00     0.134 A 
BRANCH  96  97
ATOM     97  C   UNL A   1      31.968  21.056  24.485  1.00  0.00     0.017 A 
ATOM     98  C   UNL A   1      31.856  21.313  23.113  1.00  0.00     0.015 A 
ATOM     99  C   UNL A   1      32.344  19.782  24.929  1.00  0.00     0.015 A 
ATOM    100  C   UNL A   1      32.110  20.297  22.191  1.00  0.00     0.040 A 
ATOM    101  C   UNL A   1      32.585  18.765  24.007  1.00  0.00     0.040 A 
ATOM    102  C   UNL A   1      32.465  19.033  22.648  1.00  0.00     0.123 A 
ATOM    103  F   UNL A   1      32.689  18.051  21.765  1.00  0.00    -0.207 F 
ENDBRANCH  96  97
ENDBRANCH  91  92
ENDBRANCH  77  84
ENDBRANCH  75  77
ENDBRANCH  74  75
ENDBRANCH  73  74
ENDBRANCH   1  73
TORSDOF 18
ENDMDL
MODEL 2
REMARK VINA RESULT:     -12.7      3.966      9.709
REMARK SMILES O=C(OCCOCCOC(=O)[C@@H](c1ccccc1)N1C(=O)/C(=C\c2ccc(-c3ccc(F)cc3)o2)SC1=S)c1ccc(-c2c3nc(c(-c4c(F)c(F)c(F)c(F)c4F)c4ccc([nH]4)c(-c4c(F)c(F)c(F)c(F)c4F)c4nc(c(-c5c(F)c(F)c(F)c(F)c5F)c5ccc2[nH]5)C=C4)C=C3)cc1
REMARK SMILES IDX 7 1 6 2 5 3 4 4 3 5 2 6 1 7 39 8 40 9 101 10 41 11 100 12
REMARK SMILES IDX 42 13 43 14 44 15 94 16 45 17 99 18 93 19 95 20 46 21 98 22
REMARK SMILES IDX 92 23 91 24 47 26 79 27 59 28 78 29 60 30 63 31 77 32 96 33
REMARK SMILES IDX 61 34 62 35 76 37 97 38 64 39 48 40 49 41 57 42 50 43 51 44
REMARK SMILES IDX 55 45 58 46 52 47 53 48 56 49 54 50 80 51 81 52 89 53 82 54
REMARK SMILES IDX 83 55 87 56 90 57 84 58 85 59 88 60 86 61 65 62 66 63 74 64
REMARK SMILES IDX 67 65 68 66 72 67 75 68 69 69 70 70 73 71 71 72 8 73 9 74
REMARK SMILES IDX 10 75 11 76 12 77 13 78 14 79 18 80 15 81 17 82 16 83 19 84
REMARK SMILES IDX 20 85 37 86 21 87 22 88 36 89 38 90 23 91 24 92 25 93 35 94
REMARK SMILES IDX 26 95 27 96 28 97 29 98 34 99 30 100 33 101 31 102 32 103
REMARK H PARENT 95 25 63 36
REMARK Flexibility Score: inf
ROOT
ATOM      1  C   UNL A   1      32.320  25.506  26.528  1.00  0.00     0.202 C 
ENDROOT
BRANCH   1   2
ATOM      2  O   UNL A   1      31.685  26.766  26.288  1.00  0.00    -0.374 OA
BRANCH   2   3
ATOM      3  C   UNL A   1      32.475  27.957  26.155  1.00  0.00     0.202 C 
BRANCH   3   4
ATOM      4  C   UNL A   1      31.955  29.304  26.724  1.00  0.00     0.261 C 
BRANCH   4   5
ATOM      5  O   UNL A   1      32.770  30.442  26.386  1.00  0.00    -0.460 OA
BRANCH   5   6
ATOM      6  C   UNL A   1      33.423  31.294  27.219  1.00  0.00     0.338 C 
ATOM      7  O   UNL A   1      32.942  32.405  27.436  1.00  0.00    -0.246 OA
BRANCH   6   8
ATOM      8  C   UNL A   1      34.747  30.970  27.829  1.00  0.00     0.060 A 
ATOM      9  C   UNL A   1      35.123  29.687  28.215  1.00  0.00     0.016 A 
ATOM     10  C   UNL A   1      35.699  31.994  27.956  1.00  0.00     0.016 A 
ATOM     11  C   UNL A   1      36.357  29.392  28.721  1.00  0.00     0.010 A 
ATOM     12  C   UNL A   1      36.959  31.722  28.501  1.00  0.00     0.010 A 
ATOM     13  C   UNL A   1      37.263  30.417  28.896  1.00  0.00    -0.014 A 
BRANCH  13  14
ATOM     14  C   UNL A   1      38.395  30.062  29.742  1.00  0.00     0.031 A 
ATOM     15  C   UNL A   1      39.468  29.246  29.107  1.00  0.00     0.074 A 
ATOM     16  C   UNL A   1      38.550  30.696  30.913  1.00  0.00     0.049 A 
ATOM     17  N   UNL A   1      40.528  28.716  29.638  1.00  0.00    -0.248 NA
ATOM     18  C   UNL A   1      39.338  29.013  27.654  1.00  0.00     0.031 C 
ATOM     19  C   UNL A   1      37.643  31.722  31.442  1.00  0.00     0.029 A 
ATOM     20  N   UNL A   1      39.536  30.602  31.847  1.00  0.00    -0.354 N 
ATOM     21  C   UNL A   1      41.150  28.027  28.607  1.00  0.00     0.074 A 
ATOM     22  C   UNL A   1      40.381  28.240  27.407  1.00  0.00     0.031 C 
ATOM     23  C   UNL A   1      38.108  32.142  32.628  1.00  0.00     0.029 A 
ATOM     24  C   UNL A   1      39.276  31.343  32.970  1.00  0.00     0.049 A 
ATOM     25  H   UNL A   1      40.349  30.060  31.728  1.00  0.00     0.167 HD
ATOM     26  C   UNL A   1      42.251  27.250  28.703  1.00  0.00     0.037 A 
ATOM     27  C   UNL A   1      39.880  31.290  34.170  1.00  0.00     0.037 A 
ATOM     28  C   UNL A   1      42.951  27.090  29.947  1.00  0.00     0.049 A 
ATOM     29  C   UNL A   1      41.024  30.323  34.302  1.00  0.00     0.074 A 
ATOM     30  C   UNL A   1      44.017  26.273  30.251  1.00  0.00     0.029 A 
ATOM     31  N   UNL A   1      42.623  27.786  31.110  1.00  0.00    -0.354 N 
ATOM     32  N   UNL A   1      41.547  29.540  33.385  1.00  0.00    -0.248 NA
ATOM     33  C   UNL A   1      41.646  30.207  35.622  1.00  0.00     0.031 C 
ATOM     34  C   UNL A   1      44.295  26.429  31.614  1.00  0.00     0.029 A 
ATOM     35  C   UNL A   1      43.451  27.399  32.145  1.00  0.00     0.049 A 
ATOM     36  H   UNL A   1      41.906  28.455  31.183  1.00  0.00     0.167 HD
ATOM     37  C   UNL A   1      42.575  28.850  34.004  1.00  0.00     0.074 A 
ATOM     38  C   UNL A   1      42.598  29.313  35.381  1.00  0.00     0.031 C 
ATOM     39  C   UNL A   1      43.424  27.923  33.491  1.00  0.00     0.037 A 
BRANCH  26  40
ATOM     40  C   UNL A   1      42.613  26.440  27.493  1.00  0.00     0.064 A 
ATOM     41  C   UNL A   1      42.060  25.176  27.233  1.00  0.00     0.173 A 
ATOM     42  C   UNL A   1      43.628  26.893  26.635  1.00  0.00     0.173 A 
ATOM     43  F   UNL A   1      41.116  24.672  28.044  1.00  0.00    -0.203 F 
ATOM     44  C   UNL A   1      42.543  24.380  26.195  1.00  0.00     0.198 A 
ATOM     45  C   UNL A   1      44.085  26.110  25.579  1.00  0.00     0.198 A 
ATOM     46  F   UNL A   1      44.207  28.085  26.845  1.00  0.00    -0.203 F 
ATOM     47  F   UNL A   1      42.064  23.138  26.025  1.00  0.00    -0.200 F 
ATOM     48  C   UNL A   1      43.554  24.848  25.369  1.00  0.00     0.200 A 
ATOM     49  F   UNL A   1      45.064  26.565  24.785  1.00  0.00    -0.200 F 
ATOM     50  F   UNL A   1      44.036  24.070  24.389  1.00  0.00    -0.200 F 
ENDBRANCH  26  40
BRANCH  27  51
ATOM     51  C   UNL A   1      39.335  32.081  35.301  1.00  0.00     0.064 A 
ATOM     52  C   UNL A   1      38.498  31.504  36.263  1.00  0.00     0.173 A 
ATOM     53  C   UNL A   1      39.702  33.427  35.484  1.00  0.00     0.173 A 
ATOM     54  F   UNL A   1      38.108  30.228  36.132  1.00  0.00    -0.203 F 
ATOM     55  C   UNL A   1      38.053  32.238  37.364  1.00  0.00     0.198 A 
ATOM     56  C   UNL A   1      39.282  34.150  36.598  1.00  0.00     0.198 A 
ATOM     57  F   UNL A   1      40.507  34.030  34.596  1.00  0.00    -0.203 F 
ATOM     58  F   UNL A   1      37.237  31.667  38.260  1.00  0.00    -0.200 F 
ATOM     59  C   UNL A   1      38.453  33.555  37.535  1.00  0.00     0.200 A 
ATOM     60  F   UNL A   1      39.692  35.414  36.768  1.00  0.00    -0.200 F 
ATOM     61  F   UNL A   1      38.043  34.251  38.605  1.00  0.00    -0.200 F 
ENDBRANCH  27  51
BRANCH  39  62
ATOM     62  C   UNL A   1      44.483  27.405  34.410  1.00  0.00     0.064 A 
ATOM     63  C   UNL A   1      45.689  28.089  34.601  1.00  0.00     0.173 A 
ATOM     64  C   UNL A   1      44.226  26.267  35.191  1.00  0.00     0.173 A 
ATOM     65  F   UNL A   1      45.977  29.172  33.864  1.00  0.00    -0.203 F 
ATOM     66  C   UNL A   1      46.609  27.647  35.545  1.00  0.00     0.198 A 
ATOM     67  C   UNL A   1      45.133  25.850  36.155  1.00  0.00     0.198 A 
ATOM     68  F   UNL A   1      43.076  25.592  35.043  1.00  0.00    -0.203 F 
ATOM     69  F   UNL A   1      47.770  28.298  35.700  1.00  0.00    -0.200 F 
ATOM     70  C   UNL A   1      46.323  26.539  36.331  1.00  0.00     0.200 A 
ATOM     71  F   UNL A   1      44.847  24.792  36.926  1.00  0.00    -0.200 F 
ATOM     72  F   UNL A   1      47.198  26.134  37.261  1.00  0.00    -0.200 F 
ENDBRANCH  39  62
ENDBRANCH  13  14
ENDBRANCH   6   8
ENDBRANCH   5   6
ENDBRANCH   4   5
ENDBRANCH   3   4
ENDBRANCH   2   3
ENDBRANCH   1   2
BRANCH   1  73
ATOM     73  C   UNL A   1      31.329  24.393  26.814  1.00  0.00     0.261 C 
BRANCH  73  74
ATOM     74  O   UNL A   1      32.094  23.189  26.842  1.00  0.00    -0.461 OA
BRANCH  74  75
ATOM     75  C   UNL A   1      31.593  22.189  26.087  1.00  0.00     0.334 C 
ATOM     76  O   UNL A   1      30.411  21.857  26.071  1.00  0.00    -0.249 OA
BRANCH  75  77
ATOM     77  C   UNL A   1      32.672  21.416  25.361  1.00  0.00     0.232 C 
BRANCH  77  78
ATOM     78  C   UNL A   1      32.491  20.025  24.754  1.00  0.00    -0.014 A 
ATOM     79  C   UNL A   1      32.799  18.839  25.437  1.00  0.00     0.006 A 
ATOM     80  C   UNL A   1      32.285  19.920  23.365  1.00  0.00     0.006 A 
ATOM     81  C   UNL A   1      33.010  17.633  24.760  1.00  0.00     0.000 A 
ATOM     82  C   UNL A   1      32.449  18.706  22.690  1.00  0.00     0.000 A 
ATOM     83  C   UNL A   1      32.846  17.569  23.383  1.00  0.00     0.000 A 
ENDBRANCH  77  78
BRANCH  77  84
ATOM     84  N   UNL A   1      33.355  22.413  24.542  1.00  0.00    -0.274 N 
ATOM     85  C   UNL A   1      32.580  23.089  23.621  1.00  0.00     0.267 C 
ATOM     86  C   UNL A   1      34.711  22.660  24.508  1.00  0.00     0.149 C 
ATOM     87  O   UNL A   1      31.405  22.897  23.394  1.00  0.00    -0.268 OA
ATOM     88  C   UNL A   1      33.417  24.120  22.960  1.00  0.00     0.084 C 
ATOM     89  S   UNL A   1      35.075  23.708  23.129  1.00  0.00    -0.054 SA
ATOM     90  S   UNL A   1      35.906  22.131  25.539  1.00  0.00    -0.052 S 
ATOM     91  C   UNL A   1      32.974  25.307  22.539  1.00  0.00     0.068 C 
BRANCH  91  92
ATOM     92  C   UNL A   1      31.669  25.735  22.888  1.00  0.00     0.128 A 
ATOM     93  C   UNL A   1      30.595  24.957  23.315  1.00  0.00     0.051 A 
ATOM     94  O   UNL A   1      31.255  27.037  22.838  1.00  0.00    -0.457 OA
ATOM     95  C   UNL A   1      29.490  25.813  23.498  1.00  0.00     0.051 A 
ATOM     96  C   UNL A   1      29.944  27.074  23.195  1.00  0.00     0.134 A 
BRANCH  96  97
ATOM     97  C   UNL A   1      29.349  28.389  23.237  1.00  0.00     0.017 A 
ATOM     98  C   UNL A   1      30.126  29.515  23.538  1.00  0.00     0.015 A 
ATOM     99  C   UNL A   1      27.976  28.532  23.002  1.00  0.00     0.015 A 
ATOM    100  C   UNL A   1      29.530  30.774  23.612  1.00  0.00     0.040 A 
ATOM    101  C   UNL A   1      27.380  29.788  23.088  1.00  0.00     0.040 A 
ATOM    102  C   UNL A   1      28.163  30.896  23.393  1.00  0.00     0.123 A 
ATOM    103  F   UNL A   1      27.586  32.101  23.483  1.00  0.00    -0.207 F 
ENDBRANCH  96  97
ENDBRANCH  91  92
ENDBRANCH  77  84
ENDBRANCH  75  77
ENDBRANCH  74  75
ENDBRANCH  73  74
ENDBRANCH   1  73
TORSDOF 18
ENDMDL
MODEL 3
REMARK VINA RESULT:     -11.4      0.938      6.927
REMARK SMILES O=C(OCCOCCOC(=O)[C@@H](c1ccccc1)N1C(=O)/C(=C\c2ccc(-c3ccc(F)cc3)o2)SC1=S)c1ccc(-c2c3nc(c(-c4c(F)c(F)c(F)c(F)c4F)c4ccc([nH]4)c(-c4c(F)c(F)c(F)c(F)c4F)c4nc(c(-c5c(F)c(F)c(F)c(F)c5F)c5ccc2[nH]5)C=C4)C=C3)cc1
REMARK SMILES IDX 7 1 6 2 5 3 4 4 3 5 2 6 1 7 39 8 40 9 101 10 41 11 100 12
REMARK SMILES IDX 42 13 43 14 44 15 94 16 45 17 99 18 93 19 95 20 46 21 98 22
REMARK SMILES IDX 92 23 91 24 47 26 79 27 59 28 78 29 60 30 63 31 77 32 96 33
REMARK SMILES IDX 61 34 62 35 76 37 97 38 64 39 48 40 49 41 57 42 50 43 51 44
REMARK SMILES IDX 55 45 58 46 52 47 53 48 56 49 54 50 80 51 81 52 89 53 82 54
REMARK SMILES IDX 83 55 87 56 90 57 84 58 85 59 88 60 86 61 65 62 66 63 74 64
REMARK SMILES IDX 67 65 68 66 72 67 75 68 69 69 70 70 73 71 71 72 8 73 9 74
REMARK SMILES IDX 10 75 11 76 12 77 13 78 14 79 18 80 15 81 17 82 16 83 19 84
REMARK SMILES IDX 20 85 37 86 21 87 22 88 36 89 38 90 23 91 24 92 25 93 35 94
REMARK SMILES IDX 26 95 27 96 28 97 29 98 34 99 30 100 33 101 31 102 32 103
REMARK H PARENT 95 25 63 36
REMARK Flexibility Score: inf
ROOT
ATOM      1  C   UNL A   1      34.453  24.210  23.399  1.00  0.00     0.202 C 
ENDROOT
BRANCH   1   2
ATOM      2  O   UNL A   1      35.599  23.472  22.963  1.00  0.00    -0.374 OA
BRANCH   2   3
ATOM      3  C   UNL A   1      36.692  23.242  23.864  1.00  0.00     0.202 C 
BRANCH   3   4
ATOM      4  C   UNL A   1      37.011  21.803  24.353  1.00  0.00     0.261 C 
BRANCH   4   5
ATOM      5  O   UNL A   1      37.582  21.740  25.673  1.00  0.00    -0.460 OA
BRANCH   5   6
ATOM      6  C   UNL A   1      38.880  21.896  26.042  1.00  0.00     0.338 C 
ATOM      7  O   UNL A   1      39.649  20.941  25.946  1.00  0.00    -0.246 OA
BRANCH   6   8
ATOM      8  C   UNL A   1      39.403  23.162  26.637  1.00  0.00     0.060 A 
ATOM      9  C   UNL A   1      38.821  24.408  26.428  1.00  0.00     0.016 A 
ATOM     10  C   UNL A   1      40.496  23.093  27.515  1.00  0.00     0.016 A 
ATOM     11  C   UNL A   1      39.274  25.553  27.020  1.00  0.00     0.010 A 
ATOM     12  C   UNL A   1      40.999  24.255  28.110  1.00  0.00     0.010 A 
ATOM     13  C   UNL A   1      40.385  25.481  27.835  1.00  0.00    -0.014 A 
BRANCH  13  14
ATOM     14  C   UNL A   1      40.980  26.776  28.133  1.00  0.00     0.031 A 
ATOM     15  C   UNL A   1      42.376  26.992  27.655  1.00  0.00     0.074 A 
ATOM     16  C   UNL A   1      40.185  27.772  28.551  1.00  0.00     0.049 A 
ATOM     17  N   UNL A   1      43.173  27.997  27.857  1.00  0.00    -0.248 NA
ATOM     18  C   UNL A   1      42.947  25.927  26.806  1.00  0.00     0.031 C 
ATOM     19  C   UNL A   1      38.737  27.660  28.766  1.00  0.00     0.029 A 
ATOM     20  N   UNL A   1      40.469  29.073  28.834  1.00  0.00    -0.354 N 
ATOM     21  C   UNL A   1      44.360  27.656  27.227  1.00  0.00     0.074 A 
ATOM     22  C   UNL A   1      44.172  26.374  26.595  1.00  0.00     0.031 C 
ATOM     23  C   UNL A   1      38.266  28.847  29.174  1.00  0.00     0.029 A 
ATOM     24  C   UNL A   1      39.393  29.753  29.342  1.00  0.00     0.049 A 
ATOM     25  H   UNL A   1      41.353  29.481  28.687  1.00  0.00     0.167 HD
ATOM     26  C   UNL A   1      45.512  28.361  27.236  1.00  0.00     0.037 A 
ATOM     27  C   UNL A   1      39.370  30.947  29.958  1.00  0.00     0.037 A 
ATOM     28  C   UNL A   1      45.610  29.631  27.901  1.00  0.00     0.049 A 
ATOM     29  C   UNL A   1      40.685  31.666  30.079  1.00  0.00     0.074 A 
ATOM     30  C   UNL A   1      46.712  30.433  28.095  1.00  0.00     0.029 A 
ATOM     31  N   UNL A   1      44.524  30.276  28.492  1.00  0.00    -0.354 N 
ATOM     32  N   UNL A   1      41.864  31.301  29.624  1.00  0.00    -0.248 NA
ATOM     33  C   UNL A   1      40.685  32.935  30.808  1.00  0.00     0.031 C 
ATOM     34  C   UNL A   1      46.305  31.535  28.858  1.00  0.00     0.029 A 
ATOM     35  C   UNL A   1      44.933  31.458  29.076  1.00  0.00     0.049 A 
ATOM     36  H   UNL A   1      43.600  29.938  28.493  1.00  0.00     0.167 HD
ATOM     37  C   UNL A   1      42.747  32.302  29.990  1.00  0.00     0.074 A 
ATOM     38  C   UNL A   1      41.959  33.292  30.707  1.00  0.00     0.031 C 
ATOM     39  C   UNL A   1      44.081  32.404  29.759  1.00  0.00     0.037 A 
BRANCH  26  40
ATOM     40  C   UNL A   1      46.722  27.687  26.659  1.00  0.00     0.064 A 
ATOM     41  C   UNL A   1      47.128  27.866  25.327  1.00  0.00     0.173 A 
ATOM     42  C   UNL A   1      47.424  26.747  27.431  1.00  0.00     0.173 A 
ATOM     43  F   UNL A   1      46.468  28.719  24.529  1.00  0.00    -0.203 F 
ATOM     44  C   UNL A   1      48.153  27.096  24.778  1.00  0.00     0.198 A 
ATOM     45  C   UNL A   1      48.469  26.004  26.890  1.00  0.00     0.198 A 
ATOM     46  F   UNL A   1      47.069  26.520  28.705  1.00  0.00    -0.203 F 
ATOM     47  F   UNL A   1      48.459  27.218  23.478  1.00  0.00    -0.200 F 
ATOM     48  C   UNL A   1      48.823  26.167  25.560  1.00  0.00     0.200 A 
ATOM     49  F   UNL A   1      49.111  25.105  27.648  1.00  0.00    -0.200 F 
ATOM     50  F   UNL A   1      49.790  25.408  25.024  1.00  0.00    -0.200 F 
ENDBRANCH  26  40
BRANCH  27  51
ATOM     51  C   UNL A   1      38.107  31.431  30.571  1.00  0.00     0.064 A 
ATOM     52  C   UNL A   1      37.094  32.014  29.800  1.00  0.00     0.173 A 
ATOM     53  C   UNL A   1      37.857  31.254  31.943  1.00  0.00     0.173 A 
ATOM     54  F   UNL A   1      37.284  32.216  28.489  1.00  0.00    -0.203 F 
ATOM     55  C   UNL A   1      35.881  32.395  30.376  1.00  0.00     0.198 A 
ATOM     56  C   UNL A   1      36.636  31.607  32.512  1.00  0.00     0.198 A 
ATOM     57  F   UNL A   1      38.790  30.695  32.730  1.00  0.00    -0.203 F 
ATOM     58  F   UNL A   1      34.935  32.968  29.619  1.00  0.00    -0.200 F 
ATOM     59  C   UNL A   1      35.649  32.182  31.727  1.00  0.00     0.200 A 
ATOM     60  F   UNL A   1      36.411  31.377  33.813  1.00  0.00    -0.200 F 
ATOM     61  F   UNL A   1      34.476  32.529  32.273  1.00  0.00    -0.200 F 
ENDBRANCH  27  51
BRANCH  39  62
ATOM     62  C   UNL A   1      44.748  33.655  30.231  1.00  0.00     0.064 A 
ATOM     63  C   UNL A   1      44.866  34.781  29.406  1.00  0.00     0.173 A 
ATOM     64  C   UNL A   1      45.169  33.755  31.566  1.00  0.00     0.173 A 
ATOM     65  F   UNL A   1      44.489  34.721  28.121  1.00  0.00    -0.203 F 
ATOM     66  C   UNL A   1      45.389  35.969  29.905  1.00  0.00     0.198 A 
ATOM     67  C   UNL A   1      45.659  34.953  32.067  1.00  0.00     0.198 A 
ATOM     68  F   UNL A   1      45.062  32.700  32.388  1.00  0.00    -0.203 F 
ATOM     69  F   UNL A   1      45.517  37.031  29.098  1.00  0.00    -0.200 F 
ATOM     70  C   UNL A   1      45.769  36.058  31.237  1.00  0.00     0.200 A 
ATOM     71  F   UNL A   1      46.007  35.042  33.358  1.00  0.00    -0.200 F 
ATOM     72  F   UNL A   1      46.243  37.213  31.722  1.00  0.00    -0.200 F 
ENDBRANCH  39  62
ENDBRANCH  13  14
ENDBRANCH   6   8
ENDBRANCH   5   6
ENDBRANCH   4   5
ENDBRANCH   3   4
ENDBRANCH   2   3
ENDBRANCH   1   2
BRANCH   1  73
ATOM     73  C   UNL A   1      33.714  24.878  22.255  1.00  0.00     0.261 C 
BRANCH  73  74
ATOM     74  O   UNL A   1      32.400  25.145  22.744  1.00  0.00    -0.461 OA
BRANCH  74  75
ATOM     75  C   UNL A   1      31.722  26.081  22.045  1.00  0.00     0.334 C 
ATOM     76  O   UNL A   1      31.372  25.954  20.875  1.00  0.00    -0.249 OA
BRANCH  75  77
ATOM     77  C   UNL A   1      31.560  27.373  22.815  1.00  0.00     0.232 C 
BRANCH  77  78
ATOM     78  C   UNL A   1      30.262  28.175  22.909  1.00  0.00    -0.014 A 
ATOM     79  C   UNL A   1      29.041  27.622  23.320  1.00  0.00     0.006 A 
ATOM     80  C   UNL A   1      30.208  29.439  22.290  1.00  0.00     0.006 A 
ATOM     81  C   UNL A   1      27.818  28.235  23.025  1.00  0.00     0.000 A 
ATOM     82  C   UNL A   1      28.991  30.078  22.034  1.00  0.00     0.000 A 
ATOM     83  C   UNL A   1      27.793  29.459  22.370  1.00  0.00     0.000 A 
ENDBRANCH  77  78
BRANCH  77  84
ATOM     84  N   UNL A   1      32.299  27.160  24.055  1.00  0.00    -0.274 N 
ATOM     85  C   UNL A   1      31.741  26.282  24.963  1.00  0.00     0.267 C 
ATOM     86  C   UNL A   1      33.429  27.837  24.465  1.00  0.00     0.149 C 
ATOM     87  O   UNL A   1      30.676  25.716  24.850  1.00  0.00    -0.268 OA
ATOM     88  C   UNL A   1      32.675  26.120  26.105  1.00  0.00     0.084 C 
ATOM     89  S   UNL A   1      33.745  27.462  26.166  1.00  0.00    -0.054 SA
ATOM     90  S   UNL A   1      34.423  28.853  23.598  1.00  0.00    -0.052 S 
ATOM     91  C   UNL A   1      32.835  24.995  26.805  1.00  0.00     0.068 C 
BRANCH  91  92
ATOM     92  C   UNL A   1      32.234  23.794  26.353  1.00  0.00     0.128 A 
ATOM     93  C   UNL A   1      30.885  23.448  26.373  1.00  0.00     0.051 A 
ATOM     94  O   UNL A   1      32.932  22.746  25.818  1.00  0.00    -0.457 OA
ATOM     95  C   UNL A   1      30.769  22.138  25.865  1.00  0.00     0.051 A 
ATOM     96  C   UNL A   1      32.047  21.753  25.538  1.00  0.00     0.134 A 
BRANCH  96  97
ATOM     97  C   UNL A   1      32.612  20.575  24.924  1.00  0.00     0.017 A 
ATOM     98  C   UNL A   1      33.821  20.039  25.385  1.00  0.00     0.015 A 
ATOM     99  C   UNL A   1      31.955  19.982  23.838  1.00  0.00     0.015 A 
ATOM    100  C   UNL A   1      34.373  18.922  24.757  1.00  0.00     0.040 A 
ATOM    101  C   UNL A   1      32.514  18.875  23.204  1.00  0.00     0.040 A 
ATOM    102  C   UNL A   1      33.717  18.356  23.670  1.00  0.00     0.123 A 
ATOM    103  F   UNL A   1      34.257  17.297  23.054  1.00  0.00    -0.207 F 
ENDBRANCH  96  97
ENDBRANCH  91  92
ENDBRANCH  77  84
ENDBRANCH  75  77
ENDBRANCH  74  75
ENDBRANCH  73  74
ENDBRANCH   1  73
TORSDOF 18
ENDMDL
