MODEL 1
REMARK VINA RESULT:     -11.5      0.000      0.000
REMARK SMILES Cc1ccc(S(=O)(=O)n2cc(C(=O)C(=O)NCC(=O)N[C@H](Cc3c[nH]c4ccccc34)C(=O)OCCOCCOC(=O)c3ccc(-c4c5nc(c(-c6c(F)c(F)c(F)c(F)c6F)c6ccc([nH]6)c(-c6c(F)c(F)c(F)c(F)c6F)c6nc(c(-c7c(F)c(F)c(F)c(F)c7F)c7ccc4[nH]7)C=C6)C=C5)cc3)c3ccccc32)cc1
REMARK SMILES IDX 35 1 34 2 32 3 33 4 21 5 20 6 18 7 19 8 17 10 16 11 14 12
REMARK SMILES IDX 15 13 12 15 13 16 11 17 9 18 10 19 111 20 106 21 110 22
REMARK SMILES IDX 107 23 109 24 108 25 6 26 7 27 8 28 5 29 1 30 2 31 3 32
REMARK SMILES IDX 113 33 4 34 112 35 22 36 23 37 24 38 31 39 25 40 26 41 30 42
REMARK SMILES IDX 27 44 29 45 28 46 36 47 37 48 38 49 39 50 40 51 41 52 42 53
REMARK SMILES IDX 43 54 44 55 105 56 45 57 104 58 46 59 47 60 48 61 98 62
REMARK SMILES IDX 49 63 103 64 97 65 99 66 50 67 102 68 96 69 95 70 51 72
REMARK SMILES IDX 83 73 63 74 82 75 64 76 67 77 81 78 100 79 65 80 66 81 80 83
REMARK SMILES IDX 101 84 68 85 52 86 53 87 61 88 54 89 55 90 59 91 62 92 56 93
REMARK SMILES IDX 57 94 60 95 58 96 84 97 85 98 93 99 86 100 87 101 91 102
REMARK SMILES IDX 94 103 88 104 89 105 92 106 90 107 69 108 70 109 78 110
REMARK SMILES IDX 71 111 72 112 76 113 79 114 73 115 74 116 77 117 75 118
REMARK H PARENT 20 9 16 14 25 43 99 71 67 82
REMARK Flexibility Score: inf
ROOT
ATOM      1  C   UNL A   1      42.958  21.066  25.808  1.00  0.00     0.261 C 
ENDROOT
BRANCH   1   2
ATOM      2  O   UNL A   1      41.654  21.552  25.505  1.00  0.00    -0.462 OA
BRANCH   2   3
ATOM      3  C   UNL A   1      40.592  20.906  26.069  1.00  0.00     0.329 C 
ATOM      4  O   UNL A   1      40.413  19.715  26.157  1.00  0.00    -0.250 OA
BRANCH   3   5
ATOM      5  C   UNL A   1      39.603  21.934  26.583  1.00  0.00     0.196 C 
BRANCH   5   6
ATOM      6  N   UNL A   1      39.016  22.603  25.417  1.00  0.00    -0.341 N 
ATOM      7  C   UNL A   1      37.745  23.111  25.288  1.00  0.00     0.240 C 
ATOM      8  O   UNL A   1      37.430  23.564  24.184  1.00  0.00    -0.273 OA
ATOM      9  H   UNL A   1      39.603  22.700  24.633  1.00  0.00     0.164 HD
BRANCH   7  10
ATOM     10  C   UNL A   1      36.725  23.093  26.471  1.00  0.00     0.216 C 
BRANCH  10  11
ATOM     11  N   UNL A   1      35.808  21.951  26.530  1.00  0.00    -0.340 N 
ATOM     12  C   UNL A   1      34.665  21.681  25.787  1.00  0.00     0.292 C 
ATOM     13  O   UNL A   1      34.038  20.635  25.915  1.00  0.00    -0.265 OA
ATOM     14  H   UNL A   1      36.037  21.269  27.201  1.00  0.00     0.164 HD
BRANCH  12  15
ATOM     15  C   UNL A   1      34.216  22.678  24.728  1.00  0.00     0.252 C 
ATOM     16  O   UNL A   1      34.374  22.305  23.562  1.00  0.00    -0.283 OA
BRANCH  15  17
ATOM     17  C   UNL A   1      33.792  24.051  25.048  1.00  0.00     0.054 A 
ATOM     18  N   UNL A   1      33.217  26.040  25.972  1.00  0.00    -0.240 N 
ATOM     19  C   UNL A   1      33.370  24.676  26.234  1.00  0.00     0.117 A 
ATOM     20  C   UNL A   1      33.738  26.269  24.678  1.00  0.00     0.065 A 
ATOM     21  C   UNL A   1      33.658  25.041  24.033  1.00  0.00     0.012 A 
ATOM     22  C   UNL A   1      33.896  27.468  23.952  1.00  0.00     0.028 A 
ATOM     23  C   UNL A   1      33.529  25.018  22.630  1.00  0.00     0.011 A 
ATOM     24  C   UNL A   1      33.646  27.428  22.582  1.00  0.00     0.002 A 
ATOM     25  C   UNL A   1      33.425  26.222  21.932  1.00  0.00     0.001 A 
BRANCH  18  26
ATOM     26  S   UNL A   1      31.815  27.054  26.208  1.00  0.00     0.268 S 
ATOM     27  O   UNL A   1      32.238  27.894  27.321  1.00  0.00    -0.201 OA
ATOM     28  O   UNL A   1      30.782  26.037  26.383  1.00  0.00    -0.201 OA
BRANCH  26  29
ATOM     29  C   UNL A   1      30.934  28.168  25.180  1.00  0.00     0.088 A 
ATOM     30  C   UNL A   1      28.839  29.831  21.774  1.00  0.00     0.044 C 
ATOM     31  C   UNL A   1      29.524  29.307  23.005  1.00  0.00    -0.051 A 
ATOM     32  C   UNL A   1      29.419  27.947  23.243  1.00  0.00     0.005 A 
ATOM     33  C   UNL A   1      30.304  30.095  23.884  1.00  0.00     0.005 A 
ATOM     34  C   UNL A   1      30.098  27.405  24.315  1.00  0.00     0.022 A 
ATOM     35  C   UNL A   1      31.025  29.532  24.978  1.00  0.00     0.022 A 
ENDBRANCH  26  29
ENDBRANCH  18  26
ENDBRANCH  15  17
ENDBRANCH  12  15
ENDBRANCH  10  11
ENDBRANCH   7  10
ENDBRANCH   5   6
BRANCH   5  36
ATOM     36  C   UNL A   1      40.267  22.850  27.663  1.00  0.00     0.074 C 
BRANCH  36  37
ATOM     37  C   UNL A   1      40.290  24.366  27.472  1.00  0.00    -0.020 A 
ATOM     38  C   UNL A   1      39.369  25.285  27.949  1.00  0.00     0.087 A 
ATOM     39  C   UNL A   1      41.252  25.143  26.707  1.00  0.00     0.003 A 
ATOM     40  N   UNL A   1      39.641  26.514  27.403  1.00  0.00    -0.361 N 
ATOM     41  C   UNL A   1      40.758  26.449  26.608  1.00  0.00     0.046 A 
ATOM     42  C   UNL A   1      42.443  24.848  26.002  1.00  0.00     0.010 A 
ATOM     43  H   UNL A   1      39.112  27.329  27.560  1.00  0.00     0.166 HD
ATOM     44  C   UNL A   1      41.335  27.436  25.791  1.00  0.00     0.026 A 
ATOM     45  C   UNL A   1      43.062  25.839  25.222  1.00  0.00     0.001 A 
ATOM     46  C   UNL A   1      42.502  27.107  25.100  1.00  0.00     0.002 A 
ENDBRANCH  36  37
ENDBRANCH   5  36
ENDBRANCH   3   5
ENDBRANCH   2   3
ENDBRANCH   1   2
BRANCH   1  47
ATOM     47  C   UNL A   1      44.063  21.616  24.967  1.00  0.00     0.202 C 
BRANCH  47  48
ATOM     48  O   UNL A   1      45.235  21.604  25.759  1.00  0.00    -0.374 OA
BRANCH  48  49
ATOM     49  C   UNL A   1      45.342  22.701  26.641  1.00  0.00     0.202 C 
BRANCH  49  50
ATOM     50  C   UNL A   1      46.257  23.779  26.057  1.00  0.00     0.261 C 
BRANCH  50  51
ATOM     51  O   UNL A   1      46.746  24.607  27.142  1.00  0.00    -0.460 OA
BRANCH  51  52
ATOM     52  C   UNL A   1      46.182  25.845  27.247  1.00  0.00     0.338 C 
ATOM     53  O   UNL A   1      46.399  26.780  26.493  1.00  0.00    -0.246 OA
BRANCH  52  54
ATOM     54  C   UNL A   1      45.522  26.009  28.586  1.00  0.00     0.060 A 
ATOM     55  C   UNL A   1      44.322  25.319  28.863  1.00  0.00     0.016 A 
ATOM     56  C   UNL A   1      45.879  27.095  29.378  1.00  0.00     0.016 A 
ATOM     57  C   UNL A   1      43.406  25.818  29.812  1.00  0.00     0.010 A 
ATOM     58  C   UNL A   1      44.928  27.638  30.224  1.00  0.00     0.010 A 
ATOM     59  C   UNL A   1      43.667  27.036  30.431  1.00  0.00    -0.014 A 
BRANCH  59  60
ATOM     60  C   UNL A   1      42.721  27.833  31.246  1.00  0.00     0.031 A 
ATOM     61  C   UNL A   1      41.855  28.785  30.488  1.00  0.00     0.074 A 
ATOM     62  C   UNL A   1      42.432  27.570  32.555  1.00  0.00     0.049 A 
ATOM     63  N   UNL A   1      41.037  29.622  31.022  1.00  0.00    -0.248 NA
ATOM     64  C   UNL A   1      41.860  28.886  29.030  1.00  0.00     0.031 C 
ATOM     65  C   UNL A   1      41.239  27.994  33.299  1.00  0.00     0.029 A 
ATOM     66  N   UNL A   1      43.131  26.834  33.542  1.00  0.00    -0.354 N 
ATOM     67  C   UNL A   1      40.210  30.117  30.038  1.00  0.00     0.074 A 
ATOM     68  C   UNL A   1      40.820  29.690  28.809  1.00  0.00     0.031 C 
ATOM     69  C   UNL A   1      41.385  27.738  34.610  1.00  0.00     0.029 A 
ATOM     70  C   UNL A   1      42.767  27.360  34.800  1.00  0.00     0.049 A 
ATOM     71  H   UNL A   1      43.756  26.090  33.379  1.00  0.00     0.167 HD
ATOM     72  C   UNL A   1      39.061  30.746  30.423  1.00  0.00     0.037 A 
ATOM     73  C   UNL A   1      43.663  28.015  35.590  1.00  0.00     0.037 A 
ATOM     74  C   UNL A   1      39.085  30.969  31.883  1.00  0.00     0.049 A 
ATOM     75  C   UNL A   1      43.257  29.452  35.738  1.00  0.00     0.074 A 
ATOM     76  C   UNL A   1      38.431  30.384  32.955  1.00  0.00     0.029 A 
ATOM     77  N   UNL A   1      40.148  31.695  32.435  1.00  0.00    -0.354 N 
ATOM     78  N   UNL A   1      42.449  30.026  34.888  1.00  0.00    -0.248 NA
ATOM     79  C   UNL A   1      43.637  30.334  36.832  1.00  0.00     0.031 C 
ATOM     80  C   UNL A   1      39.180  30.676  34.136  1.00  0.00     0.029 A 
ATOM     81  C   UNL A   1      40.269  31.468  33.795  1.00  0.00     0.049 A 
ATOM     82  H   UNL A   1      40.737  32.292  31.919  1.00  0.00     0.167 HD
ATOM     83  C   UNL A   1      42.156  31.277  35.303  1.00  0.00     0.074 A 
ATOM     84  C   UNL A   1      42.945  31.444  36.514  1.00  0.00     0.031 C 
ATOM     85  C   UNL A   1      41.339  32.092  34.579  1.00  0.00     0.037 A 
BRANCH  72  86
ATOM     86  C   UNL A   1      37.842  31.015  29.539  1.00  0.00     0.064 A 
ATOM     87  C   UNL A   1      37.375  32.338  29.355  1.00  0.00     0.173 A 
ATOM     88  C   UNL A   1      37.045  30.043  28.892  1.00  0.00     0.173 A 
ATOM     89  F   UNL A   1      38.025  33.385  29.879  1.00  0.00    -0.203 F 
ATOM     90  C   UNL A   1      36.215  32.645  28.627  1.00  0.00     0.198 A 
ATOM     91  C   UNL A   1      35.887  30.349  28.166  1.00  0.00     0.198 A 
ATOM     92  F   UNL A   1      37.340  28.746  28.896  1.00  0.00    -0.203 F 
ATOM     93  F   UNL A   1      35.825  33.922  28.503  1.00  0.00    -0.200 F 
ATOM     94  C   UNL A   1      35.467  31.649  28.036  1.00  0.00     0.200 A 
ATOM     95  F   UNL A   1      35.188  29.357  27.591  1.00  0.00    -0.200 F 
ATOM     96  F   UNL A   1      34.361  31.939  27.338  1.00  0.00    -0.200 F 
ENDBRANCH  72  86
BRANCH  73  97
ATOM     97  C   UNL A   1      45.027  27.430  35.519  1.00  0.00     0.064 A 
ATOM     98  C   UNL A   1      45.243  26.245  36.249  1.00  0.00     0.173 A 
ATOM     99  C   UNL A   1      45.855  27.662  34.409  1.00  0.00     0.173 A 
ATOM    100  F   UNL A   1      44.482  25.967  37.319  1.00  0.00    -0.203 F 
ATOM    101  C   UNL A   1      46.130  25.269  35.799  1.00  0.00     0.198 A 
ATOM    102  C   UNL A   1      46.733  26.672  33.955  1.00  0.00     0.198 A 
ATOM    103  F   UNL A   1      45.694  28.767  33.668  1.00  0.00    -0.203 F 
ATOM    104  F   UNL A   1      46.208  24.088  36.431  1.00  0.00    -0.200 F 
ATOM    105  C   UNL A   1      46.835  25.462  34.623  1.00  0.00     0.200 A 
ATOM    106  F   UNL A   1      47.400  26.844  32.804  1.00  0.00    -0.200 F 
ATOM    107  F   UNL A   1      47.558  24.458  34.107  1.00  0.00    -0.200 F 
ENDBRANCH  73  97
BRANCH  85 108
ATOM    108  C   UNL A   1      41.507  33.575  34.630  1.00  0.00     0.064 A 
ATOM    109  C   UNL A   1      40.685  34.397  35.425  1.00  0.00     0.173 A 
ATOM    110  C   UNL A   1      42.601  34.205  34.011  1.00  0.00     0.173 A 
ATOM    111  F   UNL A   1      39.719  33.883  36.202  1.00  0.00    -0.203 F 
ATOM    112  C   UNL A   1      40.862  35.773  35.488  1.00  0.00     0.198 A 
ATOM    113  C   UNL A   1      42.821  35.574  34.138  1.00  0.00     0.198 A 
ATOM    114  F   UNL A   1      43.500  33.510  33.300  1.00  0.00    -0.203 F 
ATOM    115  F   UNL A   1      40.002  36.519  36.195  1.00  0.00    -0.200 F 
ATOM    116  C   UNL A   1      41.934  36.361  34.847  1.00  0.00     0.200 A 
ATOM    117  F   UNL A   1      43.910  36.125  33.584  1.00  0.00    -0.200 F 
ATOM    118  F   UNL A   1      42.123  37.683  34.934  1.00  0.00    -0.200 F 
ENDBRANCH  85 108
ENDBRANCH  59  60
ENDBRANCH  52  54
ENDBRANCH  51  52
ENDBRANCH  50  51
ENDBRANCH  49  50
ENDBRANCH  48  49
ENDBRANCH  47  48
ENDBRANCH   1  47
TORSDOF 23
ENDMDL
MODEL 2
REMARK VINA RESULT:     -11.3      2.835      5.091
REMARK SMILES Cc1ccc(S(=O)(=O)n2cc(C(=O)C(=O)NCC(=O)N[C@H](Cc3c[nH]c4ccccc34)C(=O)OCCOCCOC(=O)c3ccc(-c4c5nc(c(-c6c(F)c(F)c(F)c(F)c6F)c6ccc([nH]6)c(-c6c(F)c(F)c(F)c(F)c6F)c6nc(c(-c7c(F)c(F)c(F)c(F)c7F)c7ccc4[nH]7)C=C6)C=C5)cc3)c3ccccc32)cc1
REMARK SMILES IDX 35 1 34 2 32 3 33 4 21 5 20 6 18 7 19 8 17 10 16 11 14 12
REMARK SMILES IDX 15 13 12 15 13 16 11 17 9 18 10 19 111 20 106 21 110 22
REMARK SMILES IDX 107 23 109 24 108 25 6 26 7 27 8 28 5 29 1 30 2 31 3 32
REMARK SMILES IDX 113 33 4 34 112 35 22 36 23 37 24 38 31 39 25 40 26 41 30 42
REMARK SMILES IDX 27 44 29 45 28 46 36 47 37 48 38 49 39 50 40 51 41 52 42 53
REMARK SMILES IDX 43 54 44 55 105 56 45 57 104 58 46 59 47 60 48 61 98 62
REMARK SMILES IDX 49 63 103 64 97 65 99 66 50 67 102 68 96 69 95 70 51 72
REMARK SMILES IDX 83 73 63 74 82 75 64 76 67 77 81 78 100 79 65 80 66 81 80 83
REMARK SMILES IDX 101 84 68 85 52 86 53 87 61 88 54 89 55 90 59 91 62 92 56 93
REMARK SMILES IDX 57 94 60 95 58 96 84 97 85 98 93 99 86 100 87 101 91 102
REMARK SMILES IDX 94 103 88 104 89 105 92 106 90 107 69 108 70 109 78 110
REMARK SMILES IDX 71 111 72 112 76 113 79 114 73 115 74 116 77 117 75 118
REMARK H PARENT 20 9 16 14 25 43 99 71 67 82
REMARK Flexibility Score: inf
ROOT
ATOM      1  C   UNL A   1      42.995  22.389  25.792  1.00  0.00     0.261 C 
ENDROOT
BRANCH   1   2
ATOM      2  O   UNL A   1      41.634  21.988  25.908  1.00  0.00    -0.462 OA
BRANCH   2   3
ATOM      3  C   UNL A   1      40.945  22.398  27.012  1.00  0.00     0.329 C 
ATOM      4  O   UNL A   1      41.320  22.400  28.159  1.00  0.00    -0.250 OA
BRANCH   3   5
ATOM      5  C   UNL A   1      39.564  22.863  26.590  1.00  0.00     0.196 C 
BRANCH   5   6
ATOM      6  N   UNL A   1      39.036  21.874  25.646  1.00  0.00    -0.341 N 
ATOM      7  C   UNL A   1      37.723  21.656  25.300  1.00  0.00     0.240 C 
ATOM      8  O   UNL A   1      37.490  20.711  24.540  1.00  0.00    -0.273 OA
ATOM      9  H   UNL A   1      39.701  21.297  25.206  1.00  0.00     0.164 HD
BRANCH   7  10
ATOM     10  C   UNL A   1      36.564  22.540  25.861  1.00  0.00     0.216 C 
BRANCH  10  11
ATOM     11  N   UNL A   1      35.578  21.866  26.712  1.00  0.00    -0.340 N 
ATOM     12  C   UNL A   1      34.200  21.755  26.571  1.00  0.00     0.292 C 
ATOM     13  O   UNL A   1      33.518  21.092  27.345  1.00  0.00    -0.265 OA
ATOM     14  H   UNL A   1      35.950  21.424  27.509  1.00  0.00     0.164 HD
BRANCH  12  15
ATOM     15  C   UNL A   1      33.521  22.412  25.377  1.00  0.00     0.252 C 
ATOM     16  O   UNL A   1      33.336  21.668  24.410  1.00  0.00    -0.283 OA
BRANCH  15  17
ATOM     17  C   UNL A   1      33.263  23.859  25.298  1.00  0.00     0.054 A 
ATOM     18  N   UNL A   1      32.959  26.082  25.623  1.00  0.00    -0.240 N 
ATOM     19  C   UNL A   1      32.991  24.841  26.266  1.00  0.00     0.117 A 
ATOM     20  C   UNL A   1      33.407  25.869  24.300  1.00  0.00     0.065 A 
ATOM     21  C   UNL A   1      33.157  24.527  24.045  1.00  0.00     0.012 A 
ATOM     22  C   UNL A   1      33.633  26.783  23.250  1.00  0.00     0.028 A 
ATOM     23  C   UNL A   1      32.927  24.118  22.716  1.00  0.00     0.011 A 
ATOM     24  C   UNL A   1      33.284  26.383  21.962  1.00  0.00     0.002 A 
ATOM     25  C   UNL A   1      32.896  25.077  21.701  1.00  0.00     0.001 A 
BRANCH  18  26
ATOM     26  S   UNL A   1      31.687  27.279  25.608  1.00  0.00     0.268 S 
ATOM     27  O   UNL A   1      32.407  28.484  25.996  1.00  0.00    -0.201 OA
ATOM     28  O   UNL A   1      30.725  26.652  26.510  1.00  0.00    -0.201 OA
BRANCH  26  29
ATOM     29  C   UNL A   1      30.576  27.855  24.379  1.00  0.00     0.088 A 
ATOM     30  C   UNL A   1      27.887  30.415  22.150  1.00  0.00     0.044 C 
ATOM     31  C   UNL A   1      28.835  29.485  22.853  1.00  0.00    -0.051 A 
ATOM     32  C   UNL A   1      29.893  30.070  23.528  1.00  0.00     0.005 A 
ATOM     33  C   UNL A   1      28.680  28.079  22.914  1.00  0.00     0.005 A 
ATOM     34  C   UNL A   1      30.745  29.264  24.256  1.00  0.00     0.022 A 
ATOM     35  C   UNL A   1      29.545  27.249  23.686  1.00  0.00     0.022 A 
ENDBRANCH  26  29
ENDBRANCH  18  26
ENDBRANCH  15  17
ENDBRANCH  12  15
ENDBRANCH  10  11
ENDBRANCH   7  10
ENDBRANCH   5   6
BRANCH   5  36
ATOM     36  C   UNL A   1      39.603  24.350  26.107  1.00  0.00     0.074 C 
BRANCH  36  37
ATOM     37  C   UNL A   1      39.941  25.467  27.094  1.00  0.00    -0.020 A 
ATOM     38  C   UNL A   1      39.501  25.591  28.402  1.00  0.00     0.087 A 
ATOM     39  C   UNL A   1      40.747  26.650  26.842  1.00  0.00     0.003 A 
ATOM     40  N   UNL A   1      39.871  26.822  28.882  1.00  0.00    -0.361 N 
ATOM     41  C   UNL A   1      40.595  27.507  27.939  1.00  0.00     0.046 A 
ATOM     42  C   UNL A   1      41.511  27.128  25.751  1.00  0.00     0.010 A 
ATOM     43  H   UNL A   1      39.650  27.165  29.778  1.00  0.00     0.166 HD
ATOM     44  C   UNL A   1      41.087  28.822  27.970  1.00  0.00     0.026 A 
ATOM     45  C   UNL A   1      42.056  28.423  25.787  1.00  0.00     0.001 A 
ATOM     46  C   UNL A   1      41.825  29.265  26.871  1.00  0.00     0.002 A 
ENDBRANCH  36  37
ENDBRANCH   5  36
ENDBRANCH   3   5
ENDBRANCH   2   3
ENDBRANCH   1   2
BRANCH   1  47
ATOM     47  C   UNL A   1      43.220  23.765  25.262  1.00  0.00     0.202 C 
BRANCH  47  48
ATOM     48  O   UNL A   1      44.558  24.114  25.560  1.00  0.00    -0.374 OA
BRANCH  48  49
ATOM     49  C   UNL A   1      44.889  25.447  25.234  1.00  0.00     0.202 C 
BRANCH  49  50
ATOM     50  C   UNL A   1      46.403  25.606  25.074  1.00  0.00     0.261 C 
BRANCH  50  51
ATOM     51  O   UNL A   1      47.039  25.262  26.330  1.00  0.00    -0.460 OA
BRANCH  51  52
ATOM     52  C   UNL A   1      46.923  26.186  27.328  1.00  0.00     0.338 C 
ATOM     53  O   UNL A   1      47.262  27.356  27.242  1.00  0.00    -0.246 OA
BRANCH  52  54
ATOM     54  C   UNL A   1      46.638  25.510  28.638  1.00  0.00     0.060 A 
ATOM     55  C   UNL A   1      45.493  24.694  28.769  1.00  0.00     0.016 A 
ATOM     56  C   UNL A   1      47.272  25.977  29.784  1.00  0.00     0.016 A 
ATOM     57  C   UNL A   1      44.890  24.495  30.028  1.00  0.00     0.010 A 
ATOM     58  C   UNL A   1      46.614  25.870  30.996  1.00  0.00     0.010 A 
ATOM     59  C   UNL A   1      45.400  25.162  31.137  1.00  0.00    -0.014 A 
BRANCH  59  60
ATOM     60  C   UNL A   1      44.759  25.280  32.468  1.00  0.00     0.031 A 
ATOM     61  C   UNL A   1      44.033  26.559  32.726  1.00  0.00     0.074 A 
ATOM     62  C   UNL A   1      44.587  24.233  33.328  1.00  0.00     0.049 A 
ATOM     63  N   UNL A   1      43.490  26.885  33.846  1.00  0.00    -0.248 NA
ATOM     64  C   UNL A   1      43.876  27.610  31.722  1.00  0.00     0.031 C 
ATOM     65  C   UNL A   1      43.618  24.142  34.427  1.00  0.00     0.029 A 
ATOM     66  N   UNL A   1      45.227  22.973  33.414  1.00  0.00    -0.354 N 
ATOM     67  C   UNL A   1      42.673  27.975  33.638  1.00  0.00     0.074 A 
ATOM     68  C   UNL A   1      43.017  28.434  32.321  1.00  0.00     0.031 C 
ATOM     69  C   UNL A   1      43.868  23.065  35.189  1.00  0.00     0.029 A 
ATOM     70  C   UNL A   1      45.148  22.548  34.758  1.00  0.00     0.049 A 
ATOM     71  H   UNL A   1      45.651  22.483  32.672  1.00  0.00     0.167 HD
ATOM     72  C   UNL A   1      41.746  28.273  34.595  1.00  0.00     0.037 A 
ATOM     73  C   UNL A   1      46.257  22.434  35.541  1.00  0.00     0.037 A 
ATOM     74  C   UNL A   1      42.001  27.458  35.801  1.00  0.00     0.049 A 
ATOM     75  C   UNL A   1      46.195  23.428  36.663  1.00  0.00     0.074 A 
ATOM     76  C   UNL A   1      41.376  26.361  36.369  1.00  0.00     0.029 A 
ATOM     77  N   UNL A   1      43.257  27.541  36.415  1.00  0.00    -0.354 N 
ATOM     78  N   UNL A   1      45.431  24.484  36.599  1.00  0.00    -0.248 NA
ATOM     79  C   UNL A   1      46.891  23.318  37.937  1.00  0.00     0.031 C 
ATOM     80  C   UNL A   1      42.312  25.727  37.241  1.00  0.00     0.029 A 
ATOM     81  C   UNL A   1      43.496  26.454  37.237  1.00  0.00     0.049 A 
ATOM     82  H   UNL A   1      43.892  28.281  36.277  1.00  0.00     0.167 HD
ATOM     83  C   UNL A   1      45.471  25.155  37.771  1.00  0.00     0.074 A 
ATOM     84  C   UNL A   1      46.423  24.405  38.576  1.00  0.00     0.031 C 
ATOM     85  C   UNL A   1      44.766  26.306  37.954  1.00  0.00     0.037 A 
BRANCH  72  86
ATOM     86  C   UNL A   1      40.514  29.159  34.410  1.00  0.00     0.064 A 
ATOM     87  C   UNL A   1      40.252  30.212  35.318  1.00  0.00     0.173 A 
ATOM     88  C   UNL A   1      39.516  29.011  33.419  1.00  0.00     0.173 A 
ATOM     89  F   UNL A   1      41.107  30.508  36.305  1.00  0.00    -0.203 F 
ATOM     90  C   UNL A   1      39.097  31.008  35.254  1.00  0.00     0.198 A 
ATOM     91  C   UNL A   1      38.363  29.804  33.355  1.00  0.00     0.198 A 
ATOM     92  F   UNL A   1      39.596  28.115  32.440  1.00  0.00    -0.203 F 
ATOM     93  F   UNL A   1      38.910  31.982  36.155  1.00  0.00    -0.200 F 
ATOM     94  C   UNL A   1      38.149  30.800  34.275  1.00  0.00     0.200 A 
ATOM     95  F   UNL A   1      37.465  29.585  32.382  1.00  0.00    -0.200 F 
ATOM     96  F   UNL A   1      37.047  31.559  34.210  1.00  0.00    -0.200 F 
ENDBRANCH  72  86
BRANCH  73  97
ATOM     97  C   UNL A   1      47.442  21.941  34.791  1.00  0.00     0.064 A 
ATOM     98  C   UNL A   1      48.378  22.911  34.384  1.00  0.00     0.173 A 
ATOM     99  C   UNL A   1      47.908  20.627  34.962  1.00  0.00     0.173 A 
ATOM    100  F   UNL A   1      47.992  24.184  34.206  1.00  0.00    -0.203 F 
ATOM    101  C   UNL A   1      49.738  22.617  34.309  1.00  0.00     0.198 A 
ATOM    102  C   UNL A   1      49.276  20.343  34.899  1.00  0.00     0.198 A 
ATOM    103  F   UNL A   1      47.069  19.660  35.358  1.00  0.00    -0.203 F 
ATOM    104  F   UNL A   1      50.624  23.594  34.062  1.00  0.00    -0.200 F 
ATOM    105  C   UNL A   1      50.191  21.346  34.617  1.00  0.00     0.200 A 
ATOM    106  F   UNL A   1      49.723  19.119  35.220  1.00  0.00    -0.200 F 
ATOM    107  F   UNL A   1      51.508  21.110  34.704  1.00  0.00    -0.200 F 
ENDBRANCH  73  97
BRANCH  85 108
ATOM    108  C   UNL A   1      45.257  27.355  38.898  1.00  0.00     0.064 A 
ATOM    109  C   UNL A   1      44.986  27.307  40.279  1.00  0.00     0.173 A 
ATOM    110  C   UNL A   1      46.153  28.353  38.474  1.00  0.00     0.173 A 
ATOM    111  F   UNL A   1      44.291  26.299  40.825  1.00  0.00    -0.203 F 
ATOM    112  C   UNL A   1      45.467  28.273  41.155  1.00  0.00     0.198 A 
ATOM    113  C   UNL A   1      46.694  29.272  39.369  1.00  0.00     0.198 A 
ATOM    114  F   UNL A   1      46.551  28.440  37.197  1.00  0.00    -0.203 F 
ATOM    115  F   UNL A   1      45.113  28.228  42.447  1.00  0.00    -0.200 F 
ATOM    116  C   UNL A   1      46.325  29.253  40.700  1.00  0.00     0.200 A 
ATOM    117  F   UNL A   1      47.592  30.167  38.935  1.00  0.00    -0.200 F 
ATOM    118  F   UNL A   1      46.815  30.163  41.550  1.00  0.00    -0.200 F 
ENDBRANCH  85 108
ENDBRANCH  59  60
ENDBRANCH  52  54
ENDBRANCH  51  52
ENDBRANCH  50  51
ENDBRANCH  49  50
ENDBRANCH  48  49
ENDBRANCH  47  48
ENDBRANCH   1  47
TORSDOF 23
ENDMDL
MODEL 3
REMARK VINA RESULT:     -11.2      2.916      5.431
REMARK SMILES Cc1ccc(S(=O)(=O)n2cc(C(=O)C(=O)NCC(=O)N[C@H](Cc3c[nH]c4ccccc34)C(=O)OCCOCCOC(=O)c3ccc(-c4c5nc(c(-c6c(F)c(F)c(F)c(F)c6F)c6ccc([nH]6)c(-c6c(F)c(F)c(F)c(F)c6F)c6nc(c(-c7c(F)c(F)c(F)c(F)c7F)c7ccc4[nH]7)C=C6)C=C5)cc3)c3ccccc32)cc1
REMARK SMILES IDX 35 1 34 2 32 3 33 4 21 5 20 6 18 7 19 8 17 10 16 11 14 12
REMARK SMILES IDX 15 13 12 15 13 16 11 17 9 18 10 19 111 20 106 21 110 22
REMARK SMILES IDX 107 23 109 24 108 25 6 26 7 27 8 28 5 29 1 30 2 31 3 32
REMARK SMILES IDX 113 33 4 34 112 35 22 36 23 37 24 38 31 39 25 40 26 41 30 42
REMARK SMILES IDX 27 44 29 45 28 46 36 47 37 48 38 49 39 50 40 51 41 52 42 53
REMARK SMILES IDX 43 54 44 55 105 56 45 57 104 58 46 59 47 60 48 61 98 62
REMARK SMILES IDX 49 63 103 64 97 65 99 66 50 67 102 68 96 69 95 70 51 72
REMARK SMILES IDX 83 73 63 74 82 75 64 76 67 77 81 78 100 79 65 80 66 81 80 83
REMARK SMILES IDX 101 84 68 85 52 86 53 87 61 88 54 89 55 90 59 91 62 92 56 93
REMARK SMILES IDX 57 94 60 95 58 96 84 97 85 98 93 99 86 100 87 101 91 102
REMARK SMILES IDX 94 103 88 104 89 105 92 106 90 107 69 108 70 109 78 110
REMARK SMILES IDX 71 111 72 112 76 113 79 114 73 115 74 116 77 117 75 118
REMARK H PARENT 20 9 16 14 25 43 99 71 67 82
REMARK Flexibility Score: inf
ROOT
ATOM      1  C   UNL A   1      43.010  22.562  25.537  1.00  0.00     0.261 C 
ENDROOT
BRANCH   1   2
ATOM      2  O   UNL A   1      41.671  22.131  25.761  1.00  0.00    -0.462 OA
BRANCH   2   3
ATOM      3  C   UNL A   1      41.079  22.490  26.937  1.00  0.00     0.329 C 
ATOM      4  O   UNL A   1      41.586  22.554  28.031  1.00  0.00    -0.250 OA
BRANCH   3   5
ATOM      5  C   UNL A   1      39.616  22.800  26.681  1.00  0.00     0.196 C 
BRANCH   5   6
ATOM      6  N   UNL A   1      39.106  21.785  25.754  1.00  0.00    -0.341 N 
ATOM      7  C   UNL A   1      37.811  21.609  25.327  1.00  0.00     0.240 C 
ATOM      8  O   UNL A   1      37.585  20.634  24.604  1.00  0.00    -0.273 OA
ATOM      9  H   UNL A   1      39.770  21.154  25.395  1.00  0.00     0.164 HD
BRANCH   7  10
ATOM     10  C   UNL A   1      36.662  22.576  25.755  1.00  0.00     0.216 C 
BRANCH  10  11
ATOM     11  N   UNL A   1      35.680  22.047  26.707  1.00  0.00    -0.340 N 
ATOM     12  C   UNL A   1      34.414  21.517  26.487  1.00  0.00     0.292 C 
ATOM     13  O   UNL A   1      33.737  21.051  27.397  1.00  0.00    -0.265 OA
ATOM     14  H   UNL A   1      35.961  22.072  27.650  1.00  0.00     0.164 HD
BRANCH  12  15
ATOM     15  C   UNL A   1      33.879  21.442  25.064  1.00  0.00     0.252 C 
ATOM     16  O   UNL A   1      34.087  20.372  24.485  1.00  0.00    -0.283 OA
BRANCH  15  17
ATOM     17  C   UNL A   1      33.314  22.604  24.358  1.00  0.00     0.054 A 
ATOM     18  N   UNL A   1      32.657  24.219  22.908  1.00  0.00    -0.240 N 
ATOM     19  C   UNL A   1      33.612  23.222  23.131  1.00  0.00     0.117 A 
ATOM     20  C   UNL A   1      31.668  24.068  23.906  1.00  0.00     0.065 A 
ATOM     21  C   UNL A   1      32.306  23.415  24.953  1.00  0.00     0.012 A 
ATOM     22  C   UNL A   1      30.455  24.759  24.107  1.00  0.00     0.028 A 
ATOM     23  C   UNL A   1      31.839  23.619  26.267  1.00  0.00     0.011 A 
ATOM     24  C   UNL A   1      30.085  25.044  25.420  1.00  0.00     0.002 A 
ATOM     25  C   UNL A   1      30.792  24.514  26.490  1.00  0.00     0.001 A 
BRANCH  18  26
ATOM     26  S   UNL A   1      32.897  25.920  22.596  1.00  0.00     0.268 S 
ATOM     27  O   UNL A   1      31.691  26.259  21.852  1.00  0.00    -0.201 OA
ATOM     28  O   UNL A   1      34.202  25.885  21.941  1.00  0.00    -0.201 OA
BRANCH  26  29
ATOM     29  C   UNL A   1      33.141  27.321  23.622  1.00  0.00     0.088 A 
ATOM     30  C   UNL A   1      33.462  29.831  27.137  1.00  0.00     0.044 C 
ATOM     31  C   UNL A   1      33.402  29.013  25.877  1.00  0.00    -0.051 A 
ATOM     32  C   UNL A   1      33.766  27.682  25.983  1.00  0.00     0.005 A 
ATOM     33  C   UNL A   1      32.946  29.498  24.628  1.00  0.00     0.005 A 
ATOM     34  C   UNL A   1      33.651  26.869  24.873  1.00  0.00     0.022 A 
ATOM     35  C   UNL A   1      32.802  28.654  23.488  1.00  0.00     0.022 A 
ENDBRANCH  26  29
ENDBRANCH  18  26
ENDBRANCH  15  17
ENDBRANCH  12  15
ENDBRANCH  10  11
ENDBRANCH   7  10
ENDBRANCH   5   6
BRANCH   5  36
ATOM     36  C   UNL A   1      39.432  24.296  26.261  1.00  0.00     0.074 C 
BRANCH  36  37
ATOM     37  C   UNL A   1      39.895  25.415  27.192  1.00  0.00    -0.020 A 
ATOM     38  C   UNL A   1      39.576  25.578  28.531  1.00  0.00     0.087 A 
ATOM     39  C   UNL A   1      40.720  26.562  26.849  1.00  0.00     0.003 A 
ATOM     40  N   UNL A   1      40.032  26.801  28.953  1.00  0.00    -0.361 N 
ATOM     41  C   UNL A   1      40.696  27.442  27.938  1.00  0.00     0.046 A 
ATOM     42  C   UNL A   1      41.403  26.991  25.686  1.00  0.00     0.010 A 
ATOM     43  H   UNL A   1      39.903  27.168  29.857  1.00  0.00     0.166 HD
ATOM     44  C   UNL A   1      41.237  28.737  27.899  1.00  0.00     0.026 A 
ATOM     45  C   UNL A   1      41.997  28.265  25.649  1.00  0.00     0.001 A 
ATOM     46  C   UNL A   1      41.893  29.133  26.732  1.00  0.00     0.002 A 
ENDBRANCH  36  37
ENDBRANCH   5  36
ENDBRANCH   3   5
ENDBRANCH   2   3
ENDBRANCH   1   2
BRANCH   1  47
ATOM     47  C   UNL A   1      43.181  24.017  25.253  1.00  0.00     0.202 C 
BRANCH  47  48
ATOM     48  O   UNL A   1      44.570  24.259  25.139  1.00  0.00    -0.374 OA
BRANCH  48  49
ATOM     49  C   UNL A   1      44.918  25.627  25.175  1.00  0.00     0.202 C 
BRANCH  49  50
ATOM     50  C   UNL A   1      46.434  25.803  25.063  1.00  0.00     0.261 C 
BRANCH  50  51
ATOM     51  O   UNL A   1      47.041  25.389  26.313  1.00  0.00    -0.460 OA
BRANCH  51  52
ATOM     52  C   UNL A   1      46.948  26.279  27.343  1.00  0.00     0.338 C 
ATOM     53  O   UNL A   1      47.351  27.431  27.312  1.00  0.00    -0.246 OA
BRANCH  52  54
ATOM     54  C   UNL A   1      46.591  25.570  28.618  1.00  0.00     0.060 A 
ATOM     55  C   UNL A   1      45.353  24.899  28.722  1.00  0.00     0.016 A 
ATOM     56  C   UNL A   1      47.290  25.887  29.777  1.00  0.00     0.016 A 
ATOM     57  C   UNL A   1      44.742  24.705  29.977  1.00  0.00     0.010 A 
ATOM     58  C   UNL A   1      46.635  25.794  30.992  1.00  0.00     0.010 A 
ATOM     59  C   UNL A   1      45.342  25.238  31.114  1.00  0.00    -0.014 A 
BRANCH  59  60
ATOM     60  C   UNL A   1      44.734  25.359  32.459  1.00  0.00     0.031 A 
ATOM     61  C   UNL A   1      44.013  26.638  32.732  1.00  0.00     0.074 A 
ATOM     62  C   UNL A   1      44.584  24.314  33.326  1.00  0.00     0.049 A 
ATOM     63  N   UNL A   1      43.497  26.966  33.864  1.00  0.00    -0.248 NA
ATOM     64  C   UNL A   1      43.831  27.685  31.729  1.00  0.00     0.031 C 
ATOM     65  C   UNL A   1      43.642  24.225  34.449  1.00  0.00     0.029 A 
ATOM     66  N   UNL A   1      45.228  23.055  33.400  1.00  0.00    -0.354 N 
ATOM     67  C   UNL A   1      42.674  28.055  33.673  1.00  0.00     0.074 A 
ATOM     68  C   UNL A   1      42.985  28.510  32.346  1.00  0.00     0.031 C 
ATOM     69  C   UNL A   1      43.912  23.151  35.208  1.00  0.00     0.029 A 
ATOM     70  C   UNL A   1      45.183  22.634  34.747  1.00  0.00     0.049 A 
ATOM     71  H   UNL A   1      45.634  22.563  32.649  1.00  0.00     0.167 HD
ATOM     72  C   UNL A   1      41.770  28.354  34.651  1.00  0.00     0.037 A 
ATOM     73  C   UNL A   1      46.310  22.523  35.503  1.00  0.00     0.037 A 
ATOM     74  C   UNL A   1      42.056  27.543  35.853  1.00  0.00     0.049 A 
ATOM     75  C   UNL A   1      46.274  23.520  36.623  1.00  0.00     0.074 A 
ATOM     76  C   UNL A   1      41.446  26.447  36.439  1.00  0.00     0.029 A 
ATOM     77  N   UNL A   1      43.327  27.629  36.435  1.00  0.00    -0.354 N 
ATOM     78  N   UNL A   1      45.507  24.576  36.575  1.00  0.00    -0.248 NA
ATOM     79  C   UNL A   1      47.002  23.415  37.880  1.00  0.00     0.031 C 
ATOM     80  C   UNL A   1      42.404  25.816  37.290  1.00  0.00     0.029 A 
ATOM     81  C   UNL A   1      43.587  26.545  37.255  1.00  0.00     0.049 A 
ATOM     82  H   UNL A   1      43.957  28.370  36.280  1.00  0.00     0.167 HD
ATOM     83  C   UNL A   1      45.575  25.249  37.744  1.00  0.00     0.074 A 
ATOM     84  C   UNL A   1      46.548  24.503  38.528  1.00  0.00     0.031 C 
ATOM     85  C   UNL A   1      44.873  26.400  37.941  1.00  0.00     0.037 A 
BRANCH  72  86
ATOM     86  C   UNL A   1      40.533  29.238  34.493  1.00  0.00     0.064 A 
ATOM     87  C   UNL A   1      39.582  28.957  33.484  1.00  0.00     0.173 A 
ATOM     88  C   UNL A   1      40.233  30.402  35.238  1.00  0.00     0.173 A 
ATOM     89  F   UNL A   1      39.697  27.877  32.700  1.00  0.00    -0.203 F 
ATOM     90  C   UNL A   1      38.469  29.775  33.231  1.00  0.00     0.198 A 
ATOM     91  C   UNL A   1      39.124  31.220  34.985  1.00  0.00     0.198 A 
ATOM     92  F   UNL A   1      40.970  30.813  36.265  1.00  0.00    -0.203 F 
ATOM     93  F   UNL A   1      37.615  29.452  32.250  1.00  0.00    -0.200 F 
ATOM     94  C   UNL A   1      38.243  30.911  33.979  1.00  0.00     0.200 A 
ATOM     95  F   UNL A   1      38.924  32.312  35.740  1.00  0.00    -0.200 F 
ATOM     96  F   UNL A   1      37.182  31.693  33.742  1.00  0.00    -0.200 F 
ENDBRANCH  72  86
BRANCH  73  97
ATOM     97  C   UNL A   1      47.477  22.029  34.726  1.00  0.00     0.064 A 
ATOM     98  C   UNL A   1      48.398  23.000  34.287  1.00  0.00     0.173 A 
ATOM     99  C   UNL A   1      47.953  20.719  34.894  1.00  0.00     0.173 A 
ATOM    100  F   UNL A   1      48.002  24.270  34.110  1.00  0.00    -0.203 F 
ATOM    101  C   UNL A   1      49.757  22.711  34.177  1.00  0.00     0.198 A 
ATOM    102  C   UNL A   1      49.321  20.440  34.797  1.00  0.00     0.198 A 
ATOM    103  F   UNL A   1      47.129  19.752  35.319  1.00  0.00    -0.203 F 
ATOM    104  F   UNL A   1      50.632  23.690  33.900  1.00  0.00    -0.200 F 
ATOM    105  C   UNL A   1      50.223  21.444  34.483  1.00  0.00     0.200 A 
ATOM    106  F   UNL A   1      49.780  19.221  35.115  1.00  0.00    -0.200 F 
ATOM    107  F   UNL A   1      51.543  21.215  34.537  1.00  0.00    -0.200 F 
ENDBRANCH  73  97
BRANCH  85 108
ATOM    108  C   UNL A   1      45.387  27.452  38.869  1.00  0.00     0.064 A 
ATOM    109  C   UNL A   1      46.076  28.590  38.406  1.00  0.00     0.173 A 
ATOM    110  C   UNL A   1      45.063  27.437  40.237  1.00  0.00     0.173 A 
ATOM    111  F   UNL A   1      46.285  28.801  37.097  1.00  0.00    -0.203 F 
ATOM    112  C   UNL A   1      46.529  29.577  39.272  1.00  0.00     0.198 A 
ATOM    113  C   UNL A   1      45.452  28.467  41.090  1.00  0.00     0.198 A 
ATOM    114  F   UNL A   1      44.335  26.447  40.774  1.00  0.00    -0.203 F 
ATOM    115  F   UNL A   1      47.251  30.599  38.790  1.00  0.00    -0.200 F 
ATOM    116  C   UNL A   1      46.213  29.517  40.614  1.00  0.00     0.200 A 
ATOM    117  F   UNL A   1      45.069  28.445  42.373  1.00  0.00    -0.200 F 
ATOM    118  F   UNL A   1      46.622  30.485  41.442  1.00  0.00    -0.200 F 
ENDBRANCH  85 108
ENDBRANCH  59  60
ENDBRANCH  52  54
ENDBRANCH  51  52
ENDBRANCH  50  51
ENDBRANCH  49  50
ENDBRANCH  48  49
ENDBRANCH  47  48
ENDBRANCH   1  47
TORSDOF 23
ENDMDL
