MODEL 1
REMARK VINA RESULT:     -11.9      0.000      0.000
REMARK SMILES CC(C)(Oc1ccc(Cl)cc1)C(=O)N1CCC[C@H](C(=O)OCCOCCOC(=O)c2ccc(-c3c4nc(c(-c5c(F)c(F)c(F)c(F)c5F)c5ccc([nH]5)c(-c5c(F)c(F)c(F)c(F)c5F)c5nc(c(-c6c(F)c(F)c(F)c(F)c6F)c6ccc3[nH]6)C=C5)C=C4)cc2)C1
REMARK SMILES IDX 23 1 22 2 21 3 19 4 20 5 18 6 14 7 15 8 93 9 16 10 17 11
REMARK SMILES IDX 12 12 13 13 2 14 1 15 3 16 4 17 5 18 6 19 11 20 7 21 10 22
REMARK SMILES IDX 8 23 9 24 24 25 25 26 26 27 27 28 28 29 29 30 30 31 31 32
REMARK SMILES IDX 92 33 32 34 91 35 33 36 34 37 35 38 85 39 36 40 90 41 84 42
REMARK SMILES IDX 86 43 37 44 89 45 83 46 82 47 38 49 70 50 50 51 69 52 51 53
REMARK SMILES IDX 54 54 68 55 87 56 52 57 53 58 67 60 88 61 55 62 39 63 40 64
REMARK SMILES IDX 48 65 41 66 42 67 46 68 49 69 43 70 44 71 47 72 45 73 71 74
REMARK SMILES IDX 72 75 80 76 73 77 74 78 78 79 81 80 75 81 76 82 79 83 77 84
REMARK SMILES IDX 56 85 57 86 65 87 58 88 59 89 63 90 66 91 60 92 61 93 64 94
REMARK SMILES IDX 62 95
REMARK H PARENT 86 48 54 59
REMARK Flexibility Score: inf
ROOT
ATOM      1  C   UNL A   1      31.845  29.265  27.259  1.00  0.00     0.202 C 
ENDROOT
BRANCH   1   2
ATOM      2  C   UNL A   1      31.658  27.756  27.077  1.00  0.00     0.261 C 
BRANCH   2   3
ATOM      3  O   UNL A   1      30.942  27.483  25.858  1.00  0.00    -0.463 OA
BRANCH   3   4
ATOM      4  C   UNL A   1      30.472  26.224  25.683  1.00  0.00     0.310 C 
ATOM      5  O   UNL A   1      30.535  25.325  26.513  1.00  0.00    -0.252 OA
BRANCH   4   6
ATOM      6  C   UNL A   1      29.867  26.011  24.305  1.00  0.00     0.119 C 
ATOM      7  N   UNL A   1      31.823  25.165  23.082  1.00  0.00    -0.338 N 
ATOM      8  C   UNL A   1      31.768  26.226  22.081  1.00  0.00     0.119 C 
ATOM      9  C   UNL A   1      30.529  24.799  23.648  1.00  0.00     0.135 C 
ATOM     10  C   UNL A   1      31.186  27.503  22.670  1.00  0.00     0.022 C 
ATOM     11  C   UNL A   1      29.851  27.234  23.371  1.00  0.00     0.019 C 
BRANCH   7  12
ATOM     12  C   UNL A   1      33.059  24.819  23.628  1.00  0.00     0.266 C 
ATOM     13  O   UNL A   1      33.743  25.688  24.182  1.00  0.00    -0.270 OA
BRANCH  12  14
ATOM     14  C   UNL A   1      33.617  23.360  23.423  1.00  0.00     0.181 C 
ATOM     15  C   UNL A   1      35.155  23.467  23.522  1.00  0.00     0.067 C 
ATOM     16  C   UNL A   1      33.234  22.920  21.995  1.00  0.00     0.067 C 
BRANCH  14  17
ATOM     17  O   UNL A   1      33.111  22.497  24.465  1.00  0.00    -0.478 OA
BRANCH  17  18
ATOM     18  C   UNL A   1      33.298  21.148  24.306  1.00  0.00     0.121 A 
ATOM     19  C   UNL A   1      34.392  20.478  24.850  1.00  0.00     0.048 A 
ATOM     20  C   UNL A   1      32.302  20.418  23.652  1.00  0.00     0.048 A 
ATOM     21  C   UNL A   1      34.547  19.102  24.650  1.00  0.00     0.024 A 
ATOM     22  C   UNL A   1      32.447  19.041  23.460  1.00  0.00     0.024 A 
ATOM     23  C   UNL A   1      33.579  18.392  23.945  1.00  0.00     0.041 A 
ATOM     24  Cl  UNL A   1      33.774  16.701  23.691  1.00  0.00    -0.084 Cl
ENDBRANCH  17  18
ENDBRANCH  14  17
ENDBRANCH  12  14
ENDBRANCH   7  12
ENDBRANCH   4   6
ENDBRANCH   3   4
ENDBRANCH   2   3
ENDBRANCH   1   2
BRANCH   1  25
ATOM     25  O   UNL A   1      31.923  30.025  26.051  1.00  0.00    -0.374 OA
BRANCH  25  26
ATOM     26  C   UNL A   1      31.133  31.209  25.981  1.00  0.00     0.202 C 
BRANCH  26  27
ATOM     27  C   UNL A   1      31.700  32.430  26.715  1.00  0.00     0.261 C 
BRANCH  27  28
ATOM     28  O   UNL A   1      32.758  32.081  27.626  1.00  0.00    -0.460 OA
BRANCH  28  29
ATOM     29  C   UNL A   1      33.722  33.024  27.753  1.00  0.00     0.338 C 
ATOM     30  O   UNL A   1      33.581  34.238  27.712  1.00  0.00    -0.246 OA
BRANCH  29  31
ATOM     31  C   UNL A   1      35.015  32.406  28.099  1.00  0.00     0.060 A 
ATOM     32  C   UNL A   1      35.016  31.033  28.371  1.00  0.00     0.016 A 
ATOM     33  C   UNL A   1      36.179  33.163  28.262  1.00  0.00     0.016 A 
ATOM     34  C   UNL A   1      36.166  30.419  28.862  1.00  0.00     0.010 A 
ATOM     35  C   UNL A   1      37.332  32.545  28.762  1.00  0.00     0.010 A 
ATOM     36  C   UNL A   1      37.319  31.180  29.101  1.00  0.00    -0.014 A 
BRANCH  36  37
ATOM     37  C   UNL A   1      38.450  30.567  29.842  1.00  0.00     0.031 A 
ATOM     38  C   UNL A   1      38.674  30.946  31.281  1.00  0.00     0.074 A 
ATOM     39  C   UNL A   1      39.238  29.648  29.258  1.00  0.00     0.049 A 
ATOM     40  N   UNL A   1      39.595  30.535  32.116  1.00  0.00    -0.248 NA
ATOM     41  C   UNL A   1      37.731  31.918  31.857  1.00  0.00     0.031 C 
ATOM     42  C   UNL A   1      39.102  29.169  27.885  1.00  0.00     0.029 A 
ATOM     43  N   UNL A   1      40.313  28.952  29.754  1.00  0.00    -0.354 N 
ATOM     44  C   UNL A   1      39.345  31.197  33.310  1.00  0.00     0.074 A 
ATOM     45  C   UNL A   1      38.205  32.060  33.085  1.00  0.00     0.031 C 
ATOM     46  C   UNL A   1      40.062  28.260  27.645  1.00  0.00     0.029 A 
ATOM     47  C   UNL A   1      40.894  28.113  28.837  1.00  0.00     0.049 A 
ATOM     48  H   UNL A   1      40.636  29.048  30.680  1.00  0.00     0.167 HD
ATOM     49  C   UNL A   1      39.999  31.089  34.491  1.00  0.00     0.037 A 
ATOM     50  C   UNL A   1      41.986  27.330  28.945  1.00  0.00     0.037 A 
ATOM     51  C   UNL A   1      41.131  30.229  34.718  1.00  0.00     0.049 A 
ATOM     52  C   UNL A   1      42.735  27.276  30.250  1.00  0.00     0.074 A 
ATOM     53  C   UNL A   1      41.849  30.036  35.887  1.00  0.00     0.029 A 
ATOM     54  N   UNL A   1      41.712  29.420  33.755  1.00  0.00    -0.354 N 
ATOM     55  N   UNL A   1      42.477  27.887  31.381  1.00  0.00    -0.248 NA
ATOM     56  C   UNL A   1      43.930  26.419  30.293  1.00  0.00     0.031 C 
ATOM     57  C   UNL A   1      42.893  29.145  35.617  1.00  0.00     0.029 A 
ATOM     58  C   UNL A   1      42.797  28.746  34.294  1.00  0.00     0.049 A 
ATOM     59  H   UNL A   1      41.402  29.337  32.824  1.00  0.00     0.167 HD
ATOM     60  C   UNL A   1      43.456  27.470  32.274  1.00  0.00     0.074 A 
ATOM     61  C   UNL A   1      44.309  26.545  31.558  1.00  0.00     0.031 C 
ATOM     62  C   UNL A   1      43.633  27.822  33.571  1.00  0.00     0.037 A 
BRANCH  49  63
ATOM     63  C   UNL A   1      39.521  31.942  35.628  1.00  0.00     0.064 A 
ATOM     64  C   UNL A   1      40.011  33.242  35.830  1.00  0.00     0.173 A 
ATOM     65  C   UNL A   1      38.537  31.467  36.506  1.00  0.00     0.173 A 
ATOM     66  F   UNL A   1      40.963  33.737  35.025  1.00  0.00    -0.203 F 
ATOM     67  C   UNL A   1      39.545  34.025  36.883  1.00  0.00     0.198 A 
ATOM     68  C   UNL A   1      38.055  32.263  37.543  1.00  0.00     0.198 A 
ATOM     69  F   UNL A   1      38.033  30.233  36.354  1.00  0.00    -0.203 F 
ATOM     70  F   UNL A   1      40.056  35.249  37.082  1.00  0.00    -0.200 F 
ATOM     71  C   UNL A   1      38.565  33.538  37.734  1.00  0.00     0.200 A 
ATOM     72  F   UNL A   1      37.099  31.794  38.357  1.00  0.00    -0.200 F 
ATOM     73  F   UNL A   1      38.114  34.296  38.743  1.00  0.00    -0.200 F 
ENDBRANCH  49  63
BRANCH  50  74
ATOM     74  C   UNL A   1      42.443  26.536  27.777  1.00  0.00     0.064 A 
ATOM     75  C   UNL A   1      43.410  27.038  26.895  1.00  0.00     0.173 A 
ATOM     76  C   UNL A   1      41.909  25.268  27.507  1.00  0.00     0.173 A 
ATOM     77  F   UNL A   1      43.929  28.259  27.093  1.00  0.00    -0.203 F 
ATOM     78  C   UNL A   1      43.816  26.306  25.780  1.00  0.00     0.198 A 
ATOM     79  C   UNL A   1      42.335  24.525  26.408  1.00  0.00     0.198 A 
ATOM     80  F   UNL A   1      40.975  24.747  28.316  1.00  0.00    -0.203 F 
ATOM     81  F   UNL A   1      44.708  26.828  24.928  1.00  0.00    -0.200 F 
ATOM     82  C   UNL A   1      43.283  25.048  25.541  1.00  0.00     0.200 A 
ATOM     83  F   UNL A   1      41.821  23.308  26.184  1.00  0.00    -0.200 F 
ATOM     84  F   UNL A   1      43.673  24.344  24.470  1.00  0.00    -0.200 F 
ENDBRANCH  50  74
BRANCH  62  85
ATOM     85  C   UNL A   1      44.771  27.184  34.312  1.00  0.00     0.064 A 
ATOM     86  C   UNL A   1      44.661  25.901  34.866  1.00  0.00     0.173 A 
ATOM     87  C   UNL A   1      46.002  27.847  34.432  1.00  0.00     0.173 A 
ATOM     88  F   UNL A   1      43.501  25.231  34.791  1.00  0.00    -0.203 F 
ATOM     89  C   UNL A   1      45.734  25.313  35.531  1.00  0.00     0.198 A 
ATOM     90  C   UNL A   1      47.081  27.246  35.073  1.00  0.00     0.198 A 
ATOM     91  F   UNL A   1      46.162  29.075  33.914  1.00  0.00    -0.203 F 
ATOM     92  F   UNL A   1      45.593  24.102  36.088  1.00  0.00    -0.200 F 
ATOM     93  C   UNL A   1      46.945  25.983  35.628  1.00  0.00     0.200 A 
ATOM     94  F   UNL A   1      48.254  27.890  35.155  1.00  0.00    -0.200 F 
ATOM     95  F   UNL A   1      47.979  25.413  36.262  1.00  0.00    -0.200 F 
ENDBRANCH  62  85
ENDBRANCH  36  37
ENDBRANCH  29  31
ENDBRANCH  28  29
ENDBRANCH  27  28
ENDBRANCH  26  27
ENDBRANCH  25  26
ENDBRANCH   1  25
TORSDOF 18
ENDMDL
MODEL 2
REMARK VINA RESULT:     -11.8      0.859      2.159
REMARK SMILES CC(C)(Oc1ccc(Cl)cc1)C(=O)N1CCC[C@H](C(=O)OCCOCCOC(=O)c2ccc(-c3c4nc(c(-c5c(F)c(F)c(F)c(F)c5F)c5ccc([nH]5)c(-c5c(F)c(F)c(F)c(F)c5F)c5nc(c(-c6c(F)c(F)c(F)c(F)c6F)c6ccc3[nH]6)C=C5)C=C4)cc2)C1
REMARK SMILES IDX 23 1 22 2 21 3 19 4 20 5 18 6 14 7 15 8 93 9 16 10 17 11
REMARK SMILES IDX 12 12 13 13 2 14 1 15 3 16 4 17 5 18 6 19 11 20 7 21 10 22
REMARK SMILES IDX 8 23 9 24 24 25 25 26 26 27 27 28 28 29 29 30 30 31 31 32
REMARK SMILES IDX 92 33 32 34 91 35 33 36 34 37 35 38 85 39 36 40 90 41 84 42
REMARK SMILES IDX 86 43 37 44 89 45 83 46 82 47 38 49 70 50 50 51 69 52 51 53
REMARK SMILES IDX 54 54 68 55 87 56 52 57 53 58 67 60 88 61 55 62 39 63 40 64
REMARK SMILES IDX 48 65 41 66 42 67 46 68 49 69 43 70 44 71 47 72 45 73 71 74
REMARK SMILES IDX 72 75 80 76 73 77 74 78 78 79 81 80 75 81 76 82 79 83 77 84
REMARK SMILES IDX 56 85 57 86 65 87 58 88 59 89 63 90 66 91 60 92 61 93 64 94
REMARK SMILES IDX 62 95
REMARK H PARENT 86 48 54 59
REMARK Flexibility Score: inf
ROOT
ATOM      1  C   UNL A   1      32.850  29.642  27.213  1.00  0.00     0.202 C 
ENDROOT
BRANCH   1   2
ATOM      2  C   UNL A   1      33.493  28.421  26.550  1.00  0.00     0.261 C 
BRANCH   2   3
ATOM      3  O   UNL A   1      32.573  27.313  26.539  1.00  0.00    -0.463 OA
BRANCH   3   4
ATOM      4  C   UNL A   1      31.585  27.335  25.612  1.00  0.00     0.310 C 
ATOM      5  O   UNL A   1      31.442  28.197  24.753  1.00  0.00    -0.252 OA
BRANCH   4   6
ATOM      6  C   UNL A   1      30.619  26.171  25.757  1.00  0.00     0.119 C 
ATOM      7  N   UNL A   1      31.996  24.334  24.877  1.00  0.00    -0.338 N 
ATOM      8  C   UNL A   1      31.029  23.987  23.840  1.00  0.00     0.119 C 
ATOM      9  C   UNL A   1      31.408  24.903  26.086  1.00  0.00     0.135 C 
ATOM     10  C   UNL A   1      30.243  25.213  23.394  1.00  0.00     0.022 C 
ATOM     11  C   UNL A   1      29.637  25.950  24.592  1.00  0.00     0.019 C 
BRANCH   7  12
ATOM     12  C   UNL A   1      33.348  24.395  24.544  1.00  0.00     0.266 C 
ATOM     13  O   UNL A   1      33.788  25.401  23.971  1.00  0.00    -0.270 OA
BRANCH  12  14
ATOM     14  C   UNL A   1      34.266  23.139  24.788  1.00  0.00     0.181 C 
ATOM     15  C   UNL A   1      35.424  23.617  25.691  1.00  0.00     0.067 C 
ATOM     16  C   UNL A   1      34.837  22.716  23.420  1.00  0.00     0.067 C 
BRANCH  14  17
ATOM     17  O   UNL A   1      33.507  22.108  25.458  1.00  0.00    -0.478 OA
BRANCH  17  18
ATOM     18  C   UNL A   1      33.591  20.838  24.948  1.00  0.00     0.121 A 
ATOM     19  C   UNL A   1      34.690  20.012  25.179  1.00  0.00     0.048 A 
ATOM     20  C   UNL A   1      32.489  20.334  24.251  1.00  0.00     0.048 A 
ATOM     21  C   UNL A   1      34.736  18.728  24.626  1.00  0.00     0.024 A 
ATOM     22  C   UNL A   1      32.526  19.047  23.706  1.00  0.00     0.024 A 
ATOM     23  C   UNL A   1      33.658  18.256  23.881  1.00  0.00     0.041 A 
ATOM     24  Cl  UNL A   1      33.717  16.680  23.193  1.00  0.00    -0.084 Cl
ENDBRANCH  17  18
ENDBRANCH  14  17
ENDBRANCH  12  14
ENDBRANCH   7  12
ENDBRANCH   4   6
ENDBRANCH   3   4
ENDBRANCH   2   3
ENDBRANCH   1   2
BRANCH   1  25
ATOM     25  O   UNL A   1      32.773  30.814  26.399  1.00  0.00    -0.374 OA
BRANCH  25  26
ATOM     26  C   UNL A   1      31.586  31.596  26.503  1.00  0.00     0.202 C 
BRANCH  26  27
ATOM     27  C   UNL A   1      31.775  33.022  27.035  1.00  0.00     0.261 C 
BRANCH  27  28
ATOM     28  O   UNL A   1      33.146  33.455  26.972  1.00  0.00    -0.460 OA
BRANCH  28  29
ATOM     29  C   UNL A   1      33.668  33.836  28.162  1.00  0.00     0.338 C 
ATOM     30  O   UNL A   1      33.189  34.628  28.962  1.00  0.00    -0.246 OA
BRANCH  29  31
ATOM     31  C   UNL A   1      34.878  33.056  28.476  1.00  0.00     0.060 A 
ATOM     32  C   UNL A   1      34.695  31.789  29.043  1.00  0.00     0.016 A 
ATOM     33  C   UNL A   1      36.163  33.586  28.325  1.00  0.00     0.016 A 
ATOM     34  C   UNL A   1      35.790  31.068  29.514  1.00  0.00     0.010 A 
ATOM     35  C   UNL A   1      37.262  32.863  28.805  1.00  0.00     0.010 A 
ATOM     36  C   UNL A   1      37.077  31.619  29.436  1.00  0.00    -0.014 A 
BRANCH  36  37
ATOM     37  C   UNL A   1      38.194  30.953  30.151  1.00  0.00     0.031 A 
ATOM     38  C   UNL A   1      38.434  31.277  31.601  1.00  0.00     0.074 A 
ATOM     39  C   UNL A   1      38.954  30.032  29.533  1.00  0.00     0.049 A 
ATOM     40  N   UNL A   1      39.347  30.814  32.417  1.00  0.00    -0.248 NA
ATOM     41  C   UNL A   1      37.520  32.255  32.213  1.00  0.00     0.031 C 
ATOM     42  C   UNL A   1      38.799  29.602  28.146  1.00  0.00     0.029 A 
ATOM     43  N   UNL A   1      40.011  29.292  30.002  1.00  0.00    -0.354 N 
ATOM     44  C   UNL A   1      39.120  31.444  33.634  1.00  0.00     0.074 A 
ATOM     45  C   UNL A   1      38.003  32.344  33.443  1.00  0.00     0.031 C 
ATOM     46  C   UNL A   1      39.733  28.676  27.872  1.00  0.00     0.029 A 
ATOM     47  C   UNL A   1      40.566  28.468  29.054  1.00  0.00     0.049 A 
ATOM     48  H   UNL A   1      40.341  29.348  30.928  1.00  0.00     0.167 HD
ATOM     49  C   UNL A   1      39.776  31.280  34.807  1.00  0.00     0.037 A 
ATOM     50  C   UNL A   1      41.636  27.652  29.131  1.00  0.00     0.037 A 
ATOM     51  C   UNL A   1      40.885  30.382  35.001  1.00  0.00     0.049 A 
ATOM     52  C   UNL A   1      42.389  27.535  30.430  1.00  0.00     0.074 A 
ATOM     53  C   UNL A   1      41.602  30.132  36.158  1.00  0.00     0.029 A 
ATOM     54  N   UNL A   1      41.440  29.590  34.008  1.00  0.00    -0.354 N 
ATOM     55  N   UNL A   1      42.153  28.115  31.582  1.00  0.00    -0.248 NA
ATOM     56  C   UNL A   1      43.561  26.645  30.439  1.00  0.00     0.031 C 
ATOM     57  C   UNL A   1      42.620  29.223  35.854  1.00  0.00     0.029 A 
ATOM     58  C   UNL A   1      42.508  28.869  34.520  1.00  0.00     0.049 A 
ATOM     59  H   UNL A   1      41.124  29.546  33.076  1.00  0.00     0.167 HD
ATOM     60  C   UNL A   1      43.124  27.643  32.455  1.00  0.00     0.074 A 
ATOM     61  C   UNL A   1      43.948  26.720  31.705  1.00  0.00     0.031 C 
ATOM     62  C   UNL A   1      43.316  27.948  33.763  1.00  0.00     0.037 A 
BRANCH  49  63
ATOM     63  C   UNL A   1      39.326  32.108  35.974  1.00  0.00     0.064 A 
ATOM     64  C   UNL A   1      38.359  31.641  36.878  1.00  0.00     0.173 A 
ATOM     65  C   UNL A   1      39.893  33.368  36.211  1.00  0.00     0.173 A 
ATOM     66  F   UNL A   1      37.777  30.448  36.687  1.00  0.00    -0.203 F 
ATOM     67  C   UNL A   1      37.963  32.417  37.965  1.00  0.00     0.198 A 
ATOM     68  C   UNL A   1      39.513  34.129  37.313  1.00  0.00     0.198 A 
ATOM     69  F   UNL A   1      40.825  33.857  35.379  1.00  0.00    -0.203 F 
ATOM     70  F   UNL A   1      37.009  31.969  38.793  1.00  0.00    -0.200 F 
ATOM     71  C   UNL A   1      38.544  33.657  38.184  1.00  0.00     0.200 A 
ATOM     72  F   UNL A   1      40.085  35.323  37.529  1.00  0.00    -0.200 F 
ATOM     73  F   UNL A   1      38.166  34.399  39.234  1.00  0.00    -0.200 F 
ENDBRANCH  49  63
BRANCH  50  74
ATOM     74  C   UNL A   1      42.067  26.885  27.935  1.00  0.00     0.064 A 
ATOM     75  C   UNL A   1      41.593  25.587  27.698  1.00  0.00     0.173 A 
ATOM     76  C   UNL A   1      42.975  27.427  27.014  1.00  0.00     0.173 A 
ATOM     77  F   UNL A   1      40.747  25.014  28.566  1.00  0.00    -0.203 F 
ATOM     78  C   UNL A   1      42.023  24.857  26.592  1.00  0.00     0.198 A 
ATOM     79  C   UNL A   1      43.383  26.706  25.895  1.00  0.00     0.198 A 
ATOM     80  F   UNL A   1      43.464  28.662  27.202  1.00  0.00    -0.203 F 
ATOM     81  F   UNL A   1      41.590  23.602  26.412  1.00  0.00    -0.200 F 
ATOM     82  C   UNL A   1      42.912  25.419  25.688  1.00  0.00     0.200 A 
ATOM     83  F   UNL A   1      44.238  27.255  25.021  1.00  0.00    -0.200 F 
ATOM     84  F   UNL A   1      43.324  24.716  24.623  1.00  0.00    -0.200 F 
ENDBRANCH  50  74
BRANCH  62  85
ATOM     85  C   UNL A   1      44.439  27.255  34.477  1.00  0.00     0.064 A 
ATOM     86  C   UNL A   1      45.714  27.828  34.573  1.00  0.00     0.173 A 
ATOM     87  C   UNL A   1      44.224  26.022  35.112  1.00  0.00     0.173 A 
ATOM     88  F   UNL A   1      45.975  28.999  33.971  1.00  0.00    -0.203 F 
ATOM     89  C   UNL A   1      46.741  27.183  35.259  1.00  0.00     0.198 A 
ATOM     90  C   UNL A   1      45.243  25.392  35.820  1.00  0.00     0.198 A 
ATOM     91  F   UNL A   1      43.019  25.434  35.056  1.00  0.00    -0.203 F 
ATOM     92  F   UNL A   1      47.963  27.730  35.302  1.00  0.00    -0.200 F 
ATOM     93  C   UNL A   1      46.502  25.969  35.887  1.00  0.00     0.200 A 
ATOM     94  F   UNL A   1      45.008  24.226  36.437  1.00  0.00    -0.200 F 
ATOM     95  F   UNL A   1      47.488  25.353  36.554  1.00  0.00    -0.200 F 
ENDBRANCH  62  85
ENDBRANCH  36  37
ENDBRANCH  29  31
ENDBRANCH  28  29
ENDBRANCH  27  28
ENDBRANCH  26  27
ENDBRANCH  25  26
ENDBRANCH   1  25
TORSDOF 18
ENDMDL
MODEL 3
REMARK VINA RESULT:     -11.6      0.785      7.180
REMARK SMILES CC(C)(Oc1ccc(Cl)cc1)C(=O)N1CCC[C@H](C(=O)OCCOCCOC(=O)c2ccc(-c3c4nc(c(-c5c(F)c(F)c(F)c(F)c5F)c5ccc([nH]5)c(-c5c(F)c(F)c(F)c(F)c5F)c5nc(c(-c6c(F)c(F)c(F)c(F)c6F)c6ccc3[nH]6)C=C5)C=C4)cc2)C1
REMARK SMILES IDX 23 1 22 2 21 3 19 4 20 5 18 6 14 7 15 8 93 9 16 10 17 11
REMARK SMILES IDX 12 12 13 13 2 14 1 15 3 16 4 17 5 18 6 19 11 20 7 21 10 22
REMARK SMILES IDX 8 23 9 24 24 25 25 26 26 27 27 28 28 29 29 30 30 31 31 32
REMARK SMILES IDX 92 33 32 34 91 35 33 36 34 37 35 38 85 39 36 40 90 41 84 42
REMARK SMILES IDX 86 43 37 44 89 45 83 46 82 47 38 49 70 50 50 51 69 52 51 53
REMARK SMILES IDX 54 54 68 55 87 56 52 57 53 58 67 60 88 61 55 62 39 63 40 64
REMARK SMILES IDX 48 65 41 66 42 67 46 68 49 69 43 70 44 71 47 72 45 73 71 74
REMARK SMILES IDX 72 75 80 76 73 77 74 78 78 79 81 80 75 81 76 82 79 83 77 84
REMARK SMILES IDX 56 85 57 86 65 87 58 88 59 89 63 90 66 91 60 92 61 93 64 94
REMARK SMILES IDX 62 95
REMARK H PARENT 86 48 54 59
REMARK Flexibility Score: inf
ROOT
ATOM      1  C   UNL A   1      32.761  29.172  26.605  1.00  0.00     0.202 C 
ENDROOT
BRANCH   1   2
ATOM      2  C   UNL A   1      32.020  27.850  26.823  1.00  0.00     0.261 C 
BRANCH   2   3
ATOM      3  O   UNL A   1      31.143  27.577  25.714  1.00  0.00    -0.463 OA
BRANCH   3   4
ATOM      4  C   UNL A   1      30.539  26.364  25.685  1.00  0.00     0.310 C 
ATOM      5  O   UNL A   1      30.552  25.546  26.597  1.00  0.00    -0.252 OA
BRANCH   4   6
ATOM      6  C   UNL A   1      29.844  26.088  24.362  1.00  0.00     0.119 C 
ATOM      7  N   UNL A   1      31.750  25.332  23.005  1.00  0.00    -0.338 N 
ATOM      8  C   UNL A   1      31.555  26.368  21.994  1.00  0.00     0.119 C 
ATOM      9  C   UNL A   1      30.526  24.904  23.675  1.00  0.00     0.135 C 
ATOM     10  C   UNL A   1      30.945  27.621  22.606  1.00  0.00     0.022 C 
ATOM     11  C   UNL A   1      29.685  27.289  23.412  1.00  0.00     0.019 C 
BRANCH   7  12
ATOM     12  C   UNL A   1      33.041  25.070  23.460  1.00  0.00     0.266 C 
ATOM     13  O   UNL A   1      33.762  26.010  23.818  1.00  0.00    -0.270 OA
BRANCH  12  14
ATOM     14  C   UNL A   1      33.604  23.600  23.395  1.00  0.00     0.181 C 
ATOM     15  C   UNL A   1      35.137  23.716  23.543  1.00  0.00     0.067 C 
ATOM     16  C   UNL A   1      33.274  23.045  21.995  1.00  0.00     0.067 C 
BRANCH  14  17
ATOM     17  O   UNL A   1      33.057  22.824  24.484  1.00  0.00    -0.478 OA
BRANCH  17  18
ATOM     18  C   UNL A   1      33.366  21.489  24.518  1.00  0.00     0.121 A 
ATOM     19  C   UNL A   1      34.657  21.028  24.771  1.00  0.00     0.048 A 
ATOM     20  C   UNL A   1      32.323  20.568  24.383  1.00  0.00     0.048 A 
ATOM     21  C   UNL A   1      34.926  19.655  24.782  1.00  0.00     0.024 A 
ATOM     22  C   UNL A   1      32.586  19.195  24.405  1.00  0.00     0.024 A 
ATOM     23  C   UNL A   1      33.891  18.745  24.587  1.00  0.00     0.041 A 
ATOM     24  Cl  UNL A   1      34.223  17.057  24.592  1.00  0.00    -0.084 Cl
ENDBRANCH  17  18
ENDBRANCH  14  17
ENDBRANCH  12  14
ENDBRANCH   7  12
ENDBRANCH   4   6
ENDBRANCH   3   4
ENDBRANCH   2   3
ENDBRANCH   1   2
BRANCH   1  25
ATOM     25  O   UNL A   1      32.177  30.315  27.233  1.00  0.00    -0.374 OA
BRANCH  25  26
ATOM     26  C   UNL A   1      31.565  31.279  26.379  1.00  0.00     0.202 C 
BRANCH  26  27
ATOM     27  C   UNL A   1      31.648  32.734  26.854  1.00  0.00     0.261 C 
BRANCH  27  28
ATOM     28  O   UNL A   1      32.989  33.254  26.802  1.00  0.00    -0.460 OA
BRANCH  28  29
ATOM     29  C   UNL A   1      33.441  33.760  27.974  1.00  0.00     0.338 C 
ATOM     30  O   UNL A   1      32.886  34.583  28.688  1.00  0.00    -0.246 OA
BRANCH  29  31
ATOM     31  C   UNL A   1      34.680  33.081  28.394  1.00  0.00     0.060 A 
ATOM     32  C   UNL A   1      34.562  31.771  28.873  1.00  0.00     0.016 A 
ATOM     33  C   UNL A   1      35.913  33.739  28.425  1.00  0.00     0.016 A 
ATOM     34  C   UNL A   1      35.663  31.131  29.438  1.00  0.00     0.010 A 
ATOM     35  C   UNL A   1      37.017  33.097  28.999  1.00  0.00     0.010 A 
ATOM     36  C   UNL A   1      36.887  31.806  29.543  1.00  0.00    -0.014 A 
BRANCH  36  37
ATOM     37  C   UNL A   1      37.977  31.208  30.354  1.00  0.00     0.031 A 
ATOM     38  C   UNL A   1      38.903  30.209  29.715  1.00  0.00     0.074 A 
ATOM     39  C   UNL A   1      38.172  31.586  31.629  1.00  0.00     0.049 A 
ATOM     40  N   UNL A   1      39.918  29.565  30.234  1.00  0.00    -0.248 NA
ATOM     41  C   UNL A   1      38.651  29.894  28.300  1.00  0.00     0.031 C 
ATOM     42  C   UNL A   1      37.369  32.570  32.349  1.00  0.00     0.029 A 
ATOM     43  N   UNL A   1      39.113  31.181  32.543  1.00  0.00    -0.354 N 
ATOM     44  C   UNL A   1      40.423  28.770  29.214  1.00  0.00     0.074 A 
ATOM     45  C   UNL A   1      39.585  28.988  28.053  1.00  0.00     0.031 C 
ATOM     46  C   UNL A   1      37.848  32.691  33.599  1.00  0.00     0.029 A 
ATOM     47  C   UNL A   1      38.973  31.774  33.774  1.00  0.00     0.049 A 
ATOM     48  H   UNL A   1      39.820  30.528  32.336  1.00  0.00     0.167 HD
ATOM     49  C   UNL A   1      41.493  27.941  29.237  1.00  0.00     0.037 A 
ATOM     50  C   UNL A   1      39.665  31.582  34.914  1.00  0.00     0.037 A 
ATOM     51  C   UNL A   1      42.331  27.726  30.388  1.00  0.00     0.049 A 
ATOM     52  C   UNL A   1      40.811  30.606  34.933  1.00  0.00     0.074 A 
ATOM     53  C   UNL A   1      43.451  26.920  30.503  1.00  0.00     0.029 A 
ATOM     54  N   UNL A   1      42.136  28.318  31.626  1.00  0.00    -0.354 N 
ATOM     55  N   UNL A   1      41.297  29.878  33.957  1.00  0.00    -0.248 NA
ATOM     56  C   UNL A   1      41.510  30.428  36.215  1.00  0.00     0.031 C 
ATOM     57  C   UNL A   1      43.906  26.989  31.824  1.00  0.00     0.029 A 
ATOM     58  C   UNL A   1      43.099  27.875  32.520  1.00  0.00     0.049 A 
ATOM     59  H   UNL A   1      41.418  28.957  31.841  1.00  0.00     0.167 HD
ATOM     60  C   UNL A   1      42.368  29.178  34.497  1.00  0.00     0.074 A 
ATOM     61  C   UNL A   1      42.470  29.576  35.885  1.00  0.00     0.031 C 
ATOM     62  C   UNL A   1      43.194  28.285  33.897  1.00  0.00     0.037 A 
BRANCH  49  63
ATOM     63  C   UNL A   1      41.810  27.183  27.982  1.00  0.00     0.064 A 
ATOM     64  C   UNL A   1      42.701  27.688  27.022  1.00  0.00     0.173 A 
ATOM     65  C   UNL A   1      41.243  25.921  27.753  1.00  0.00     0.173 A 
ATOM     66  F   UNL A   1      43.259  28.896  27.189  1.00  0.00    -0.203 F 
ATOM     67  C   UNL A   1      42.995  26.964  25.869  1.00  0.00     0.198 A 
ATOM     68  C   UNL A   1      41.560  25.190  26.611  1.00  0.00     0.198 A 
ATOM     69  F   UNL A   1      40.389  25.392  28.642  1.00  0.00    -0.203 F 
ATOM     70  F   UNL A   1      43.817  27.483  24.946  1.00  0.00    -0.200 F 
ATOM     71  C   UNL A   1      42.429  25.714  25.667  1.00  0.00     0.200 A 
ATOM     72  F   UNL A   1      41.020  23.977  26.424  1.00  0.00    -0.200 F 
ATOM     73  F   UNL A   1      42.718  25.017  24.560  1.00  0.00    -0.200 F 
ENDBRANCH  49  63
BRANCH  50  74
ATOM     74  C   UNL A   1      39.285  32.327  36.142  1.00  0.00     0.064 A 
ATOM     75  C   UNL A   1      38.368  31.792  37.058  1.00  0.00     0.173 A 
ATOM     76  C   UNL A   1      39.817  33.595  36.414  1.00  0.00     0.173 A 
ATOM     77  F   UNL A   1      37.810  30.595  36.825  1.00  0.00    -0.203 F 
ATOM     78  C   UNL A   1      37.988  32.505  38.193  1.00  0.00     0.198 A 
ATOM     79  C   UNL A   1      39.457  34.296  37.563  1.00  0.00     0.198 A 
ATOM     80  F   UNL A   1      40.691  34.153  35.564  1.00  0.00    -0.203 F 
ATOM     81  F   UNL A   1      37.076  31.992  39.029  1.00  0.00    -0.200 F 
ATOM     82  C   UNL A   1      38.537  33.753  38.448  1.00  0.00     0.200 A 
ATOM     83  F   UNL A   1      39.993  35.499  37.809  1.00  0.00    -0.200 F 
ATOM     84  F   UNL A   1      38.172  34.438  39.541  1.00  0.00    -0.200 F 
ENDBRANCH  50  74
BRANCH  62  85
ATOM     85  C   UNL A   1      44.299  27.700  34.725  1.00  0.00     0.064 A 
ATOM     86  C   UNL A   1      44.130  26.508  35.442  1.00  0.00     0.173 A 
ATOM     87  C   UNL A   1      45.559  28.317  34.765  1.00  0.00     0.173 A 
ATOM     88  F   UNL A   1      42.940  25.887  35.448  1.00  0.00    -0.203 F 
ATOM     89  C   UNL A   1      45.174  25.966  36.189  1.00  0.00     0.198 A 
ATOM     90  C   UNL A   1      46.609  27.759  35.489  1.00  0.00     0.198 A 
ATOM     91  F   UNL A   1      45.776  29.457  34.090  1.00  0.00    -0.203 F 
ATOM     92  F   UNL A   1      44.976  24.847  36.900  1.00  0.00    -0.200 F 
ATOM     93  C   UNL A   1      46.413  26.588  36.206  1.00  0.00     0.200 A 
ATOM     94  F   UNL A   1      47.810  28.354  35.495  1.00  0.00    -0.200 F 
ATOM     95  F   UNL A   1      47.419  26.061  36.918  1.00  0.00    -0.200 F 
ENDBRANCH  62  85
ENDBRANCH  36  37
ENDBRANCH  29  31
ENDBRANCH  28  29
ENDBRANCH  27  28
ENDBRANCH  26  27
ENDBRANCH  25  26
ENDBRANCH   1  25
TORSDOF 18
ENDMDL
