MODEL 1
REMARK VINA RESULT:     -13.0      0.000      0.000
REMARK SMILES Cc1nc(-c2ccccc2)sc1C(=O)N[C@@H](CC1=c2ccccc2=NC1)C(=O)OCCOCCOC(=O)c1ccc(-c2c3nc(c(-c4c(F)c(F)c(F)c(F)c4F)c4ccc([nH]4)c(-c4c(F)c(F)c(F)c(F)c4F)c4nc(c(-c5c(F)c(F)c(F)c(F)c5F)c5ccc2[nH]5)C=C4)C=C3)cc1
REMARK SMILES IDX 31 1 30 2 29 3 27 4 28 5 16 6 15 7 13 8 14 9 12 11 1 12 2 13
REMARK SMILES IDX 3 14 4 15 11 16 5 17 6 18 10 19 7 20 9 21 8 22 17 23 18 24
REMARK SMILES IDX 19 25 26 26 20 27 24 28 25 29 21 30 23 31 22 32 32 33 33 34
REMARK SMILES IDX 34 35 35 36 36 37 37 38 38 39 39 40 100 41 40 42 99 43 41 44
REMARK SMILES IDX 42 45 43 46 93 47 44 48 98 49 92 50 94 51 45 52 97 53 91 54
REMARK SMILES IDX 90 55 46 57 78 58 58 59 77 60 59 61 62 62 76 63 95 64 60 65
REMARK SMILES IDX 61 66 75 68 96 69 63 70 47 71 48 72 56 73 49 74 50 75 54 76
REMARK SMILES IDX 57 77 51 78 52 79 55 80 53 81 79 82 80 83 88 84 81 85 82 86
REMARK SMILES IDX 86 87 89 88 83 89 84 90 87 91 85 92 64 93 65 94 73 95 66 96
REMARK SMILES IDX 67 97 71 98 74 99 68 100 69 101 72 102 70 103
REMARK H PARENT 15 10 94 56 62 67
REMARK Flexibility Score: inf
ROOT
ATOM      1  C   UNL A   1      40.073  21.730  26.699  1.00  0.00     0.202 C 
ENDROOT
BRANCH   1   2
ATOM      2  C   UNL A   1      38.985  22.755  26.353  1.00  0.00     0.261 C 
BRANCH   2   3
ATOM      3  O   UNL A   1      37.866  22.157  25.679  1.00  0.00    -0.462 OA
BRANCH   3   4
ATOM      4  C   UNL A   1      36.798  22.978  25.511  1.00  0.00     0.329 C 
ATOM      5  O   UNL A   1      36.784  24.175  25.785  1.00  0.00    -0.250 OA
BRANCH   4   6
ATOM      6  C   UNL A   1      35.584  22.271  24.896  1.00  0.00     0.196 C 
BRANCH   6   7
ATOM      7  N   UNL A   1      35.160  22.685  23.563  1.00  0.00    -0.338 N 
ATOM      8  C   UNL A   1      34.230  23.568  23.073  1.00  0.00     0.264 C 
ATOM      9  O   UNL A   1      34.094  23.448  21.847  1.00  0.00    -0.268 OA
ATOM     10  H   UNL A   1      35.657  22.224  22.849  1.00  0.00     0.164 HD
BRANCH   8  11
ATOM     11  C   UNL A   1      33.494  24.584  23.836  1.00  0.00     0.115 A 
ATOM     12  C   UNL A   1      33.173  24.078  26.419  1.00  0.00     0.068 C 
ATOM     13  C   UNL A   1      33.084  24.840  25.147  1.00  0.00     0.062 A 
ATOM     14  N   UNL A   1      32.477  26.070  25.350  1.00  0.00    -0.241 NA
ATOM     15  C   UNL A   1      32.343  26.742  24.239  1.00  0.00     0.124 A 
ATOM     16  S   UNL A   1      32.937  25.956  22.859  1.00  0.00    -0.108 S 
BRANCH  15  17
ATOM     17  C   UNL A   1      31.752  28.076  24.212  1.00  0.00     0.010 A 
ATOM     18  C   UNL A   1      32.094  28.988  25.222  1.00  0.00     0.011 A 
ATOM     19  C   UNL A   1      30.725  28.403  23.317  1.00  0.00     0.011 A 
ATOM     20  C   UNL A   1      31.413  30.199  25.347  1.00  0.00     0.001 A 
ATOM     21  C   UNL A   1      30.038  29.614  23.451  1.00  0.00     0.001 A 
ATOM     22  C   UNL A   1      30.377  30.506  24.469  1.00  0.00     0.000 A 
ENDBRANCH  15  17
ENDBRANCH   8  11
ENDBRANCH   6   7
BRANCH   6  23
ATOM     23  C   UNL A   1      35.747  20.743  24.973  1.00  0.00     0.070 C 
BRANCH  23  24
ATOM     24  C   UNL A   1      34.437  20.017  24.952  1.00  0.00    -0.037 C 
ATOM     25  C   UNL A   1      34.208  18.738  24.667  1.00  0.00     0.001 A 
ATOM     26  C   UNL A   1      33.157  20.715  25.310  1.00  0.00     0.174 C 
ATOM     27  C   UNL A   1      35.011  17.628  24.270  1.00  0.00     0.010 A 
ATOM     28  C   UNL A   1      32.771  18.596  24.951  1.00  0.00     0.065 A 
ATOM     29  N   UNL A   1      32.119  19.658  25.313  1.00  0.00    -0.280 NA
ATOM     30  C   UNL A   1      34.434  16.419  24.176  1.00  0.00     0.001 A 
ATOM     31  C   UNL A   1      32.211  17.234  24.834  1.00  0.00     0.028 A 
ATOM     32  C   UNL A   1      33.024  16.226  24.474  1.00  0.00     0.002 A 
ENDBRANCH  23  24
ENDBRANCH   6  23
ENDBRANCH   4   6
ENDBRANCH   3   4
ENDBRANCH   2   3
ENDBRANCH   1   2
BRANCH   1  33
ATOM     33  O   UNL A   1      41.048  21.469  25.693  1.00  0.00    -0.374 OA
BRANCH  33  34
ATOM     34  C   UNL A   1      42.392  21.224  26.117  1.00  0.00     0.202 C 
BRANCH  34  35
ATOM     35  C   UNL A   1      43.512  22.011  25.420  1.00  0.00     0.261 C 
BRANCH  35  36
ATOM     36  O   UNL A   1      43.035  23.205  24.763  1.00  0.00    -0.460 OA
BRANCH  36  37
ATOM     37  C   UNL A   1      43.766  24.316  25.015  1.00  0.00     0.338 C 
ATOM     38  O   UNL A   1      44.858  24.613  24.542  1.00  0.00    -0.246 OA
BRANCH  37  39
ATOM     39  C   UNL A   1      43.018  25.263  25.856  1.00  0.00     0.060 A 
ATOM     40  C   UNL A   1      43.576  26.526  26.089  1.00  0.00     0.016 A 
ATOM     41  C   UNL A   1      41.887  24.847  26.559  1.00  0.00     0.016 A 
ATOM     42  C   UNL A   1      43.025  27.364  27.058  1.00  0.00     0.010 A 
ATOM     43  C   UNL A   1      41.341  25.686  27.538  1.00  0.00     0.010 A 
ATOM     44  C   UNL A   1      41.929  26.933  27.817  1.00  0.00    -0.014 A 
BRANCH  44  45
ATOM     45  C   UNL A   1      41.493  27.729  28.992  1.00  0.00     0.031 A 
ATOM     46  C   UNL A   1      42.267  27.636  30.278  1.00  0.00     0.074 A 
ATOM     47  C   UNL A   1      40.438  28.558  28.902  1.00  0.00     0.049 A 
ATOM     48  N   UNL A   1      42.054  28.235  31.424  1.00  0.00    -0.248 NA
ATOM     49  C   UNL A   1      43.441  26.751  30.273  1.00  0.00     0.031 C 
ATOM     50  C   UNL A   1      39.630  28.767  27.705  1.00  0.00     0.029 A 
ATOM     51  N   UNL A   1      39.868  29.378  29.845  1.00  0.00    -0.354 N 
ATOM     52  C   UNL A   1      43.062  27.799  32.273  1.00  0.00     0.074 A 
ATOM     53  C   UNL A   1      43.874  26.866  31.521  1.00  0.00     0.031 C 
ATOM     54  C   UNL A   1      38.661  29.655  27.984  1.00  0.00     0.029 A 
ATOM     55  C   UNL A   1      38.766  30.056  29.386  1.00  0.00     0.049 A 
ATOM     56  H   UNL A   1      40.216  29.471  30.762  1.00  0.00     0.167 HD
ATOM     57  C   UNL A   1      43.296  28.151  33.560  1.00  0.00     0.037 A 
ATOM     58  C   UNL A   1      37.927  30.888  30.032  1.00  0.00     0.037 A 
ATOM     59  C   UNL A   1      42.490  29.077  34.312  1.00  0.00     0.049 A 
ATOM     60  C   UNL A   1      38.166  31.208  31.484  1.00  0.00     0.074 A 
ATOM     61  C   UNL A   1      42.659  29.509  35.616  1.00  0.00     0.029 A 
ATOM     62  N   UNL A   1      41.355  29.709  33.827  1.00  0.00    -0.354 N 
ATOM     63  N   UNL A   1      39.133  30.807  32.273  1.00  0.00    -0.248 NA
ATOM     64  C   UNL A   1      37.192  32.095  32.136  1.00  0.00     0.031 C 
ATOM     65  C   UNL A   1      41.601  30.370  35.934  1.00  0.00     0.029 A 
ATOM     66  C   UNL A   1      40.798  30.507  34.814  1.00  0.00     0.049 A 
ATOM     67  H   UNL A   1      40.998  29.607  32.914  1.00  0.00     0.167 HD
ATOM     68  C   UNL A   1      38.896  31.407  33.503  1.00  0.00     0.074 A 
ATOM     69  C   UNL A   1      37.701  32.210  33.354  1.00  0.00     0.031 C 
ATOM     70  C   UNL A   1      39.608  31.301  34.652  1.00  0.00     0.037 A 
BRANCH  57  71
ATOM     71  C   UNL A   1      44.462  27.508  34.251  1.00  0.00     0.064 A 
ATOM     72  C   UNL A   1      45.723  28.121  34.288  1.00  0.00     0.173 A 
ATOM     73  C   UNL A   1      44.308  26.279  34.910  1.00  0.00     0.173 A 
ATOM     74  F   UNL A   1      45.923  29.291  33.663  1.00  0.00    -0.203 F 
ATOM     75  C   UNL A   1      46.794  27.516  34.941  1.00  0.00     0.198 A 
ATOM     76  C   UNL A   1      45.376  25.688  35.581  1.00  0.00     0.198 A 
ATOM     77  F   UNL A   1      43.122  25.655  34.908  1.00  0.00    -0.203 F 
ATOM     78  F   UNL A   1      48.000  28.100  34.930  1.00  0.00    -0.200 F 
ATOM     79  C   UNL A   1      46.618  26.303  35.591  1.00  0.00     0.200 A 
ATOM     80  F   UNL A   1      45.201  24.521  36.218  1.00  0.00    -0.200 F 
ATOM     81  F   UNL A   1      47.649  25.724  36.222  1.00  0.00    -0.200 F 
ENDBRANCH  57  71
BRANCH  58  82
ATOM     82  C   UNL A   1      36.770  31.474  29.309  1.00  0.00     0.064 A 
ATOM     83  C   UNL A   1      35.667  30.687  28.952  1.00  0.00     0.173 A 
ATOM     84  C   UNL A   1      36.749  32.831  28.952  1.00  0.00     0.173 A 
ATOM     85  F   UNL A   1      35.656  29.379  29.246  1.00  0.00    -0.203 F 
ATOM     86  C   UNL A   1      34.589  31.234  28.259  1.00  0.00     0.198 A 
ATOM     87  C   UNL A   1      35.661  33.381  28.280  1.00  0.00     0.198 A 
ATOM     88  F   UNL A   1      37.787  33.622  29.262  1.00  0.00    -0.203 F 
ATOM     89  F   UNL A   1      33.564  30.451  27.895  1.00  0.00    -0.200 F 
ATOM     90  C   UNL A   1      34.584  32.581  27.929  1.00  0.00     0.200 A 
ATOM     91  F   UNL A   1      35.658  34.683  27.966  1.00  0.00    -0.200 F 
ATOM     92  F   UNL A   1      33.546  33.105  27.264  1.00  0.00    -0.200 F 
ENDBRANCH  58  82
BRANCH  70  93
ATOM     93  C   UNL A   1      39.125  32.088  35.836  1.00  0.00     0.064 A 
ATOM     94  C   UNL A   1      38.285  31.516  36.802  1.00  0.00     0.173 A 
ATOM     95  C   UNL A   1      39.542  33.414  36.027  1.00  0.00     0.173 A 
ATOM     96  F   UNL A   1      37.848  30.256  36.657  1.00  0.00    -0.203 F 
ATOM     97  C   UNL A   1      37.861  32.252  37.906  1.00  0.00     0.198 A 
ATOM     98  C   UNL A   1      39.136  34.138  37.144  1.00  0.00     0.198 A 
ATOM     99  F   UNL A   1      40.350  34.003  35.134  1.00  0.00    -0.203 F 
ATOM    100  F   UNL A   1      37.025  31.700  38.796  1.00  0.00    -0.200 F 
ATOM    101  C   UNL A   1      38.291  33.560  38.079  1.00  0.00     0.200 A 
ATOM    102  F   UNL A   1      39.561  35.398  37.315  1.00  0.00    -0.200 F 
ATOM    103  F   UNL A   1      37.886  34.264  39.145  1.00  0.00    -0.200 F 
ENDBRANCH  70  93
ENDBRANCH  44  45
ENDBRANCH  37  39
ENDBRANCH  36  37
ENDBRANCH  35  36
ENDBRANCH  34  35
ENDBRANCH  33  34
ENDBRANCH   1  33
TORSDOF 19
ENDMDL
MODEL 2
REMARK VINA RESULT:     -12.7      4.566      9.302
REMARK SMILES Cc1nc(-c2ccccc2)sc1C(=O)N[C@@H](CC1=c2ccccc2=NC1)C(=O)OCCOCCOC(=O)c1ccc(-c2c3nc(c(-c4c(F)c(F)c(F)c(F)c4F)c4ccc([nH]4)c(-c4c(F)c(F)c(F)c(F)c4F)c4nc(c(-c5c(F)c(F)c(F)c(F)c5F)c5ccc2[nH]5)C=C4)C=C3)cc1
REMARK SMILES IDX 31 1 30 2 29 3 27 4 28 5 16 6 15 7 13 8 14 9 12 11 1 12 2 13
REMARK SMILES IDX 3 14 4 15 11 16 5 17 6 18 10 19 7 20 9 21 8 22 17 23 18 24
REMARK SMILES IDX 19 25 26 26 20 27 24 28 25 29 21 30 23 31 22 32 32 33 33 34
REMARK SMILES IDX 34 35 35 36 36 37 37 38 38 39 39 40 100 41 40 42 99 43 41 44
REMARK SMILES IDX 42 45 43 46 93 47 44 48 98 49 92 50 94 51 45 52 97 53 91 54
REMARK SMILES IDX 90 55 46 57 78 58 58 59 77 60 59 61 62 62 76 63 95 64 60 65
REMARK SMILES IDX 61 66 75 68 96 69 63 70 47 71 48 72 56 73 49 74 50 75 54 76
REMARK SMILES IDX 57 77 51 78 52 79 55 80 53 81 79 82 80 83 88 84 81 85 82 86
REMARK SMILES IDX 86 87 89 88 83 89 84 90 87 91 85 92 64 93 65 94 73 95 66 96
REMARK SMILES IDX 67 97 71 98 74 99 68 100 69 101 72 102 70 103
REMARK H PARENT 15 10 94 56 62 67
REMARK Flexibility Score: inf
ROOT
ATOM      1  C   UNL A   1      37.088  21.181  25.181  1.00  0.00     0.202 C 
ENDROOT
BRANCH   1   2
ATOM      2  C   UNL A   1      35.621  21.626  25.211  1.00  0.00     0.261 C 
BRANCH   2   3
ATOM      3  O   UNL A   1      35.480  23.051  25.099  1.00  0.00    -0.462 OA
BRANCH   3   4
ATOM      4  C   UNL A   1      35.353  23.513  23.829  1.00  0.00     0.329 C 
ATOM      5  O   UNL A   1      36.147  23.291  22.920  1.00  0.00    -0.250 OA
BRANCH   4   6
ATOM      6  C   UNL A   1      34.074  24.330  23.609  1.00  0.00     0.196 C 
BRANCH   6   7
ATOM      7  N   UNL A   1      33.659  24.585  22.234  1.00  0.00    -0.338 N 
ATOM      8  C   UNL A   1      32.915  25.557  21.611  1.00  0.00     0.264 C 
ATOM      9  O   UNL A   1      32.669  25.255  20.435  1.00  0.00    -0.268 OA
ATOM     10  H   UNL A   1      33.989  23.902  21.606  1.00  0.00     0.164 HD
BRANCH   8  11
ATOM     11  C   UNL A   1      32.478  26.835  22.188  1.00  0.00     0.115 A 
ATOM     12  C   UNL A   1      34.406  28.566  22.749  1.00  0.00     0.068 C 
ATOM     13  C   UNL A   1      33.021  28.049  22.620  1.00  0.00     0.062 A 
ATOM     14  N   UNL A   1      32.097  29.011  22.996  1.00  0.00    -0.241 NA
ATOM     15  C   UNL A   1      30.871  28.566  22.938  1.00  0.00     0.124 A 
ATOM     16  S   UNL A   1      30.724  26.958  22.421  1.00  0.00    -0.108 S 
BRANCH  15  17
ATOM     17  C   UNL A   1      29.727  29.412  23.267  1.00  0.00     0.010 A 
ATOM     18  C   UNL A   1      28.448  29.010  22.854  1.00  0.00     0.011 A 
ATOM     19  C   UNL A   1      29.897  30.688  23.819  1.00  0.00     0.011 A 
ATOM     20  C   UNL A   1      27.359  29.873  22.974  1.00  0.00     0.001 A 
ATOM     21  C   UNL A   1      28.804  31.554  23.931  1.00  0.00     0.001 A 
ATOM     22  C   UNL A   1      27.540  31.149  23.502  1.00  0.00     0.000 A 
ENDBRANCH  15  17
ENDBRANCH   8  11
ENDBRANCH   6   7
BRANCH   6  23
ATOM     23  C   UNL A   1      32.912  23.755  24.438  1.00  0.00     0.070 C 
BRANCH  23  24
ATOM     24  C   UNL A   1      32.168  24.807  25.203  1.00  0.00    -0.037 C 
ATOM     25  C   UNL A   1      32.639  25.938  25.720  1.00  0.00     0.001 A 
ATOM     26  C   UNL A   1      30.692  24.688  25.451  1.00  0.00     0.174 C 
ATOM     27  C   UNL A   1      33.919  26.564  25.795  1.00  0.00     0.010 A 
ATOM     28  C   UNL A   1      31.421  26.600  26.215  1.00  0.00     0.065 A 
ATOM     29  N   UNL A   1      30.298  25.960  26.100  1.00  0.00    -0.280 NA
ATOM     30  C   UNL A   1      34.001  27.799  26.314  1.00  0.00     0.001 A 
ATOM     31  C   UNL A   1      31.590  27.961  26.764  1.00  0.00     0.028 A 
ATOM     32  C   UNL A   1      32.820  28.502  26.789  1.00  0.00     0.002 A 
ENDBRANCH  23  24
ENDBRANCH   6  23
ENDBRANCH   4   6
ENDBRANCH   3   4
ENDBRANCH   2   3
ENDBRANCH   1   2
BRANCH   1  33
ATOM     33  O   UNL A   1      38.058  22.151  25.565  1.00  0.00    -0.374 OA
BRANCH  33  34
ATOM     34  C   UNL A   1      39.288  21.679  26.124  1.00  0.00     0.202 C 
BRANCH  34  35
ATOM     35  C   UNL A   1      39.530  20.162  26.129  1.00  0.00     0.261 C 
BRANCH  35  36
ATOM     36  O   UNL A   1      40.685  19.775  25.351  1.00  0.00    -0.460 OA
BRANCH  36  37
ATOM     37  C   UNL A   1      41.777  19.461  26.085  1.00  0.00     0.338 C 
ATOM     38  O   UNL A   1      42.159  18.342  26.415  1.00  0.00    -0.246 OA
BRANCH  37  39
ATOM     39  C   UNL A   1      42.598  20.652  26.350  1.00  0.00     0.060 A 
ATOM     40  C   UNL A   1      42.652  21.141  27.662  1.00  0.00     0.016 A 
ATOM     41  C   UNL A   1      43.143  21.387  25.296  1.00  0.00     0.016 A 
ATOM     42  C   UNL A   1      43.220  22.389  27.918  1.00  0.00     0.010 A 
ATOM     43  C   UNL A   1      43.704  22.644  25.555  1.00  0.00     0.010 A 
ATOM     44  C   UNL A   1      43.712  23.166  26.861  1.00  0.00    -0.014 A 
BRANCH  44  45
ATOM     45  C   UNL A   1      44.104  24.577  27.110  1.00  0.00     0.031 A 
ATOM     46  C   UNL A   1      43.067  25.562  27.572  1.00  0.00     0.074 A 
ATOM     47  C   UNL A   1      45.382  24.967  26.962  1.00  0.00     0.049 A 
ATOM     48  N   UNL A   1      43.192  26.840  27.836  1.00  0.00    -0.248 NA
ATOM     49  C   UNL A   1      41.706  25.040  27.764  1.00  0.00     0.031 C 
ATOM     50  C   UNL A   1      46.487  24.102  26.557  1.00  0.00     0.029 A 
ATOM     51  N   UNL A   1      45.962  26.199  27.136  1.00  0.00    -0.354 N 
ATOM     52  C   UNL A   1      41.931  27.272  28.223  1.00  0.00     0.074 A 
ATOM     53  C   UNL A   1      41.047  26.129  28.135  1.00  0.00     0.031 C 
ATOM     54  C   UNL A   1      47.614  24.830  26.508  1.00  0.00     0.029 A 
ATOM     55  C   UNL A   1      47.305  26.218  26.851  1.00  0.00     0.049 A 
ATOM     56  H   UNL A   1      45.463  26.994  27.436  1.00  0.00     0.167 HD
ATOM     57  C   UNL A   1      41.545  28.508  28.623  1.00  0.00     0.037 A 
ATOM     58  C   UNL A   1      48.179  27.243  26.848  1.00  0.00     0.037 A 
ATOM     59  C   UNL A   1      42.419  29.648  28.709  1.00  0.00     0.049 A 
ATOM     60  C   UNL A   1      47.710  28.622  27.228  1.00  0.00     0.074 A 
ATOM     61  C   UNL A   1      42.123  30.935  29.122  1.00  0.00     0.029 A 
ATOM     62  N   UNL A   1      43.763  29.637  28.370  1.00  0.00    -0.354 N 
ATOM     63  N   UNL A   1      46.521  29.017  27.612  1.00  0.00    -0.248 NA
ATOM     64  C   UNL A   1      48.708  29.700  27.170  1.00  0.00     0.031 C 
ATOM     65  C   UNL A   1      43.278  31.715  28.990  1.00  0.00     0.029 A 
ATOM     66  C   UNL A   1      44.305  30.902  28.537  1.00  0.00     0.049 A 
ATOM     67  H   UNL A   1      44.261  28.847  28.057  1.00  0.00     0.167 HD
ATOM     68  C   UNL A   1      46.631  30.379  27.859  1.00  0.00     0.074 A 
ATOM     69  C   UNL A   1      48.008  30.742  27.595  1.00  0.00     0.031 C 
ATOM     70  C   UNL A   1      45.676  31.250  28.269  1.00  0.00     0.037 A 
BRANCH  57  71
ATOM     71  C   UNL A   1      40.099  28.699  28.975  1.00  0.00     0.064 A 
ATOM     72  C   UNL A   1      39.628  28.498  30.281  1.00  0.00     0.173 A 
ATOM     73  C   UNL A   1      39.181  29.119  28.001  1.00  0.00     0.173 A 
ATOM     74  F   UNL A   1      40.465  28.085  31.245  1.00  0.00    -0.203 F 
ATOM     75  C   UNL A   1      38.284  28.689  30.594  1.00  0.00     0.198 A 
ATOM     76  C   UNL A   1      37.842  29.330  28.324  1.00  0.00     0.198 A 
ATOM     77  F   UNL A   1      39.581  29.329  26.739  1.00  0.00    -0.203 F 
ATOM     78  F   UNL A   1      37.848  28.452  31.839  1.00  0.00    -0.200 F 
ATOM     79  C   UNL A   1      37.394  29.109  29.616  1.00  0.00     0.200 A 
ATOM     80  F   UNL A   1      36.986  29.747  27.380  1.00  0.00    -0.200 F 
ATOM     81  F   UNL A   1      36.102  29.296  29.921  1.00  0.00    -0.200 F 
ENDBRANCH  57  71
BRANCH  58  82
ATOM     82  C   UNL A   1      49.593  27.003  26.463  1.00  0.00     0.064 A 
ATOM     83  C   UNL A   1      50.571  26.740  27.432  1.00  0.00     0.173 A 
ATOM     84  C   UNL A   1      49.994  27.041  25.120  1.00  0.00     0.173 A 
ATOM     85  F   UNL A   1      50.239  26.724  28.730  1.00  0.00    -0.203 F 
ATOM     86  C   UNL A   1      51.900  26.532  27.071  1.00  0.00     0.198 A 
ATOM     87  C   UNL A   1      51.320  26.809  24.759  1.00  0.00     0.198 A 
ATOM     88  F   UNL A   1      49.096  27.299  24.158  1.00  0.00    -0.203 F 
ATOM     89  F   UNL A   1      52.824  26.321  28.019  1.00  0.00    -0.200 F 
ATOM     90  C   UNL A   1      52.273  26.560  25.735  1.00  0.00     0.200 A 
ATOM     91  F   UNL A   1      51.674  26.834  23.467  1.00  0.00    -0.200 F 
ATOM     92  F   UNL A   1      53.551  26.358  25.390  1.00  0.00    -0.200 F 
ENDBRANCH  58  82
BRANCH  70  93
ATOM     93  C   UNL A   1      46.090  32.677  28.479  1.00  0.00     0.064 A 
ATOM     94  C   UNL A   1      46.607  33.117  29.707  1.00  0.00     0.173 A 
ATOM     95  C   UNL A   1      46.008  33.604  27.429  1.00  0.00     0.173 A 
ATOM     96  F   UNL A   1      46.692  32.272  30.745  1.00  0.00    -0.203 F 
ATOM     97  C   UNL A   1      47.007  34.439  29.881  1.00  0.00     0.198 A 
ATOM     98  C   UNL A   1      46.431  34.919  27.600  1.00  0.00     0.198 A 
ATOM     99  F   UNL A   1      45.527  33.231  26.235  1.00  0.00    -0.203 F 
ATOM    100  F   UNL A   1      47.460  34.848  31.074  1.00  0.00    -0.200 F 
ATOM    101  C   UNL A   1      46.925  35.338  28.827  1.00  0.00     0.200 A 
ATOM    102  F   UNL A   1      46.362  35.783  26.578  1.00  0.00    -0.200 F 
ATOM    103  F   UNL A   1      47.315  36.609  28.996  1.00  0.00    -0.200 F 
ENDBRANCH  70  93
ENDBRANCH  44  45
ENDBRANCH  37  39
ENDBRANCH  36  37
ENDBRANCH  35  36
ENDBRANCH  34  35
ENDBRANCH  33  34
ENDBRANCH   1  33
TORSDOF 19
ENDMDL
MODEL 3
REMARK VINA RESULT:     -12.7      3.082      8.136
REMARK SMILES Cc1nc(-c2ccccc2)sc1C(=O)N[C@@H](CC1=c2ccccc2=NC1)C(=O)OCCOCCOC(=O)c1ccc(-c2c3nc(c(-c4c(F)c(F)c(F)c(F)c4F)c4ccc([nH]4)c(-c4c(F)c(F)c(F)c(F)c4F)c4nc(c(-c5c(F)c(F)c(F)c(F)c5F)c5ccc2[nH]5)C=C4)C=C3)cc1
REMARK SMILES IDX 31 1 30 2 29 3 27 4 28 5 16 6 15 7 13 8 14 9 12 11 1 12 2 13
REMARK SMILES IDX 3 14 4 15 11 16 5 17 6 18 10 19 7 20 9 21 8 22 17 23 18 24
REMARK SMILES IDX 19 25 26 26 20 27 24 28 25 29 21 30 23 31 22 32 32 33 33 34
REMARK SMILES IDX 34 35 35 36 36 37 37 38 38 39 39 40 100 41 40 42 99 43 41 44
REMARK SMILES IDX 42 45 43 46 93 47 44 48 98 49 92 50 94 51 45 52 97 53 91 54
REMARK SMILES IDX 90 55 46 57 78 58 58 59 77 60 59 61 62 62 76 63 95 64 60 65
REMARK SMILES IDX 61 66 75 68 96 69 63 70 47 71 48 72 56 73 49 74 50 75 54 76
REMARK SMILES IDX 57 77 51 78 52 79 55 80 53 81 79 82 80 83 88 84 81 85 82 86
REMARK SMILES IDX 86 87 89 88 83 89 84 90 87 91 85 92 64 93 65 94 73 95 66 96
REMARK SMILES IDX 67 97 71 98 74 99 68 100 69 101 72 102 70 103
REMARK H PARENT 15 10 94 56 62 67
REMARK Flexibility Score: inf
ROOT
ATOM      1  C   UNL A   1      31.459  29.326  26.026  1.00  0.00     0.202 C 
ENDROOT
BRANCH   1   2
ATOM      2  C   UNL A   1      31.902  28.306  27.081  1.00  0.00     0.261 C 
BRANCH   2   3
ATOM      3  O   UNL A   1      32.183  27.017  26.511  1.00  0.00    -0.462 OA
BRANCH   3   4
ATOM      4  C   UNL A   1      33.459  26.853  26.077  1.00  0.00     0.329 C 
ATOM      5  O   UNL A   1      34.403  27.573  26.388  1.00  0.00    -0.250 OA
BRANCH   4   6
ATOM      6  C   UNL A   1      33.633  25.632  25.166  1.00  0.00     0.196 C 
BRANCH   6   7
ATOM      7  N   UNL A   1      33.871  25.871  23.747  1.00  0.00    -0.338 N 
ATOM      8  C   UNL A   1      33.122  26.367  22.709  1.00  0.00     0.264 C 
ATOM      9  O   UNL A   1      33.694  26.210  21.621  1.00  0.00    -0.268 OA
ATOM     10  H   UNL A   1      34.782  25.619  23.469  1.00  0.00     0.164 HD
BRANCH   8  11
ATOM     11  C   UNL A   1      31.826  27.053  22.808  1.00  0.00     0.115 A 
ATOM     12  C   UNL A   1      29.857  25.645  23.890  1.00  0.00     0.068 C 
ATOM     13  C   UNL A   1      30.534  26.821  23.287  1.00  0.00     0.062 A 
ATOM     14  N   UNL A   1      29.675  27.907  23.225  1.00  0.00    -0.241 NA
ATOM     15  C   UNL A   1      30.230  28.942  22.656  1.00  0.00     0.124 A 
ATOM     16  S   UNL A   1      31.832  28.701  22.153  1.00  0.00    -0.108 S 
BRANCH  15  17
ATOM     17  C   UNL A   1      29.522  30.209  22.501  1.00  0.00     0.010 A 
ATOM     18  C   UNL A   1      29.138  30.915  23.652  1.00  0.00     0.011 A 
ATOM     19  C   UNL A   1      29.062  30.642  21.250  1.00  0.00     0.011 A 
ATOM     20  C   UNL A   1      28.296  32.023  23.558  1.00  0.00     0.001 A 
ATOM     21  C   UNL A   1      28.211  31.748  21.161  1.00  0.00     0.001 A 
ATOM     22  C   UNL A   1      27.824  32.432  22.314  1.00  0.00     0.000 A 
ENDBRANCH  15  17
ENDBRANCH   8  11
ENDBRANCH   6   7
BRANCH   6  23
ATOM     23  C   UNL A   1      34.681  24.665  25.745  1.00  0.00     0.070 C 
BRANCH  23  24
ATOM     24  C   UNL A   1      34.118  23.309  26.044  1.00  0.00    -0.037 C 
ATOM     25  C   UNL A   1      33.514  22.466  25.212  1.00  0.00     0.001 A 
ATOM     26  C   UNL A   1      34.222  22.712  27.417  1.00  0.00     0.174 C 
ATOM     27  C   UNL A   1      33.145  22.490  23.834  1.00  0.00     0.010 A 
ATOM     28  C   UNL A   1      33.323  21.269  26.048  1.00  0.00     0.065 A 
ATOM     29  N   UNL A   1      33.693  21.334  27.289  1.00  0.00    -0.280 NA
ATOM     30  C   UNL A   1      32.630  21.377  23.288  1.00  0.00     0.001 A 
ATOM     31  C   UNL A   1      32.759  20.082  25.373  1.00  0.00     0.028 A 
ATOM     32  C   UNL A   1      32.449  20.162  24.068  1.00  0.00     0.002 A 
ENDBRANCH  23  24
ENDBRANCH   6  23
ENDBRANCH   4   6
ENDBRANCH   3   4
ENDBRANCH   2   3
ENDBRANCH   1   2
BRANCH   1  33
ATOM     33  O   UNL A   1      32.090  30.603  26.066  1.00  0.00    -0.374 OA
BRANCH  33  34
ATOM     34  C   UNL A   1      31.402  31.665  26.732  1.00  0.00     0.202 C 
BRANCH  34  35
ATOM     35  C   UNL A   1      32.129  33.011  26.864  1.00  0.00     0.261 C 
BRANCH  35  36
ATOM     36  O   UNL A   1      32.959  33.089  28.044  1.00  0.00    -0.460 OA
BRANCH  36  37
ATOM     37  C   UNL A   1      34.084  33.826  27.893  1.00  0.00     0.338 C 
ATOM     38  O   UNL A   1      34.162  35.028  27.659  1.00  0.00    -0.246 OA
BRANCH  37  39
ATOM     39  C   UNL A   1      35.283  33.030  28.193  1.00  0.00     0.060 A 
ATOM     40  C   UNL A   1      35.116  31.682  28.534  1.00  0.00     0.016 A 
ATOM     41  C   UNL A   1      36.528  33.647  28.328  1.00  0.00     0.016 A 
ATOM     42  C   UNL A   1      36.190  30.955  29.050  1.00  0.00     0.010 A 
ATOM     43  C   UNL A   1      37.601  32.917  28.854  1.00  0.00     0.010 A 
ATOM     44  C   UNL A   1      37.427  31.579  29.252  1.00  0.00    -0.014 A 
BRANCH  44  45
ATOM     45  C   UNL A   1      38.491  30.869  30.006  1.00  0.00     0.031 A 
ATOM     46  C   UNL A   1      38.696  31.176  31.464  1.00  0.00     0.074 A 
ATOM     47  C   UNL A   1      39.244  29.930  29.406  1.00  0.00     0.049 A 
ATOM     48  N   UNL A   1      39.571  30.681  32.304  1.00  0.00    -0.248 NA
ATOM     49  C   UNL A   1      37.792  32.173  32.056  1.00  0.00     0.031 C 
ATOM     50  C   UNL A   1      39.120  29.514  28.012  1.00  0.00     0.029 A 
ATOM     51  N   UNL A   1      40.266  29.159  29.901  1.00  0.00    -0.354 N 
ATOM     52  C   UNL A   1      39.325  31.306  33.519  1.00  0.00     0.074 A 
ATOM     53  C   UNL A   1      38.236  32.235  33.304  1.00  0.00     0.031 C 
ATOM     54  C   UNL A   1      40.035  28.564  27.758  1.00  0.00     0.029 A 
ATOM     55  C   UNL A   1      40.827  28.326  28.965  1.00  0.00     0.049 A 
ATOM     56  H   UNL A   1      40.569  29.199  30.838  1.00  0.00     0.167 HD
ATOM     57  C   UNL A   1      39.945  31.118  34.709  1.00  0.00     0.037 A 
ATOM     58  C   UNL A   1      41.873  27.483  29.066  1.00  0.00     0.037 A 
ATOM     59  C   UNL A   1      41.030  30.197  34.927  1.00  0.00     0.049 A 
ATOM     60  C   UNL A   1      42.591  27.344  30.382  1.00  0.00     0.074 A 
ATOM     61  C   UNL A   1      41.709  29.923  36.102  1.00  0.00     0.029 A 
ATOM     62  N   UNL A   1      41.599  29.403  33.943  1.00  0.00    -0.354 N 
ATOM     63  N   UNL A   1      42.339  27.923  31.530  1.00  0.00    -0.248 NA
ATOM     64  C   UNL A   1      43.745  26.433  30.412  1.00  0.00     0.031 C 
ATOM     65  C   UNL A   1      42.719  28.996  35.819  1.00  0.00     0.029 A 
ATOM     66  C   UNL A   1      42.640  28.659  34.478  1.00  0.00     0.049 A 
ATOM     67  H   UNL A   1      41.307  29.371  33.003  1.00  0.00     0.167 HD
ATOM     68  C   UNL A   1      43.285  27.434  32.421  1.00  0.00     0.074 A 
ATOM     69  C   UNL A   1      44.111  26.500  31.685  1.00  0.00     0.031 C 
ATOM     70  C   UNL A   1      43.454  27.734  33.733  1.00  0.00     0.037 A 
BRANCH  57  71
ATOM     71  C   UNL A   1      39.479  31.947  35.869  1.00  0.00     0.064 A 
ATOM     72  C   UNL A   1      38.461  31.504  36.726  1.00  0.00     0.173 A 
ATOM     73  C   UNL A   1      40.080  33.184  36.144  1.00  0.00     0.173 A 
ATOM     74  F   UNL A   1      37.848  30.333  36.499  1.00  0.00    -0.203 F 
ATOM     75  C   UNL A   1      38.047  32.282  37.805  1.00  0.00     0.198 A 
ATOM     76  C   UNL A   1      39.678  33.948  37.237  1.00  0.00     0.198 A 
ATOM     77  F   UNL A   1      41.061  33.650  35.357  1.00  0.00    -0.203 F 
ATOM     78  F   UNL A   1      37.045  31.858  38.589  1.00  0.00    -0.200 F 
ATOM     79  C   UNL A   1      38.658  33.501  38.062  1.00  0.00     0.200 A 
ATOM     80  F   UNL A   1      40.278  35.121  37.490  1.00  0.00    -0.200 F 
ATOM     81  F   UNL A   1      38.260  34.245  39.102  1.00  0.00    -0.200 F 
ENDBRANCH  57  71
BRANCH  58  82
ATOM     82  C   UNL A   1      42.311  26.708  27.878  1.00  0.00     0.064 A 
ATOM     83  C   UNL A   1      43.265  27.223  26.991  1.00  0.00     0.173 A 
ATOM     84  C   UNL A   1      41.778  25.440  27.603  1.00  0.00     0.173 A 
ATOM     85  F   UNL A   1      43.781  28.443  27.198  1.00  0.00    -0.203 F 
ATOM     86  C   UNL A   1      43.664  26.502  25.868  1.00  0.00     0.198 A 
ATOM     87  C   UNL A   1      42.195  24.710  26.492  1.00  0.00     0.198 A 
ATOM     88  F   UNL A   1      40.853  24.909  28.417  1.00  0.00    -0.203 F 
ATOM     89  F   UNL A   1      44.549  27.033  25.013  1.00  0.00    -0.200 F 
ATOM     90  C   UNL A   1      43.134  25.244  25.623  1.00  0.00     0.200 A 
ATOM     91  F   UNL A   1      41.682  23.494  26.261  1.00  0.00    -0.200 F 
ATOM     92  F   UNL A   1      43.519  24.551  24.543  1.00  0.00    -0.200 F 
ENDBRANCH  58  82
BRANCH  70  93
ATOM     93  C   UNL A   1      44.559  27.029  34.464  1.00  0.00     0.064 A 
ATOM     94  C   UNL A   1      45.834  27.599  34.588  1.00  0.00     0.173 A 
ATOM     95  C   UNL A   1      44.329  25.790  35.081  1.00  0.00     0.173 A 
ATOM     96  F   UNL A   1      46.109  28.775  34.005  1.00  0.00    -0.203 F 
ATOM     97  C   UNL A   1      46.845  26.943  35.287  1.00  0.00     0.198 A 
ATOM     98  C   UNL A   1      45.335  25.149  35.798  1.00  0.00     0.198 A 
ATOM     99  F   UNL A   1      43.125  25.206  34.995  1.00  0.00    -0.203 F 
ATOM    100  F   UNL A   1      48.068  27.487  35.360  1.00  0.00    -0.200 F 
ATOM    101  C   UNL A   1      46.593  25.723  35.896  1.00  0.00     0.200 A 
ATOM    102  F   UNL A   1      45.086  23.975  36.395  1.00  0.00    -0.200 F 
ATOM    103  F   UNL A   1      47.567  25.096  36.572  1.00  0.00    -0.200 F 
ENDBRANCH  70  93
ENDBRANCH  44  45
ENDBRANCH  37  39
ENDBRANCH  36  37
ENDBRANCH  35  36
ENDBRANCH  34  35
ENDBRANCH  33  34
ENDBRANCH   1  33
TORSDOF 19
ENDMDL
