MODEL 1
REMARK VINA RESULT:     -12.1      0.000      0.000
REMARK SMILES Cc1cc(C)c(NC(=O)C[C@H](C(=O)OCCOCCOC(=O)c2ccc(-c3c4nc(c(-c5c(F)c(F)c(F)c(F)c5F)c5ccc([nH]5)c(-c5c(F)c(F)c(F)c(F)c5F)c5nc(c(-c6c(F)c(F)c(F)c(F)c6F)c6ccc3[nH]6)C=C5)C=C4)cc2)[NH+]2CC[NH+](C)CC2)c(C)c1
REMARK SMILES IDX 16 1 15 2 14 3 12 4 13 5 11 6 10 7 8 8 7 9 9 11 6 12 1 13
REMARK SMILES IDX 2 14 3 15 95 16 4 17 93 18 5 19 94 20 86 21 87 22 92 23
REMARK SMILES IDX 88 25 91 26 89 27 90 28 17 30 18 31 19 32 20 33 21 34 22 35
REMARK SMILES IDX 23 36 24 37 85 38 25 39 84 40 26 41 27 42 28 43 78 44 29 45
REMARK SMILES IDX 83 46 77 47 79 48 30 49 82 50 76 51 75 52 31 54 63 55 43 56
REMARK SMILES IDX 62 57 44 58 47 59 61 60 80 61 45 62 46 63 60 65 81 66 48 67
REMARK SMILES IDX 32 68 33 69 41 70 34 71 35 72 39 73 42 74 36 75 37 76 40 77
REMARK SMILES IDX 38 78 64 79 65 80 73 81 66 82 67 83 71 84 74 85 68 86 69 87
REMARK SMILES IDX 72 88 70 89 49 90 50 91 58 92 51 93 52 94 56 95 59 96 53 97
REMARK SMILES IDX 54 98 57 99 55 100
REMARK H PARENT 7 10 86 24 89 29 79 53 47 64
REMARK Flexibility Score: inf
ROOT
ATOM      1  C   UNL A   1      36.192  20.572  25.074  1.00  0.00     0.202 C 
ENDROOT
BRANCH   1   2
ATOM      2  C   UNL A   1      35.761  21.971  25.531  1.00  0.00     0.261 C 
BRANCH   2   3
ATOM      3  O   UNL A   1      34.340  22.190  25.480  1.00  0.00    -0.459 OA
BRANCH   3   4
ATOM      4  C   UNL A   1      33.626  21.568  26.474  1.00  0.00     0.365 C 
ATOM      5  O   UNL A   1      34.083  21.387  27.596  1.00  0.00    -0.245 OA
BRANCH   4   6
ATOM      6  C   UNL A   1      32.176  21.218  25.994  1.00  0.00     0.304 C 
BRANCH   6   7
ATOM      7  C   UNL A   1      31.577  22.497  25.347  1.00  0.00     0.177 C 
BRANCH   7   8
ATOM      8  C   UNL A   1      31.305  23.794  26.097  1.00  0.00     0.231 C 
ATOM      9  N   UNL A   1      31.508  25.053  25.622  1.00  0.00    -0.325 N 
ATOM     10  H   UNL A   1      31.363  25.770  26.280  1.00  0.00     0.169 HD
ATOM     11  O   UNL A   1      30.860  23.716  27.253  1.00  0.00    -0.274 OA
BRANCH   9  12
ATOM     12  C   UNL A   1      31.889  25.496  24.346  1.00  0.00     0.047 A 
ATOM     13  C   UNL A   1      32.641  25.713  20.136  1.00  0.00     0.044 C 
ATOM     14  C   UNL A   1      32.402  25.815  21.612  1.00  0.00    -0.050 A 
ATOM     15  C   UNL A   1      33.448  25.592  22.511  1.00  0.00     0.009 A 
ATOM     16  C   UNL A   1      31.128  26.070  22.119  1.00  0.00     0.009 A 
ATOM     17  C   UNL A   1      33.211  25.469  23.889  1.00  0.00    -0.027 A 
ATOM     18  C   UNL A   1      30.869  25.968  23.494  1.00  0.00    -0.027 A 
ATOM     19  C   UNL A   1      34.402  25.450  24.805  1.00  0.00     0.046 C 
ATOM     20  C   UNL A   1      29.497  26.331  23.998  1.00  0.00     0.046 C 
ENDBRANCH   9  12
ENDBRANCH   7   8
ENDBRANCH   6   7
BRANCH   6  21
ATOM     21  N   UNL A   1      32.154  19.938  25.249  1.00  0.00    -0.313 N 
ATOM     22  C   UNL A   1      32.893  18.811  25.843  1.00  0.00     0.325 C 
ATOM     23  C   UNL A   1      32.632  20.033  23.847  1.00  0.00     0.325 C 
ATOM     24  H   UNL A   1      31.154  19.744  25.295  1.00  0.00     0.349 HD
ATOM     25  C   UNL A   1      32.530  17.496  25.097  1.00  0.00     0.324 C 
ATOM     26  C   UNL A   1      32.186  18.776  23.068  1.00  0.00     0.324 C 
ATOM     27  N   UNL A   1      32.666  17.499  23.628  1.00  0.00    -0.328 N 
ATOM     28  C   UNL A   1      34.021  17.190  23.202  1.00  0.00     0.333 C 
ATOM     29  H   UNL A   1      32.075  16.752  23.258  1.00  0.00     0.348 HD
ENDBRANCH   6  21
ENDBRANCH   4   6
ENDBRANCH   3   4
ENDBRANCH   2   3
ENDBRANCH   1   2
BRANCH   1  30
ATOM     30  O   UNL A   1      37.538  20.376  24.665  1.00  0.00    -0.374 OA
BRANCH  30  31
ATOM     31  C   UNL A   1      38.190  19.159  25.018  1.00  0.00     0.202 C 
BRANCH  31  32
ATOM     32  C   UNL A   1      39.552  19.220  25.727  1.00  0.00     0.261 C 
BRANCH  32  33
ATOM     33  O   UNL A   1      39.995  20.553  26.044  1.00  0.00    -0.460 OA
BRANCH  33  34
ATOM     34  C   UNL A   1      40.760  20.642  27.158  1.00  0.00     0.338 C 
ATOM     35  O   UNL A   1      41.374  19.741  27.715  1.00  0.00    -0.246 OA
BRANCH  34  36
ATOM     36  C   UNL A   1      40.901  22.043  27.584  1.00  0.00     0.060 A 
ATOM     37  C   UNL A   1      40.117  23.014  26.947  1.00  0.00     0.016 A 
ATOM     38  C   UNL A   1      41.908  22.413  28.476  1.00  0.00     0.016 A 
ATOM     39  C   UNL A   1      40.364  24.367  27.169  1.00  0.00     0.010 A 
ATOM     40  C   UNL A   1      42.163  23.771  28.687  1.00  0.00     0.010 A 
ATOM     41  C   UNL A   1      41.417  24.752  28.009  1.00  0.00    -0.014 A 
BRANCH  41  42
ATOM     42  C   UNL A   1      41.847  26.168  28.062  1.00  0.00     0.031 A 
ATOM     43  C   UNL A   1      43.178  26.548  27.476  1.00  0.00     0.074 A 
ATOM     44  C   UNL A   1      41.074  27.098  28.647  1.00  0.00     0.049 A 
ATOM     45  N   UNL A   1      43.808  27.694  27.515  1.00  0.00    -0.248 NA
ATOM     46  C   UNL A   1      43.898  25.486  26.756  1.00  0.00     0.031 C 
ATOM     47  C   UNL A   1      39.752  26.856  29.216  1.00  0.00     0.029 A 
ATOM     48  N   UNL A   1      41.309  28.430  28.882  1.00  0.00    -0.354 N 
ATOM     49  C   UNL A   1      45.008  27.486  26.846  1.00  0.00     0.074 A 
ATOM     50  C   UNL A   1      45.024  26.103  26.423  1.00  0.00     0.031 C 
ATOM     51  C   UNL A   1      39.304  27.995  29.769  1.00  0.00     0.029 A 
ATOM     52  C   UNL A   1      40.324  29.032  29.624  1.00  0.00     0.049 A 
ATOM     53  H   UNL A   1      42.105  28.906  28.551  1.00  0.00     0.167 HD
ATOM     54  C   UNL A   1      46.005  28.372  26.610  1.00  0.00     0.037 A 
ATOM     55  C   UNL A   1      40.271  30.268  30.157  1.00  0.00     0.037 A 
ATOM     56  C   UNL A   1      45.977  29.749  27.026  1.00  0.00     0.049 A 
ATOM     57  C   UNL A   1      41.412  31.224  29.926  1.00  0.00     0.074 A 
ATOM     58  C   UNL A   1      46.912  30.740  26.792  1.00  0.00     0.029 A 
ATOM     59  N   UNL A   1      44.961  30.324  27.777  1.00  0.00    -0.354 N 
ATOM     60  N   UNL A   1      42.526  31.035  29.262  1.00  0.00    -0.248 NA
ATOM     61  C   UNL A   1      41.289  32.564  30.518  1.00  0.00     0.031 C 
ATOM     62  C   UNL A   1      46.488  31.903  27.446  1.00  0.00     0.029 A 
ATOM     63  C   UNL A   1      45.263  31.649  28.043  1.00  0.00     0.049 A 
ATOM     64  H   UNL A   1      44.146  29.860  28.076  1.00  0.00     0.167 HD
ATOM     65  C   UNL A   1      43.225  32.233  29.336  1.00  0.00     0.074 A 
ATOM     66  C   UNL A   1      42.407  33.146  30.105  1.00  0.00     0.031 C 
ATOM     67  C   UNL A   1      44.434  32.548  28.807  1.00  0.00     0.037 A 
BRANCH  54  68
ATOM     68  C   UNL A   1      47.228  27.864  25.906  1.00  0.00     0.064 A 
ATOM     69  C   UNL A   1      47.310  27.810  24.506  1.00  0.00     0.173 A 
ATOM     70  C   UNL A   1      48.343  27.441  26.645  1.00  0.00     0.173 A 
ATOM     71  F   UNL A   1      46.267  28.191  23.754  1.00  0.00    -0.203 F 
ATOM     72  C   UNL A   1      48.451  27.321  23.874  1.00  0.00     0.198 A 
ATOM     73  C   UNL A   1      49.492  26.979  26.010  1.00  0.00     0.198 A 
ATOM     74  F   UNL A   1      48.318  27.478  27.987  1.00  0.00    -0.203 F 
ATOM     75  F   UNL A   1      48.487  27.229  22.538  1.00  0.00    -0.200 F 
ATOM     76  C   UNL A   1      49.542  26.910  24.626  1.00  0.00     0.200 A 
ATOM     77  F   UNL A   1      50.549  26.593  26.738  1.00  0.00    -0.200 F 
ATOM     78  F   UNL A   1      50.638  26.439  24.016  1.00  0.00    -0.200 F 
ENDBRANCH  54  68
BRANCH  55  79
ATOM     79  C   UNL A   1      39.104  30.653  30.988  1.00  0.00     0.064 A 
ATOM     80  C   UNL A   1      39.076  30.397  32.365  1.00  0.00     0.173 A 
ATOM     81  C   UNL A   1      38.001  31.313  30.423  1.00  0.00     0.173 A 
ATOM     82  F   UNL A   1      40.097  29.748  32.945  1.00  0.00    -0.203 F 
ATOM     83  C   UNL A   1      37.989  30.783  33.146  1.00  0.00     0.198 A 
ATOM     84  C   UNL A   1      36.926  31.720  31.210  1.00  0.00     0.198 A 
ATOM     85  F   UNL A   1      37.981  31.581  29.110  1.00  0.00    -0.203 F 
ATOM     86  F   UNL A   1      37.975  30.502  34.456  1.00  0.00    -0.200 F 
ATOM     87  C   UNL A   1      36.919  31.452  32.570  1.00  0.00     0.200 A 
ATOM     88  F   UNL A   1      35.901  32.378  30.651  1.00  0.00    -0.200 F 
ATOM     89  F   UNL A   1      35.881  31.836  33.324  1.00  0.00    -0.200 F 
ENDBRANCH  55  79
BRANCH  67  90
ATOM     90  C   UNL A   1      44.940  33.945  29.011  1.00  0.00     0.064 A 
ATOM     91  C   UNL A   1      45.796  34.269  30.073  1.00  0.00     0.173 A 
ATOM     92  C   UNL A   1      44.627  34.953  28.086  1.00  0.00     0.173 A 
ATOM     93  F   UNL A   1      46.114  33.343  30.991  1.00  0.00    -0.203 F 
ATOM     94  C   UNL A   1      46.313  35.555  30.207  1.00  0.00     0.198 A 
ATOM     95  C   UNL A   1      45.166  36.231  28.208  1.00  0.00     0.198 A 
ATOM     96  F   UNL A   1      43.817  34.691  27.049  1.00  0.00    -0.203 F 
ATOM     97  F   UNL A   1      47.108  35.851  31.243  1.00  0.00    -0.200 F 
ATOM     98  C   UNL A   1      46.006  36.531  29.270  1.00  0.00     0.200 A 
ATOM     99  F   UNL A   1      44.879  37.167  27.295  1.00  0.00    -0.200 F 
ATOM    100  F   UNL A   1      46.519  37.763  29.390  1.00  0.00    -0.200 F 
ENDBRANCH  67  90
ENDBRANCH  41  42
ENDBRANCH  34  36
ENDBRANCH  33  34
ENDBRANCH  32  33
ENDBRANCH  31  32
ENDBRANCH  30  31
ENDBRANCH   1  30
TORSDOF 18
ENDMDL
MODEL 2
REMARK VINA RESULT:     -11.7      1.873      7.468
REMARK SMILES Cc1cc(C)c(NC(=O)C[C@H](C(=O)OCCOCCOC(=O)c2ccc(-c3c4nc(c(-c5c(F)c(F)c(F)c(F)c5F)c5ccc([nH]5)c(-c5c(F)c(F)c(F)c(F)c5F)c5nc(c(-c6c(F)c(F)c(F)c(F)c6F)c6ccc3[nH]6)C=C5)C=C4)cc2)[NH+]2CC[NH+](C)CC2)c(C)c1
REMARK SMILES IDX 16 1 15 2 14 3 12 4 13 5 11 6 10 7 8 8 7 9 9 11 6 12 1 13
REMARK SMILES IDX 2 14 3 15 95 16 4 17 93 18 5 19 94 20 86 21 87 22 92 23
REMARK SMILES IDX 88 25 91 26 89 27 90 28 17 30 18 31 19 32 20 33 21 34 22 35
REMARK SMILES IDX 23 36 24 37 85 38 25 39 84 40 26 41 27 42 28 43 78 44 29 45
REMARK SMILES IDX 83 46 77 47 79 48 30 49 82 50 76 51 75 52 31 54 63 55 43 56
REMARK SMILES IDX 62 57 44 58 47 59 61 60 80 61 45 62 46 63 60 65 81 66 48 67
REMARK SMILES IDX 32 68 33 69 41 70 34 71 35 72 39 73 42 74 36 75 37 76 40 77
REMARK SMILES IDX 38 78 64 79 65 80 73 81 66 82 67 83 71 84 74 85 68 86 69 87
REMARK SMILES IDX 72 88 70 89 49 90 50 91 58 92 51 93 52 94 56 95 59 96 53 97
REMARK SMILES IDX 54 98 57 99 55 100
REMARK H PARENT 7 10 86 24 89 29 79 53 47 64
REMARK Flexibility Score: inf
ROOT
ATOM      1  C   UNL A   1      37.852  22.423  25.703  1.00  0.00     0.202 C 
ENDROOT
BRANCH   1   2
ATOM      2  C   UNL A   1      36.697  23.408  25.921  1.00  0.00     0.261 C 
BRANCH   2   3
ATOM      3  O   UNL A   1      36.277  24.089  24.726  1.00  0.00    -0.459 OA
BRANCH   3   4
ATOM      4  C   UNL A   1      34.947  23.939  24.415  1.00  0.00     0.365 C 
ATOM      5  O   UNL A   1      34.512  24.126  23.286  1.00  0.00    -0.245 OA
BRANCH   4   6
ATOM      6  C   UNL A   1      34.131  23.434  25.654  1.00  0.00     0.304 C 
BRANCH   6   7
ATOM      7  C   UNL A   1      33.317  24.639  26.199  1.00  0.00     0.177 C 
BRANCH   7   8
ATOM      8  C   UNL A   1      31.824  24.606  26.494  1.00  0.00     0.231 C 
ATOM      9  N   UNL A   1      30.884  25.440  25.972  1.00  0.00    -0.325 N 
ATOM     10  H   UNL A   1      29.981  25.329  26.347  1.00  0.00     0.169 HD
ATOM     11  O   UNL A   1      31.405  23.746  27.286  1.00  0.00    -0.274 OA
BRANCH   9  12
ATOM     12  C   UNL A   1      30.991  26.431  24.985  1.00  0.00     0.047 A 
ATOM     13  C   UNL A   1      30.145  29.689  22.337  1.00  0.00     0.044 C 
ATOM     14  C   UNL A   1      30.613  28.572  23.220  1.00  0.00    -0.050 A 
ATOM     15  C   UNL A   1      30.605  27.256  22.754  1.00  0.00     0.009 A 
ATOM     16  C   UNL A   1      31.005  28.812  24.537  1.00  0.00     0.009 A 
ATOM     17  C   UNL A   1      30.832  26.174  23.620  1.00  0.00    -0.027 A 
ATOM     18  C   UNL A   1      31.252  27.748  25.418  1.00  0.00    -0.027 A 
ATOM     19  C   UNL A   1      31.022  24.815  23.006  1.00  0.00     0.046 C 
ATOM     20  C   UNL A   1      31.749  28.061  26.804  1.00  0.00     0.046 C 
ENDBRANCH   9  12
ENDBRANCH   7   8
ENDBRANCH   6   7
BRANCH   6  21
ATOM     21  N   UNL A   1      33.443  22.157  25.355  1.00  0.00    -0.313 N 
ATOM     22  C   UNL A   1      33.794  21.000  26.195  1.00  0.00     0.325 C 
ATOM     23  C   UNL A   1      33.589  21.692  23.953  1.00  0.00     0.325 C 
ATOM     24  H   UNL A   1      32.484  22.441  25.560  1.00  0.00     0.349 HD
ATOM     25  C   UNL A   1      32.787  19.842  25.940  1.00  0.00     0.324 C 
ATOM     26  C   UNL A   1      32.523  20.614  23.657  1.00  0.00     0.324 C 
ATOM     27  N   UNL A   1      32.578  19.432  24.538  1.00  0.00    -0.328 N 
ATOM     28  C   UNL A   1      33.570  18.466  24.095  1.00  0.00     0.333 C 
ATOM     29  H   UNL A   1      31.675  18.958  24.483  1.00  0.00     0.348 HD
ENDBRANCH   6  21
ENDBRANCH   4   6
ENDBRANCH   3   4
ENDBRANCH   2   3
ENDBRANCH   1   2
BRANCH   1  30
ATOM     30  O   UNL A   1      37.734  21.457  24.667  1.00  0.00    -0.374 OA
BRANCH  30  31
ATOM     31  C   UNL A   1      37.638  20.081  25.024  1.00  0.00     0.202 C 
BRANCH  31  32
ATOM     32  C   UNL A   1      38.920  19.313  25.384  1.00  0.00     0.261 C 
BRANCH  32  33
ATOM     33  O   UNL A   1      39.821  20.036  26.244  1.00  0.00    -0.460 OA
BRANCH  33  34
ATOM     34  C   UNL A   1      41.121  19.673  26.130  1.00  0.00     0.338 C 
ATOM     35  O   UNL A   1      41.564  18.599  25.743  1.00  0.00    -0.246 OA
BRANCH  34  36
ATOM     36  C   UNL A   1      42.007  20.813  26.408  1.00  0.00     0.060 A 
ATOM     37  C   UNL A   1      42.259  21.150  27.744  1.00  0.00     0.016 A 
ATOM     38  C   UNL A   1      42.447  21.635  25.370  1.00  0.00     0.016 A 
ATOM     39  C   UNL A   1      42.918  22.339  28.052  1.00  0.00     0.010 A 
ATOM     40  C   UNL A   1      43.096  22.833  25.681  1.00  0.00     0.010 A 
ATOM     41  C   UNL A   1      43.302  23.207  27.022  1.00  0.00    -0.014 A 
BRANCH  41  42
ATOM     42  C   UNL A   1      43.777  24.574  27.338  1.00  0.00     0.031 A 
ATOM     43  C   UNL A   1      42.783  25.601  27.800  1.00  0.00     0.074 A 
ATOM     44  C   UNL A   1      45.072  24.901  27.191  1.00  0.00     0.049 A 
ATOM     45  N   UNL A   1      42.948  26.881  28.017  1.00  0.00    -0.248 NA
ATOM     46  C   UNL A   1      41.414  25.119  28.041  1.00  0.00     0.031 C 
ATOM     47  C   UNL A   1      46.131  23.982  26.785  1.00  0.00     0.029 A 
ATOM     48  N   UNL A   1      45.706  26.110  27.342  1.00  0.00    -0.354 N 
ATOM     49  C   UNL A   1      41.702  27.361  28.397  1.00  0.00     0.074 A 
ATOM     50  C   UNL A   1      40.788  26.241  28.370  1.00  0.00     0.031 C 
ATOM     51  C   UNL A   1      47.282  24.668  26.683  1.00  0.00     0.029 A 
ATOM     52  C   UNL A   1      47.029  26.076  26.980  1.00  0.00     0.049 A 
ATOM     53  H   UNL A   1      45.255  26.919  27.675  1.00  0.00     0.167 HD
ATOM     54  C   UNL A   1      41.354  28.626  28.737  1.00  0.00     0.037 A 
ATOM     55  C   UNL A   1      47.923  27.078  26.864  1.00  0.00     0.037 A 
ATOM     56  C   UNL A   1      42.272  29.735  28.771  1.00  0.00     0.049 A 
ATOM     57  C   UNL A   1      47.506  28.486  27.197  1.00  0.00     0.074 A 
ATOM     58  C   UNL A   1      42.032  31.042  29.150  1.00  0.00     0.029 A 
ATOM     59  N   UNL A   1      43.606  29.663  28.397  1.00  0.00    -0.354 N 
ATOM     60  N   UNL A   1      46.337  28.929  27.592  1.00  0.00    -0.248 NA
ATOM     61  C   UNL A   1      48.530  29.533  27.070  1.00  0.00     0.031 C 
ATOM     62  C   UNL A   1      43.208  31.775  28.956  1.00  0.00     0.029 A 
ATOM     63  C   UNL A   1      44.194  30.912  28.506  1.00  0.00     0.049 A 
ATOM     64  H   UNL A   1      44.068  28.845  28.100  1.00  0.00     0.167 HD
ATOM     65  C   UNL A   1      46.488  30.297  27.782  1.00  0.00     0.074 A 
ATOM     66  C   UNL A   1      47.865  30.611  27.464  1.00  0.00     0.031 C 
ATOM     67  C   UNL A   1      45.570  31.207  28.190  1.00  0.00     0.037 A 
BRANCH  54  68
ATOM     68  C   UNL A   1      39.912  28.885  29.055  1.00  0.00     0.064 A 
ATOM     69  C   UNL A   1      39.416  28.807  30.366  1.00  0.00     0.173 A 
ATOM     70  C   UNL A   1      39.015  29.233  28.034  1.00  0.00     0.173 A 
ATOM     71  F   UNL A   1      40.229  28.465  31.376  1.00  0.00    -0.203 F 
ATOM     72  C   UNL A   1      38.068  29.037  30.635  1.00  0.00     0.198 A 
ATOM     73  C   UNL A   1      37.676  29.489  28.311  1.00  0.00     0.198 A 
ATOM     74  F   UNL A   1      39.440  29.327  26.764  1.00  0.00    -0.203 F 
ATOM     75  F   UNL A   1      37.606  28.905  31.886  1.00  0.00    -0.200 F 
ATOM     76  C   UNL A   1      37.201  29.382  29.610  1.00  0.00     0.200 A 
ATOM     77  F   UNL A   1      36.842  29.834  27.320  1.00  0.00    -0.200 F 
ATOM     78  F   UNL A   1      35.905  29.602  29.871  1.00  0.00    -0.200 F 
ENDBRANCH  54  68
BRANCH  55  79
ATOM     79  C   UNL A   1      49.293  26.778  26.380  1.00  0.00     0.064 A 
ATOM     80  C   UNL A   1      49.638  26.935  25.032  1.00  0.00     0.173 A 
ATOM     81  C   UNL A   1      50.296  26.354  27.267  1.00  0.00     0.173 A 
ATOM     82  F   UNL A   1      48.708  27.314  24.143  1.00  0.00    -0.203 F 
ATOM     83  C   UNL A   1      50.932  26.676  24.586  1.00  0.00     0.198 A 
ATOM     84  C   UNL A   1      51.596  26.120  26.824  1.00  0.00     0.198 A 
ATOM     85  F   UNL A   1      50.016  26.191  28.567  1.00  0.00    -0.203 F 
ATOM     86  F   UNL A   1      51.230  26.807  23.287  1.00  0.00    -0.200 F 
ATOM     87  C   UNL A   1      51.913  26.278  25.484  1.00  0.00     0.200 A 
ATOM     88  F   UNL A   1      52.541  25.750  27.698  1.00  0.00    -0.200 F 
ATOM     89  F   UNL A   1      53.161  26.044  25.057  1.00  0.00    -0.200 F 
ENDBRANCH  55  79
BRANCH  67  90
ATOM     90  C   UNL A   1      46.021  32.629  28.347  1.00  0.00     0.064 A 
ATOM     91  C   UNL A   1      46.615  33.084  29.533  1.00  0.00     0.173 A 
ATOM     92  C   UNL A   1      45.929  33.524  27.270  1.00  0.00     0.173 A 
ATOM     93  F   UNL A   1      46.713  32.271  30.595  1.00  0.00    -0.203 F 
ATOM     94  C   UNL A   1      47.093  34.388  29.637  1.00  0.00     0.198 A 
ATOM     95  C   UNL A   1      46.431  34.819  27.369  1.00  0.00     0.198 A 
ATOM     96  F   UNL A   1      45.375  33.134  26.113  1.00  0.00    -0.203 F 
ATOM     97  F   UNL A   1      47.633  34.813  30.787  1.00  0.00    -0.200 F 
ATOM     98  C   UNL A   1      47.010  35.250  28.553  1.00  0.00     0.200 A 
ATOM     99  F   UNL A   1      46.362  35.645  26.316  1.00  0.00    -0.200 F 
ATOM    100  F   UNL A   1      47.486  36.499  28.649  1.00  0.00    -0.200 F 
ENDBRANCH  67  90
ENDBRANCH  41  42
ENDBRANCH  34  36
ENDBRANCH  33  34
ENDBRANCH  32  33
ENDBRANCH  31  32
ENDBRANCH  30  31
ENDBRANCH   1  30
TORSDOF 18
ENDMDL
MODEL 3
REMARK VINA RESULT:     -11.6      2.319      7.655
REMARK SMILES Cc1cc(C)c(NC(=O)C[C@H](C(=O)OCCOCCOC(=O)c2ccc(-c3c4nc(c(-c5c(F)c(F)c(F)c(F)c5F)c5ccc([nH]5)c(-c5c(F)c(F)c(F)c(F)c5F)c5nc(c(-c6c(F)c(F)c(F)c(F)c6F)c6ccc3[nH]6)C=C5)C=C4)cc2)[NH+]2CC[NH+](C)CC2)c(C)c1
REMARK SMILES IDX 16 1 15 2 14 3 12 4 13 5 11 6 10 7 8 8 7 9 9 11 6 12 1 13
REMARK SMILES IDX 2 14 3 15 95 16 4 17 93 18 5 19 94 20 86 21 87 22 92 23
REMARK SMILES IDX 88 25 91 26 89 27 90 28 17 30 18 31 19 32 20 33 21 34 22 35
REMARK SMILES IDX 23 36 24 37 85 38 25 39 84 40 26 41 27 42 28 43 78 44 29 45
REMARK SMILES IDX 83 46 77 47 79 48 30 49 82 50 76 51 75 52 31 54 63 55 43 56
REMARK SMILES IDX 62 57 44 58 47 59 61 60 80 61 45 62 46 63 60 65 81 66 48 67
REMARK SMILES IDX 32 68 33 69 41 70 34 71 35 72 39 73 42 74 36 75 37 76 40 77
REMARK SMILES IDX 38 78 64 79 65 80 73 81 66 82 67 83 71 84 74 85 68 86 69 87
REMARK SMILES IDX 72 88 70 89 49 90 50 91 58 92 51 93 52 94 56 95 59 96 53 97
REMARK SMILES IDX 54 98 57 99 55 100
REMARK H PARENT 7 10 86 24 89 29 79 53 47 64
REMARK Flexibility Score: inf
ROOT
ATOM      1  C   UNL A   1      36.251  23.160  25.530  1.00  0.00     0.202 C 
ENDROOT
BRANCH   1   2
ATOM      2  C   UNL A   1      36.055  23.309  24.016  1.00  0.00     0.261 C 
BRANCH   2   3
ATOM      3  O   UNL A   1      35.202  24.405  23.642  1.00  0.00    -0.459 OA
BRANCH   3   4
ATOM      4  C   UNL A   1      34.104  24.050  22.897  1.00  0.00     0.365 C 
ATOM      5  O   UNL A   1      34.184  23.320  21.917  1.00  0.00    -0.245 OA
BRANCH   4   6
ATOM      6  C   UNL A   1      32.788  24.632  23.517  1.00  0.00     0.304 C 
BRANCH   6   7
ATOM      7  C   UNL A   1      31.794  24.885  22.351  1.00  0.00     0.177 C 
BRANCH   7   8
ATOM      8  C   UNL A   1      31.857  26.081  21.411  1.00  0.00     0.231 C 
ATOM      9  N   UNL A   1      31.872  27.391  21.779  1.00  0.00    -0.325 N 
ATOM     10  H   UNL A   1      31.822  28.029  21.031  1.00  0.00     0.169 HD
ATOM     11  O   UNL A   1      31.896  25.861  20.190  1.00  0.00    -0.274 OA
BRANCH   9  12
ATOM     12  C   UNL A   1      31.946  27.981  23.049  1.00  0.00     0.047 A 
ATOM     13  C   UNL A   1      32.600  28.646  27.229  1.00  0.00     0.044 C 
ATOM     14  C   UNL A   1      32.358  28.591  25.751  1.00  0.00    -0.050 A 
ATOM     15  C   UNL A   1      31.068  28.384  25.257  1.00  0.00     0.009 A 
ATOM     16  C   UNL A   1      33.414  28.682  24.845  1.00  0.00     0.009 A 
ATOM     17  C   UNL A   1      30.842  28.116  23.897  1.00  0.00    -0.027 A 
ATOM     18  C   UNL A   1      33.211  28.434  23.479  1.00  0.00    -0.027 A 
ATOM     19  C   UNL A   1      29.421  28.122  23.410  1.00  0.00     0.046 C 
ATOM     20  C   UNL A   1      34.367  28.623  22.533  1.00  0.00     0.046 C 
ENDBRANCH   9  12
ENDBRANCH   7   8
ENDBRANCH   6   7
BRANCH   6  21
ATOM     21  N   UNL A   1      32.356  23.840  24.692  1.00  0.00    -0.313 N 
ATOM     22  C   UNL A   1      31.363  22.780  24.451  1.00  0.00     0.325 C 
ATOM     23  C   UNL A   1      31.814  24.647  25.814  1.00  0.00     0.325 C 
ATOM     24  H   UNL A   1      33.251  23.412  24.933  1.00  0.00     0.349 HD
ATOM     25  C   UNL A   1      31.246  21.876  25.711  1.00  0.00     0.324 C 
ATOM     26  C   UNL A   1      31.790  23.788  27.098  1.00  0.00     0.324 C 
ATOM     27  N   UNL A   1      30.994  22.551  27.000  1.00  0.00    -0.328 N 
ATOM     28  C   UNL A   1      29.578  22.792  27.225  1.00  0.00     0.333 C 
ATOM     29  H   UNL A   1      31.297  21.922  27.745  1.00  0.00     0.348 HD
ENDBRANCH   6  21
ENDBRANCH   4   6
ENDBRANCH   3   4
ENDBRANCH   2   3
ENDBRANCH   1   2
BRANCH   1  30
ATOM     30  O   UNL A   1      36.907  21.999  26.019  1.00  0.00    -0.374 OA
BRANCH  30  31
ATOM     31  C   UNL A   1      37.950  21.423  25.237  1.00  0.00     0.202 C 
BRANCH  31  32
ATOM     32  C   UNL A   1      39.383  21.418  25.793  1.00  0.00     0.261 C 
BRANCH  32  33
ATOM     33  O   UNL A   1      39.798  20.156  26.347  1.00  0.00    -0.460 OA
BRANCH  33  34
ATOM     34  C   UNL A   1      41.108  19.864  26.164  1.00  0.00     0.338 C 
ATOM     35  O   UNL A   1      41.583  18.874  25.622  1.00  0.00    -0.246 OA
BRANCH  34  36
ATOM     36  C   UNL A   1      41.958  20.987  26.587  1.00  0.00     0.060 A 
ATOM     37  C   UNL A   1      42.065  21.261  27.957  1.00  0.00     0.016 A 
ATOM     38  C   UNL A   1      42.504  21.856  25.642  1.00  0.00     0.016 A 
ATOM     39  C   UNL A   1      42.686  22.432  28.389  1.00  0.00     0.010 A 
ATOM     40  C   UNL A   1      43.114  23.036  26.077  1.00  0.00     0.010 A 
ATOM     41  C   UNL A   1      43.175  23.346  27.447  1.00  0.00    -0.014 A 
BRANCH  41  42
ATOM     42  C   UNL A   1      43.611  24.695  27.877  1.00  0.00     0.031 A 
ATOM     43  C   UNL A   1      42.569  25.724  28.214  1.00  0.00     0.074 A 
ATOM     44  C   UNL A   1      44.916  25.007  27.939  1.00  0.00     0.049 A 
ATOM     45  N   UNL A   1      42.712  26.994  28.495  1.00  0.00    -0.248 NA
ATOM     46  C   UNL A   1      41.174  25.256  28.229  1.00  0.00     0.031 C 
ATOM     47  C   UNL A   1      46.015  24.084  27.670  1.00  0.00     0.029 A 
ATOM     48  N   UNL A   1      45.533  26.200  28.223  1.00  0.00    -0.354 N 
ATOM     49  C   UNL A   1      41.428  27.481  28.696  1.00  0.00     0.074 A 
ATOM     50  C   UNL A   1      40.517  26.376  28.494  1.00  0.00     0.031 C 
ATOM     51  C   UNL A   1      47.175  24.754  27.766  1.00  0.00     0.029 A 
ATOM     52  C   UNL A   1      46.895  26.157  28.066  1.00  0.00     0.049 A 
ATOM     53  H   UNL A   1      45.045  27.006  28.511  1.00  0.00     0.167 HD
ATOM     54  C   UNL A   1      41.046  28.740  29.020  1.00  0.00     0.037 A 
ATOM     55  C   UNL A   1      47.807  27.148  28.121  1.00  0.00     0.037 A 
ATOM     56  C   UNL A   1      41.960  29.833  29.229  1.00  0.00     0.049 A 
ATOM     57  C   UNL A   1      47.359  28.552  28.432  1.00  0.00     0.074 A 
ATOM     58  C   UNL A   1      41.679  31.132  29.609  1.00  0.00     0.029 A 
ATOM     59  N   UNL A   1      43.335  29.752  29.061  1.00  0.00    -0.354 N 
ATOM     60  N   UNL A   1      46.148  29.001  28.658  1.00  0.00    -0.248 NA
ATOM     61  C   UNL A   1      48.402  29.586  28.495  1.00  0.00     0.031 C 
ATOM     62  C   UNL A   1      42.878  31.852  29.620  1.00  0.00     0.029 A 
ATOM     63  C   UNL A   1      43.913  30.988  29.298  1.00  0.00     0.049 A 
ATOM     64  H   UNL A   1      43.828  28.937  28.811  1.00  0.00     0.167 HD
ATOM     65  C   UNL A   1      46.284  30.359  28.913  1.00  0.00     0.074 A 
ATOM     66  C   UNL A   1      47.696  30.662  28.819  1.00  0.00     0.031 C 
ATOM     67  C   UNL A   1      45.323  31.271  29.205  1.00  0.00     0.037 A 
BRANCH  54  68
ATOM     68  C   UNL A   1      39.575  29.012  29.123  1.00  0.00     0.064 A 
ATOM     69  C   UNL A   1      38.884  28.901  30.339  1.00  0.00     0.173 A 
ATOM     70  C   UNL A   1      38.849  29.406  27.989  1.00  0.00     0.173 A 
ATOM     71  F   UNL A   1      39.529  28.516  31.450  1.00  0.00    -0.203 F 
ATOM     72  C   UNL A   1      37.513  29.144  30.408  1.00  0.00     0.198 A 
ATOM     73  C   UNL A   1      37.486  29.674  28.067  1.00  0.00     0.198 A 
ATOM     74  F   UNL A   1      39.464  29.532  26.803  1.00  0.00    -0.203 F 
ATOM     75  F   UNL A   1      36.864  28.981  31.568  1.00  0.00    -0.200 F 
ATOM     76  C   UNL A   1      36.817  29.534  29.274  1.00  0.00     0.200 A 
ATOM     77  F   UNL A   1      36.817  30.062  26.972  1.00  0.00    -0.200 F 
ATOM     78  F   UNL A   1      35.499  29.766  29.342  1.00  0.00    -0.200 F 
ENDBRANCH  54  68
BRANCH  55  79
ATOM     79  C   UNL A   1      49.232  26.841  27.842  1.00  0.00     0.064 A 
ATOM     80  C   UNL A   1      49.765  26.976  26.553  1.00  0.00     0.173 A 
ATOM     81  C   UNL A   1      50.098  26.434  28.869  1.00  0.00     0.173 A 
ATOM     82  F   UNL A   1      48.971  27.339  25.536  1.00  0.00    -0.203 F 
ATOM     83  C   UNL A   1      51.109  26.711  26.301  1.00  0.00     0.198 A 
ATOM     84  C   UNL A   1      51.447  26.195  28.620  1.00  0.00     0.198 A 
ATOM     85  F   UNL A   1      49.635  26.293  30.119  1.00  0.00    -0.203 F 
ATOM     86  F   UNL A   1      51.588  26.821  25.055  1.00  0.00    -0.200 F 
ATOM     87  C   UNL A   1      51.952  26.330  27.335  1.00  0.00     0.200 A 
ATOM     88  F   UNL A   1      52.259  25.840  29.625  1.00  0.00    -0.200 F 
ATOM     89  F   UNL A   1      53.247  26.090  27.095  1.00  0.00    -0.200 F 
ENDBRANCH  55  79
BRANCH  67  90
ATOM     90  C   UNL A   1      45.761  32.681  29.475  1.00  0.00     0.064 A 
ATOM     91  C   UNL A   1      46.168  33.091  30.752  1.00  0.00     0.173 A 
ATOM     92  C   UNL A   1      45.847  33.608  28.426  1.00  0.00     0.173 A 
ATOM     93  F   UNL A   1      46.091  32.246  31.791  1.00  0.00    -0.203 F 
ATOM     94  C   UNL A   1      46.639  34.384  30.970  1.00  0.00     0.198 A 
ATOM     95  C   UNL A   1      46.341  34.891  28.642  1.00  0.00     0.198 A 
ATOM     96  F   UNL A   1      45.474  33.261  27.185  1.00  0.00    -0.203 F 
ATOM     97  F   UNL A   1      46.999  34.765  32.203  1.00  0.00    -0.200 F 
ATOM     98  C   UNL A   1      46.734  35.278  29.914  1.00  0.00     0.200 A 
ATOM     99  F   UNL A   1      46.446  35.749  27.618  1.00  0.00    -0.200 F 
ATOM    100  F   UNL A   1      47.204  36.516  30.123  1.00  0.00    -0.200 F 
ENDBRANCH  67  90
ENDBRANCH  41  42
ENDBRANCH  34  36
ENDBRANCH  33  34
ENDBRANCH  32  33
ENDBRANCH  31  32
ENDBRANCH  30  31
ENDBRANCH   1  30
TORSDOF 18
ENDMDL
