MODEL 1
REMARK VINA RESULT:     -11.5      0.000      0.000
REMARK SMILES CC(C)C[C@H](C(=O)OCCOCCOC(=O)c1ccc(-c2c3nc(c(-c4c(F)c(F)c(F)c(F)c4F)c4ccc([nH]4)c(-c4c(F)c(F)c(F)c(F)c4F)c4nc(c(-c5c(F)c(F)c(F)c(F)c5F)c5ccc2[nH]5)C=C4)C=C3)cc1)[C@@H]1CCO[C@]2(CCOC2)C1
REMARK SMILES IDX 11 1 10 2 9 3 8 4 6 5 7 6 5 7 4 8 2 9 1 10 3 11 80 12 81 13
REMARK SMILES IDX 89 14 82 15 84 16 83 17 85 18 88 19 86 20 87 21 12 22 13 23
REMARK SMILES IDX 14 24 15 25 16 26 17 27 18 28 79 29 19 30 78 31 20 32 21 33
REMARK SMILES IDX 22 34 72 35 23 36 77 37 71 38 73 39 24 40 76 41 70 42 69 43
REMARK SMILES IDX 25 45 57 46 37 47 56 48 38 49 41 50 55 51 74 52 39 53 40 54
REMARK SMILES IDX 54 56 75 57 42 58 26 59 27 60 35 61 28 62 29 63 33 64 36 65
REMARK SMILES IDX 30 66 31 67 34 68 32 69 58 70 59 71 67 72 60 73 61 74 65 75
REMARK SMILES IDX 68 76 62 77 63 78 66 79 64 80 43 81 44 82 52 83 45 84 46 85
REMARK SMILES IDX 50 86 53 87 47 88 48 89 51 90 49 91
REMARK H PARENT 73 44 41 55
REMARK Flexibility Score: inf
ROOT
ATOM      1  O   UNL A   1      32.888  29.298  25.003  1.00  0.00    -0.374 OA
ENDROOT
BRANCH   1   2
ATOM      2  C   UNL A   1      32.966  29.283  23.577  1.00  0.00     0.202 C 
BRANCH   2   3
ATOM      3  C   UNL A   1      32.690  27.909  22.957  1.00  0.00     0.261 C 
BRANCH   3   4
ATOM      4  O   UNL A   1      33.597  26.903  23.477  1.00  0.00    -0.463 OA
BRANCH   4   5
ATOM      5  C   UNL A   1      33.666  25.711  22.850  1.00  0.00     0.309 C 
ATOM      6  O   UNL A   1      33.653  25.605  21.629  1.00  0.00    -0.252 OA
BRANCH   5   7
ATOM      7  C   UNL A   1      33.713  24.476  23.801  1.00  0.00     0.103 C 
BRANCH   7   8
ATOM      8  C   UNL A   1      32.378  24.530  24.611  1.00  0.00     0.018 C 
BRANCH   8   9
ATOM      9  C   UNL A   1      32.382  24.831  26.120  1.00  0.00    -0.017 C 
ATOM     10  C   UNL A   1      31.671  26.130  26.473  1.00  0.00     0.007 C 
ATOM     11  C   UNL A   1      31.756  23.649  26.874  1.00  0.00     0.007 C 
ENDBRANCH   8   9
ENDBRANCH   7   8
BRANCH   7  12
ATOM     12  C   UNL A   1      34.200  23.042  23.317  1.00  0.00     0.008 C 
ATOM     13  C   UNL A   1      33.288  21.840  23.644  1.00  0.00     0.033 C 
ATOM     14  C   UNL A   1      35.663  22.565  23.509  1.00  0.00     0.042 C 
ATOM     15  C   UNL A   1      33.686  21.062  24.907  1.00  0.00     0.161 C 
ATOM     16  C   UNL A   1      35.937  21.881  24.840  1.00  0.00     0.094 C 
ATOM     17  O   UNL A   1      35.075  20.756  24.973  1.00  0.00    -0.372 OA
ATOM     18  C   UNL A   1      35.887  22.861  25.984  1.00  0.00     0.066 C 
ATOM     19  C   UNL A   1      37.395  21.436  24.979  1.00  0.00     0.195 C 
ATOM     20  C   UNL A   1      37.254  23.510  25.999  1.00  0.00     0.163 C 
ATOM     21  O   UNL A   1      38.154  22.591  25.373  1.00  0.00    -0.378 OA
ENDBRANCH   7  12
ENDBRANCH   5   7
ENDBRANCH   4   5
ENDBRANCH   3   4
ENDBRANCH   2   3
ENDBRANCH   1   2
BRANCH   1  22
ATOM     22  C   UNL A   1      31.665  29.789  25.548  1.00  0.00     0.202 C 
BRANCH  22  23
ATOM     23  C   UNL A   1      31.832  31.053  26.411  1.00  0.00     0.261 C 
BRANCH  23  24
ATOM     24  O   UNL A   1      32.905  30.905  27.364  1.00  0.00    -0.460 OA
BRANCH  24  25
ATOM     25  C   UNL A   1      33.632  32.007  27.625  1.00  0.00     0.338 C 
ATOM     26  O   UNL A   1      33.205  33.149  27.751  1.00  0.00    -0.246 OA
BRANCH  25  27
ATOM     27  C   UNL A   1      35.046  31.662  27.907  1.00  0.00     0.060 A 
ATOM     28  C   UNL A   1      35.326  30.299  28.037  1.00  0.00     0.016 A 
ATOM     29  C   UNL A   1      36.060  32.602  28.125  1.00  0.00     0.016 A 
ATOM     30  C   UNL A   1      36.569  29.875  28.497  1.00  0.00     0.010 A 
ATOM     31  C   UNL A   1      37.325  32.171  28.570  1.00  0.00     0.010 A 
ATOM     32  C   UNL A   1      37.564  30.808  28.822  1.00  0.00    -0.014 A 
BRANCH  32  33
ATOM     33  C   UNL A   1      38.755  30.318  29.575  1.00  0.00     0.031 A 
ATOM     34  C   UNL A   1      38.936  30.719  31.018  1.00  0.00     0.074 A 
ATOM     35  C   UNL A   1      39.580  29.404  29.032  1.00  0.00     0.049 A 
ATOM     36  N   UNL A   1      39.811  30.296  31.898  1.00  0.00    -0.248 NA
ATOM     37  C   UNL A   1      38.001  31.725  31.547  1.00  0.00     0.031 C 
ATOM     38  C   UNL A   1      39.490  28.899  27.662  1.00  0.00     0.029 A 
ATOM     39  N   UNL A   1      40.637  28.712  29.575  1.00  0.00    -0.354 N 
ATOM     40  C   UNL A   1      39.530  30.980  33.076  1.00  0.00     0.074 A 
ATOM     41  C   UNL A   1      38.433  31.877  32.790  1.00  0.00     0.031 C 
ATOM     42  C   UNL A   1      40.433  27.959  27.480  1.00  0.00     0.029 A 
ATOM     43  C   UNL A   1      41.216  27.818  28.706  1.00  0.00     0.049 A 
ATOM     44  H   UNL A   1      40.950  28.845  30.499  1.00  0.00     0.167 HD
ATOM     45  C   UNL A   1      40.121  30.862  34.290  1.00  0.00     0.037 A 
ATOM     46  C   UNL A   1      42.262  26.986  28.876  1.00  0.00     0.037 A 
ATOM     47  C   UNL A   1      41.207  29.961  34.580  1.00  0.00     0.049 A 
ATOM     48  C   UNL A   1      42.946  26.922  30.219  1.00  0.00     0.074 A 
ATOM     49  C   UNL A   1      41.857  29.752  35.784  1.00  0.00     0.029 A 
ATOM     50  N   UNL A   1      41.811  29.125  33.652  1.00  0.00    -0.354 N 
ATOM     51  N   UNL A   1      42.647  27.547  31.331  1.00  0.00    -0.248 NA
ATOM     52  C   UNL A   1      44.108  26.028  30.329  1.00  0.00     0.031 C 
ATOM     53  C   UNL A   1      42.895  28.841  35.570  1.00  0.00     0.029 A 
ATOM     54  C   UNL A   1      42.848  28.426  34.249  1.00  0.00     0.049 A 
ATOM     55  H   UNL A   1      41.541  29.040  32.709  1.00  0.00     0.167 HD
ATOM     56  C   UNL A   1      43.565  27.106  32.277  1.00  0.00     0.074 A 
ATOM     57  C   UNL A   1      44.417  26.143  31.613  1.00  0.00     0.031 C 
ATOM     58  C   UNL A   1      43.688  27.465  33.579  1.00  0.00     0.037 A 
BRANCH  45  59
ATOM     59  C   UNL A   1      39.628  31.751  35.398  1.00  0.00     0.064 A 
ATOM     60  C   UNL A   1      40.124  33.051  35.586  1.00  0.00     0.173 A 
ATOM     61  C   UNL A   1      38.612  31.310  36.260  1.00  0.00     0.173 A 
ATOM     62  F   UNL A   1      41.102  33.521  34.797  1.00  0.00    -0.203 F 
ATOM     63  C   UNL A   1      39.641  33.863  36.610  1.00  0.00     0.198 A 
ATOM     64  C   UNL A   1      38.108  32.136  37.261  1.00  0.00     0.198 A 
ATOM     65  F   UNL A   1      38.094  30.080  36.122  1.00  0.00    -0.203 F 
ATOM     66  F   UNL A   1      40.165  35.082  36.800  1.00  0.00    -0.200 F 
ATOM     67  C   UNL A   1      38.629  33.408  37.443  1.00  0.00     0.200 A 
ATOM     68  F   UNL A   1      37.118  31.700  38.053  1.00  0.00    -0.200 F 
ATOM     69  F   UNL A   1      38.159  34.194  38.421  1.00  0.00    -0.200 F 
ENDBRANCH  45  59
BRANCH  46  70
ATOM     70  C   UNL A   1      42.739  26.146  27.742  1.00  0.00     0.064 A 
ATOM     71  C   UNL A   1      43.740  26.594  26.868  1.00  0.00     0.173 A 
ATOM     72  C   UNL A   1      42.181  24.882  27.496  1.00  0.00     0.173 A 
ATOM     73  F   UNL A   1      44.288  27.805  27.042  1.00  0.00    -0.203 F 
ATOM     74  C   UNL A   1      44.150  25.819  25.784  1.00  0.00     0.198 A 
ATOM     75  C   UNL A   1      42.616  24.094  26.432  1.00  0.00     0.198 A 
ATOM     76  F   UNL A   1      41.218  24.405  28.299  1.00  0.00    -0.203 F 
ATOM     77  F   UNL A   1      45.071  26.294  24.935  1.00  0.00    -0.200 F 
ATOM     78  C   UNL A   1      43.593  24.567  25.571  1.00  0.00     0.200 A 
ATOM     79  F   UNL A   1      42.084  22.879  26.242  1.00  0.00    -0.200 F 
ATOM     80  F   UNL A   1      43.991  23.821  24.532  1.00  0.00    -0.200 F 
ENDBRANCH  46  70
BRANCH  58  81
ATOM     81  C   UNL A   1      44.762  26.790  34.386  1.00  0.00     0.064 A 
ATOM     82  C   UNL A   1      44.521  25.605  35.095  1.00  0.00     0.173 A 
ATOM     83  C   UNL A   1      46.064  27.317  34.416  1.00  0.00     0.173 A 
ATOM     84  F   UNL A   1      43.292  25.065  35.110  1.00  0.00    -0.203 F 
ATOM     85  C   UNL A   1      45.531  24.990  35.831  1.00  0.00     0.198 A 
ATOM     86  C   UNL A   1      47.080  26.681  35.122  1.00  0.00     0.198 A 
ATOM     87  F   UNL A   1      46.353  28.444  33.748  1.00  0.00    -0.203 F 
ATOM     88  F   UNL A   1      45.263  23.889  36.545  1.00  0.00    -0.200 F 
ATOM     89  C   UNL A   1      46.811  25.524  35.837  1.00  0.00     0.200 A 
ATOM     90  F   UNL A   1      48.319  27.190  35.114  1.00  0.00    -0.200 F 
ATOM     91  F   UNL A   1      47.784  24.927  36.539  1.00  0.00    -0.200 F 
ENDBRANCH  58  81
ENDBRANCH  32  33
ENDBRANCH  25  27
ENDBRANCH  24  25
ENDBRANCH  23  24
ENDBRANCH  22  23
ENDBRANCH   1  22
TORSDOF 17
ENDMDL
MODEL 2
REMARK VINA RESULT:     -11.5      4.138      9.778
REMARK SMILES CC(C)C[C@H](C(=O)OCCOCCOC(=O)c1ccc(-c2c3nc(c(-c4c(F)c(F)c(F)c(F)c4F)c4ccc([nH]4)c(-c4c(F)c(F)c(F)c(F)c4F)c4nc(c(-c5c(F)c(F)c(F)c(F)c5F)c5ccc2[nH]5)C=C4)C=C3)cc1)[C@@H]1CCO[C@]2(CCOC2)C1
REMARK SMILES IDX 11 1 10 2 9 3 8 4 6 5 7 6 5 7 4 8 2 9 1 10 3 11 80 12 81 13
REMARK SMILES IDX 89 14 82 15 84 16 83 17 85 18 88 19 86 20 87 21 12 22 13 23
REMARK SMILES IDX 14 24 15 25 16 26 17 27 18 28 79 29 19 30 78 31 20 32 21 33
REMARK SMILES IDX 22 34 72 35 23 36 77 37 71 38 73 39 24 40 76 41 70 42 69 43
REMARK SMILES IDX 25 45 57 46 37 47 56 48 38 49 41 50 55 51 74 52 39 53 40 54
REMARK SMILES IDX 54 56 75 57 42 58 26 59 27 60 35 61 28 62 29 63 33 64 36 65
REMARK SMILES IDX 30 66 31 67 34 68 32 69 58 70 59 71 67 72 60 73 61 74 65 75
REMARK SMILES IDX 68 76 62 77 63 78 66 79 64 80 43 81 44 82 52 83 45 84 46 85
REMARK SMILES IDX 50 86 53 87 47 88 48 89 51 90 49 91
REMARK H PARENT 73 44 41 55
REMARK Flexibility Score: inf
ROOT
ATOM      1  O   UNL A   1      35.881  21.540  25.526  1.00  0.00    -0.374 OA
ENDROOT
BRANCH   1   2
ATOM      2  C   UNL A   1      34.919  22.267  24.759  1.00  0.00     0.202 C 
BRANCH   2   3
ATOM      3  C   UNL A   1      35.319  23.721  24.484  1.00  0.00     0.261 C 
BRANCH   3   4
ATOM      4  O   UNL A   1      35.155  24.058  23.082  1.00  0.00    -0.463 OA
BRANCH   4   5
ATOM      5  C   UNL A   1      33.916  24.026  22.553  1.00  0.00     0.309 C 
ATOM      6  O   UNL A   1      33.588  23.225  21.684  1.00  0.00    -0.252 OA
BRANCH   5   7
ATOM      7  C   UNL A   1      32.946  25.121  23.095  1.00  0.00     0.103 C 
BRANCH   7   8
ATOM      8  C   UNL A   1      33.332  26.427  22.330  1.00  0.00     0.018 C 
BRANCH   8   9
ATOM      9  C   UNL A   1      33.771  27.689  23.093  1.00  0.00    -0.017 C 
ATOM     10  C   UNL A   1      32.882  28.894  22.817  1.00  0.00     0.007 C 
ATOM     11  C   UNL A   1      33.816  27.382  24.596  1.00  0.00     0.007 C 
ENDBRANCH   8   9
ENDBRANCH   7   8
BRANCH   7  12
ATOM     12  C   UNL A   1      31.396  24.854  23.322  1.00  0.00     0.008 C 
ATOM     13  C   UNL A   1      30.464  26.085  23.343  1.00  0.00     0.033 C 
ATOM     14  C   UNL A   1      30.881  23.879  24.413  1.00  0.00     0.042 C 
ATOM     15  C   UNL A   1      30.129  26.607  24.748  1.00  0.00     0.161 C 
ATOM     16  C   UNL A   1      30.669  24.513  25.779  1.00  0.00     0.094 C 
ATOM     17  O   UNL A   1      29.739  25.584  25.658  1.00  0.00    -0.372 OA
ATOM     18  C   UNL A   1      31.980  24.877  26.428  1.00  0.00     0.066 C 
ATOM     19  C   UNL A   1      30.168  23.507  26.818  1.00  0.00     0.195 C 
ATOM     20  C   UNL A   1      32.468  23.594  27.063  1.00  0.00     0.163 C 
ATOM     21  O   UNL A   1      31.314  22.781  27.292  1.00  0.00    -0.378 OA
ENDBRANCH   7  12
ENDBRANCH   5   7
ENDBRANCH   4   5
ENDBRANCH   3   4
ENDBRANCH   2   3
ENDBRANCH   1   2
BRANCH   1  22
ATOM     22  C   UNL A   1      36.255  20.269  24.999  1.00  0.00     0.202 C 
BRANCH  22  23
ATOM     23  C   UNL A   1      37.773  20.016  25.003  1.00  0.00     0.261 C 
BRANCH  23  24
ATOM     24  O   UNL A   1      38.502  21.182  25.439  1.00  0.00    -0.460 OA
BRANCH  24  25
ATOM     25  C   UNL A   1      39.634  20.959  26.131  1.00  0.00     0.338 C 
ATOM     26  O   UNL A   1      40.350  19.967  26.056  1.00  0.00    -0.246 OA
BRANCH  25  27
ATOM     27  C   UNL A   1      40.027  22.153  26.917  1.00  0.00     0.060 A 
ATOM     28  C   UNL A   1      39.389  23.347  26.570  1.00  0.00     0.016 A 
ATOM     29  C   UNL A   1      41.027  22.161  27.896  1.00  0.00     0.016 A 
ATOM     30  C   UNL A   1      39.823  24.558  27.100  1.00  0.00     0.010 A 
ATOM     31  C   UNL A   1      41.450  23.384  28.449  1.00  0.00     0.010 A 
ATOM     32  C   UNL A   1      40.894  24.597  28.003  1.00  0.00    -0.014 A 
BRANCH  32  33
ATOM     33  C   UNL A   1      41.496  25.927  28.310  1.00  0.00     0.031 A 
ATOM     34  C   UNL A   1      42.856  26.271  27.755  1.00  0.00     0.074 A 
ATOM     35  C   UNL A   1      40.777  26.875  28.939  1.00  0.00     0.049 A 
ATOM     36  N   UNL A   1      43.500  27.413  27.773  1.00  0.00    -0.248 NA
ATOM     37  C   UNL A   1      43.588  25.187  27.081  1.00  0.00     0.031 C 
ATOM     38  C   UNL A   1      39.433  26.687  29.485  1.00  0.00     0.029 A 
ATOM     39  N   UNL A   1      41.061  28.195  29.198  1.00  0.00    -0.354 N 
ATOM     40  C   UNL A   1      44.704  27.184  27.116  1.00  0.00     0.074 A 
ATOM     41  C   UNL A   1      44.723  25.785  26.749  1.00  0.00     0.031 C 
ATOM     42  C   UNL A   1      38.999  27.854  29.989  1.00  0.00     0.029 A 
ATOM     43  C   UNL A   1      40.043  28.864  29.834  1.00  0.00     0.049 A 
ATOM     44  H   UNL A   1      41.914  28.621  28.950  1.00  0.00     0.167 HD
ATOM     45  C   UNL A   1      45.698  28.060  26.830  1.00  0.00     0.037 A 
ATOM     46  C   UNL A   1      39.964  30.144  30.250  1.00  0.00     0.037 A 
ATOM     47  C   UNL A   1      45.676  29.455  27.186  1.00  0.00     0.049 A 
ATOM     48  C   UNL A   1      41.112  31.082  29.979  1.00  0.00     0.074 A 
ATOM     49  C   UNL A   1      46.625  30.428  26.920  1.00  0.00     0.029 A 
ATOM     50  N   UNL A   1      44.657  30.076  27.894  1.00  0.00    -0.354 N 
ATOM     51  N   UNL A   1      42.227  30.861  29.327  1.00  0.00    -0.248 NA
ATOM     52  C   UNL A   1      40.985  32.453  30.497  1.00  0.00     0.031 C 
ATOM     53  C   UNL A   1      46.212  31.620  27.524  1.00  0.00     0.029 A 
ATOM     54  C   UNL A   1      44.972  31.410  28.105  1.00  0.00     0.049 A 
ATOM     55  H   UNL A   1      43.832  29.634  28.200  1.00  0.00     0.167 HD
ATOM     56  C   UNL A   1      42.921  32.065  29.333  1.00  0.00     0.074 A 
ATOM     57  C   UNL A   1      42.091  33.020  30.036  1.00  0.00     0.031 C 
ATOM     58  C   UNL A   1      44.135  32.353  28.802  1.00  0.00     0.037 A 
BRANCH  45  59
ATOM     59  C   UNL A   1      46.914  27.532  26.121  1.00  0.00     0.064 A 
ATOM     60  C   UNL A   1      47.041  27.581  24.724  1.00  0.00     0.173 A 
ATOM     61  C   UNL A   1      47.989  27.008  26.855  1.00  0.00     0.173 A 
ATOM     62  F   UNL A   1      46.041  28.065  23.971  1.00  0.00    -0.203 F 
ATOM     63  C   UNL A   1      48.185  27.100  24.089  1.00  0.00     0.198 A 
ATOM     64  C   UNL A   1      49.144  26.558  26.220  1.00  0.00     0.198 A 
ATOM     65  F   UNL A   1      47.927  26.944  28.194  1.00  0.00    -0.203 F 
ATOM     66  F   UNL A   1      48.261  27.113  22.751  1.00  0.00    -0.200 F 
ATOM     67  C   UNL A   1      49.237  26.595  24.837  1.00  0.00     0.200 A 
ATOM     68  F   UNL A   1      50.167  26.087  26.947  1.00  0.00    -0.200 F 
ATOM     69  F   UNL A   1      50.340  26.142  24.226  1.00  0.00    -0.200 F 
ENDBRANCH  45  59
BRANCH  46  70
ATOM     70  C   UNL A   1      38.754  30.617  30.979  1.00  0.00     0.064 A 
ATOM     71  C   UNL A   1      37.640  31.129  30.298  1.00  0.00     0.173 A 
ATOM     72  C   UNL A   1      38.698  30.586  32.381  1.00  0.00     0.173 A 
ATOM     73  F   UNL A   1      37.652  31.205  28.959  1.00  0.00    -0.203 F 
ATOM     74  C   UNL A   1      36.530  31.609  30.990  1.00  0.00     0.198 A 
ATOM     75  C   UNL A   1      37.574  31.034  33.071  1.00  0.00     0.198 A 
ATOM     76  F   UNL A   1      39.737  30.109  33.084  1.00  0.00    -0.203 F 
ATOM     77  F   UNL A   1      35.501  32.141  30.316  1.00  0.00    -0.200 F 
ATOM     78  C   UNL A   1      36.494  31.554  32.376  1.00  0.00     0.200 A 
ATOM     79  F   UNL A   1      37.540  30.964  34.409  1.00  0.00    -0.200 F 
ATOM     80  F   UNL A   1      35.424  32.010  33.040  1.00  0.00    -0.200 F 
ENDBRANCH  46  70
BRANCH  58  81
ATOM     81  C   UNL A   1      44.629  33.768  28.929  1.00  0.00     0.064 A 
ATOM     82  C   UNL A   1      44.295  34.755  27.991  1.00  0.00     0.173 A 
ATOM     83  C   UNL A   1      45.416  34.149  30.028  1.00  0.00     0.173 A 
ATOM     84  F   UNL A   1      43.556  34.443  26.915  1.00  0.00    -0.203 F 
ATOM     85  C   UNL A   1      44.756  36.062  28.130  1.00  0.00     0.198 A 
ATOM     86  C   UNL A   1      45.845  35.463  30.183  1.00  0.00     0.198 A 
ATOM     87  F   UNL A   1      45.757  33.247  30.960  1.00  0.00    -0.203 F 
ATOM     88  F   UNL A   1      44.470  36.975  27.192  1.00  0.00    -0.200 F 
ATOM     89  C   UNL A   1      45.524  36.417  29.229  1.00  0.00     0.200 A 
ATOM     90  F   UNL A   1      46.572  35.807  31.255  1.00  0.00    -0.200 F 
ATOM     91  F   UNL A   1      45.959  37.677  29.366  1.00  0.00    -0.200 F 
ENDBRANCH  58  81
ENDBRANCH  32  33
ENDBRANCH  25  27
ENDBRANCH  24  25
ENDBRANCH  23  24
ENDBRANCH  22  23
ENDBRANCH   1  22
TORSDOF 17
ENDMDL
MODEL 3
REMARK VINA RESULT:     -11.3      0.696      1.769
REMARK SMILES CC(C)C[C@H](C(=O)OCCOCCOC(=O)c1ccc(-c2c3nc(c(-c4c(F)c(F)c(F)c(F)c4F)c4ccc([nH]4)c(-c4c(F)c(F)c(F)c(F)c4F)c4nc(c(-c5c(F)c(F)c(F)c(F)c5F)c5ccc2[nH]5)C=C4)C=C3)cc1)[C@@H]1CCO[C@]2(CCOC2)C1
REMARK SMILES IDX 11 1 10 2 9 3 8 4 6 5 7 6 5 7 4 8 2 9 1 10 3 11 80 12 81 13
REMARK SMILES IDX 89 14 82 15 84 16 83 17 85 18 88 19 86 20 87 21 12 22 13 23
REMARK SMILES IDX 14 24 15 25 16 26 17 27 18 28 79 29 19 30 78 31 20 32 21 33
REMARK SMILES IDX 22 34 72 35 23 36 77 37 71 38 73 39 24 40 76 41 70 42 69 43
REMARK SMILES IDX 25 45 57 46 37 47 56 48 38 49 41 50 55 51 74 52 39 53 40 54
REMARK SMILES IDX 54 56 75 57 42 58 26 59 27 60 35 61 28 62 29 63 33 64 36 65
REMARK SMILES IDX 30 66 31 67 34 68 32 69 58 70 59 71 67 72 60 73 61 74 65 75
REMARK SMILES IDX 68 76 62 77 63 78 66 79 64 80 43 81 44 82 52 83 45 84 46 85
REMARK SMILES IDX 50 86 53 87 47 88 48 89 51 90 49 91
REMARK H PARENT 73 44 41 55
REMARK Flexibility Score: inf
ROOT
ATOM      1  O   UNL A   1      31.903  29.317  24.407  1.00  0.00    -0.374 OA
ENDROOT
BRANCH   1   2
ATOM      2  C   UNL A   1      33.264  28.891  24.333  1.00  0.00     0.202 C 
BRANCH   2   3
ATOM      3  C   UNL A   1      33.635  28.234  22.999  1.00  0.00     0.261 C 
BRANCH   3   4
ATOM      4  O   UNL A   1      34.022  26.847  23.183  1.00  0.00    -0.463 OA
BRANCH   4   5
ATOM      5  C   UNL A   1      33.455  25.911  22.397  1.00  0.00     0.309 C 
ATOM      6  O   UNL A   1      33.291  26.069  21.192  1.00  0.00    -0.252 OA
BRANCH   5   7
ATOM      7  C   UNL A   1      32.977  24.630  23.148  1.00  0.00     0.103 C 
BRANCH   7   8
ATOM      8  C   UNL A   1      31.436  24.814  23.335  1.00  0.00     0.018 C 
BRANCH   8   9
ATOM      9  C   UNL A   1      30.876  25.950  24.209  1.00  0.00    -0.017 C 
ATOM     10  C   UNL A   1      29.467  26.368  23.814  1.00  0.00     0.007 C 
ATOM     11  C   UNL A   1      30.922  25.525  25.683  1.00  0.00     0.007 C 
ENDBRANCH   8   9
ENDBRANCH   7   8
BRANCH   7  12
ATOM     12  C   UNL A   1      33.484  23.174  22.765  1.00  0.00     0.008 C 
ATOM     13  C   UNL A   1      32.463  22.020  22.869  1.00  0.00     0.033 C 
ATOM     14  C   UNL A   1      34.844  22.619  23.265  1.00  0.00     0.042 C 
ATOM     15  C   UNL A   1      32.535  21.221  24.178  1.00  0.00     0.161 C 
ATOM     16  C   UNL A   1      34.784  21.921  24.615  1.00  0.00     0.094 C 
ATOM     17  O   UNL A   1      33.858  20.842  24.542  1.00  0.00    -0.372 OA
ATOM     18  C   UNL A   1      34.536  22.900  25.732  1.00  0.00     0.066 C 
ATOM     19  C   UNL A   1      36.152  21.399  25.063  1.00  0.00     0.195 C 
ATOM     20  C   UNL A   1      35.897  23.476  26.054  1.00  0.00     0.163 C 
ATOM     21  O   UNL A   1      36.865  22.512  25.629  1.00  0.00    -0.378 OA
ENDBRANCH   7  12
ENDBRANCH   5   7
ENDBRANCH   4   5
ENDBRANCH   3   4
ENDBRANCH   2   3
ENDBRANCH   1   2
BRANCH   1  22
ATOM     22  C   UNL A   1      31.393  29.528  25.722  1.00  0.00     0.202 C 
BRANCH  22  23
ATOM     23  C   UNL A   1      31.713  30.919  26.297  1.00  0.00     0.261 C 
BRANCH  23  24
ATOM     24  O   UNL A   1      32.704  30.844  27.343  1.00  0.00    -0.460 OA
BRANCH  24  25
ATOM     25  C   UNL A   1      33.401  31.968  27.591  1.00  0.00     0.338 C 
ATOM     26  O   UNL A   1      32.942  33.097  27.718  1.00  0.00    -0.246 OA
BRANCH  25  27
ATOM     27  C   UNL A   1      34.828  31.667  27.858  1.00  0.00     0.060 A 
ATOM     28  C   UNL A   1      35.149  30.313  27.994  1.00  0.00     0.016 A 
ATOM     29  C   UNL A   1      35.817  32.637  28.056  1.00  0.00     0.016 A 
ATOM     30  C   UNL A   1      36.410  29.929  28.441  1.00  0.00     0.010 A 
ATOM     31  C   UNL A   1      37.099  32.246  28.487  1.00  0.00     0.010 A 
ATOM     32  C   UNL A   1      37.381  30.892  28.747  1.00  0.00    -0.014 A 
BRANCH  32  33
ATOM     33  C   UNL A   1      38.595  30.444  29.488  1.00  0.00     0.031 A 
ATOM     34  C   UNL A   1      38.777  30.851  30.929  1.00  0.00     0.074 A 
ATOM     35  C   UNL A   1      39.445  29.556  28.937  1.00  0.00     0.049 A 
ATOM     36  N   UNL A   1      39.674  30.458  31.800  1.00  0.00    -0.248 NA
ATOM     37  C   UNL A   1      37.815  31.826  31.466  1.00  0.00     0.031 C 
ATOM     38  C   UNL A   1      39.357  29.048  27.568  1.00  0.00     0.029 A 
ATOM     39  N   UNL A   1      40.529  28.900  29.469  1.00  0.00    -0.354 N 
ATOM     40  C   UNL A   1      39.383  31.134  32.980  1.00  0.00     0.074 A 
ATOM     41  C   UNL A   1      38.254  31.994  32.705  1.00  0.00     0.031 C 
ATOM     42  C   UNL A   1      40.328  28.139  27.377  1.00  0.00     0.029 A 
ATOM     43  C   UNL A   1      41.128  28.025  28.595  1.00  0.00     0.049 A 
ATOM     44  H   UNL A   1      40.847  29.045  30.390  1.00  0.00     0.167 HD
ATOM     45  C   UNL A   1      39.990  31.037  34.189  1.00  0.00     0.037 A 
ATOM     46  C   UNL A   1      42.203  27.228  28.755  1.00  0.00     0.037 A 
ATOM     47  C   UNL A   1      41.108  30.172  34.467  1.00  0.00     0.049 A 
ATOM     48  C   UNL A   1      42.902  27.188  30.091  1.00  0.00     0.074 A 
ATOM     49  C   UNL A   1      41.776  29.986  35.666  1.00  0.00     0.029 A 
ATOM     50  N   UNL A   1      41.730  29.356  33.534  1.00  0.00    -0.354 N 
ATOM     51  N   UNL A   1      42.595  27.805  31.205  1.00  0.00    -0.248 NA
ATOM     52  C   UNL A   1      44.095  26.334  30.190  1.00  0.00     0.031 C 
ATOM     53  C   UNL A   1      42.842  29.109  35.441  1.00  0.00     0.029 A 
ATOM     54  C   UNL A   1      42.796  28.692  34.121  1.00  0.00     0.049 A 
ATOM     55  H   UNL A   1      41.453  29.261  32.593  1.00  0.00     0.167 HD
ATOM     56  C   UNL A   1      43.535  27.395  32.143  1.00  0.00     0.074 A 
ATOM     57  C   UNL A   1      44.412  26.460  31.470  1.00  0.00     0.031 C 
ATOM     58  C   UNL A   1      43.660  27.759  33.443  1.00  0.00     0.037 A 
BRANCH  45  59
ATOM     59  C   UNL A   1      39.479  31.910  35.301  1.00  0.00     0.064 A 
ATOM     60  C   UNL A   1      38.572  31.437  36.262  1.00  0.00     0.173 A 
ATOM     61  C   UNL A   1      39.940  33.229  35.432  1.00  0.00     0.173 A 
ATOM     62  F   UNL A   1      38.092  30.187  36.180  1.00  0.00    -0.203 F 
ATOM     63  C   UNL A   1      38.123  32.261  37.293  1.00  0.00     0.198 A 
ATOM     64  C   UNL A   1      39.515  34.039  36.482  1.00  0.00     0.198 A 
ATOM     65  F   UNL A   1      40.815  33.732  34.548  1.00  0.00    -0.203 F 
ATOM     66  F   UNL A   1      37.220  31.802  38.169  1.00  0.00    -0.200 F 
ATOM     67  C   UNL A   1      38.601  33.558  37.407  1.00  0.00     0.200 A 
ATOM     68  F   UNL A   1      39.992  35.287  36.600  1.00  0.00    -0.200 F 
ATOM     69  F   UNL A   1      38.177  34.345  38.405  1.00  0.00    -0.200 F 
ENDBRANCH  45  59
BRANCH  46  70
ATOM     70  C   UNL A   1      42.696  26.404  27.617  1.00  0.00     0.064 A 
ATOM     71  C   UNL A   1      43.690  26.874  26.747  1.00  0.00     0.173 A 
ATOM     72  C   UNL A   1      42.161  25.131  27.363  1.00  0.00     0.173 A 
ATOM     73  F   UNL A   1      44.216  28.093  26.929  1.00  0.00    -0.203 F 
ATOM     74  C   UNL A   1      44.114  26.113  25.658  1.00  0.00     0.198 A 
ATOM     75  C   UNL A   1      42.610  24.357  26.295  1.00  0.00     0.198 A 
ATOM     76  F   UNL A   1      41.205  24.632  28.162  1.00  0.00    -0.203 F 
ATOM     77  F   UNL A   1      45.028  26.608  24.814  1.00  0.00    -0.200 F 
ATOM     78  C   UNL A   1      43.580  24.852  25.438  1.00  0.00     0.200 A 
ATOM     79  F   UNL A   1      42.101  23.134  26.097  1.00  0.00    -0.200 F 
ATOM     80  F   UNL A   1      43.992  24.119  24.395  1.00  0.00    -0.200 F 
ENDBRANCH  46  70
BRANCH  58  81
ATOM     81  C   UNL A   1      44.764  27.121  34.239  1.00  0.00     0.064 A 
ATOM     82  C   UNL A   1      46.021  27.726  34.380  1.00  0.00     0.173 A 
ATOM     83  C   UNL A   1      44.547  25.902  34.903  1.00  0.00     0.173 A 
ATOM     84  F   UNL A   1      46.287  28.885  33.758  1.00  0.00    -0.203 F 
ATOM     85  C   UNL A   1      47.029  27.122  35.128  1.00  0.00     0.198 A 
ATOM     86  C   UNL A   1      45.543  25.319  35.679  1.00  0.00     0.198 A 
ATOM     87  F   UNL A   1      43.360  25.284  34.810  1.00  0.00    -0.203 F 
ATOM     88  F   UNL A   1      48.239  27.692  35.203  1.00  0.00    -0.200 F 
ATOM     89  C   UNL A   1      46.787  25.924  35.783  1.00  0.00     0.200 A 
ATOM     90  F   UNL A   1      45.302  24.170  36.324  1.00  0.00    -0.200 F 
ATOM     91  F   UNL A   1      47.755  25.348  36.509  1.00  0.00    -0.200 F 
ENDBRANCH  58  81
ENDBRANCH  32  33
ENDBRANCH  25  27
ENDBRANCH  24  25
ENDBRANCH  23  24
ENDBRANCH  22  23
ENDBRANCH   1  22
TORSDOF 17
ENDMDL
