MODEL 1
REMARK VINA RESULT:     -11.7      0.000      0.000
REMARK SMILES Cc1cc(C(=O)N2CCO[C@H](C)C2)sc1/C=C/C(=O)OCCOCCOC(=O)c1ccc(-c2c3nc(c(-c4c(F)c(F)c(F)c(F)c4F)c4ccc([nH]4)c(-c4c(F)c(F)c(F)c(F)c4F)c4nc(c(-c5c(F)c(F)c(F)c(F)c5F)c5ccc2[nH]5)C=C4)C=C3)cc1
REMARK SMILES IDX 22 1 21 2 20 3 18 4 19 5 17 6 16 7 15 8 1 9 2 10 3 11 4 12
REMARK SMILES IDX 14 13 5 14 6 15 7 16 8 17 13 18 9 19 11 20 10 21 12 22 23 23
REMARK SMILES IDX 24 24 25 25 26 26 27 27 28 28 29 29 30 30 91 31 31 32 90 33
REMARK SMILES IDX 32 34 33 35 34 36 84 37 35 38 89 39 83 40 85 41 36 42 88 43
REMARK SMILES IDX 82 44 81 45 37 47 69 48 49 49 68 50 50 51 53 52 67 53 86 54
REMARK SMILES IDX 51 55 52 56 66 58 87 59 54 60 38 61 39 62 47 63 40 64 41 65
REMARK SMILES IDX 45 66 48 67 42 68 43 69 46 70 44 71 70 72 71 73 79 74 72 75
REMARK SMILES IDX 73 76 77 77 80 78 74 79 75 80 78 81 76 82 55 83 56 84 64 85
REMARK SMILES IDX 57 86 58 87 62 88 65 89 59 90 60 91 63 92 61 93
REMARK H PARENT 85 46 53 57
REMARK Flexibility Score: inf
ROOT
ATOM      1  C   UNL A   1      43.525  18.987  25.562  1.00  0.00     0.202 C 
ENDROOT
BRANCH   1   2
ATOM      2  C   UNL A   1      42.110  18.959  26.143  1.00  0.00     0.261 C 
BRANCH   2   3
ATOM      3  O   UNL A   1      42.101  19.453  27.493  1.00  0.00    -0.460 OA
BRANCH   3   4
ATOM      4  C   UNL A   1      41.963  20.794  27.609  1.00  0.00     0.330 C 
ATOM      5  O   UNL A   1      42.838  21.593  27.904  1.00  0.00    -0.247 OA
BRANCH   4   6
ATOM      6  C   UNL A   1      40.606  21.252  27.259  1.00  0.00     0.095 C 
ATOM      7  C   UNL A   1      40.282  22.205  26.368  1.00  0.00     0.027 C 
BRANCH   7   8
ATOM      8  C   UNL A   1      38.918  22.576  26.112  1.00  0.00     0.031 A 
ATOM      9  C   UNL A   1      38.809  24.928  27.171  1.00  0.00     0.046 C 
ATOM     10  C   UNL A   1      38.240  23.746  26.450  1.00  0.00    -0.032 A 
ATOM     11  C   UNL A   1      36.897  23.751  25.929  1.00  0.00     0.029 A 
ATOM     12  C   UNL A   1      36.576  22.615  25.214  1.00  0.00     0.093 A 
ATOM     13  S   UNL A   1      37.857  21.502  25.278  1.00  0.00    -0.130 S 
BRANCH  12  14
ATOM     14  C   UNL A   1      35.417  22.429  24.342  1.00  0.00     0.264 C 
ATOM     15  O   UNL A   1      35.448  22.789  23.164  1.00  0.00    -0.268 OA
BRANCH  14  16
ATOM     16  N   UNL A   1      34.322  21.715  24.814  1.00  0.00    -0.333 N 
ATOM     17  C   UNL A   1      33.221  22.431  25.447  1.00  0.00     0.148 C 
ATOM     18  C   UNL A   1      34.230  20.258  24.926  1.00  0.00     0.151 C 
ATOM     19  C   UNL A   1      31.896  21.893  24.894  1.00  0.00     0.182 C 
ATOM     20  C   UNL A   1      32.851  19.761  24.449  1.00  0.00     0.134 C 
ATOM     21  O   UNL A   1      31.789  20.476  25.113  1.00  0.00    -0.375 OA
ATOM     22  C   UNL A   1      32.666  18.281  24.757  1.00  0.00     0.040 C 
ENDBRANCH  14  16
ENDBRANCH  12  14
ENDBRANCH   7   8
ENDBRANCH   4   6
ENDBRANCH   3   4
ENDBRANCH   2   3
ENDBRANCH   1   2
BRANCH   1  23
ATOM     23  O   UNL A   1      43.766  20.001  24.588  1.00  0.00    -0.374 OA
BRANCH  23  24
ATOM     24  C   UNL A   1      44.629  21.073  24.974  1.00  0.00     0.202 C 
BRANCH  24  25
ATOM     25  C   UNL A   1      44.481  22.364  24.159  1.00  0.00     0.261 C 
BRANCH  25  26
ATOM     26  O   UNL A   1      43.717  23.356  24.872  1.00  0.00    -0.460 OA
BRANCH  26  27
ATOM     27  C   UNL A   1      44.369  24.516  25.116  1.00  0.00     0.338 C 
ATOM     28  O   UNL A   1      45.375  24.934  24.558  1.00  0.00    -0.246 OA
BRANCH  27  29
ATOM     29  C   UNL A   1      43.596  25.340  26.064  1.00  0.00     0.060 A 
ATOM     30  C   UNL A   1      43.921  26.699  26.155  1.00  0.00     0.016 A 
ATOM     31  C   UNL A   1      42.618  24.788  26.894  1.00  0.00     0.016 A 
ATOM     32  C   UNL A   1      43.303  27.503  27.111  1.00  0.00     0.010 A 
ATOM     33  C   UNL A   1      42.003  25.595  27.858  1.00  0.00     0.010 A 
ATOM     34  C   UNL A   1      42.368  26.947  27.993  1.00  0.00    -0.014 A 
BRANCH  34  35
ATOM     35  C   UNL A   1      41.877  27.748  29.142  1.00  0.00     0.031 A 
ATOM     36  C   UNL A   1      42.615  27.677  30.451  1.00  0.00     0.074 A 
ATOM     37  C   UNL A   1      40.804  28.548  29.015  1.00  0.00     0.049 A 
ATOM     38  N   UNL A   1      42.346  28.262  31.590  1.00  0.00    -0.248 NA
ATOM     39  C   UNL A   1      43.817  26.828  30.478  1.00  0.00     0.031 C 
ATOM     40  C   UNL A   1      40.029  28.731  27.791  1.00  0.00     0.029 A 
ATOM     41  N   UNL A   1      40.179  29.353  29.935  1.00  0.00    -0.354 N 
ATOM     42  C   UNL A   1      43.340  27.852  32.468  1.00  0.00     0.074 A 
ATOM     43  C   UNL A   1      44.201  26.944  31.741  1.00  0.00     0.031 C 
ATOM     44  C   UNL A   1      39.022  29.586  28.037  1.00  0.00     0.029 A 
ATOM     45  C   UNL A   1      39.066  29.987  29.443  1.00  0.00     0.049 A 
ATOM     46  H   UNL A   1      40.499  29.465  30.859  1.00  0.00     0.167 HD
ATOM     47  C   UNL A   1      43.525  28.210  33.761  1.00  0.00     0.037 A 
ATOM     48  C   UNL A   1      38.174  30.783  30.063  1.00  0.00     0.037 A 
ATOM     49  C   UNL A   1      42.672  29.115  34.483  1.00  0.00     0.049 A 
ATOM     50  C   UNL A   1      38.364  31.113  31.522  1.00  0.00     0.074 A 
ATOM     51  C   UNL A   1      42.787  29.553  35.791  1.00  0.00     0.029 A 
ATOM     52  N   UNL A   1      41.537  29.715  33.959  1.00  0.00    -0.354 N 
ATOM     53  N   UNL A   1      39.321  30.742  32.338  1.00  0.00    -0.248 NA
ATOM     54  C   UNL A   1      37.350  31.976  32.144  1.00  0.00     0.031 C 
ATOM     55  C   UNL A   1      41.696  30.383  36.073  1.00  0.00     0.029 A 
ATOM     56  C   UNL A   1      40.929  30.501  34.925  1.00  0.00     0.049 A 
ATOM     57  H   UNL A   1      41.210  29.601  33.038  1.00  0.00     0.167 HD
ATOM     58  C   UNL A   1      39.041  31.347  33.557  1.00  0.00     0.074 A 
ATOM     59  C   UNL A   1      37.831  32.118  33.371  1.00  0.00     0.031 C 
ATOM     60  C   UNL A   1      39.726  31.270  34.724  1.00  0.00     0.037 A 
BRANCH  47  61
ATOM     61  C   UNL A   1      44.689  27.602  34.487  1.00  0.00     0.064 A 
ATOM     62  C   UNL A   1      45.928  28.254  34.570  1.00  0.00     0.173 A 
ATOM     63  C   UNL A   1      44.553  26.365  35.137  1.00  0.00     0.173 A 
ATOM     64  F   UNL A   1      46.114  29.431  33.955  1.00  0.00    -0.203 F 
ATOM     65  C   UNL A   1      46.995  27.680  35.257  1.00  0.00     0.198 A 
ATOM     66  C   UNL A   1      45.614  25.806  35.845  1.00  0.00     0.198 A 
ATOM     67  F   UNL A   1      43.387  25.701  35.090  1.00  0.00    -0.203 F 
ATOM     68  F   UNL A   1      48.183  28.299  35.287  1.00  0.00    -0.200 F 
ATOM     69  C   UNL A   1      46.835  26.460  35.898  1.00  0.00     0.200 A 
ATOM     70  F   UNL A   1      45.453  24.633  36.473  1.00  0.00    -0.200 F 
ATOM     71  F   UNL A   1      47.860  25.911  36.563  1.00  0.00    -0.200 F 
ENDBRANCH  47  61
BRANCH  48  72
ATOM     72  C   UNL A   1      37.010  31.318  29.312  1.00  0.00     0.064 A 
ATOM     73  C   UNL A   1      36.948  32.667  28.938  1.00  0.00     0.173 A 
ATOM     74  C   UNL A   1      35.928  30.494  28.968  1.00  0.00     0.173 A 
ATOM     75  F   UNL A   1      37.945  33.500  29.267  1.00  0.00    -0.203 F 
ATOM     76  C   UNL A   1      35.839  33.175  28.262  1.00  0.00     0.198 A 
ATOM     77  C   UNL A   1      34.833  30.998  28.268  1.00  0.00     0.198 A 
ATOM     78  F   UNL A   1      35.938  29.196  29.305  1.00  0.00    -0.203 F 
ATOM     79  F   UNL A   1      35.785  34.479  27.955  1.00  0.00    -0.200 F 
ATOM     80  C   UNL A   1      34.787  32.339  27.922  1.00  0.00     0.200 A 
ATOM     81  F   UNL A   1      33.824  30.183  27.933  1.00  0.00    -0.200 F 
ATOM     82  F   UNL A   1      33.723  32.828  27.270  1.00  0.00    -0.200 F 
ENDBRANCH  48  72
BRANCH  60  83
ATOM     83  C   UNL A   1      39.205  32.068  35.884  1.00  0.00     0.064 A 
ATOM     84  C   UNL A   1      38.293  31.526  36.800  1.00  0.00     0.173 A 
ATOM     85  C   UNL A   1      39.660  33.378  36.106  1.00  0.00     0.173 A 
ATOM     86  F   UNL A   1      37.817  30.284  36.624  1.00  0.00    -0.203 F 
ATOM     87  C   UNL A   1      37.837  32.275  37.883  1.00  0.00     0.198 A 
ATOM     88  C   UNL A   1      39.223  34.112  37.204  1.00  0.00     0.198 A 
ATOM     89  F   UNL A   1      40.539  33.940  35.263  1.00  0.00    -0.203 F 
ATOM     90  F   UNL A   1      36.930  31.752  38.721  1.00  0.00    -0.200 F 
ATOM     91  C   UNL A   1      38.308  33.563  38.088  1.00  0.00     0.200 A 
ATOM     92  F   UNL A   1      39.690  35.352  37.408  1.00  0.00    -0.200 F 
ATOM     93  F   UNL A   1      37.872  34.278  39.135  1.00  0.00    -0.200 F 
ENDBRANCH  60  83
ENDBRANCH  34  35
ENDBRANCH  27  29
ENDBRANCH  26  27
ENDBRANCH  25  26
ENDBRANCH  24  25
ENDBRANCH  23  24
ENDBRANCH   1  23
TORSDOF 17
ENDMDL
MODEL 2
REMARK VINA RESULT:     -11.3      6.100     11.359
REMARK SMILES Cc1cc(C(=O)N2CCO[C@H](C)C2)sc1/C=C/C(=O)OCCOCCOC(=O)c1ccc(-c2c3nc(c(-c4c(F)c(F)c(F)c(F)c4F)c4ccc([nH]4)c(-c4c(F)c(F)c(F)c(F)c4F)c4nc(c(-c5c(F)c(F)c(F)c(F)c5F)c5ccc2[nH]5)C=C4)C=C3)cc1
REMARK SMILES IDX 22 1 21 2 20 3 18 4 19 5 17 6 16 7 15 8 1 9 2 10 3 11 4 12
REMARK SMILES IDX 14 13 5 14 6 15 7 16 8 17 13 18 9 19 11 20 10 21 12 22 23 23
REMARK SMILES IDX 24 24 25 25 26 26 27 27 28 28 29 29 30 30 91 31 31 32 90 33
REMARK SMILES IDX 32 34 33 35 34 36 84 37 35 38 89 39 83 40 85 41 36 42 88 43
REMARK SMILES IDX 82 44 81 45 37 47 69 48 49 49 68 50 50 51 53 52 67 53 86 54
REMARK SMILES IDX 51 55 52 56 66 58 87 59 54 60 38 61 39 62 47 63 40 64 41 65
REMARK SMILES IDX 45 66 48 67 42 68 43 69 46 70 44 71 70 72 71 73 79 74 72 75
REMARK SMILES IDX 73 76 77 77 80 78 74 79 75 80 78 81 76 82 55 83 56 84 64 85
REMARK SMILES IDX 57 86 58 87 62 88 65 89 59 90 60 91 63 92 61 93
REMARK H PARENT 85 46 53 57
REMARK Flexibility Score: inf
ROOT
ATOM      1  C   UNL A   1      33.235  35.867  31.845  1.00  0.00     0.202 C 
ENDROOT
BRANCH   1   2
ATOM      2  C   UNL A   1      33.017  35.909  30.331  1.00  0.00     0.261 C 
BRANCH   2   3
ATOM      3  O   UNL A   1      33.008  34.582  29.779  1.00  0.00    -0.460 OA
BRANCH   3   4
ATOM      4  C   UNL A   1      34.022  34.311  28.927  1.00  0.00     0.330 C 
ATOM      5  O   UNL A   1      35.065  34.939  28.812  1.00  0.00    -0.247 OA
BRANCH   4   6
ATOM      6  C   UNL A   1      33.791  33.080  28.150  1.00  0.00     0.095 C 
ATOM      7  C   UNL A   1      34.244  31.848  28.438  1.00  0.00     0.027 C 
BRANCH   7   8
ATOM      8  C   UNL A   1      33.961  30.717  27.599  1.00  0.00     0.031 A 
ATOM      9  C   UNL A   1      36.158  29.371  27.775  1.00  0.00     0.046 C 
ATOM     10  C   UNL A   1      34.768  29.625  27.281  1.00  0.00    -0.032 A 
ATOM     11  C   UNL A   1      34.066  28.665  26.467  1.00  0.00     0.029 A 
ATOM     12  C   UNL A   1      32.764  29.025  26.185  1.00  0.00     0.093 A 
ATOM     13  S   UNL A   1      32.438  30.572  26.803  1.00  0.00    -0.130 S 
BRANCH  12  14
ATOM     14  C   UNL A   1      31.720  28.166  25.628  1.00  0.00     0.264 C 
ATOM     15  O   UNL A   1      31.147  27.332  26.331  1.00  0.00    -0.268 OA
BRANCH  14  16
ATOM     16  N   UNL A   1      31.281  28.388  24.329  1.00  0.00    -0.333 N 
ATOM     17  C   UNL A   1      31.998  27.776  23.216  1.00  0.00     0.148 C 
ATOM     18  C   UNL A   1      30.260  29.357  23.922  1.00  0.00     0.151 C 
ATOM     19  C   UNL A   1      30.980  27.167  22.245  1.00  0.00     0.182 C 
ATOM     20  C   UNL A   1      29.311  28.740  22.876  1.00  0.00     0.134 C 
ATOM     21  O   UNL A   1      30.055  28.166  21.781  1.00  0.00    -0.375 OA
ATOM     22  C   UNL A   1      28.382  29.795  22.290  1.00  0.00     0.040 C 
ENDBRANCH  14  16
ENDBRANCH  12  14
ENDBRANCH   7   8
ENDBRANCH   4   6
ENDBRANCH   3   4
ENDBRANCH   2   3
ENDBRANCH   1   2
BRANCH   1  23
ATOM     23  O   UNL A   1      34.597  35.795  32.265  1.00  0.00    -0.374 OA
BRANCH  23  24
ATOM     24  C   UNL A   1      34.831  35.598  33.661  1.00  0.00     0.202 C 
BRANCH  24  25
ATOM     25  C   UNL A   1      34.975  34.137  34.105  1.00  0.00     0.261 C 
BRANCH  25  26
ATOM     26  O   UNL A   1      35.927  33.426  33.289  1.00  0.00    -0.460 OA
BRANCH  26  27
ATOM     27  C   UNL A   1      35.388  32.546  32.414  1.00  0.00     0.338 C 
ATOM     28  O   UNL A   1      34.209  32.434  32.105  1.00  0.00    -0.246 OA
BRANCH  27  29
ATOM     29  C   UNL A   1      36.458  31.810  31.715  1.00  0.00     0.060 A 
ATOM     30  C   UNL A   1      37.292  30.993  32.488  1.00  0.00     0.016 A 
ATOM     31  C   UNL A   1      36.684  31.961  30.346  1.00  0.00     0.016 A 
ATOM     32  C   UNL A   1      38.388  30.360  31.902  1.00  0.00     0.010 A 
ATOM     33  C   UNL A   1      37.789  31.331  29.761  1.00  0.00     0.010 A 
ATOM     34  C   UNL A   1      38.664  30.556  30.543  1.00  0.00    -0.014 A 
BRANCH  34  35
ATOM     35  C   UNL A   1      39.943  30.063  29.976  1.00  0.00     0.031 A 
ATOM     36  C   UNL A   1      41.124  30.992  29.919  1.00  0.00     0.074 A 
ATOM     37  C   UNL A   1      40.060  28.796  29.542  1.00  0.00     0.049 A 
ATOM     38  N   UNL A   1      42.323  30.785  29.437  1.00  0.00    -0.248 NA
ATOM     39  C   UNL A   1      40.924  32.338  30.479  1.00  0.00     0.031 C 
ATOM     40  C   UNL A   1      39.001  27.790  29.579  1.00  0.00     0.029 A 
ATOM     41  N   UNL A   1      41.128  28.142  28.977  1.00  0.00    -0.354 N 
ATOM     42  C   UNL A   1      43.018  31.971  29.632  1.00  0.00     0.074 A 
ATOM     43  C   UNL A   1      42.099  32.905  30.247  1.00  0.00     0.031 C 
ATOM     44  C   UNL A   1      39.468  26.647  29.047  1.00  0.00     0.029 A 
ATOM     45  C   UNL A   1      40.848  26.850  28.608  1.00  0.00     0.049 A 
ATOM     46  H   UNL A   1      42.010  28.560  28.850  1.00  0.00     0.167 HD
ATOM     47  C   UNL A   1      44.309  32.252  29.335  1.00  0.00     0.037 A 
ATOM     48  C   UNL A   1      41.613  25.944  27.970  1.00  0.00     0.037 A 
ATOM     49  C   UNL A   1      45.223  31.323  28.726  1.00  0.00     0.049 A 
ATOM     50  C   UNL A   1      43.026  26.304  27.589  1.00  0.00     0.074 A 
ATOM     51  C   UNL A   1      46.556  31.509  28.403  1.00  0.00     0.029 A 
ATOM     52  N   UNL A   1      44.895  30.032  28.340  1.00  0.00    -0.354 N 
ATOM     53  N   UNL A   1      43.683  27.419  27.800  1.00  0.00    -0.248 NA
ATOM     54  C   UNL A   1      43.804  25.276  26.883  1.00  0.00     0.031 C 
ATOM     55  C   UNL A   1      47.022  30.346  27.779  1.00  0.00     0.029 A 
ATOM     56  C   UNL A   1      45.993  29.419  27.760  1.00  0.00     0.049 A 
ATOM     57  H   UNL A   1      44.012  29.613  28.461  1.00  0.00     0.167 HD
ATOM     58  C   UNL A   1      44.956  27.217  27.281  1.00  0.00     0.074 A 
ATOM     59  C   UNL A   1      44.983  25.870  26.754  1.00  0.00     0.031 C 
ATOM     60  C   UNL A   1      46.007  28.072  27.245  1.00  0.00     0.037 A 
BRANCH  47  61
ATOM     61  C   UNL A   1      44.806  33.634  29.646  1.00  0.00     0.064 A 
ATOM     62  C   UNL A   1      45.329  33.962  30.906  1.00  0.00     0.173 A 
ATOM     63  C   UNL A   1      44.787  34.634  28.663  1.00  0.00     0.173 A 
ATOM     64  F   UNL A   1      45.357  33.045  31.885  1.00  0.00    -0.203 F 
ATOM     65  C   UNL A   1      45.795  35.246  31.175  1.00  0.00     0.198 A 
ATOM     66  C   UNL A   1      45.278  35.909  28.927  1.00  0.00     0.198 A 
ATOM     67  F   UNL A   1      44.299  34.371  27.440  1.00  0.00    -0.203 F 
ATOM     68  F   UNL A   1      46.251  35.549  32.399  1.00  0.00    -0.200 F 
ATOM     69  C   UNL A   1      45.774  36.217  30.184  1.00  0.00     0.200 A 
ATOM     70  F   UNL A   1      45.267  36.842  27.965  1.00  0.00    -0.200 F 
ATOM     71  F   UNL A   1      46.228  37.450  30.444  1.00  0.00    -0.200 F 
ENDBRANCH  47  61
BRANCH  48  72
ATOM     72  C   UNL A   1      41.056  24.608  27.638  1.00  0.00     0.064 A 
ATOM     73  C   UNL A   1      41.516  23.452  28.283  1.00  0.00     0.173 A 
ATOM     74  C   UNL A   1      40.066  24.458  26.655  1.00  0.00     0.173 A 
ATOM     75  F   UNL A   1      42.479  23.540  29.210  1.00  0.00    -0.203 F 
ATOM     76  C   UNL A   1      41.016  22.194  27.947  1.00  0.00     0.198 A 
ATOM     77  C   UNL A   1      39.549  23.203  26.340  1.00  0.00     0.198 A 
ATOM     78  F   UNL A   1      39.595  25.533  26.006  1.00  0.00    -0.203 F 
ATOM     79  F   UNL A   1      41.504  21.100  28.548  1.00  0.00    -0.200 F 
ATOM     80  C   UNL A   1      40.029  22.071  26.981  1.00  0.00     0.200 A 
ATOM     81  F   UNL A   1      38.588  23.091  25.413  1.00  0.00    -0.200 F 
ATOM     82  F   UNL A   1      39.549  20.863  26.660  1.00  0.00    -0.200 F 
ENDBRANCH  48  72
BRANCH  60  83
ATOM     83  C   UNL A   1      47.289  27.566  26.648  1.00  0.00     0.064 A 
ATOM     84  C   UNL A   1      48.233  26.870  27.416  1.00  0.00     0.173 A 
ATOM     85  C   UNL A   1      47.554  27.744  25.281  1.00  0.00     0.173 A 
ATOM     86  F   UNL A   1      48.033  26.687  28.730  1.00  0.00    -0.203 F 
ATOM     87  C   UNL A   1      49.408  26.389  26.841  1.00  0.00     0.198 A 
ATOM     88  C   UNL A   1      48.716  27.238  24.705  1.00  0.00     0.198 A 
ATOM     89  F   UNL A   1      46.679  28.396  24.502  1.00  0.00    -0.203 F 
ATOM     90  F   UNL A   1      50.318  25.766  27.603  1.00  0.00    -0.200 F 
ATOM     91  C   UNL A   1      49.644  26.567  25.486  1.00  0.00     0.200 A 
ATOM     92  F   UNL A   1      48.936  27.399  23.393  1.00  0.00    -0.200 F 
ATOM     93  F   UNL A   1      50.772  26.097  24.934  1.00  0.00    -0.200 F 
ENDBRANCH  60  83
ENDBRANCH  34  35
ENDBRANCH  27  29
ENDBRANCH  26  27
ENDBRANCH  25  26
ENDBRANCH  24  25
ENDBRANCH  23  24
ENDBRANCH   1  23
TORSDOF 17
ENDMDL
MODEL 3
REMARK VINA RESULT:     -11.3      6.117     11.452
REMARK SMILES Cc1cc(C(=O)N2CCO[C@H](C)C2)sc1/C=C/C(=O)OCCOCCOC(=O)c1ccc(-c2c3nc(c(-c4c(F)c(F)c(F)c(F)c4F)c4ccc([nH]4)c(-c4c(F)c(F)c(F)c(F)c4F)c4nc(c(-c5c(F)c(F)c(F)c(F)c5F)c5ccc2[nH]5)C=C4)C=C3)cc1
REMARK SMILES IDX 22 1 21 2 20 3 18 4 19 5 17 6 16 7 15 8 1 9 2 10 3 11 4 12
REMARK SMILES IDX 14 13 5 14 6 15 7 16 8 17 13 18 9 19 11 20 10 21 12 22 23 23
REMARK SMILES IDX 24 24 25 25 26 26 27 27 28 28 29 29 30 30 91 31 31 32 90 33
REMARK SMILES IDX 32 34 33 35 34 36 84 37 35 38 89 39 83 40 85 41 36 42 88 43
REMARK SMILES IDX 82 44 81 45 37 47 69 48 49 49 68 50 50 51 53 52 67 53 86 54
REMARK SMILES IDX 51 55 52 56 66 58 87 59 54 60 38 61 39 62 47 63 40 64 41 65
REMARK SMILES IDX 45 66 48 67 42 68 43 69 46 70 44 71 70 72 71 73 79 74 72 75
REMARK SMILES IDX 73 76 77 77 80 78 74 79 75 80 78 81 76 82 55 83 56 84 64 85
REMARK SMILES IDX 57 86 58 87 62 88 65 89 59 90 60 91 63 92 61 93
REMARK H PARENT 85 46 53 57
REMARK Flexibility Score: inf
ROOT
ATOM      1  C   UNL A   1      32.577  35.950  31.465  1.00  0.00     0.202 C 
ENDROOT
BRANCH   1   2
ATOM      2  C   UNL A   1      33.418  35.612  30.233  1.00  0.00     0.261 C 
BRANCH   2   3
ATOM      3  O   UNL A   1      33.368  34.204  29.949  1.00  0.00    -0.460 OA
BRANCH   3   4
ATOM      4  C   UNL A   1      34.347  33.751  29.132  1.00  0.00     0.330 C 
ATOM      5  O   UNL A   1      35.370  34.344  28.822  1.00  0.00    -0.247 OA
BRANCH   4   6
ATOM      6  C   UNL A   1      34.104  32.371  28.675  1.00  0.00     0.095 C 
ATOM      7  C   UNL A   1      33.977  31.953  27.404  1.00  0.00     0.027 C 
BRANCH   7   8
ATOM      8  C   UNL A   1      33.732  30.577  27.075  1.00  0.00     0.031 A 
ATOM      9  C   UNL A   1      35.792  29.417  28.112  1.00  0.00     0.046 C 
ATOM     10  C   UNL A   1      34.499  29.448  27.359  1.00  0.00    -0.032 A 
ATOM     11  C   UNL A   1      33.848  28.239  26.920  1.00  0.00     0.029 A 
ATOM     12  C   UNL A   1      32.621  28.455  26.326  1.00  0.00     0.093 A 
ATOM     13  S   UNL A   1      32.320  30.122  26.195  1.00  0.00    -0.130 S 
BRANCH  12  14
ATOM     14  C   UNL A   1      31.605  27.448  26.027  1.00  0.00     0.264 C 
ATOM     15  O   UNL A   1      30.947  26.926  26.929  1.00  0.00    -0.268 OA
BRANCH  14  16
ATOM     16  N   UNL A   1      31.287  27.179  24.702  1.00  0.00    -0.333 N 
ATOM     17  C   UNL A   1      30.029  27.670  24.153  1.00  0.00     0.148 C 
ATOM     18  C   UNL A   1      32.007  26.261  23.816  1.00  0.00     0.151 C 
ATOM     19  C   UNL A   1      30.296  28.290  22.776  1.00  0.00     0.182 C 
ATOM     20  C   UNL A   1      32.176  26.878  22.413  1.00  0.00     0.134 C 
ATOM     21  O   UNL A   1      30.908  27.332  21.895  1.00  0.00    -0.375 OA
ATOM     22  C   UNL A   1      32.731  25.858  21.429  1.00  0.00     0.040 C 
ENDBRANCH  14  16
ENDBRANCH  12  14
ENDBRANCH   7   8
ENDBRANCH   4   6
ENDBRANCH   3   4
ENDBRANCH   2   3
ENDBRANCH   1   2
BRANCH   1  23
ATOM     23  O   UNL A   1      32.640  34.999  32.526  1.00  0.00    -0.374 OA
BRANCH  23  24
ATOM     24  C   UNL A   1      33.941  34.661  33.012  1.00  0.00     0.202 C 
BRANCH  24  25
ATOM     25  C   UNL A   1      34.163  33.175  33.320  1.00  0.00     0.261 C 
BRANCH  25  26
ATOM     26  O   UNL A   1      35.244  32.627  32.541  1.00  0.00    -0.460 OA
BRANCH  26  27
ATOM     27  C   UNL A   1      36.355  32.310  33.245  1.00  0.00     0.338 C 
ATOM     28  O   UNL A   1      36.535  32.443  34.448  1.00  0.00    -0.246 OA
BRANCH  27  29
ATOM     29  C   UNL A   1      37.313  31.595  32.381  1.00  0.00     0.060 A 
ATOM     30  C   UNL A   1      38.308  30.835  33.009  1.00  0.00     0.016 A 
ATOM     31  C   UNL A   1      37.282  31.711  30.990  1.00  0.00     0.016 A 
ATOM     32  C   UNL A   1      39.307  30.228  32.250  1.00  0.00     0.010 A 
ATOM     33  C   UNL A   1      38.290  31.107  30.230  1.00  0.00     0.010 A 
ATOM     34  C   UNL A   1      39.325  30.392  30.858  1.00  0.00    -0.014 A 
BRANCH  34  35
ATOM     35  C   UNL A   1      40.502  29.932  30.081  1.00  0.00     0.031 A 
ATOM     36  C   UNL A   1      41.633  30.891  29.829  1.00  0.00     0.074 A 
ATOM     37  C   UNL A   1      40.576  28.669  29.627  1.00  0.00     0.049 A 
ATOM     38  N   UNL A   1      42.737  30.715  29.150  1.00  0.00    -0.248 NA
ATOM     39  C   UNL A   1      41.496  32.232  30.422  1.00  0.00     0.031 C 
ATOM     40  C   UNL A   1      39.564  27.637  29.837  1.00  0.00     0.029 A 
ATOM     41  N   UNL A   1      41.548  28.043  28.887  1.00  0.00    -0.354 N 
ATOM     42  C   UNL A   1      43.425  31.918  29.231  1.00  0.00     0.074 A 
ATOM     43  C   UNL A   1      42.601  32.828  29.997  1.00  0.00     0.031 C 
ATOM     44  C   UNL A   1      39.962  26.506  29.229  1.00  0.00     0.029 A 
ATOM     45  C   UNL A   1      41.242  26.745  28.564  1.00  0.00     0.049 A 
ATOM     46  H   UNL A   1      42.385  28.484  28.614  1.00  0.00     0.167 HD
ATOM     47  C   UNL A   1      44.640  32.233  28.721  1.00  0.00     0.037 A 
ATOM     48  C   UNL A   1      41.911  25.859  27.801  1.00  0.00     0.037 A 
ATOM     49  C   UNL A   1      45.461  31.328  27.962  1.00  0.00     0.049 A 
ATOM     50  C   UNL A   1      43.229  26.255  27.188  1.00  0.00     0.074 A 
ATOM     51  C   UNL A   1      46.715  31.548  27.418  1.00  0.00     0.029 A 
ATOM     52  N   UNL A   1      45.104  30.030  27.631  1.00  0.00    -0.354 N 
ATOM     53  N   UNL A   1      43.885  27.386  27.291  1.00  0.00    -0.248 NA
ATOM     54  C   UNL A   1      43.903  25.248  26.355  1.00  0.00     0.031 C 
ATOM     55  C   UNL A   1      47.097  30.398  26.719  1.00  0.00     0.029 A 
ATOM     56  C   UNL A   1      46.104  29.444  26.870  1.00  0.00     0.049 A 
ATOM     57  H   UNL A   1      44.266  29.588  27.897  1.00  0.00     0.167 HD
ATOM     58  C   UNL A   1      45.056  27.217  26.563  1.00  0.00     0.074 A 
ATOM     59  C   UNL A   1      45.027  25.871  26.032  1.00  0.00     0.031 C 
ATOM     60  C   UNL A   1      46.064  28.099  26.353  1.00  0.00     0.037 A 
BRANCH  47  61
ATOM     61  C   UNL A   1      45.147  33.626  28.951  1.00  0.00     0.064 A 
ATOM     62  C   UNL A   1      44.784  34.690  28.111  1.00  0.00     0.173 A 
ATOM     63  C   UNL A   1      45.981  33.908  30.044  1.00  0.00     0.173 A 
ATOM     64  F   UNL A   1      44.000  34.471  27.046  1.00  0.00    -0.203 F 
ATOM     65  C   UNL A   1      45.255  35.979  28.344  1.00  0.00     0.198 A 
ATOM     66  C   UNL A   1      46.429  35.203  30.289  1.00  0.00     0.198 A 
ATOM     67  F   UNL A   1      46.356  32.927  30.879  1.00  0.00    -0.203 F 
ATOM     68  F   UNL A   1      44.931  36.972  27.504  1.00  0.00    -0.200 F 
ATOM     69  C   UNL A   1      46.073  36.236  29.436  1.00  0.00     0.200 A 
ATOM     70  F   UNL A   1      47.209  35.451  31.350  1.00  0.00    -0.200 F 
ATOM     71  F   UNL A   1      46.521  37.478  29.662  1.00  0.00    -0.200 F 
ENDBRANCH  47  61
BRANCH  48  72
ATOM     72  C   UNL A   1      41.340  24.509  27.561  1.00  0.00     0.064 A 
ATOM     73  C   UNL A   1      41.898  23.370  28.159  1.00  0.00     0.173 A 
ATOM     74  C   UNL A   1      40.236  24.328  26.715  1.00  0.00     0.173 A 
ATOM     75  F   UNL A   1      42.970  23.489  28.954  1.00  0.00    -0.203 F 
ATOM     76  C   UNL A   1      41.382  22.100  27.906  1.00  0.00     0.198 A 
ATOM     77  C   UNL A   1      39.704  23.060  26.486  1.00  0.00     0.198 A 
ATOM     78  F   UNL A   1      39.667  25.385  26.116  1.00  0.00    -0.203 F 
ATOM     79  F   UNL A   1      41.961  21.023  28.455  1.00  0.00    -0.200 F 
ATOM     80  C   UNL A   1      40.282  21.947  27.076  1.00  0.00     0.200 A 
ATOM     81  F   UNL A   1      38.635  22.919  25.691  1.00  0.00    -0.200 F 
ATOM     82  F   UNL A   1      39.785  20.726  26.836  1.00  0.00    -0.200 F 
ENDBRANCH  48  72
BRANCH  60  83
ATOM     83  C   UNL A   1      47.239  27.626  25.546  1.00  0.00     0.064 A 
ATOM     84  C   UNL A   1      47.265  27.740  24.149  1.00  0.00     0.173 A 
ATOM     85  C   UNL A   1      48.370  27.094  26.185  1.00  0.00     0.173 A 
ATOM     86  F   UNL A   1      46.203  28.228  23.491  1.00  0.00    -0.203 F 
ATOM     87  C   UNL A   1      48.372  27.315  23.418  1.00  0.00     0.198 A 
ATOM     88  C   UNL A   1      49.485  26.697  25.452  1.00  0.00     0.198 A 
ATOM     89  F   UNL A   1      48.399  26.971  27.520  1.00  0.00    -0.203 F 
ATOM     90  F   UNL A   1      48.358  27.391  22.080  1.00  0.00    -0.200 F 
ATOM     91  C   UNL A   1      49.483  26.802  24.070  1.00  0.00     0.200 A 
ATOM     92  F   UNL A   1      50.563  26.213  26.086  1.00  0.00    -0.200 F 
ATOM     93  F   UNL A   1      50.550  26.401  23.364  1.00  0.00    -0.200 F 
ENDBRANCH  60  83
ENDBRANCH  34  35
ENDBRANCH  27  29
ENDBRANCH  26  27
ENDBRANCH  25  26
ENDBRANCH  24  25
ENDBRANCH  23  24
ENDBRANCH   1  23
TORSDOF 17
ENDMDL
