MODEL 1
REMARK VINA RESULT:     -11.7      0.000      0.000
REMARK SMILES C[C@@H](C(=O)OCCOCCOC(=O)c1ccc(-c2c3nc(c(-c4c(F)c(F)c(F)c(F)c4F)c4ccc([nH]4)c(-c4c(F)c(F)c(F)c(F)c4F)c4nc(c(-c5c(F)c(F)c(F)c(F)c5F)c5ccc2[nH]5)C=C4)C=C3)cc1)c1ccc(C[C@H]2CCC[C@@H]2O)cc1Br
REMARK SMILES IDX 7 1 6 2 5 3 3 4 4 5 2 6 1 7 77 8 78 9 89 10 79 11 88 12
REMARK SMILES IDX 90 13 80 14 81 15 82 16 83 17 86 18 84 19 85 20 87 21 8 23
REMARK SMILES IDX 9 24 10 25 11 26 12 27 13 28 14 29 15 30 76 31 16 32 75 33
REMARK SMILES IDX 17 34 18 35 19 36 69 37 20 38 74 39 68 40 70 41 21 42 73 43
REMARK SMILES IDX 67 44 66 45 22 47 54 48 34 49 53 50 35 51 38 52 52 53 71 54
REMARK SMILES IDX 36 55 37 56 51 58 72 59 39 60 23 61 24 62 32 63 25 64 26 65
REMARK SMILES IDX 30 66 33 67 27 68 28 69 31 70 29 71 55 72 56 73 64 74 57 75
REMARK SMILES IDX 58 76 62 77 65 78 59 79 60 80 63 81 61 82 40 83 41 84 49 85
REMARK SMILES IDX 42 86 43 87 47 88 50 89 44 90 45 91 48 92 46 93
REMARK H PARENT 87 22 70 46 38 57
REMARK Flexibility Score: inf
ROOT
ATOM      1  C   UNL A   1      32.022  29.154  25.523  1.00  0.00     0.202 C 
ENDROOT
BRANCH   1   2
ATOM      2  C   UNL A   1      32.688  28.560  24.280  1.00  0.00     0.261 C 
BRANCH   2   3
ATOM      3  O   UNL A   1      32.786  27.126  24.404  1.00  0.00    -0.463 OA
BRANCH   3   4
ATOM      4  C   UNL A   1      32.110  26.403  23.471  1.00  0.00     0.313 C 
ATOM      5  O   UNL A   1      30.897  26.470  23.304  1.00  0.00    -0.252 OA
BRANCH   4   6
ATOM      6  C   UNL A   1      33.023  25.467  22.661  1.00  0.00     0.127 C 
ATOM      7  C   UNL A   1      32.897  25.605  21.142  1.00  0.00     0.025 C 
BRANCH   6   8
ATOM      8  C   UNL A   1      32.956  24.053  23.247  1.00  0.00    -0.020 A 
ATOM      9  C   UNL A   1      32.020  23.180  22.641  1.00  0.00     0.006 A 
ATOM     10  C   UNL A   1      33.795  23.496  24.223  1.00  0.00     0.022 A 
ATOM     11  C   UNL A   1      31.911  21.835  23.004  1.00  0.00     0.004 A 
ATOM     12  C   UNL A   1      33.757  22.124  24.497  1.00  0.00     0.019 A 
ATOM     13  Br  UNL A   1      34.914  24.452  25.412  1.00  0.00    -0.050 Br
ATOM     14  C   UNL A   1      32.773  21.299  23.955  1.00  0.00    -0.047 A 
BRANCH  14  15
ATOM     15  C   UNL A   1      32.600  19.904  24.500  1.00  0.00     0.041 C 
BRANCH  15  16
ATOM     16  C   UNL A   1      33.502  18.846  23.828  1.00  0.00     0.022 C 
ATOM     17  C   UNL A   1      34.735  18.368  24.626  1.00  0.00     0.007 C 
ATOM     18  C   UNL A   1      32.774  17.556  23.427  1.00  0.00     0.117 C 
ATOM     19  C   UNL A   1      34.778  16.848  24.485  1.00  0.00     0.003 C 
ATOM     20  C   UNL A   1      33.902  16.546  23.284  1.00  0.00     0.032 C 
BRANCH  18  21
ATOM     21  O   UNL A   1      32.083  17.704  22.201  1.00  0.00    -0.393 OA
ATOM     22  H   UNL A   1      31.369  18.353  22.307  1.00  0.00     0.210 HD
ENDBRANCH  18  21
ENDBRANCH  15  16
ENDBRANCH  14  15
ENDBRANCH   6   8
ENDBRANCH   4   6
ENDBRANCH   3   4
ENDBRANCH   2   3
ENDBRANCH   1   2
BRANCH   1  23
ATOM     23  O   UNL A   1      32.428  30.485  25.860  1.00  0.00    -0.374 OA
BRANCH  23  24
ATOM     24  C   UNL A   1      31.389  31.396  26.215  1.00  0.00     0.202 C 
BRANCH  24  25
ATOM     25  C   UNL A   1      31.855  32.698  26.876  1.00  0.00     0.261 C 
BRANCH  25  26
ATOM     26  O   UNL A   1      32.831  32.442  27.894  1.00  0.00    -0.460 OA
BRANCH  26  27
ATOM     27  C   UNL A   1      33.818  33.365  27.946  1.00  0.00     0.338 C 
ATOM     28  O   UNL A   1      33.714  34.577  27.887  1.00  0.00    -0.246 OA
BRANCH  27  29
ATOM     29  C   UNL A   1      35.089  32.700  28.270  1.00  0.00     0.060 A 
ATOM     30  C   UNL A   1      35.028  31.330  28.544  1.00  0.00     0.016 A 
ATOM     31  C   UNL A   1      36.294  33.402  28.366  1.00  0.00     0.016 A 
ATOM     32  C   UNL A   1      36.162  30.664  28.990  1.00  0.00     0.010 A 
ATOM     33  C   UNL A   1      37.432  32.733  28.819  1.00  0.00     0.010 A 
ATOM     34  C   UNL A   1      37.354  31.375  29.176  1.00  0.00    -0.014 A 
BRANCH  34  35
ATOM     35  C   UNL A   1      38.457  30.724  29.916  1.00  0.00     0.031 A 
ATOM     36  C   UNL A   1      38.648  31.068  31.366  1.00  0.00     0.074 A 
ATOM     37  C   UNL A   1      39.223  29.797  29.319  1.00  0.00     0.049 A 
ATOM     38  N   UNL A   1      39.520  30.603  32.221  1.00  0.00    -0.248 NA
ATOM     39  C   UNL A   1      37.730  32.073  31.928  1.00  0.00     0.031 C 
ATOM     40  C   UNL A   1      39.090  29.363  27.929  1.00  0.00     0.029 A 
ATOM     41  N   UNL A   1      40.260  29.050  29.812  1.00  0.00    -0.354 N 
ATOM     42  C   UNL A   1      39.258  31.257  33.418  1.00  0.00     0.074 A 
ATOM     43  C   UNL A   1      38.168  32.176  33.173  1.00  0.00     0.031 C 
ATOM     44  C   UNL A   1      40.015  28.421  27.679  1.00  0.00     0.029 A 
ATOM     45  C   UNL A   1      40.816  28.207  28.882  1.00  0.00     0.049 A 
ATOM     46  H   UNL A   1      40.575  29.111  30.742  1.00  0.00     0.167 HD
ATOM     47  C   UNL A   1      39.868  31.094  34.616  1.00  0.00     0.037 A 
ATOM     48  C   UNL A   1      41.864  27.369  28.996  1.00  0.00     0.037 A 
ATOM     49  C   UNL A   1      40.948  30.174  34.848  1.00  0.00     0.049 A 
ATOM     50  C   UNL A   1      42.565  27.253  30.325  1.00  0.00     0.074 A 
ATOM     51  C   UNL A   1      41.623  29.914  36.027  1.00  0.00     0.029 A 
ATOM     52  N   UNL A   1      41.514  29.366  33.873  1.00  0.00    -0.354 N 
ATOM     53  N   UNL A   1      42.291  27.851  31.460  1.00  0.00    -0.248 NA
ATOM     54  C   UNL A   1      43.715  26.343  30.388  1.00  0.00     0.031 C 
ATOM     55  C   UNL A   1      42.632  28.983  35.753  1.00  0.00     0.029 A 
ATOM     56  C   UNL A   1      42.551  28.626  34.417  1.00  0.00     0.049 A 
ATOM     57  H   UNL A   1      41.223  29.325  32.933  1.00  0.00     0.167 HD
ATOM     58  C   UNL A   1      43.217  27.371  32.378  1.00  0.00     0.074 A 
ATOM     59  C   UNL A   1      44.051  26.422  31.669  1.00  0.00     0.031 C 
ATOM     60  C   UNL A   1      43.363  27.683  33.690  1.00  0.00     0.037 A 
BRANCH  47  61
ATOM     61  C   UNL A   1      39.396  31.951  35.754  1.00  0.00     0.064 A 
ATOM     62  C   UNL A   1      38.393  31.522  36.636  1.00  0.00     0.173 A 
ATOM     63  C   UNL A   1      39.974  33.209  35.979  1.00  0.00     0.173 A 
ATOM     64  F   UNL A   1      37.797  30.334  36.454  1.00  0.00    -0.203 F 
ATOM     65  C   UNL A   1      37.969  32.332  37.686  1.00  0.00     0.198 A 
ATOM     66  C   UNL A   1      39.566  34.004  37.046  1.00  0.00     0.198 A 
ATOM     67  F   UNL A   1      40.937  33.666  35.165  1.00  0.00    -0.203 F 
ATOM     68  F   UNL A   1      36.977  31.921  38.490  1.00  0.00    -0.200 F 
ATOM     69  C   UNL A   1      38.560  33.569  37.894  1.00  0.00     0.200 A 
ATOM     70  F   UNL A   1      40.144  35.196  37.250  1.00  0.00    -0.200 F 
ATOM     71  F   UNL A   1      38.153  34.346  38.908  1.00  0.00    -0.200 F 
ENDBRANCH  47  61
BRANCH  48  72
ATOM     72  C   UNL A   1      42.311  26.577  27.822  1.00  0.00     0.064 A 
ATOM     73  C   UNL A   1      43.297  27.062  26.953  1.00  0.00     0.173 A 
ATOM     74  C   UNL A   1      41.755  25.319  27.542  1.00  0.00     0.173 A 
ATOM     75  F   UNL A   1      43.842  28.268  27.167  1.00  0.00    -0.203 F 
ATOM     76  C   UNL A   1      43.700  26.327  25.840  1.00  0.00     0.198 A 
ATOM     77  C   UNL A   1      42.177  24.574  26.443  1.00  0.00     0.198 A 
ATOM     78  F   UNL A   1      40.808  24.811  28.342  1.00  0.00    -0.203 F 
ATOM     79  F   UNL A   1      44.615  26.833  25.002  1.00  0.00    -0.200 F 
ATOM     80  C   UNL A   1      43.143  25.082  25.589  1.00  0.00     0.200 A 
ATOM     81  F   UNL A   1      41.646  23.367  26.212  1.00  0.00    -0.200 F 
ATOM     82  F   UNL A   1      43.534  24.374  24.520  1.00  0.00    -0.200 F 
ENDBRANCH  48  72
BRANCH  60  83
ATOM     83  C   UNL A   1      44.444  26.973  34.447  1.00  0.00     0.064 A 
ATOM     84  C   UNL A   1      44.224  25.724  35.046  1.00  0.00     0.173 A 
ATOM     85  C   UNL A   1      45.729  27.528  34.538  1.00  0.00     0.173 A 
ATOM     86  F   UNL A   1      43.007  25.159  35.000  1.00  0.00    -0.203 F 
ATOM     87  C   UNL A   1      45.244  25.069  35.728  1.00  0.00     0.198 A 
ATOM     88  C   UNL A   1      46.755  26.857  35.194  1.00  0.00     0.198 A 
ATOM     89  F   UNL A   1      45.993  28.718  33.975  1.00  0.00    -0.203 F 
ATOM     90  F   UNL A   1      45.000  23.897  36.331  1.00  0.00    -0.200 F 
ATOM     91  C   UNL A   1      46.511  25.631  35.795  1.00  0.00     0.200 A 
ATOM     92  F   UNL A   1      47.981  27.396  35.246  1.00  0.00    -0.200 F 
ATOM     93  F   UNL A   1      47.494  24.994  36.445  1.00  0.00    -0.200 F 
ENDBRANCH  60  83
ENDBRANCH  34  35
ENDBRANCH  27  29
ENDBRANCH  26  27
ENDBRANCH  25  26
ENDBRANCH  24  25
ENDBRANCH  23  24
ENDBRANCH   1  23
TORSDOF 18
ENDMDL
MODEL 2
REMARK VINA RESULT:     -11.6      0.705      2.082
REMARK SMILES C[C@@H](C(=O)OCCOCCOC(=O)c1ccc(-c2c3nc(c(-c4c(F)c(F)c(F)c(F)c4F)c4ccc([nH]4)c(-c4c(F)c(F)c(F)c(F)c4F)c4nc(c(-c5c(F)c(F)c(F)c(F)c5F)c5ccc2[nH]5)C=C4)C=C3)cc1)c1ccc(C[C@H]2CCC[C@@H]2O)cc1Br
REMARK SMILES IDX 7 1 6 2 5 3 3 4 4 5 2 6 1 7 77 8 78 9 89 10 79 11 88 12
REMARK SMILES IDX 90 13 80 14 81 15 82 16 83 17 86 18 84 19 85 20 87 21 8 23
REMARK SMILES IDX 9 24 10 25 11 26 12 27 13 28 14 29 15 30 76 31 16 32 75 33
REMARK SMILES IDX 17 34 18 35 19 36 69 37 20 38 74 39 68 40 70 41 21 42 73 43
REMARK SMILES IDX 67 44 66 45 22 47 54 48 34 49 53 50 35 51 38 52 52 53 71 54
REMARK SMILES IDX 36 55 37 56 51 58 72 59 39 60 23 61 24 62 32 63 25 64 26 65
REMARK SMILES IDX 30 66 33 67 27 68 28 69 31 70 29 71 55 72 56 73 64 74 57 75
REMARK SMILES IDX 58 76 62 77 65 78 59 79 60 80 63 81 61 82 40 83 41 84 49 85
REMARK SMILES IDX 42 86 43 87 47 88 50 89 44 90 45 91 48 92 46 93
REMARK H PARENT 87 22 70 46 38 57
REMARK Flexibility Score: inf
ROOT
ATOM      1  C   UNL A   1      31.786  28.958  26.530  1.00  0.00     0.202 C 
ENDROOT
BRANCH   1   2
ATOM      2  C   UNL A   1      32.037  27.653  25.771  1.00  0.00     0.261 C 
BRANCH   2   3
ATOM      3  O   UNL A   1      31.247  27.619  24.564  1.00  0.00    -0.463 OA
BRANCH   3   4
ATOM      4  C   UNL A   1      31.263  26.443  23.879  1.00  0.00     0.313 C 
ATOM      5  O   UNL A   1      30.292  25.989  23.283  1.00  0.00    -0.252 OA
BRANCH   4   6
ATOM      6  C   UNL A   1      32.621  25.724  23.951  1.00  0.00     0.127 C 
ATOM      7  C   UNL A   1      33.622  26.133  22.867  1.00  0.00     0.025 C 
BRANCH   6   8
ATOM      8  C   UNL A   1      32.395  24.226  24.172  1.00  0.00    -0.020 A 
ATOM      9  C   UNL A   1      33.009  23.366  23.228  1.00  0.00     0.006 A 
ATOM     10  C   UNL A   1      31.760  23.611  25.261  1.00  0.00     0.022 A 
ATOM     11  C   UNL A   1      32.972  21.975  23.352  1.00  0.00     0.004 A 
ATOM     12  C   UNL A   1      31.827  22.225  25.436  1.00  0.00     0.019 A 
ATOM     13  Br  UNL A   1      30.605  24.454  26.501  1.00  0.00    -0.050 Br
ATOM     14  C   UNL A   1      32.360  21.390  24.455  1.00  0.00    -0.047 A 
BRANCH  14  15
ATOM     15  C   UNL A   1      32.149  19.902  24.561  1.00  0.00     0.041 C 
BRANCH  15  16
ATOM     16  C   UNL A   1      33.219  19.058  23.834  1.00  0.00     0.022 C 
ATOM     17  C   UNL A   1      34.495  18.706  24.630  1.00  0.00     0.007 C 
ATOM     18  C   UNL A   1      32.709  17.712  23.300  1.00  0.00     0.117 C 
ATOM     19  C   UNL A   1      34.777  17.229  24.362  1.00  0.00     0.003 C 
ATOM     20  C   UNL A   1      33.983  16.904  23.111  1.00  0.00     0.032 C 
BRANCH  18  21
ATOM     21  O   UNL A   1      32.029  17.861  22.068  1.00  0.00    -0.393 OA
ATOM     22  H   UNL A   1      31.388  17.141  21.963  1.00  0.00     0.210 HD
ENDBRANCH  18  21
ENDBRANCH  15  16
ENDBRANCH  14  15
ENDBRANCH   6   8
ENDBRANCH   4   6
ENDBRANCH   3   4
ENDBRANCH   2   3
ENDBRANCH   1   2
BRANCH   1  23
ATOM     23  O   UNL A   1      32.056  30.156  25.796  1.00  0.00    -0.374 OA
BRANCH  23  24
ATOM     24  C   UNL A   1      31.153  31.243  25.997  1.00  0.00     0.202 C 
BRANCH  24  25
ATOM     25  C   UNL A   1      31.747  32.468  26.702  1.00  0.00     0.261 C 
BRANCH  25  26
ATOM     26  O   UNL A   1      32.773  32.087  27.628  1.00  0.00    -0.460 OA
BRANCH  26  27
ATOM     27  C   UNL A   1      33.675  33.064  27.873  1.00  0.00     0.338 C 
ATOM     28  O   UNL A   1      33.476  34.262  27.966  1.00  0.00    -0.246 OA
BRANCH  27  29
ATOM     29  C   UNL A   1      34.974  32.456  28.199  1.00  0.00     0.060 A 
ATOM     30  C   UNL A   1      34.980  31.076  28.430  1.00  0.00     0.016 A 
ATOM     31  C   UNL A   1      36.138  33.215  28.338  1.00  0.00     0.016 A 
ATOM     32  C   UNL A   1      36.139  30.456  28.877  1.00  0.00     0.010 A 
ATOM     33  C   UNL A   1      37.302  32.592  28.792  1.00  0.00     0.010 A 
ATOM     34  C   UNL A   1      37.289  31.222  29.106  1.00  0.00    -0.014 A 
BRANCH  34  35
ATOM     35  C   UNL A   1      38.412  30.606  29.845  1.00  0.00     0.031 A 
ATOM     36  C   UNL A   1      38.598  30.963  31.293  1.00  0.00     0.074 A 
ATOM     37  C   UNL A   1      39.202  29.698  29.251  1.00  0.00     0.049 A 
ATOM     38  N   UNL A   1      39.486  30.527  32.148  1.00  0.00    -0.248 NA
ATOM     39  C   UNL A   1      37.655  31.946  31.853  1.00  0.00     0.031 C 
ATOM     40  C   UNL A   1      39.077  29.252  27.864  1.00  0.00     0.029 A 
ATOM     41  N   UNL A   1      40.261  28.982  29.745  1.00  0.00    -0.354 N 
ATOM     42  C   UNL A   1      39.209  31.180  33.342  1.00  0.00     0.074 A 
ATOM     43  C   UNL A   1      38.093  32.067  33.096  1.00  0.00     0.031 C 
ATOM     44  C   UNL A   1      40.027  28.335  27.616  1.00  0.00     0.029 A 
ATOM     45  C   UNL A   1      40.838  28.151  28.818  1.00  0.00     0.049 A 
ATOM     46  H   UNL A   1      40.577  29.058  30.674  1.00  0.00     0.167 HD
ATOM     47  C   UNL A   1      39.827  31.041  34.539  1.00  0.00     0.037 A 
ATOM     48  C   UNL A   1      41.909  27.343  28.933  1.00  0.00     0.037 A 
ATOM     49  C   UNL A   1      40.933  30.153  34.772  1.00  0.00     0.049 A 
ATOM     50  C   UNL A   1      42.617  27.254  30.260  1.00  0.00     0.074 A 
ATOM     51  C   UNL A   1      41.619  29.918  35.951  1.00  0.00     0.029 A 
ATOM     52  N   UNL A   1      41.519  29.356  33.800  1.00  0.00    -0.354 N 
ATOM     53  N   UNL A   1      42.330  27.850  31.392  1.00  0.00    -0.248 NA
ATOM     54  C   UNL A   1      43.792  26.377  30.325  1.00  0.00     0.031 C 
ATOM     55  C   UNL A   1      42.652  29.014  35.679  1.00  0.00     0.029 A 
ATOM     56  C   UNL A   1      42.578  28.648  34.344  1.00  0.00     0.049 A 
ATOM     57  H   UNL A   1      41.226  29.301  32.862  1.00  0.00     0.167 HD
ATOM     58  C   UNL A   1      43.272  27.400  32.310  1.00  0.00     0.074 A 
ATOM     59  C   UNL A   1      44.130  26.471  31.603  1.00  0.00     0.031 C 
ATOM     60  C   UNL A   1      43.413  27.724  33.620  1.00  0.00     0.037 A 
BRANCH  47  61
ATOM     61  C   UNL A   1      39.336  31.891  35.674  1.00  0.00     0.064 A 
ATOM     62  C   UNL A   1      39.802  33.199  35.874  1.00  0.00     0.173 A 
ATOM     63  C   UNL A   1      38.367  31.397  36.560  1.00  0.00     0.173 A 
ATOM     64  F   UNL A   1      40.741  33.711  35.065  1.00  0.00    -0.203 F 
ATOM     65  C   UNL A   1      39.335  33.971  36.934  1.00  0.00     0.198 A 
ATOM     66  C   UNL A   1      37.882  32.182  37.602  1.00  0.00     0.198 A 
ATOM     67  F   UNL A   1      37.888  30.152  36.413  1.00  0.00    -0.203 F 
ATOM     68  F   UNL A   1      39.827  35.202  37.134  1.00  0.00    -0.200 F 
ATOM     69  C   UNL A   1      38.371  33.464  37.793  1.00  0.00     0.200 A 
ATOM     70  F   UNL A   1      36.944  31.693  38.426  1.00  0.00    -0.200 F 
ATOM     71  F   UNL A   1      37.918  34.211  38.810  1.00  0.00    -0.200 F 
ENDBRANCH  47  61
BRANCH  48  72
ATOM     72  C   UNL A   1      42.374  26.556  27.761  1.00  0.00     0.064 A 
ATOM     73  C   UNL A   1      41.848  25.288  27.486  1.00  0.00     0.173 A 
ATOM     74  C   UNL A   1      43.361  27.056  26.898  1.00  0.00     0.173 A 
ATOM     75  F   UNL A   1      40.919  24.758  28.294  1.00  0.00    -0.203 F 
ATOM     76  C   UNL A   1      42.301  24.542  26.400  1.00  0.00     0.198 A 
ATOM     77  C   UNL A   1      43.795  26.321  25.798  1.00  0.00     0.198 A 
ATOM     78  F   UNL A   1      43.897  28.265  27.119  1.00  0.00    -0.203 F 
ATOM     79  F   UNL A   1      41.811  23.314  26.182  1.00  0.00    -0.200 F 
ATOM     80  C   UNL A   1      43.270  25.061  25.554  1.00  0.00     0.200 A 
ATOM     81  F   UNL A   1      44.722  26.831  24.977  1.00  0.00    -0.200 F 
ATOM     82  F   UNL A   1      43.703  24.345  24.507  1.00  0.00    -0.200 F 
ENDBRANCH  48  72
BRANCH  60  83
ATOM     83  C   UNL A   1      44.516  27.048  34.377  1.00  0.00     0.064 A 
ATOM     84  C   UNL A   1      45.782  27.635  34.513  1.00  0.00     0.173 A 
ATOM     85  C   UNL A   1      44.289  25.818  35.012  1.00  0.00     0.173 A 
ATOM     86  F   UNL A   1      46.052  28.804  33.912  1.00  0.00    -0.203 F 
ATOM     87  C   UNL A   1      46.788  27.003  35.238  1.00  0.00     0.198 A 
ATOM     88  C   UNL A   1      45.288  25.203  35.760  1.00  0.00     0.198 A 
ATOM     89  F   UNL A   1      43.092  25.219  34.919  1.00  0.00    -0.203 F 
ATOM     90  F   UNL A   1      48.005  27.560  35.317  1.00  0.00    -0.200 F 
ATOM     91  C   UNL A   1      46.539  25.792  35.867  1.00  0.00     0.200 A 
ATOM     92  F   UNL A   1      45.040  24.040  36.379  1.00  0.00    -0.200 F 
ATOM     93  F   UNL A   1      47.507  25.189  36.571  1.00  0.00    -0.200 F 
ENDBRANCH  60  83
ENDBRANCH  34  35
ENDBRANCH  27  29
ENDBRANCH  26  27
ENDBRANCH  25  26
ENDBRANCH  24  25
ENDBRANCH  23  24
ENDBRANCH   1  23
TORSDOF 18
ENDMDL
MODEL 3
REMARK VINA RESULT:     -11.5      4.507     10.639
REMARK SMILES C[C@@H](C(=O)OCCOCCOC(=O)c1ccc(-c2c3nc(c(-c4c(F)c(F)c(F)c(F)c4F)c4ccc([nH]4)c(-c4c(F)c(F)c(F)c(F)c4F)c4nc(c(-c5c(F)c(F)c(F)c(F)c5F)c5ccc2[nH]5)C=C4)C=C3)cc1)c1ccc(C[C@H]2CCC[C@@H]2O)cc1Br
REMARK SMILES IDX 7 1 6 2 5 3 3 4 4 5 2 6 1 7 77 8 78 9 89 10 79 11 88 12
REMARK SMILES IDX 90 13 80 14 81 15 82 16 83 17 86 18 84 19 85 20 87 21 8 23
REMARK SMILES IDX 9 24 10 25 11 26 12 27 13 28 14 29 15 30 76 31 16 32 75 33
REMARK SMILES IDX 17 34 18 35 19 36 69 37 20 38 74 39 68 40 70 41 21 42 73 43
REMARK SMILES IDX 67 44 66 45 22 47 54 48 34 49 53 50 35 51 38 52 52 53 71 54
REMARK SMILES IDX 36 55 37 56 51 58 72 59 39 60 23 61 24 62 32 63 25 64 26 65
REMARK SMILES IDX 30 66 33 67 27 68 28 69 31 70 29 71 55 72 56 73 64 74 57 75
REMARK SMILES IDX 58 76 62 77 65 78 59 79 60 80 63 81 61 82 40 83 41 84 49 85
REMARK SMILES IDX 42 86 43 87 47 88 50 89 44 90 45 91 48 92 46 93
REMARK H PARENT 87 22 70 46 38 57
REMARK Flexibility Score: inf
ROOT
ATOM      1  C   UNL A   1      36.087  23.058  24.220  1.00  0.00     0.202 C 
ENDROOT
BRANCH   1   2
ATOM      2  C   UNL A   1      34.739  22.719  23.580  1.00  0.00     0.261 C 
BRANCH   2   3
ATOM      3  O   UNL A   1      33.742  23.682  23.980  1.00  0.00    -0.463 OA
BRANCH   3   4
ATOM      4  C   UNL A   1      33.726  24.846  23.275  1.00  0.00     0.313 C 
ATOM      5  O   UNL A   1      33.792  24.902  22.052  1.00  0.00    -0.252 OA
BRANCH   4   6
ATOM      6  C   UNL A   1      33.644  26.091  24.174  1.00  0.00     0.127 C 
ATOM      7  C   UNL A   1      34.020  25.852  25.638  1.00  0.00     0.025 C 
BRANCH   6   8
ATOM      8  C   UNL A   1      32.336  26.838  23.896  1.00  0.00    -0.020 A 
ATOM      9  C   UNL A   1      32.453  28.008  23.107  1.00  0.00     0.006 A 
ATOM     10  C   UNL A   1      31.036  26.431  24.227  1.00  0.00     0.022 A 
ATOM     11  C   UNL A   1      31.338  28.742  22.692  1.00  0.00     0.004 A 
ATOM     12  C   UNL A   1      29.924  27.105  23.712  1.00  0.00     0.019 A 
ATOM     13  Br  UNL A   1      30.569  25.113  25.502  1.00  0.00    -0.050 Br
ATOM     14  C   UNL A   1      30.058  28.302  23.010  1.00  0.00    -0.047 A 
BRANCH  14  15
ATOM     15  C   UNL A   1      28.831  29.132  22.729  1.00  0.00     0.041 C 
BRANCH  15  16
ATOM     16  C   UNL A   1      29.134  30.594  22.331  1.00  0.00     0.022 C 
ATOM     17  C   UNL A   1      28.437  31.133  21.062  1.00  0.00     0.007 C 
ATOM     18  C   UNL A   1      28.813  31.626  23.420  1.00  0.00     0.117 C 
ATOM     19  C   UNL A   1      27.922  32.527  21.412  1.00  0.00     0.003 C 
ATOM     20  C   UNL A   1      28.706  32.931  22.646  1.00  0.00     0.032 C 
BRANCH  18  21
ATOM     21  O   UNL A   1      29.844  31.706  24.386  1.00  0.00    -0.393 OA
ATOM     22  H   UNL A   1      29.771  30.958  25.000  1.00  0.00     0.210 HD
ENDBRANCH  18  21
ENDBRANCH  15  16
ENDBRANCH  14  15
ENDBRANCH   6   8
ENDBRANCH   4   6
ENDBRANCH   3   4
ENDBRANCH   2   3
ENDBRANCH   1   2
BRANCH   1  23
ATOM     23  O   UNL A   1      36.499  22.189  25.280  1.00  0.00    -0.374 OA
BRANCH  23  24
ATOM     24  C   UNL A   1      36.797  20.841  24.919  1.00  0.00     0.202 C 
BRANCH  24  25
ATOM     25  C   UNL A   1      38.268  20.434  25.063  1.00  0.00     0.261 C 
BRANCH  25  26
ATOM     26  O   UNL A   1      38.757  20.709  26.383  1.00  0.00    -0.460 OA
BRANCH  26  27
ATOM     27  C   UNL A   1      40.097  20.871  26.444  1.00  0.00     0.338 C 
ATOM     28  O   UNL A   1      40.961  20.165  25.955  1.00  0.00    -0.246 OA
BRANCH  27  29
ATOM     29  C   UNL A   1      40.402  22.169  27.064  1.00  0.00     0.060 A 
ATOM     30  C   UNL A   1      39.723  23.282  26.557  1.00  0.00     0.016 A 
ATOM     31  C   UNL A   1      41.366  22.308  28.066  1.00  0.00     0.016 A 
ATOM     32  C   UNL A   1      40.058  24.555  26.996  1.00  0.00     0.010 A 
ATOM     33  C   UNL A   1      41.706  23.590  28.505  1.00  0.00     0.010 A 
ATOM     34  C   UNL A   1      41.085  24.715  27.935  1.00  0.00    -0.014 A 
BRANCH  34  35
ATOM     35  C   UNL A   1      41.619  26.073  28.174  1.00  0.00     0.031 A 
ATOM     36  C   UNL A   1      42.984  26.410  27.646  1.00  0.00     0.074 A 
ATOM     37  C   UNL A   1      40.868  27.001  28.789  1.00  0.00     0.049 A 
ATOM     38  N   UNL A   1      43.643  27.538  27.703  1.00  0.00    -0.248 NA
ATOM     39  C   UNL A   1      43.706  25.326  26.958  1.00  0.00     0.031 C 
ATOM     40  C   UNL A   1      39.516  26.787  29.300  1.00  0.00     0.029 A 
ATOM     41  N   UNL A   1      41.138  28.313  29.080  1.00  0.00    -0.354 N 
ATOM     42  C   UNL A   1      44.852  27.301  27.062  1.00  0.00     0.074 A 
ATOM     43  C   UNL A   1      44.853  25.914  26.652  1.00  0.00     0.031 C 
ATOM     44  C   UNL A   1      39.071  27.932  29.845  1.00  0.00     0.029 A 
ATOM     45  C   UNL A   1      40.117  28.948  29.741  1.00  0.00     0.049 A 
ATOM     46  H   UNL A   1      41.983  28.757  28.838  1.00  0.00     0.167 HD
ATOM     47  C   UNL A   1      45.864  28.169  26.830  1.00  0.00     0.037 A 
ATOM     48  C   UNL A   1      40.048  30.205  30.217  1.00  0.00     0.037 A 
ATOM     49  C   UNL A   1      45.849  29.547  27.239  1.00  0.00     0.049 A 
ATOM     50  C   UNL A   1      41.215  31.133  29.998  1.00  0.00     0.074 A 
ATOM     51  C   UNL A   1      46.812  30.520  27.035  1.00  0.00     0.029 A 
ATOM     52  N   UNL A   1      44.815  30.146  27.945  1.00  0.00    -0.354 N 
ATOM     53  N   UNL A   1      42.341  30.912  29.364  1.00  0.00    -0.248 NA
ATOM     54  C   UNL A   1      41.097  32.486  30.557  1.00  0.00     0.031 C 
ATOM     55  C   UNL A   1      46.381  31.695  27.661  1.00  0.00     0.029 A 
ATOM     56  C   UNL A   1      45.129  31.469  28.210  1.00  0.00     0.049 A 
ATOM     57  H   UNL A   1      43.982  29.697  28.217  1.00  0.00     0.167 HD
ATOM     58  C   UNL A   1      43.055  32.102  29.424  1.00  0.00     0.074 A 
ATOM     59  C   UNL A   1      42.226  33.046  30.146  1.00  0.00     0.031 C 
ATOM     60  C   UNL A   1      44.283  32.390  28.926  1.00  0.00     0.037 A 
BRANCH  47  61
ATOM     61  C   UNL A   1      47.079  27.642  26.126  1.00  0.00     0.064 A 
ATOM     62  C   UNL A   1      48.170  27.111  26.831  1.00  0.00     0.173 A 
ATOM     63  C   UNL A   1      47.144  27.647  24.725  1.00  0.00     0.173 A 
ATOM     64  F   UNL A   1      48.165  27.099  28.172  1.00  0.00    -0.203 F 
ATOM     65  C   UNL A   1      49.290  26.627  26.159  1.00  0.00     0.198 A 
ATOM     66  C   UNL A   1      48.253  27.138  24.056  1.00  0.00     0.198 A 
ATOM     67  F   UNL A   1      46.127  28.144  24.003  1.00  0.00    -0.203 F 
ATOM     68  F   UNL A   1      50.340  26.165  26.854  1.00  0.00    -0.200 F 
ATOM     69  C   UNL A   1      49.328  26.635  24.773  1.00  0.00     0.200 A 
ATOM     70  F   UNL A   1      48.284  27.138  22.716  1.00  0.00    -0.200 F 
ATOM     71  F   UNL A   1      50.404  26.164  24.127  1.00  0.00    -0.200 F 
ENDBRANCH  47  61
BRANCH  48  72
ATOM     72  C   UNL A   1      38.834  30.658  30.943  1.00  0.00     0.064 A 
ATOM     73  C   UNL A   1      37.732  31.183  30.254  1.00  0.00     0.173 A 
ATOM     74  C   UNL A   1      38.754  30.582  32.341  1.00  0.00     0.173 A 
ATOM     75  F   UNL A   1      37.769  31.297  28.919  1.00  0.00    -0.203 F 
ATOM     76  C   UNL A   1      36.602  31.629  30.938  1.00  0.00     0.198 A 
ATOM     77  C   UNL A   1      37.615  31.004  33.022  1.00  0.00     0.198 A 
ATOM     78  F   UNL A   1      39.782  30.089  33.046  1.00  0.00    -0.203 F 
ATOM     79  F   UNL A   1      35.579  32.164  30.259  1.00  0.00    -0.200 F 
ATOM     80  C   UNL A   1      36.543  31.533  32.320  1.00  0.00     0.200 A 
ATOM     81  F   UNL A   1      37.556  30.898  34.356  1.00  0.00    -0.200 F 
ATOM     82  F   UNL A   1      35.454  31.958  32.978  1.00  0.00    -0.200 F 
ENDBRANCH  48  72
BRANCH  60  83
ATOM     83  C   UNL A   1      44.790  33.788  29.118  1.00  0.00     0.064 A 
ATOM     84  C   UNL A   1      44.498  34.809  28.203  1.00  0.00     0.173 A 
ATOM     85  C   UNL A   1      45.541  34.119  30.256  1.00  0.00     0.173 A 
ATOM     86  F   UNL A   1      43.796  34.538  27.092  1.00  0.00    -0.203 F 
ATOM     87  C   UNL A   1      44.960  36.105  28.408  1.00  0.00     0.198 A 
ATOM     88  C   UNL A   1      45.976  35.422  30.473  1.00  0.00     0.198 A 
ATOM     89  F   UNL A   1      45.841  33.179  31.166  1.00  0.00    -0.203 F 
ATOM     90  F   UNL A   1      44.706  37.056  27.498  1.00  0.00    -0.200 F 
ATOM     91  C   UNL A   1      45.691  36.413  29.546  1.00  0.00     0.200 A 
ATOM     92  F   UNL A   1      46.671  35.720  31.580  1.00  0.00    -0.200 F 
ATOM     93  F   UNL A   1      46.128  37.664  29.745  1.00  0.00    -0.200 F 
ENDBRANCH  60  83
ENDBRANCH  34  35
ENDBRANCH  27  29
ENDBRANCH  26  27
ENDBRANCH  25  26
ENDBRANCH  24  25
ENDBRANCH  23  24
ENDBRANCH   1  23
TORSDOF 18
ENDMDL
