MODEL 1
REMARK VINA RESULT:     -12.2      0.000      0.000
REMARK SMILES CC[C@@H](C(=O)OCCOCCOC(=O)c1ccc(-c2c3nc(c(-c4c(F)c(F)c(F)c(F)c4F)c4ccc([nH]4)c(-c4c(F)c(F)c(F)c(F)c4F)c4nc(c(-c5c(F)c(F)c(F)c(F)c5F)c5ccc2[nH]5)C=C4)C=C3)cc1)N1C(=O)/C(=C/C(C)=C/c2ccccc2)SC1=S
REMARK SMILES IDX 8 1 7 2 6 3 4 4 5 5 3 6 2 7 1 8 78 9 79 10 93 11 80 12 81 13
REMARK SMILES IDX 92 14 94 15 82 16 83 17 84 18 85 19 86 20 87 21 91 22 88 23
REMARK SMILES IDX 90 24 89 25 9 26 10 27 11 28 12 29 13 30 14 31 15 32 16 33
REMARK SMILES IDX 77 34 17 35 76 36 18 37 19 38 20 39 70 40 21 41 75 42 69 43
REMARK SMILES IDX 71 44 22 45 74 46 68 47 67 48 23 50 55 51 35 52 54 53 36 54
REMARK SMILES IDX 39 55 53 56 72 57 37 58 38 59 52 61 73 62 40 63 24 64 25 65
REMARK SMILES IDX 33 66 26 67 27 68 31 69 34 70 28 71 29 72 32 73 30 74 56 75
REMARK SMILES IDX 57 76 65 77 58 78 59 79 63 80 66 81 60 82 61 83 64 84 62 85
REMARK SMILES IDX 41 86 42 87 50 88 43 89 44 90 48 91 51 92 45 93 46 94 49 95
REMARK SMILES IDX 47 96
REMARK H PARENT 71 49 39 60
REMARK Flexibility Score: inf
ROOT
ATOM      1  C   UNL A   1      29.654  29.973  23.378  1.00  0.00     0.202 C 
ENDROOT
BRANCH   1   2
ATOM      2  C   UNL A   1      29.984  28.497  23.644  1.00  0.00     0.261 C 
BRANCH   2   3
ATOM      3  O   UNL A   1      30.094  27.810  22.389  1.00  0.00    -0.462 OA
BRANCH   3   4
ATOM      4  C   UNL A   1      31.147  26.964  22.240  1.00  0.00     0.329 C 
ATOM      5  O   UNL A   1      31.426  26.364  21.209  1.00  0.00    -0.250 OA
BRANCH   4   6
ATOM      6  C   UNL A   1      32.021  26.947  23.512  1.00  0.00     0.201 C 
BRANCH   6   7
ATOM      7  C   UNL A   1      33.332  27.774  23.432  1.00  0.00     0.034 C 
ATOM      8  C   UNL A   1      33.848  28.289  24.773  1.00  0.00     0.007 C 
ENDBRANCH   6   7
BRANCH   6   9
ATOM      9  N   UNL A   1      32.261  25.572  24.049  1.00  0.00    -0.278 N 
ATOM     10  C   UNL A   1      33.299  24.767  23.587  1.00  0.00     0.266 C 
ATOM     11  C   UNL A   1      31.551  25.052  25.114  1.00  0.00     0.149 C 
ATOM     12  O   UNL A   1      34.113  25.048  22.721  1.00  0.00    -0.268 OA
ATOM     13  C   UNL A   1      33.325  23.455  24.311  1.00  0.00     0.080 C 
ATOM     14  S   UNL A   1      32.328  23.598  25.695  1.00  0.00    -0.054 SA
ATOM     15  S   UNL A   1      30.162  25.624  25.839  1.00  0.00    -0.052 S 
ATOM     16  C   UNL A   1      34.008  22.390  23.850  1.00  0.00     0.024 C 
BRANCH  16  17
ATOM     17  C   UNL A   1      34.183  21.015  24.365  1.00  0.00    -0.049 C 
ATOM     18  C   UNL A   1      35.295  20.871  25.384  1.00  0.00     0.044 C 
ATOM     19  C   UNL A   1      33.456  19.955  23.956  1.00  0.00     0.011 C 
BRANCH  19  20
ATOM     20  C   UNL A   1      33.425  18.556  24.422  1.00  0.00    -0.025 A 
ATOM     21  C   UNL A   1      33.954  17.573  23.570  1.00  0.00     0.008 A 
ATOM     22  C   UNL A   1      32.729  18.147  25.565  1.00  0.00     0.008 A 
ATOM     23  C   UNL A   1      33.801  16.215  23.858  1.00  0.00     0.001 A 
ATOM     24  C   UNL A   1      32.586  16.787  25.859  1.00  0.00     0.001 A 
ATOM     25  C   UNL A   1      33.115  15.823  25.004  1.00  0.00     0.000 A 
ENDBRANCH  19  20
ENDBRANCH  16  17
ENDBRANCH   6   9
ENDBRANCH   4   6
ENDBRANCH   3   4
ENDBRANCH   2   3
ENDBRANCH   1   2
BRANCH   1  26
ATOM     26  O   UNL A   1      30.048  30.908  24.387  1.00  0.00    -0.374 OA
BRANCH  26  27
ATOM     27  C   UNL A   1      31.055  30.499  25.311  1.00  0.00     0.202 C 
BRANCH  27  28
ATOM     28  C   UNL A   1      31.364  31.476  26.452  1.00  0.00     0.261 C 
BRANCH  28  29
ATOM     29  O   UNL A   1      32.534  31.097  27.199  1.00  0.00    -0.460 OA
BRANCH  29  30
ATOM     30  C   UNL A   1      33.334  32.131  27.544  1.00  0.00     0.338 C 
ATOM     31  O   UNL A   1      33.013  33.304  27.694  1.00  0.00    -0.246 OA
BRANCH  30  32
ATOM     32  C   UNL A   1      34.684  31.653  27.880  1.00  0.00     0.060 A 
ATOM     33  C   UNL A   1      34.838  30.280  28.109  1.00  0.00     0.016 A 
ATOM     34  C   UNL A   1      35.751  32.532  28.083  1.00  0.00     0.016 A 
ATOM     35  C   UNL A   1      36.046  29.786  28.594  1.00  0.00     0.010 A 
ATOM     36  C   UNL A   1      36.962  32.032  28.577  1.00  0.00     0.010 A 
ATOM     37  C   UNL A   1      37.102  30.664  28.871  1.00  0.00    -0.014 A 
BRANCH  37  38
ATOM     38  C   UNL A   1      38.288  30.156  29.605  1.00  0.00     0.031 A 
ATOM     39  C   UNL A   1      38.526  30.609  31.019  1.00  0.00     0.074 A 
ATOM     40  C   UNL A   1      39.111  29.256  29.039  1.00  0.00     0.049 A 
ATOM     41  N   UNL A   1      39.486  30.283  31.848  1.00  0.00    -0.248 NA
ATOM     42  C   UNL A   1      37.548  31.556  31.576  1.00  0.00     0.031 C 
ATOM     43  C   UNL A   1      38.964  28.708  27.693  1.00  0.00     0.029 A 
ATOM     44  N   UNL A   1      40.236  28.643  29.533  1.00  0.00    -0.354 N 
ATOM     45  C   UNL A   1      39.229  30.983  33.019  1.00  0.00     0.074 A 
ATOM     46  C   UNL A   1      38.042  31.778  32.785  1.00  0.00     0.031 C 
ATOM     47  C   UNL A   1      39.964  27.840  27.465  1.00  0.00     0.029 A 
ATOM     48  C   UNL A   1      40.837  27.793  28.638  1.00  0.00     0.049 A 
ATOM     49  H   UNL A   1      40.580  28.799  30.442  1.00  0.00     0.167 HD
ATOM     50  C   UNL A   1      39.912  30.957  34.188  1.00  0.00     0.037 A 
ATOM     51  C   UNL A   1      41.968  27.071  28.750  1.00  0.00     0.037 A 
ATOM     52  C   UNL A   1      41.092  30.165  34.422  1.00  0.00     0.049 A 
ATOM     53  C   UNL A   1      42.749  27.112  30.038  1.00  0.00     0.074 A 
ATOM     54  C   UNL A   1      41.846  30.058  35.578  1.00  0.00     0.029 A 
ATOM     55  N   UNL A   1      41.693  29.346  33.477  1.00  0.00    -0.354 N 
ATOM     56  N   UNL A   1      42.485  27.757  31.148  1.00  0.00    -0.248 NA
ATOM     57  C   UNL A   1      43.985  26.318  30.088  1.00  0.00     0.031 C 
ATOM     58  C   UNL A   1      42.932  29.215  35.318  1.00  0.00     0.029 A 
ATOM     59  C   UNL A   1      42.825  28.753  34.017  1.00  0.00     0.049 A 
ATOM     60  H   UNL A   1      41.365  29.208  32.560  1.00  0.00     0.167 HD
ATOM     61  C   UNL A   1      43.501  27.424  32.035  1.00  0.00     0.074 A 
ATOM     62  C   UNL A   1      44.381  26.510  31.338  1.00  0.00     0.031 C 
ATOM     63  C   UNL A   1      43.689  27.839  33.313  1.00  0.00     0.037 A 
BRANCH  50  64
ATOM     64  C   UNL A   1      39.413  31.831  35.302  1.00  0.00     0.064 A 
ATOM     65  C   UNL A   1      38.542  31.345  36.289  1.00  0.00     0.173 A 
ATOM     66  C   UNL A   1      39.837  33.165  35.400  1.00  0.00     0.173 A 
ATOM     67  F   UNL A   1      38.098  30.080  36.233  1.00  0.00    -0.203 F 
ATOM     68  C   UNL A   1      38.094  32.169  37.318  1.00  0.00     0.198 A 
ATOM     69  C   UNL A   1      39.409  33.978  36.446  1.00  0.00     0.198 A 
ATOM     70  F   UNL A   1      40.673  33.679  34.485  1.00  0.00    -0.203 F 
ATOM     71  F   UNL A   1      37.226  31.697  38.223  1.00  0.00    -0.200 F 
ATOM     72  C   UNL A   1      38.533  33.482  37.399  1.00  0.00     0.200 A 
ATOM     73  F   UNL A   1      39.843  35.244  36.530  1.00  0.00    -0.200 F 
ATOM     74  F   UNL A   1      38.104  34.273  38.394  1.00  0.00    -0.200 F 
ENDBRANCH  50  64
BRANCH  51  75
ATOM     75  C   UNL A   1      42.438  26.247  27.605  1.00  0.00     0.064 A 
ATOM     76  C   UNL A   1      41.994  24.930  27.429  1.00  0.00     0.173 A 
ATOM     77  C   UNL A   1      43.356  26.757  26.674  1.00  0.00     0.173 A 
ATOM     78  F   UNL A   1      41.137  24.389  28.308  1.00  0.00    -0.203 F 
ATOM     79  C   UNL A   1      42.465  24.146  26.377  1.00  0.00     0.198 A 
ATOM     80  C   UNL A   1      43.805  25.983  25.607  1.00  0.00     0.198 A 
ATOM     81  F   UNL A   1      43.814  28.011  26.800  1.00  0.00    -0.203 F 
ATOM     82  F   UNL A   1      42.062  22.874  26.259  1.00  0.00    -0.200 F 
ATOM     83  C   UNL A   1      43.364  24.676  25.463  1.00  0.00     0.200 A 
ATOM     84  F   UNL A   1      44.665  26.501  24.720  1.00  0.00    -0.200 F 
ATOM     85  F   UNL A   1      43.814  23.923  24.451  1.00  0.00    -0.200 F 
ENDBRANCH  51  75
BRANCH  63  86
ATOM     86  C   UNL A   1      44.869  27.279  34.054  1.00  0.00     0.064 A 
ATOM     87  C   UNL A   1      46.108  27.936  34.072  1.00  0.00     0.173 A 
ATOM     88  C   UNL A   1      44.748  26.085  34.782  1.00  0.00     0.173 A 
ATOM     89  F   UNL A   1      46.280  29.072  33.381  1.00  0.00    -0.203 F 
ATOM     90  C   UNL A   1      47.190  27.403  34.768  1.00  0.00     0.198 A 
ATOM     91  C   UNL A   1      45.824  25.572  35.502  1.00  0.00     0.198 A 
ATOM     92  F   UNL A   1      43.582  25.421  34.805  1.00  0.00    -0.203 F 
ATOM     93  F   UNL A   1      48.379  28.021  34.729  1.00  0.00    -0.200 F 
ATOM     94  C   UNL A   1      47.046  26.226  35.487  1.00  0.00     0.200 A 
ATOM     95  F   UNL A   1      45.678  24.442  36.208  1.00  0.00    -0.200 F 
ATOM     96  F   UNL A   1      48.088  25.717  36.160  1.00  0.00    -0.200 F 
ENDBRANCH  63  86
ENDBRANCH  37  38
ENDBRANCH  30  32
ENDBRANCH  29  30
ENDBRANCH  28  29
ENDBRANCH  27  28
ENDBRANCH  26  27
ENDBRANCH   1  26
TORSDOF 18
ENDMDL
MODEL 2
REMARK VINA RESULT:     -11.5      0.567      7.147
REMARK SMILES CC[C@@H](C(=O)OCCOCCOC(=O)c1ccc(-c2c3nc(c(-c4c(F)c(F)c(F)c(F)c4F)c4ccc([nH]4)c(-c4c(F)c(F)c(F)c(F)c4F)c4nc(c(-c5c(F)c(F)c(F)c(F)c5F)c5ccc2[nH]5)C=C4)C=C3)cc1)N1C(=O)/C(=C/C(C)=C/c2ccccc2)SC1=S
REMARK SMILES IDX 8 1 7 2 6 3 4 4 5 5 3 6 2 7 1 8 78 9 79 10 93 11 80 12 81 13
REMARK SMILES IDX 92 14 94 15 82 16 83 17 84 18 85 19 86 20 87 21 91 22 88 23
REMARK SMILES IDX 90 24 89 25 9 26 10 27 11 28 12 29 13 30 14 31 15 32 16 33
REMARK SMILES IDX 77 34 17 35 76 36 18 37 19 38 20 39 70 40 21 41 75 42 69 43
REMARK SMILES IDX 71 44 22 45 74 46 68 47 67 48 23 50 55 51 35 52 54 53 36 54
REMARK SMILES IDX 39 55 53 56 72 57 37 58 38 59 52 61 73 62 40 63 24 64 25 65
REMARK SMILES IDX 33 66 26 67 27 68 31 69 34 70 28 71 29 72 32 73 30 74 56 75
REMARK SMILES IDX 57 76 65 77 58 78 59 79 63 80 66 81 60 82 61 83 64 84 62 85
REMARK SMILES IDX 41 86 42 87 50 88 43 89 44 90 48 91 51 92 45 93 46 94 49 95
REMARK SMILES IDX 47 96
REMARK H PARENT 71 49 39 60
REMARK Flexibility Score: inf
ROOT
ATOM      1  C   UNL A   1      29.879  29.830  23.483  1.00  0.00     0.202 C 
ENDROOT
BRANCH   1   2
ATOM      2  C   UNL A   1      30.344  28.890  22.361  1.00  0.00     0.261 C 
BRANCH   2   3
ATOM      3  O   UNL A   1      30.410  27.551  22.871  1.00  0.00    -0.462 OA
BRANCH   3   4
ATOM      4  C   UNL A   1      31.615  26.925  22.806  1.00  0.00     0.329 C 
ATOM      5  O   UNL A   1      32.194  26.622  21.771  1.00  0.00    -0.250 OA
BRANCH   4   6
ATOM      6  C   UNL A   1      32.216  26.747  24.217  1.00  0.00     0.201 C 
BRANCH   6   7
ATOM      7  C   UNL A   1      33.443  27.644  24.536  1.00  0.00     0.034 C 
ATOM      8  C   UNL A   1      33.820  28.629  23.432  1.00  0.00     0.007 C 
ENDBRANCH   6   7
BRANCH   6   9
ATOM      9  N   UNL A   1      32.461  25.318  24.582  1.00  0.00    -0.278 N 
ATOM     10  C   UNL A   1      33.565  24.611  24.112  1.00  0.00     0.266 C 
ATOM     11  C   UNL A   1      31.682  24.638  25.499  1.00  0.00     0.149 C 
ATOM     12  O   UNL A   1      34.439  25.029  23.368  1.00  0.00    -0.268 OA
ATOM     13  C   UNL A   1      33.577  23.212  24.652  1.00  0.00     0.080 C 
ATOM     14  S   UNL A   1      32.460  23.138  25.946  1.00  0.00    -0.054 SA
ATOM     15  S   UNL A   1      30.215  25.070  26.166  1.00  0.00    -0.052 S 
ATOM     16  C   UNL A   1      34.337  22.239  24.114  1.00  0.00     0.024 C 
BRANCH  16  17
ATOM     17  C   UNL A   1      34.519  20.811  24.452  1.00  0.00    -0.049 C 
ATOM     18  C   UNL A   1      35.825  20.501  25.154  1.00  0.00     0.044 C 
ATOM     19  C   UNL A   1      33.633  19.841  24.145  1.00  0.00     0.011 C 
BRANCH  19  20
ATOM     20  C   UNL A   1      33.601  18.406  24.484  1.00  0.00    -0.025 A 
ATOM     21  C   UNL A   1      32.565  17.956  25.318  1.00  0.00     0.008 A 
ATOM     22  C   UNL A   1      34.645  17.527  24.178  1.00  0.00     0.008 A 
ATOM     23  C   UNL A   1      32.566  16.655  25.826  1.00  0.00     0.001 A 
ATOM     24  C   UNL A   1      34.640  16.220  24.678  1.00  0.00     0.001 A 
ATOM     25  C   UNL A   1      33.607  15.788  25.506  1.00  0.00     0.000 A 
ENDBRANCH  19  20
ENDBRANCH  16  17
ENDBRANCH   6   9
ENDBRANCH   4   6
ENDBRANCH   3   4
ENDBRANCH   2   3
ENDBRANCH   1   2
BRANCH   1  26
ATOM     26  O   UNL A   1      30.765  29.985  24.595  1.00  0.00    -0.374 OA
BRANCH  26  27
ATOM     27  C   UNL A   1      30.751  31.234  25.284  1.00  0.00     0.202 C 
BRANCH  27  28
ATOM     28  C   UNL A   1      31.348  31.236  26.696  1.00  0.00     0.261 C 
BRANCH  28  29
ATOM     29  O   UNL A   1      32.781  31.100  26.687  1.00  0.00    -0.460 OA
BRANCH  29  30
ATOM     30  C   UNL A   1      33.438  32.096  27.323  1.00  0.00     0.338 C 
ATOM     31  O   UNL A   1      33.013  33.210  27.604  1.00  0.00    -0.246 OA
BRANCH  30  32
ATOM     32  C   UNL A   1      34.749  31.629  27.802  1.00  0.00     0.060 A 
ATOM     33  C   UNL A   1      34.847  30.287  28.191  1.00  0.00     0.016 A 
ATOM     34  C   UNL A   1      35.826  32.502  27.979  1.00  0.00     0.016 A 
ATOM     35  C   UNL A   1      36.005  29.824  28.809  1.00  0.00     0.010 A 
ATOM     36  C   UNL A   1      36.987  32.033  28.607  1.00  0.00     0.010 A 
ATOM     37  C   UNL A   1      37.067  30.704  29.059  1.00  0.00    -0.014 A 
BRANCH  37  38
ATOM     38  C   UNL A   1      38.187  30.255  29.924  1.00  0.00     0.031 A 
ATOM     39  C   UNL A   1      39.196  29.285  29.374  1.00  0.00     0.074 A 
ATOM     40  C   UNL A   1      38.337  30.752  31.165  1.00  0.00     0.049 A 
ATOM     41  N   UNL A   1      40.257  28.773  29.947  1.00  0.00    -0.248 NA
ATOM     42  C   UNL A   1      38.982  28.832  27.991  1.00  0.00     0.031 C 
ATOM     43  C   UNL A   1      37.451  31.728  31.795  1.00  0.00     0.029 A 
ATOM     44  N   UNL A   1      39.295  30.501  32.115  1.00  0.00    -0.354 N 
ATOM     45  C   UNL A   1      40.834  27.941  28.997  1.00  0.00     0.074 A 
ATOM     46  C   UNL A   1      39.989  27.988  27.823  1.00  0.00     0.031 C 
ATOM     47  C   UNL A   1      37.906  31.993  33.032  1.00  0.00     0.029 A 
ATOM     48  C   UNL A   1      39.097  31.184  33.289  1.00  0.00     0.049 A 
ATOM     49  H   UNL A   1      40.052  29.889  31.969  1.00  0.00     0.167 HD
ATOM     50  C   UNL A   1      41.972  27.212  29.090  1.00  0.00     0.037 A 
ATOM     51  C   UNL A   1      39.791  31.149  34.442  1.00  0.00     0.037 A 
ATOM     52  C   UNL A   1      42.814  27.166  30.257  1.00  0.00     0.049 A 
ATOM     53  C   UNL A   1      41.015  30.277  34.545  1.00  0.00     0.074 A 
ATOM     54  C   UNL A   1      43.996  26.470  30.444  1.00  0.00     0.029 A 
ATOM     55  N   UNL A   1      42.558  27.841  31.442  1.00  0.00    -0.354 N 
ATOM     56  N   UNL A   1      41.568  29.512  33.635  1.00  0.00    -0.248 NA
ATOM     57  C   UNL A   1      41.716  30.267  35.837  1.00  0.00     0.031 C 
ATOM     58  C   UNL A   1      44.429  26.683  31.757  1.00  0.00     0.029 A 
ATOM     59  C   UNL A   1      43.546  27.555  32.372  1.00  0.00     0.049 A 
ATOM     60  H   UNL A   1      41.789  28.434  31.599  1.00  0.00     0.167 HD
ATOM     61  C   UNL A   1      42.693  28.958  34.231  1.00  0.00     0.074 A 
ATOM     62  C   UNL A   1      42.752  29.483  35.579  1.00  0.00     0.031 C 
ATOM     63  C   UNL A   1      43.596  28.090  33.710  1.00  0.00     0.037 A 
BRANCH  50  64
ATOM     64  C   UNL A   1      42.363  26.383  27.902  1.00  0.00     0.064 A 
ATOM     65  C   UNL A   1      41.809  25.114  27.672  1.00  0.00     0.173 A 
ATOM     66  C   UNL A   1      43.281  26.877  26.963  1.00  0.00     0.173 A 
ATOM     67  F   UNL A   1      40.936  24.590  28.547  1.00  0.00    -0.203 F 
ATOM     68  C   UNL A   1      42.180  24.361  26.561  1.00  0.00     0.198 A 
ATOM     69  C   UNL A   1      43.628  26.133  25.839  1.00  0.00     0.198 A 
ATOM     70  F   UNL A   1      43.837  28.086  27.133  1.00  0.00    -0.203 F 
ATOM     71  F   UNL A   1      41.673  23.132  26.387  1.00  0.00    -0.200 F 
ATOM     72  C   UNL A   1      43.083  24.873  25.642  1.00  0.00     0.200 A 
ATOM     73  F   UNL A   1      44.492  26.635  24.945  1.00  0.00    -0.200 F 
ATOM     74  F   UNL A   1      43.434  24.150  24.570  1.00  0.00    -0.200 F 
ENDBRANCH  50  64
BRANCH  51  75
ATOM     75  C   UNL A   1      39.343  31.963  35.603  1.00  0.00     0.064 A 
ATOM     76  C   UNL A   1      38.479  31.432  36.570  1.00  0.00     0.173 A 
ATOM     77  C   UNL A   1      39.755  33.295  35.756  1.00  0.00     0.173 A 
ATOM     78  F   UNL A   1      38.036  30.171  36.453  1.00  0.00    -0.203 F 
ATOM     79  C   UNL A   1      38.029  32.208  37.637  1.00  0.00     0.198 A 
ATOM     80  C   UNL A   1      39.328  34.062  36.838  1.00  0.00     0.198 A 
ATOM     81  F   UNL A   1      40.579  33.852  34.855  1.00  0.00    -0.203 F 
ATOM     82  F   UNL A   1      37.166  31.691  38.521  1.00  0.00    -0.200 F 
ATOM     83  C   UNL A   1      38.460  33.519  37.773  1.00  0.00     0.200 A 
ATOM     84  F   UNL A   1      39.754  35.324  36.972  1.00  0.00    -0.200 F 
ATOM     85  F   UNL A   1      38.029  34.264  38.801  1.00  0.00    -0.200 F 
ENDBRANCH  51  75
BRANCH  63  86
ATOM     86  C   UNL A   1      44.747  27.684  34.585  1.00  0.00     0.064 A 
ATOM     87  C   UNL A   1      44.642  26.624  35.497  1.00  0.00     0.173 A 
ATOM     88  C   UNL A   1      45.983  28.344  34.485  1.00  0.00     0.173 A 
ATOM     89  F   UNL A   1      43.480  25.970  35.642  1.00  0.00    -0.203 F 
ATOM     90  C   UNL A   1      45.722  26.259  36.298  1.00  0.00     0.198 A 
ATOM     91  C   UNL A   1      47.068  27.955  35.264  1.00  0.00     0.198 A 
ATOM     92  F   UNL A   1      46.139  29.359  33.621  1.00  0.00    -0.203 F 
ATOM     93  F   UNL A   1      45.582  25.277  37.199  1.00  0.00    -0.200 F 
ATOM     94  C   UNL A   1      46.934  26.920  36.177  1.00  0.00     0.200 A 
ATOM     95  F   UNL A   1      48.244  28.586  35.135  1.00  0.00    -0.200 F 
ATOM     96  F   UNL A   1      47.974  26.564  36.945  1.00  0.00    -0.200 F 
ENDBRANCH  63  86
ENDBRANCH  37  38
ENDBRANCH  30  32
ENDBRANCH  29  30
ENDBRANCH  28  29
ENDBRANCH  27  28
ENDBRANCH  26  27
ENDBRANCH   1  26
TORSDOF 18
ENDMDL
MODEL 3
REMARK VINA RESULT:     -11.4      2.288      3.502
REMARK SMILES CC[C@@H](C(=O)OCCOCCOC(=O)c1ccc(-c2c3nc(c(-c4c(F)c(F)c(F)c(F)c4F)c4ccc([nH]4)c(-c4c(F)c(F)c(F)c(F)c4F)c4nc(c(-c5c(F)c(F)c(F)c(F)c5F)c5ccc2[nH]5)C=C4)C=C3)cc1)N1C(=O)/C(=C/C(C)=C/c2ccccc2)SC1=S
REMARK SMILES IDX 8 1 7 2 6 3 4 4 5 5 3 6 2 7 1 8 78 9 79 10 93 11 80 12 81 13
REMARK SMILES IDX 92 14 94 15 82 16 83 17 84 18 85 19 86 20 87 21 91 22 88 23
REMARK SMILES IDX 90 24 89 25 9 26 10 27 11 28 12 29 13 30 14 31 15 32 16 33
REMARK SMILES IDX 77 34 17 35 76 36 18 37 19 38 20 39 70 40 21 41 75 42 69 43
REMARK SMILES IDX 71 44 22 45 74 46 68 47 67 48 23 50 55 51 35 52 54 53 36 54
REMARK SMILES IDX 39 55 53 56 72 57 37 58 38 59 52 61 73 62 40 63 24 64 25 65
REMARK SMILES IDX 33 66 26 67 27 68 31 69 34 70 28 71 29 72 32 73 30 74 56 75
REMARK SMILES IDX 57 76 65 77 58 78 59 79 63 80 66 81 60 82 61 83 64 84 62 85
REMARK SMILES IDX 41 86 42 87 50 88 43 89 44 90 48 91 51 92 45 93 46 94 49 95
REMARK SMILES IDX 47 96
REMARK H PARENT 71 49 39 60
REMARK Flexibility Score: inf
ROOT
ATOM      1  C   UNL A   1      30.311  29.843  23.833  1.00  0.00     0.202 C 
ENDROOT
BRANCH   1   2
ATOM      2  C   UNL A   1      30.277  28.310  23.915  1.00  0.00     0.261 C 
BRANCH   2   3
ATOM      3  O   UNL A   1      30.507  27.767  22.607  1.00  0.00    -0.462 OA
BRANCH   3   4
ATOM      4  C   UNL A   1      31.503  26.850  22.486  1.00  0.00     0.329 C 
ATOM      5  O   UNL A   1      31.737  26.196  21.477  1.00  0.00    -0.250 OA
BRANCH   4   6
ATOM      6  C   UNL A   1      32.380  26.824  23.756  1.00  0.00     0.201 C 
BRANCH   6   7
ATOM      7  C   UNL A   1      33.680  27.671  23.686  1.00  0.00     0.034 C 
ATOM      8  C   UNL A   1      33.873  28.440  22.382  1.00  0.00     0.007 C 
ENDBRANCH   6   7
BRANCH   6   9
ATOM      9  N   UNL A   1      32.642  25.444  24.268  1.00  0.00    -0.278 N 
ATOM     10  C   UNL A   1      33.641  24.632  23.737  1.00  0.00     0.266 C 
ATOM     11  C   UNL A   1      31.997  24.924  25.374  1.00  0.00     0.149 C 
ATOM     12  O   UNL A   1      34.400  24.911  22.821  1.00  0.00    -0.268 OA
ATOM     13  C   UNL A   1      33.700  23.315  24.450  1.00  0.00     0.080 C 
ATOM     14  S   UNL A   1      32.795  23.459  25.896  1.00  0.00    -0.054 SA
ATOM     15  S   UNL A   1      30.663  25.504  26.190  1.00  0.00    -0.052 S 
ATOM     16  C   UNL A   1      34.343  22.247  23.940  1.00  0.00     0.024 C 
BRANCH  16  17
ATOM     17  C   UNL A   1      34.537  20.868  24.435  1.00  0.00    -0.049 C 
ATOM     18  C   UNL A   1      35.846  20.650  25.167  1.00  0.00     0.044 C 
ATOM     19  C   UNL A   1      33.661  19.861  24.237  1.00  0.00     0.011 C 
BRANCH  19  20
ATOM     20  C   UNL A   1      33.642  18.473  24.733  1.00  0.00    -0.025 A 
ATOM     21  C   UNL A   1      34.657  17.608  24.291  1.00  0.00     0.008 A 
ATOM     22  C   UNL A   1      32.572  17.934  25.455  1.00  0.00     0.008 A 
ATOM     23  C   UNL A   1      34.608  16.241  24.571  1.00  0.00     0.001 A 
ATOM     24  C   UNL A   1      32.529  16.567  25.746  1.00  0.00     0.001 A 
ATOM     25  C   UNL A   1      33.541  15.721  25.299  1.00  0.00     0.000 A 
ENDBRANCH  19  20
ENDBRANCH  16  17
ENDBRANCH   6   9
ENDBRANCH   4   6
ENDBRANCH   3   4
ENDBRANCH   2   3
ENDBRANCH   1   2
BRANCH   1  26
ATOM     26  O   UNL A   1      30.775  30.535  24.996  1.00  0.00    -0.374 OA
BRANCH  26  27
ATOM     27  C   UNL A   1      31.766  29.894  25.797  1.00  0.00     0.202 C 
BRANCH  27  28
ATOM     28  C   UNL A   1      32.475  30.777  26.831  1.00  0.00     0.261 C 
BRANCH  28  29
ATOM     29  O   UNL A   1      33.515  30.072  27.534  1.00  0.00    -0.460 OA
BRANCH  29  30
ATOM     30  C   UNL A   1      34.435  30.873  28.116  1.00  0.00     0.338 C 
ATOM     31  O   UNL A   1      34.263  31.996  28.577  1.00  0.00    -0.246 OA
BRANCH  30  32
ATOM     32  C   UNL A   1      35.714  30.163  28.279  1.00  0.00     0.060 A 
ATOM     33  C   UNL A   1      36.008  29.660  29.553  1.00  0.00     0.016 A 
ATOM     34  C   UNL A   1      36.655  30.087  27.250  1.00  0.00     0.016 A 
ATOM     35  C   UNL A   1      37.267  29.129  29.819  1.00  0.00     0.010 A 
ATOM     36  C   UNL A   1      37.923  29.557  27.523  1.00  0.00     0.010 A 
ATOM     37  C   UNL A   1      38.246  29.112  28.817  1.00  0.00    -0.014 A 
BRANCH  37  38
ATOM     38  C   UNL A   1      39.643  28.765  29.180  1.00  0.00     0.031 A 
ATOM     39  C   UNL A   1      40.424  29.696  30.066  1.00  0.00     0.074 A 
ATOM     40  C   UNL A   1      40.189  27.605  28.775  1.00  0.00     0.049 A 
ATOM     41  N   UNL A   1      41.649  29.583  30.518  1.00  0.00    -0.248 NA
ATOM     42  C   UNL A   1      39.732  30.917  30.505  1.00  0.00     0.031 C 
ATOM     43  C   UNL A   1      39.521  26.601  27.950  1.00  0.00     0.029 A 
ATOM     44  N   UNL A   1      41.435  27.077  29.007  1.00  0.00    -0.354 N 
ATOM     45  C   UNL A   1      41.871  30.715  31.290  1.00  0.00     0.074 A 
ATOM     46  C   UNL A   1      40.670  31.520  31.219  1.00  0.00     0.031 C 
ATOM     47  C   UNL A   1      40.365  25.577  27.741  1.00  0.00     0.029 A 
ATOM     48  C   UNL A   1      41.641  25.866  28.394  1.00  0.00     0.049 A 
ATOM     49  H   UNL A   1      42.115  27.524  29.560  1.00  0.00     0.167 HD
ATOM     50  C   UNL A   1      42.974  31.050  32.003  1.00  0.00     0.037 A 
ATOM     51  C   UNL A   1      42.740  25.089  28.355  1.00  0.00     0.037 A 
ATOM     52  C   UNL A   1      44.168  30.249  32.076  1.00  0.00     0.049 A 
ATOM     53  C   UNL A   1      43.978  25.516  29.100  1.00  0.00     0.074 A 
ATOM     54  C   UNL A   1      45.332  30.495  32.784  1.00  0.00     0.029 A 
ATOM     55  N   UNL A   1      44.355  29.048  31.408  1.00  0.00    -0.354 N 
ATOM     56  N   UNL A   1      44.172  26.575  29.848  1.00  0.00    -0.248 NA
ATOM     57  C   UNL A   1      45.149  24.634  29.000  1.00  0.00     0.031 C 
ATOM     58  C   UNL A   1      46.241  29.469  32.506  1.00  0.00     0.029 A 
ATOM     59  C   UNL A   1      45.625  28.554  31.667  1.00  0.00     0.049 A 
ATOM     60  H   UNL A   1      43.685  28.611  30.835  1.00  0.00     0.167 HD
ATOM     61  C   UNL A   1      45.470  26.472  30.329  1.00  0.00     0.074 A 
ATOM     62  C   UNL A   1      46.015  25.239  29.799  1.00  0.00     0.031 C 
ATOM     63  C   UNL A   1      46.152  27.322  31.138  1.00  0.00     0.037 A 
BRANCH  50  64
ATOM     64  C   UNL A   1      42.948  32.353  32.748  1.00  0.00     0.064 A 
ATOM     65  C   UNL A   1      43.370  33.552  32.152  1.00  0.00     0.173 A 
ATOM     66  C   UNL A   1      42.467  32.409  34.064  1.00  0.00     0.173 A 
ATOM     67  F   UNL A   1      43.850  33.550  30.899  1.00  0.00    -0.203 F 
ATOM     68  C   UNL A   1      43.334  34.753  32.856  1.00  0.00     0.198 A 
ATOM     69  C   UNL A   1      42.407  33.615  34.755  1.00  0.00     0.198 A 
ATOM     70  F   UNL A   1      42.048  31.292  34.679  1.00  0.00    -0.203 F 
ATOM     71  F   UNL A   1      43.784  35.878  32.283  1.00  0.00    -0.200 F 
ATOM     72  C   UNL A   1      42.846  34.785  34.154  1.00  0.00     0.200 A 
ATOM     73  F   UNL A   1      41.924  33.647  36.006  1.00  0.00    -0.200 F 
ATOM     74  F   UNL A   1      42.807  35.943  34.828  1.00  0.00    -0.200 F 
ENDBRANCH  50  64
BRANCH  51  75
ATOM     75  C   UNL A   1      42.726  23.823  27.574  1.00  0.00     0.064 A 
ATOM     76  C   UNL A   1      43.116  23.797  26.228  1.00  0.00     0.173 A 
ATOM     77  C   UNL A   1      42.303  22.618  28.155  1.00  0.00     0.173 A 
ATOM     78  F   UNL A   1      43.502  24.929  25.621  1.00  0.00    -0.203 F 
ATOM     79  C   UNL A   1      43.066  22.618  25.488  1.00  0.00     0.198 A 
ATOM     80  C   UNL A   1      42.280  21.434  27.422  1.00  0.00     0.198 A 
ATOM     81  F   UNL A   1      41.917  22.591  29.440  1.00  0.00    -0.203 F 
ATOM     82  F   UNL A   1      43.398  22.630  24.190  1.00  0.00    -0.200 F 
ATOM     83  C   UNL A   1      42.655  21.437  26.087  1.00  0.00     0.200 A 
ATOM     84  F   UNL A   1      41.893  20.293  28.008  1.00  0.00    -0.200 F 
ATOM     85  F   UNL A   1      42.609  20.303  25.375  1.00  0.00    -0.200 F 
ENDBRANCH  51  75
BRANCH  63  86
ATOM     86  C   UNL A   1      47.548  26.931  31.531  1.00  0.00     0.064 A 
ATOM     87  C   UNL A   1      47.801  26.131  32.655  1.00  0.00     0.173 A 
ATOM     88  C   UNL A   1      48.644  27.336  30.753  1.00  0.00     0.173 A 
ATOM     89  F   UNL A   1      46.790  25.730  33.440  1.00  0.00    -0.203 F 
ATOM     90  C   UNL A   1      49.102  25.776  33.002  1.00  0.00     0.198 A 
ATOM     91  C   UNL A   1      49.940  26.953  31.086  1.00  0.00     0.198 A 
ATOM     92  F   UNL A   1      48.456  28.095  29.663  1.00  0.00    -0.203 F 
ATOM     93  F   UNL A   1      49.324  25.054  34.109  1.00  0.00    -0.200 F 
ATOM     94  C   UNL A   1      50.169  26.181  32.215  1.00  0.00     0.200 A 
ATOM     95  F   UNL A   1      50.969  27.333  30.315  1.00  0.00    -0.200 F 
ATOM     96  F   UNL A   1      51.421  25.834  32.548  1.00  0.00    -0.200 F 
ENDBRANCH  63  86
ENDBRANCH  37  38
ENDBRANCH  30  32
ENDBRANCH  29  30
ENDBRANCH  28  29
ENDBRANCH  27  28
ENDBRANCH  26  27
ENDBRANCH   1  26
TORSDOF 18
ENDMDL
