MODEL 1
REMARK VINA RESULT:     -11.3      0.000      0.000
REMARK SMILES CCOc1cc(OCC)cc(-c2ccc([C@@H](C)C(=O)OCCOCCOC(=O)c3ccc(-c4c5nc(c(-c6c(F)c(F)c(F)c(F)c6F)c6ccc([nH]6)c(-c6c(F)c(F)c(F)c(F)c6F)c6nc(c(-c7c(F)c(F)c(F)c(F)c7F)c7ccc4[nH]7)C=C6)C=C5)cc3)cc2F)c1
REMARK SMILES IDX 22 1 21 2 20 3 18 4 19 5 16 6 17 7 15 8 12 9 13 10 93 11
REMARK SMILES IDX 14 12 92 13 94 14 11 15 4 16 5 17 95 18 6 19 10 20 3 21 2 22
REMARK SMILES IDX 1 23 7 24 8 25 9 26 23 27 24 28 25 29 26 30 27 31 28 32
REMARK SMILES IDX 29 33 30 34 91 35 31 36 90 37 32 38 33 39 34 40 84 41 35 42
REMARK SMILES IDX 89 43 83 44 85 45 36 46 88 47 82 48 81 49 37 51 69 52 49 53
REMARK SMILES IDX 68 54 50 55 53 56 67 57 86 58 51 59 52 60 66 62 87 63 54 64
REMARK SMILES IDX 38 65 39 66 47 67 40 68 41 69 45 70 48 71 42 72 43 73 46 74
REMARK SMILES IDX 44 75 70 76 71 77 79 78 72 79 73 80 77 81 80 82 74 83 75 84
REMARK SMILES IDX 78 85 76 86 55 87 56 88 64 89 57 90 58 91 62 92 65 93 59 94
REMARK SMILES IDX 60 95 63 96 61 97
REMARK H PARENT 85 50 53 61
REMARK Flexibility Score: inf
ROOT
ATOM      1  C   UNL A   1      36.408  21.991  25.581  1.00  0.00     0.202 C 
ENDROOT
BRANCH   1   2
ATOM      2  C   UNL A   1      35.341  20.926  25.313  1.00  0.00     0.261 C 
BRANCH   2   3
ATOM      3  O   UNL A   1      34.048  21.533  25.136  1.00  0.00    -0.463 OA
BRANCH   3   4
ATOM      4  C   UNL A   1      33.012  20.683  24.911  1.00  0.00     0.313 C 
ATOM      5  O   UNL A   1      32.954  19.534  25.340  1.00  0.00    -0.252 OA
BRANCH   4   6
ATOM      6  C   UNL A   1      31.922  21.265  24.025  1.00  0.00     0.126 C 
ATOM      7  C   UNL A   1      32.165  20.840  22.580  1.00  0.00     0.025 C 
BRANCH   6   8
ATOM      8  C   UNL A   1      31.650  22.761  24.134  1.00  0.00    -0.031 A 
ATOM      9  C   UNL A   1      31.354  25.587  24.385  1.00  0.00     0.018 A 
ATOM     10  C   UNL A   1      30.765  24.707  25.309  1.00  0.00     0.012 A 
ATOM     11  C   UNL A   1      32.054  25.019  23.315  1.00  0.00     0.131 A 
ATOM     12  C   UNL A   1      30.912  23.319  25.188  1.00  0.00     0.005 A 
ATOM     13  C   UNL A   1      32.202  23.637  23.185  1.00  0.00     0.044 A 
ATOM     14  F   UNL A   1      32.635  25.802  22.394  1.00  0.00    -0.206 F 
BRANCH   9  15
ATOM     15  C   UNL A   1      31.260  27.045  24.571  1.00  0.00    -0.008 A 
ATOM     16  C   UNL A   1      31.804  29.073  25.791  1.00  0.00     0.123 A 
ATOM     17  C   UNL A   1      31.066  29.834  24.886  1.00  0.00     0.092 A 
ATOM     18  C   UNL A   1      31.879  27.688  25.649  1.00  0.00     0.055 A 
ATOM     19  C   UNL A   1      30.408  29.214  23.823  1.00  0.00     0.123 A 
ATOM     20  C   UNL A   1      30.518  27.829  23.667  1.00  0.00     0.055 A 
BRANCH  16  21
ATOM     21  O   UNL A   1      32.335  29.706  26.881  1.00  0.00    -0.494 OA
BRANCH  21  22
ATOM     22  C   UNL A   1      33.677  30.167  26.679  1.00  0.00     0.226 C 
ATOM     23  C   UNL A   1      34.662  29.439  27.582  1.00  0.00     0.049 C 
ENDBRANCH  21  22
ENDBRANCH  16  21
BRANCH  19  24
ATOM     24  O   UNL A   1      29.714  30.050  22.992  1.00  0.00    -0.494 OA
BRANCH  24  25
ATOM     25  C   UNL A   1      29.118  31.216  23.565  1.00  0.00     0.226 C 
ATOM     26  C   UNL A   1      27.609  31.063  23.667  1.00  0.00     0.049 C 
ENDBRANCH  24  25
ENDBRANCH  19  24
ENDBRANCH   9  15
ENDBRANCH   6   8
ENDBRANCH   4   6
ENDBRANCH   3   4
ENDBRANCH   2   3
ENDBRANCH   1   2
BRANCH   1  27
ATOM     27  O   UNL A   1      37.757  21.579  25.364  1.00  0.00    -0.374 OA
BRANCH  27  28
ATOM     28  C   UNL A   1      37.976  20.205  25.044  1.00  0.00     0.202 C 
BRANCH  28  29
ATOM     29  C   UNL A   1      39.243  19.575  25.632  1.00  0.00     0.261 C 
BRANCH  29  30
ATOM     30  O   UNL A   1      40.294  20.542  25.809  1.00  0.00    -0.460 OA
BRANCH  30  31
ATOM     31  C   UNL A   1      40.870  20.539  27.031  1.00  0.00     0.338 C 
ATOM     32  O   UNL A   1      41.308  19.573  27.646  1.00  0.00    -0.246 OA
BRANCH  31  33
ATOM     33  C   UNL A   1      41.070  21.919  27.509  1.00  0.00     0.060 A 
ATOM     34  C   UNL A   1      40.412  22.941  26.812  1.00  0.00     0.016 A 
ATOM     35  C   UNL A   1      41.948  22.223  28.552  1.00  0.00     0.016 A 
ATOM     36  C   UNL A   1      40.674  24.275  27.116  1.00  0.00     0.010 A 
ATOM     37  C   UNL A   1      42.216  23.566  28.851  1.00  0.00     0.010 A 
ATOM     38  C   UNL A   1      41.611  24.596  28.108  1.00  0.00    -0.014 A 
BRANCH  38  39
ATOM     39  C   UNL A   1      42.060  26.003  28.247  1.00  0.00     0.031 A 
ATOM     40  C   UNL A   1      43.385  26.408  27.658  1.00  0.00     0.074 A 
ATOM     41  C   UNL A   1      41.278  26.923  28.837  1.00  0.00     0.049 A 
ATOM     42  N   UNL A   1      43.967  27.581  27.647  1.00  0.00    -0.248 NA
ATOM     43  C   UNL A   1      44.155  25.348  26.989  1.00  0.00     0.031 C 
ATOM     44  C   UNL A   1      39.959  26.666  29.409  1.00  0.00     0.029 A 
ATOM     45  N   UNL A   1      41.484  28.264  29.049  1.00  0.00    -0.354 N 
ATOM     46  C   UNL A   1      45.168  27.400  26.975  1.00  0.00     0.074 A 
ATOM     47  C   UNL A   1      45.248  25.999  26.619  1.00  0.00     0.031 C 
ATOM     48  C   UNL A   1      39.473  27.814  29.914  1.00  0.00     0.029 A 
ATOM     49  C   UNL A   1      40.457  28.878  29.722  1.00  0.00     0.049 A 
ATOM     50  H   UNL A   1      42.291  28.740  28.748  1.00  0.00     0.167 HD
ATOM     51  C   UNL A   1      46.114  28.321  26.668  1.00  0.00     0.037 A 
ATOM     52  C   UNL A   1      40.334  30.152  30.145  1.00  0.00     0.037 A 
ATOM     53  C   UNL A   1      46.036  29.715  27.016  1.00  0.00     0.049 A 
ATOM     54  C   UNL A   1      41.429  31.142  29.847  1.00  0.00     0.074 A 
ATOM     55  C   UNL A   1      46.936  30.728  26.734  1.00  0.00     0.029 A 
ATOM     56  N   UNL A   1      44.996  30.292  27.731  1.00  0.00    -0.354 N 
ATOM     57  N   UNL A   1      42.547  30.968  29.187  1.00  0.00    -0.248 NA
ATOM     58  C   UNL A   1      41.240  32.510  30.352  1.00  0.00     0.031 C 
ATOM     59  C   UNL A   1      46.463  31.908  27.318  1.00  0.00     0.029 A 
ATOM     60  C   UNL A   1      45.245  31.641  27.920  1.00  0.00     0.049 A 
ATOM     61  H   UNL A   1      44.199  29.812  28.055  1.00  0.00     0.167 HD
ATOM     62  C   UNL A   1      43.181  32.204  29.172  1.00  0.00     0.074 A 
ATOM     63  C   UNL A   1      42.315  33.125  29.879  1.00  0.00     0.031 C 
ATOM     64  C   UNL A   1      44.372  32.547  28.621  1.00  0.00     0.037 A 
BRANCH  51  65
ATOM     65  C   UNL A   1      47.332  27.841  25.934  1.00  0.00     0.064 A 
ATOM     66  C   UNL A   1      48.499  27.462  26.611  1.00  0.00     0.173 A 
ATOM     67  C   UNL A   1      47.317  27.728  24.535  1.00  0.00     0.173 A 
ATOM     68  F   UNL A   1      48.567  27.566  27.948  1.00  0.00    -0.203 F 
ATOM     69  C   UNL A   1      49.616  27.008  25.915  1.00  0.00     0.198 A 
ATOM     70  C   UNL A   1      48.427  27.249  23.843  1.00  0.00     0.198 A 
ATOM     71  F   UNL A   1      46.223  28.074  23.839  1.00  0.00    -0.203 F 
ATOM     72  F   UNL A   1      50.736  26.692  26.580  1.00  0.00    -0.200 F 
ATOM     73  C   UNL A   1      49.577  26.896  24.533  1.00  0.00     0.200 A 
ATOM     74  F   UNL A   1      48.383  27.131  22.509  1.00  0.00    -0.200 F 
ATOM     75  F   UNL A   1      50.651  26.454  23.865  1.00  0.00    -0.200 F 
ENDBRANCH  51  65
BRANCH  52  76
ATOM     76  C   UNL A   1      39.125  30.566  30.903  1.00  0.00     0.064 A 
ATOM     77  C   UNL A   1      39.076  30.466  32.300  1.00  0.00     0.173 A 
ATOM     78  C   UNL A   1      37.987  31.051  30.242  1.00  0.00     0.173 A 
ATOM     79  F   UNL A   1      40.130  29.983  32.974  1.00  0.00    -0.203 F 
ATOM     80  C   UNL A   1      37.928  30.820  33.007  1.00  0.00     0.198 A 
ATOM     81  C   UNL A   1      36.849  31.429  30.951  1.00  0.00     0.198 A 
ATOM     82  F   UNL A   1      37.982  31.162  28.906  1.00  0.00    -0.203 F 
ATOM     83  F   UNL A   1      37.891  30.673  34.338  1.00  0.00    -0.200 F 
ATOM     84  C   UNL A   1      36.818  31.306  32.333  1.00  0.00     0.200 A 
ATOM     85  F   UNL A   1      35.783  31.909  30.296  1.00  0.00    -0.200 F 
ATOM     86  F   UNL A   1      35.715  31.649  33.012  1.00  0.00    -0.200 F 
ENDBRANCH  52  76
BRANCH  64  87
ATOM     87  C   UNL A   1      44.795  33.982  28.733  1.00  0.00     0.064 A 
ATOM     88  C   UNL A   1      45.630  34.427  29.767  1.00  0.00     0.173 A 
ATOM     89  C   UNL A   1      44.388  34.920  27.770  1.00  0.00     0.173 A 
ATOM     90  F   UNL A   1      46.035  33.574  30.721  1.00  0.00    -0.203 F 
ATOM     91  C   UNL A   1      46.021  35.760  29.850  1.00  0.00     0.198 A 
ATOM     92  C   UNL A   1      44.804  36.246  27.839  1.00  0.00     0.198 A 
ATOM     93  F   UNL A   1      43.594  34.545  26.755  1.00  0.00    -0.203 F 
ATOM     94  F   UNL A   1      46.782  36.172  30.874  1.00  0.00    -0.200 F 
ATOM     95  C   UNL A   1      45.614  36.667  28.882  1.00  0.00     0.200 A 
ATOM     96  F   UNL A   1      44.420  37.118  26.897  1.00  0.00    -0.200 F 
ATOM     97  F   UNL A   1      45.996  37.949  28.960  1.00  0.00    -0.200 F 
ENDBRANCH  64  87
ENDBRANCH  38  39
ENDBRANCH  31  33
ENDBRANCH  30  31
ENDBRANCH  29  30
ENDBRANCH  28  29
ENDBRANCH  27  28
ENDBRANCH   1  27
TORSDOF 20
ENDMDL
MODEL 2
REMARK VINA RESULT:     -11.2      4.157     10.574
REMARK SMILES CCOc1cc(OCC)cc(-c2ccc([C@@H](C)C(=O)OCCOCCOC(=O)c3ccc(-c4c5nc(c(-c6c(F)c(F)c(F)c(F)c6F)c6ccc([nH]6)c(-c6c(F)c(F)c(F)c(F)c6F)c6nc(c(-c7c(F)c(F)c(F)c(F)c7F)c7ccc4[nH]7)C=C6)C=C5)cc3)cc2F)c1
REMARK SMILES IDX 22 1 21 2 20 3 18 4 19 5 16 6 17 7 15 8 12 9 13 10 93 11
REMARK SMILES IDX 14 12 92 13 94 14 11 15 4 16 5 17 95 18 6 19 10 20 3 21 2 22
REMARK SMILES IDX 1 23 7 24 8 25 9 26 23 27 24 28 25 29 26 30 27 31 28 32
REMARK SMILES IDX 29 33 30 34 91 35 31 36 90 37 32 38 33 39 34 40 84 41 35 42
REMARK SMILES IDX 89 43 83 44 85 45 36 46 88 47 82 48 81 49 37 51 69 52 49 53
REMARK SMILES IDX 68 54 50 55 53 56 67 57 86 58 51 59 52 60 66 62 87 63 54 64
REMARK SMILES IDX 38 65 39 66 47 67 40 68 41 69 45 70 48 71 42 72 43 73 46 74
REMARK SMILES IDX 44 75 70 76 71 77 79 78 72 79 73 80 77 81 80 82 74 83 75 84
REMARK SMILES IDX 78 85 76 86 55 87 56 88 64 89 57 90 58 91 62 92 65 93 59 94
REMARK SMILES IDX 60 95 63 96 61 97
REMARK H PARENT 85 50 53 61
REMARK Flexibility Score: inf
ROOT
ATOM      1  C   UNL A   1      31.833  29.639  25.701  1.00  0.00     0.202 C 
ENDROOT
BRANCH   1   2
ATOM      2  C   UNL A   1      31.577  29.268  24.238  1.00  0.00     0.261 C 
BRANCH   2   3
ATOM      3  O   UNL A   1      30.226  28.804  24.058  1.00  0.00    -0.463 OA
BRANCH   3   4
ATOM      4  C   UNL A   1      29.972  28.128  22.907  1.00  0.00     0.313 C 
ATOM      5  O   UNL A   1      30.014  28.627  21.787  1.00  0.00    -0.252 OA
BRANCH   4   6
ATOM      6  C   UNL A   1      29.574  26.676  23.125  1.00  0.00     0.126 C 
ATOM      7  C   UNL A   1      28.413  26.613  24.114  1.00  0.00     0.025 C 
BRANCH   6   8
ATOM      8  C   UNL A   1      30.678  25.690  23.488  1.00  0.00    -0.031 A 
ATOM      9  C   UNL A   1      32.660  23.709  24.020  1.00  0.00     0.018 A 
ATOM     10  C   UNL A   1      31.687  24.044  24.978  1.00  0.00     0.012 A 
ATOM     11  C   UNL A   1      32.642  24.416  22.814  1.00  0.00     0.131 A 
ATOM     12  C   UNL A   1      30.712  25.015  24.717  1.00  0.00     0.005 A 
ATOM     13  C   UNL A   1      31.675  25.388  22.546  1.00  0.00     0.044 A 
ATOM     14  F   UNL A   1      33.545  24.150  21.858  1.00  0.00    -0.206 F 
BRANCH   9  15
ATOM     15  C   UNL A   1      33.627  22.629  24.278  1.00  0.00    -0.008 A 
ATOM     16  C   UNL A   1      35.905  21.835  24.559  1.00  0.00     0.123 A 
ATOM     17  C   UNL A   1      35.443  20.539  24.783  1.00  0.00     0.092 A 
ATOM     18  C   UNL A   1      35.007  22.865  24.283  1.00  0.00     0.055 A 
ATOM     19  C   UNL A   1      34.075  20.268  24.746  1.00  0.00     0.123 A 
ATOM     20  C   UNL A   1      33.179  21.314  24.505  1.00  0.00     0.055 A 
BRANCH  16  21
ATOM     21  O   UNL A   1      37.257  22.033  24.489  1.00  0.00    -0.494 OA
BRANCH  21  22
ATOM     22  C   UNL A   1      37.879  22.198  25.769  1.00  0.00     0.226 C 
ATOM     23  C   UNL A   1      38.045  23.668  26.127  1.00  0.00     0.049 C 
ENDBRANCH  21  22
ENDBRANCH  16  21
BRANCH  19  24
ATOM     24  O   UNL A   1      33.726  18.967  24.982  1.00  0.00    -0.494 OA
BRANCH  24  25
ATOM     25  C   UNL A   1      32.979  18.284  23.973  1.00  0.00     0.226 C 
ATOM     26  C   UNL A   1      33.818  17.202  23.312  1.00  0.00     0.049 C 
ENDBRANCH  24  25
ENDBRANCH  19  24
ENDBRANCH   9  15
ENDBRANCH   6   8
ENDBRANCH   4   6
ENDBRANCH   3   4
ENDBRANCH   2   3
ENDBRANCH   1   2
BRANCH   1  27
ATOM     27  O   UNL A   1      31.466  30.968  26.072  1.00  0.00    -0.374 OA
BRANCH  27  28
ATOM     28  C   UNL A   1      32.246  31.601  27.086  1.00  0.00     0.202 C 
BRANCH  28  29
ATOM     29  C   UNL A   1      32.170  33.131  27.131  1.00  0.00     0.261 C 
BRANCH  29  30
ATOM     30  O   UNL A   1      32.570  33.653  28.411  1.00  0.00    -0.460 OA
BRANCH  30  31
ATOM     31  C   UNL A   1      33.710  34.378  28.398  1.00  0.00     0.338 C 
ATOM     32  O   UNL A   1      33.818  35.595  28.296  1.00  0.00    -0.246 OA
BRANCH  31  33
ATOM     33  C   UNL A   1      34.869  33.518  28.695  1.00  0.00     0.060 A 
ATOM     34  C   UNL A   1      34.636  32.368  29.462  1.00  0.00     0.016 A 
ATOM     35  C   UNL A   1      36.168  33.865  28.315  1.00  0.00     0.016 A 
ATOM     36  C   UNL A   1      35.707  31.594  29.903  1.00  0.00     0.010 A 
ATOM     37  C   UNL A   1      37.243  33.089  28.766  1.00  0.00     0.010 A 
ATOM     38  C   UNL A   1      37.019  31.974  29.595  1.00  0.00    -0.014 A 
BRANCH  38  39
ATOM     39  C   UNL A   1      38.147  31.288  30.274  1.00  0.00     0.031 A 
ATOM     40  C   UNL A   1      38.437  31.612  31.714  1.00  0.00     0.074 A 
ATOM     41  C   UNL A   1      38.867  30.348  29.638  1.00  0.00     0.049 A 
ATOM     42  N   UNL A   1      39.359  31.125  32.507  1.00  0.00    -0.248 NA
ATOM     43  C   UNL A   1      37.570  32.618  32.347  1.00  0.00     0.031 C 
ATOM     44  C   UNL A   1      38.660  29.916  28.258  1.00  0.00     0.029 A 
ATOM     45  N   UNL A   1      39.921  29.585  30.076  1.00  0.00    -0.354 N 
ATOM     46  C   UNL A   1      39.183  31.765  33.728  1.00  0.00     0.074 A 
ATOM     47  C   UNL A   1      38.088  32.698  33.563  1.00  0.00     0.031 C 
ATOM     48  C   UNL A   1      39.562  28.966  27.959  1.00  0.00     0.029 A 
ATOM     49  C   UNL A   1      40.426  28.742  29.118  1.00  0.00     0.049 A 
ATOM     50  H   UNL A   1      40.281  29.638  30.991  1.00  0.00     0.167 HD
ATOM     51  C   UNL A   1      39.863  31.582  34.885  1.00  0.00     0.037 A 
ATOM     52  C   UNL A   1      41.474  27.897  29.168  1.00  0.00     0.037 A 
ATOM     53  C   UNL A   1      40.949  30.653  35.052  1.00  0.00     0.049 A 
ATOM     54  C   UNL A   1      42.256  27.759  30.449  1.00  0.00     0.074 A 
ATOM     55  C   UNL A   1      41.689  30.384  36.191  1.00  0.00     0.029 A 
ATOM     56  N   UNL A   1      41.456  29.843  34.047  1.00  0.00    -0.354 N 
ATOM     57  N   UNL A   1      42.065  28.348  31.603  1.00  0.00    -0.248 NA
ATOM     58  C   UNL A   1      43.398  26.833  30.431  1.00  0.00     0.031 C 
ATOM     59  C   UNL A   1      42.673  29.445  35.863  1.00  0.00     0.029 A 
ATOM     60  C   UNL A   1      42.515  29.093  34.532  1.00  0.00     0.049 A 
ATOM     61  H   UNL A   1      41.114  29.807  33.124  1.00  0.00     0.167 HD
ATOM     62  C   UNL A   1      43.040  27.845  32.456  1.00  0.00     0.074 A 
ATOM     63  C   UNL A   1      43.815  26.893  31.688  1.00  0.00     0.031 C 
ATOM     64  C   UNL A   1      43.273  28.145  33.758  1.00  0.00     0.037 A 
BRANCH  51  65
ATOM     65  C   UNL A   1      39.464  32.425  36.061  1.00  0.00     0.064 A 
ATOM     66  C   UNL A   1      38.470  32.012  36.959  1.00  0.00     0.173 A 
ATOM     67  C   UNL A   1      40.111  33.645  36.310  1.00  0.00     0.173 A 
ATOM     68  F   UNL A   1      37.813  30.859  36.755  1.00  0.00    -0.203 F 
ATOM     69  C   UNL A   1      38.120  32.801  38.052  1.00  0.00     0.198 A 
ATOM     70  C   UNL A   1      39.777  34.419  37.418  1.00  0.00     0.198 A 
ATOM     71  F   UNL A   1      41.072  34.083  35.483  1.00  0.00    -0.203 F 
ATOM     72  F   UNL A   1      37.136  32.408  38.873  1.00  0.00    -0.200 F 
ATOM     73  C   UNL A   1      38.778  34.000  38.284  1.00  0.00     0.200 A 
ATOM     74  F   UNL A   1      40.421  35.572  37.648  1.00  0.00    -0.200 F 
ATOM     75  F   UNL A   1      38.443  34.755  39.339  1.00  0.00    -0.200 F 
ENDBRANCH  51  65
BRANCH  52  76
ATOM     76  C   UNL A   1      41.853  27.115  27.963  1.00  0.00     0.064 A 
ATOM     77  C   UNL A   1      42.703  27.652  26.987  1.00  0.00     0.173 A 
ATOM     78  C   UNL A   1      41.354  25.821  27.755  1.00  0.00     0.173 A 
ATOM     79  F   UNL A   1      43.184  28.896  27.130  1.00  0.00    -0.203 F 
ATOM     80  C   UNL A   1      43.027  26.931  25.839  1.00  0.00     0.198 A 
ATOM     81  C   UNL A   1      41.699  25.090  26.620  1.00  0.00     0.198 A 
ATOM     82  F   UNL A   1      40.533  25.263  28.657  1.00  0.00    -0.203 F 
ATOM     83  F   UNL A   1      43.806  27.485  24.900  1.00  0.00    -0.200 F 
ATOM     84  C   UNL A   1      42.530  25.649  25.659  1.00  0.00     0.200 A 
ATOM     85  F   UNL A   1      41.224  23.848  26.455  1.00  0.00    -0.200 F 
ATOM     86  F   UNL A   1      42.843  24.955  24.557  1.00  0.00    -0.200 F 
ENDBRANCH  52  76
BRANCH  64  87
ATOM     87  C   UNL A   1      44.390  27.413  34.445  1.00  0.00     0.064 A 
ATOM     88  C   UNL A   1      45.687  27.940  34.507  1.00  0.00     0.173 A 
ATOM     89  C   UNL A   1      44.150  26.184  35.079  1.00  0.00     0.173 A 
ATOM     90  F   UNL A   1      45.973  29.105  33.904  1.00  0.00    -0.203 F 
ATOM     91  C   UNL A   1      46.709  27.253  35.157  1.00  0.00     0.198 A 
ATOM     92  C   UNL A   1      45.166  25.514  35.753  1.00  0.00     0.198 A 
ATOM     93  F   UNL A   1      42.923  25.639  35.055  1.00  0.00    -0.203 F 
ATOM     94  F   UNL A   1      47.953  27.754  35.164  1.00  0.00    -0.200 F 
ATOM     95  C   UNL A   1      46.446  26.045  35.785  1.00  0.00     0.200 A 
ATOM     96  F   UNL A   1      44.908  24.352  36.369  1.00  0.00    -0.200 F 
ATOM     97  F   UNL A   1      47.430  25.387  36.414  1.00  0.00    -0.200 F 
ENDBRANCH  64  87
ENDBRANCH  38  39
ENDBRANCH  31  33
ENDBRANCH  30  31
ENDBRANCH  29  30
ENDBRANCH  28  29
ENDBRANCH  27  28
ENDBRANCH   1  27
TORSDOF 20
ENDMDL
MODEL 3
REMARK VINA RESULT:     -11.0      0.425      2.121
REMARK SMILES CCOc1cc(OCC)cc(-c2ccc([C@@H](C)C(=O)OCCOCCOC(=O)c3ccc(-c4c5nc(c(-c6c(F)c(F)c(F)c(F)c6F)c6ccc([nH]6)c(-c6c(F)c(F)c(F)c(F)c6F)c6nc(c(-c7c(F)c(F)c(F)c(F)c7F)c7ccc4[nH]7)C=C6)C=C5)cc3)cc2F)c1
REMARK SMILES IDX 22 1 21 2 20 3 18 4 19 5 16 6 17 7 15 8 12 9 13 10 93 11
REMARK SMILES IDX 14 12 92 13 94 14 11 15 4 16 5 17 95 18 6 19 10 20 3 21 2 22
REMARK SMILES IDX 1 23 7 24 8 25 9 26 23 27 24 28 25 29 26 30 27 31 28 32
REMARK SMILES IDX 29 33 30 34 91 35 31 36 90 37 32 38 33 39 34 40 84 41 35 42
REMARK SMILES IDX 89 43 83 44 85 45 36 46 88 47 82 48 81 49 37 51 69 52 49 53
REMARK SMILES IDX 68 54 50 55 53 56 67 57 86 58 51 59 52 60 66 62 87 63 54 64
REMARK SMILES IDX 38 65 39 66 47 67 40 68 41 69 45 70 48 71 42 72 43 73 46 74
REMARK SMILES IDX 44 75 70 76 71 77 79 78 72 79 73 80 77 81 80 82 74 83 75 84
REMARK SMILES IDX 78 85 76 86 55 87 56 88 64 89 57 90 58 91 62 92 65 93 59 94
REMARK SMILES IDX 60 95 63 96 61 97
REMARK H PARENT 85 50 53 61
REMARK Flexibility Score: inf
ROOT
ATOM      1  C   UNL A   1      36.346  21.648  24.424  1.00  0.00     0.202 C 
ENDROOT
BRANCH   1   2
ATOM      2  C   UNL A   1      35.315  21.056  25.389  1.00  0.00     0.261 C 
BRANCH   2   3
ATOM      3  O   UNL A   1      34.034  21.690  25.219  1.00  0.00    -0.463 OA
BRANCH   3   4
ATOM      4  C   UNL A   1      32.994  20.870  24.915  1.00  0.00     0.313 C 
ATOM      5  O   UNL A   1      32.917  19.694  25.258  1.00  0.00    -0.252 OA
BRANCH   4   6
ATOM      6  C   UNL A   1      31.926  21.527  24.055  1.00  0.00     0.126 C 
ATOM      7  C   UNL A   1      32.160  21.161  22.592  1.00  0.00     0.025 C 
BRANCH   6   8
ATOM      8  C   UNL A   1      31.702  23.025  24.232  1.00  0.00    -0.031 A 
ATOM      9  C   UNL A   1      31.501  25.853  24.547  1.00  0.00     0.018 A 
ATOM     10  C   UNL A   1      31.197  24.977  25.603  1.00  0.00     0.012 A 
ATOM     11  C   UNL A   1      31.865  25.279  23.324  1.00  0.00     0.131 A 
ATOM     12  C   UNL A   1      31.298  23.588  25.450  1.00  0.00     0.005 A 
ATOM     13  C   UNL A   1      31.965  23.896  23.162  1.00  0.00     0.044 A 
ATOM     14  F   UNL A   1      32.163  26.058  22.272  1.00  0.00    -0.206 F 
BRANCH   9  15
ATOM     15  C   UNL A   1      31.470  27.311  24.747  1.00  0.00    -0.008 A 
ATOM     16  C   UNL A   1      30.547  29.505  24.265  1.00  0.00     0.123 A 
ATOM     17  C   UNL A   1      31.435  30.094  25.164  1.00  0.00     0.092 A 
ATOM     18  C   UNL A   1      30.581  28.130  24.039  1.00  0.00     0.055 A 
ATOM     19  C   UNL A   1      32.355  29.305  25.855  1.00  0.00     0.123 A 
ATOM     20  C   UNL A   1      32.359  27.923  25.650  1.00  0.00     0.055 A 
BRANCH  16  21
ATOM     21  O   UNL A   1      29.742  30.327  23.525  1.00  0.00    -0.494 OA
BRANCH  21  22
ATOM     22  C   UNL A   1      28.971  29.635  22.535  1.00  0.00     0.226 C 
ATOM     23  C   UNL A   1      27.662  30.353  22.239  1.00  0.00     0.049 C 
ENDBRANCH  21  22
ENDBRANCH  16  21
BRANCH  19  24
ATOM     24  O   UNL A   1      33.178  29.979  26.716  1.00  0.00    -0.494 OA
BRANCH  24  25
ATOM     25  C   UNL A   1      34.196  29.233  27.385  1.00  0.00     0.226 C 
ATOM     26  C   UNL A   1      35.310  30.145  27.874  1.00  0.00     0.049 C 
ENDBRANCH  24  25
ENDBRANCH  19  24
ENDBRANCH   9  15
ENDBRANCH   6   8
ENDBRANCH   4   6
ENDBRANCH   3   4
ENDBRANCH   2   3
ENDBRANCH   1   2
BRANCH   1  27
ATOM     27  O   UNL A   1      37.693  21.216  24.622  1.00  0.00    -0.374 OA
BRANCH  27  28
ATOM     28  C   UNL A   1      37.892  19.853  24.993  1.00  0.00     0.202 C 
BRANCH  28  29
ATOM     29  C   UNL A   1      39.305  19.487  25.462  1.00  0.00     0.261 C 
BRANCH  29  30
ATOM     30  O   UNL A   1      40.073  20.651  25.819  1.00  0.00    -0.460 OA
BRANCH  30  31
ATOM     31  C   UNL A   1      40.593  20.628  27.066  1.00  0.00     0.338 C 
ATOM     32  O   UNL A   1      40.957  19.647  27.704  1.00  0.00    -0.246 OA
BRANCH  31  33
ATOM     33  C   UNL A   1      40.835  22.000  27.546  1.00  0.00     0.060 A 
ATOM     34  C   UNL A   1      40.202  23.043  26.857  1.00  0.00     0.016 A 
ATOM     35  C   UNL A   1      41.728  22.276  28.585  1.00  0.00     0.016 A 
ATOM     36  C   UNL A   1      40.504  24.368  27.164  1.00  0.00     0.010 A 
ATOM     37  C   UNL A   1      42.036  23.609  28.887  1.00  0.00     0.010 A 
ATOM     38  C   UNL A   1      41.456  24.658  28.151  1.00  0.00    -0.014 A 
BRANCH  38  39
ATOM     39  C   UNL A   1      41.946  26.052  28.291  1.00  0.00     0.031 A 
ATOM     40  C   UNL A   1      43.278  26.421  27.696  1.00  0.00     0.074 A 
ATOM     41  C   UNL A   1      41.194  26.992  28.889  1.00  0.00     0.049 A 
ATOM     42  N   UNL A   1      43.894  27.576  27.685  1.00  0.00    -0.248 NA
ATOM     43  C   UNL A   1      44.014  25.341  27.019  1.00  0.00     0.031 C 
ATOM     44  C   UNL A   1      39.872  26.771  29.468  1.00  0.00     0.029 A 
ATOM     45  N   UNL A   1      41.439  28.326  29.104  1.00  0.00    -0.354 N 
ATOM     46  C   UNL A   1      45.085  27.364  27.005  1.00  0.00     0.074 A 
ATOM     47  C   UNL A   1      45.123  25.962  26.645  1.00  0.00     0.031 C 
ATOM     48  C   UNL A   1      39.421  27.930  29.980  1.00  0.00     0.029 A 
ATOM     49  C   UNL A   1      40.434  28.967  29.785  1.00  0.00     0.049 A 
ATOM     50  H   UNL A   1      42.258  28.779  28.799  1.00  0.00     0.167 HD
ATOM     51  C   UNL A   1      46.055  28.258  26.695  1.00  0.00     0.037 A 
ATOM     52  C   UNL A   1      40.350  30.242  30.212  1.00  0.00     0.037 A 
ATOM     53  C   UNL A   1      46.019  29.652  27.048  1.00  0.00     0.049 A 
ATOM     54  C   UNL A   1      41.472  31.202  29.911  1.00  0.00     0.074 A 
ATOM     55  C   UNL A   1      46.946  30.640  26.764  1.00  0.00     0.029 A 
ATOM     56  N   UNL A   1      45.001  30.257  27.771  1.00  0.00    -0.354 N 
ATOM     57  N   UNL A   1      42.581  30.997  29.244  1.00  0.00    -0.248 NA
ATOM     58  C   UNL A   1      41.325  32.573  30.421  1.00  0.00     0.031 C 
ATOM     59  C   UNL A   1      46.511  31.831  27.354  1.00  0.00     0.029 A 
ATOM     60  C   UNL A   1      45.289  31.597  27.963  1.00  0.00     0.049 A 
ATOM     61  H   UNL A   1      44.192  29.799  28.098  1.00  0.00     0.167 HD
ATOM     62  C   UNL A   1      43.249  32.215  29.229  1.00  0.00     0.074 A 
ATOM     63  C   UNL A   1      42.415  33.158  29.944  1.00  0.00     0.031 C 
ATOM     64  C   UNL A   1      44.446  32.526  28.672  1.00  0.00     0.037 A 
BRANCH  51  65
ATOM     65  C   UNL A   1      47.254  27.746  25.952  1.00  0.00     0.064 A 
ATOM     66  C   UNL A   1      47.302  27.732  24.551  1.00  0.00     0.173 A 
ATOM     67  C   UNL A   1      48.383  27.296  26.653  1.00  0.00     0.173 A 
ATOM     68  F   UNL A   1      46.241  28.139  23.836  1.00  0.00    -0.203 F 
ATOM     69  C   UNL A   1      48.427  27.264  23.877  1.00  0.00     0.198 A 
ATOM     70  C   UNL A   1      49.518  26.854  25.976  1.00  0.00     0.198 A 
ATOM     71  F   UNL A   1      48.391  27.293  27.994  1.00  0.00    -0.203 F 
ATOM     72  F   UNL A   1      48.434  27.219  22.538  1.00  0.00    -0.200 F 
ATOM     73  C   UNL A   1      49.536  26.832  24.590  1.00  0.00     0.200 A 
ATOM     74  F   UNL A   1      50.592  26.447  26.666  1.00  0.00    -0.200 F 
ATOM     75  F   UNL A   1      50.620  26.388  23.940  1.00  0.00    -0.200 F 
ENDBRANCH  51  65
BRANCH  52  76
ATOM     76  C   UNL A   1      39.158  30.688  30.979  1.00  0.00     0.064 A 
ATOM     77  C   UNL A   1      39.068  30.483  32.363  1.00  0.00     0.173 A 
ATOM     78  C   UNL A   1      38.077  31.310  30.339  1.00  0.00     0.173 A 
ATOM     79  F   UNL A   1      40.066  29.869  33.015  1.00  0.00    -0.203 F 
ATOM     80  C   UNL A   1      37.934  30.869  33.074  1.00  0.00     0.198 A 
ATOM     81  C   UNL A   1      36.954  31.719  31.054  1.00  0.00     0.198 A 
ATOM     82  F   UNL A   1      38.113  31.525  29.015  1.00  0.00    -0.203 F 
ATOM     83  F   UNL A   1      37.853  30.622  34.388  1.00  0.00    -0.200 F 
ATOM     84  C   UNL A   1      36.880  31.491  32.421  1.00  0.00     0.200 A 
ATOM     85  F   UNL A   1      35.943  32.329  30.421  1.00  0.00    -0.200 F 
ATOM     86  F   UNL A   1      35.790  31.864  33.106  1.00  0.00    -0.200 F 
ENDBRANCH  52  76
BRANCH  64  87
ATOM     87  C   UNL A   1      44.911  33.948  28.785  1.00  0.00     0.064 A 
ATOM     88  C   UNL A   1      45.711  34.380  29.853  1.00  0.00     0.173 A 
ATOM     89  C   UNL A   1      44.581  34.884  27.793  1.00  0.00     0.173 A 
ATOM     90  F   UNL A   1      46.042  33.528  30.836  1.00  0.00    -0.203 F 
ATOM     91  C   UNL A   1      46.141  35.701  29.937  1.00  0.00     0.198 A 
ATOM     92  C   UNL A   1      45.038  36.197  27.864  1.00  0.00     0.198 A 
ATOM     93  F   UNL A   1      43.825  34.521  26.745  1.00  0.00    -0.203 F 
ATOM     94  F   UNL A   1      46.866  36.102  30.991  1.00  0.00    -0.200 F 
ATOM     95  C   UNL A   1      45.811  36.606  28.940  1.00  0.00     0.200 A 
ATOM     96  F   UNL A   1      44.727  37.068  26.894  1.00  0.00    -0.200 F 
ATOM     97  F   UNL A   1      46.230  37.876  29.020  1.00  0.00    -0.200 F 
ENDBRANCH  64  87
ENDBRANCH  38  39
ENDBRANCH  31  33
ENDBRANCH  30  31
ENDBRANCH  29  30
ENDBRANCH  28  29
ENDBRANCH  27  28
ENDBRANCH   1  27
TORSDOF 20
ENDMDL
