MODEL 1
REMARK VINA RESULT:     -11.3      0.000      0.000
REMARK SMILES O=C(OCCOCCOC(=O)[C@@H]1C[NH2+]CCN1C(=O)N[C@@H]1CCOC1)c1ccc(-c2c3nc(c(-c4c(F)c(F)c(F)c(F)c4F)c4ccc([nH]4)c(-c4c(F)c(F)c(F)c(F)c4F)c4nc(c(-c5c(F)c(F)c(F)c(F)c5F)c5ccc2[nH]5)C=C4)C=C3)cc1
REMARK SMILES IDX 6 1 5 2 4 3 3 4 2 5 1 6 26 7 27 8 88 9 28 10 87 11 29 12
REMARK SMILES IDX 30 13 31 14 81 15 32 16 86 17 80 18 82 19 33 20 85 21 79 22
REMARK SMILES IDX 78 23 34 25 66 26 46 27 65 28 47 29 50 30 64 31 83 32 48 33
REMARK SMILES IDX 49 34 63 36 84 37 51 38 35 39 36 40 44 41 37 42 38 43 42 44
REMARK SMILES IDX 45 45 39 46 40 47 43 48 41 49 67 50 68 51 76 52 69 53 70 54
REMARK SMILES IDX 74 55 77 56 71 57 72 58 75 59 73 60 52 61 53 62 61 63 54 64
REMARK SMILES IDX 55 65 59 66 62 67 56 68 57 69 60 70 58 71 7 72 8 73 9 74
REMARK SMILES IDX 10 75 11 76 12 77 13 78 17 79 14 80 16 81 15 82 18 85 19 86
REMARK SMILES IDX 20 87 21 89 22 90 25 91 23 92 24 93
REMARK H PARENT 82 24 50 35 14 83 14 84 20 88
REMARK Flexibility Score: inf
ROOT
ATOM      1  O   UNL A   1      32.572  27.869  24.682  1.00  0.00    -0.374 OA
ENDROOT
BRANCH   1   2
ATOM      2  C   UNL A   1      32.437  28.557  25.926  1.00  0.00     0.202 C 
BRANCH   2   3
ATOM      3  C   UNL A   1      32.338  30.069  25.764  1.00  0.00     0.261 C 
BRANCH   3   4
ATOM      4  O   UNL A   1      32.381  30.780  27.004  1.00  0.00    -0.460 OA
BRANCH   4   5
ATOM      5  C   UNL A   1      33.382  31.567  27.465  1.00  0.00     0.338 C 
ATOM      6  O   UNL A   1      33.141  32.766  27.611  1.00  0.00    -0.246 OA
BRANCH   5   7
ATOM      7  C   UNL A   1      34.747  31.077  27.873  1.00  0.00     0.060 A 
ATOM      8  C   UNL A   1      35.150  29.749  28.091  1.00  0.00     0.016 A 
ATOM      9  C   UNL A   1      35.726  32.080  28.000  1.00  0.00     0.016 A 
ATOM     10  C   UNL A   1      36.463  29.424  28.425  1.00  0.00     0.010 A 
ATOM     11  C   UNL A   1      37.028  31.775  28.393  1.00  0.00     0.010 A 
ATOM     12  C   UNL A   1      37.378  30.446  28.648  1.00  0.00    -0.014 A 
BRANCH  12  13
ATOM     13  C   UNL A   1      38.540  30.166  29.505  1.00  0.00     0.031 A 
ATOM     14  C   UNL A   1      39.556  29.217  28.944  1.00  0.00     0.074 A 
ATOM     15  C   UNL A   1      38.682  30.743  30.706  1.00  0.00     0.049 A 
ATOM     16  N   UNL A   1      40.581  28.653  29.518  1.00  0.00    -0.248 NA
ATOM     17  C   UNL A   1      39.383  28.850  27.526  1.00  0.00     0.031 C 
ATOM     18  C   UNL A   1      37.797  31.762  31.264  1.00  0.00     0.029 A 
ATOM     19  N   UNL A   1      39.622  30.532  31.677  1.00  0.00    -0.354 N 
ATOM     20  C   UNL A   1      41.151  27.845  28.541  1.00  0.00     0.074 A 
ATOM     21  C   UNL A   1      40.365  27.988  27.341  1.00  0.00     0.031 C 
ATOM     22  C   UNL A   1      38.218  32.065  32.504  1.00  0.00     0.029 A 
ATOM     23  C   UNL A   1      39.359  31.214  32.838  1.00  0.00     0.049 A 
ATOM     24  H   UNL A   1      40.407  29.950  31.555  1.00  0.00     0.167 HD
ATOM     25  C   UNL A   1      42.226  27.035  28.656  1.00  0.00     0.037 A 
ATOM     26  C   UNL A   1      39.949  31.101  34.043  1.00  0.00     0.037 A 
ATOM     27  C   UNL A   1      42.953  26.889  29.884  1.00  0.00     0.049 A 
ATOM     28  C   UNL A   1      41.085  30.119  34.188  1.00  0.00     0.074 A 
ATOM     29  C   UNL A   1      44.030  26.074  30.165  1.00  0.00     0.029 A 
ATOM     30  N   UNL A   1      42.646  27.578  31.053  1.00  0.00    -0.354 N 
ATOM     31  N   UNL A   1      41.606  29.321  33.284  1.00  0.00    -0.248 NA
ATOM     32  C   UNL A   1      41.708  30.011  35.511  1.00  0.00     0.031 C 
ATOM     33  C   UNL A   1      44.333  26.222  31.522  1.00  0.00     0.029 A 
ATOM     34  C   UNL A   1      43.498  27.189  32.067  1.00  0.00     0.049 A 
ATOM     35  H   UNL A   1      41.927  28.245  31.144  1.00  0.00     0.167 HD
ATOM     36  C   UNL A   1      42.638  28.640  33.915  1.00  0.00     0.074 A 
ATOM     37  C   UNL A   1      42.663  29.118  35.285  1.00  0.00     0.031 C 
ATOM     38  C   UNL A   1      43.491  27.713  33.413  1.00  0.00     0.037 A 
BRANCH  25  39
ATOM     39  C   UNL A   1      42.577  26.199  27.459  1.00  0.00     0.064 A 
ATOM     40  C   UNL A   1      41.980  24.950  27.218  1.00  0.00     0.173 A 
ATOM     41  C   UNL A   1      43.593  26.616  26.585  1.00  0.00     0.173 A 
ATOM     42  F   UNL A   1      41.027  24.485  28.041  1.00  0.00    -0.203 F 
ATOM     43  C   UNL A   1      42.424  24.131  26.181  1.00  0.00     0.198 A 
ATOM     44  C   UNL A   1      44.008  25.810  25.528  1.00  0.00     0.198 A 
ATOM     45  F   UNL A   1      44.206  27.793  26.774  1.00  0.00    -0.203 F 
ATOM     46  F   UNL A   1      41.904  22.906  26.029  1.00  0.00    -0.200 F 
ATOM     47  C   UNL A   1      43.436  24.562  25.337  1.00  0.00     0.200 A 
ATOM     48  F   UNL A   1      44.982  26.231  24.710  1.00  0.00    -0.200 F 
ATOM     49  F   UNL A   1      43.874  23.766  24.352  1.00  0.00    -0.200 F 
ENDBRANCH  25  39
BRANCH  26  50
ATOM     50  C   UNL A   1      39.439  31.900  35.188  1.00  0.00     0.064 A 
ATOM     51  C   UNL A   1      38.581  31.341  36.143  1.00  0.00     0.173 A 
ATOM     52  C   UNL A   1      39.840  33.233  35.377  1.00  0.00     0.173 A 
ATOM     53  F   UNL A   1      38.149  30.080  36.000  1.00  0.00    -0.203 F 
ATOM     54  C   UNL A   1      38.145  32.082  37.243  1.00  0.00     0.198 A 
ATOM     55  C   UNL A   1      39.428  33.962  36.490  1.00  0.00     0.198 A 
ATOM     56  F   UNL A   1      40.660  33.819  34.492  1.00  0.00    -0.203 F 
ATOM     57  F   UNL A   1      37.305  31.529  38.130  1.00  0.00    -0.200 F 
ATOM     58  C   UNL A   1      38.579  33.387  37.422  1.00  0.00     0.200 A 
ATOM     59  F   UNL A   1      39.862  35.218  36.665  1.00  0.00    -0.200 F 
ATOM     60  F   UNL A   1      38.175  34.091  38.488  1.00  0.00    -0.200 F 
ENDBRANCH  26  50
BRANCH  38  61
ATOM     61  C   UNL A   1      44.568  27.200  34.323  1.00  0.00     0.064 A 
ATOM     62  C   UNL A   1      45.800  27.854  34.453  1.00  0.00     0.173 A 
ATOM     63  C   UNL A   1      44.305  26.107  35.162  1.00  0.00     0.173 A 
ATOM     64  F   UNL A   1      46.098  28.899  33.665  1.00  0.00    -0.203 F 
ATOM     65  C   UNL A   1      46.736  27.425  35.389  1.00  0.00     0.198 A 
ATOM     66  C   UNL A   1      45.229  25.702  36.118  1.00  0.00     0.198 A 
ATOM     67  F   UNL A   1      43.132  25.458  35.081  1.00  0.00    -0.203 F 
ATOM     68  F   UNL A   1      47.919  28.046  35.484  1.00  0.00    -0.200 F 
ATOM     69  C   UNL A   1      46.444  26.360  36.229  1.00  0.00     0.200 A 
ATOM     70  F   UNL A   1      44.935  24.688  36.944  1.00  0.00    -0.200 F 
ATOM     71  F   UNL A   1      47.335  25.968  37.151  1.00  0.00    -0.200 F 
ENDBRANCH  38  61
ENDBRANCH  12  13
ENDBRANCH   5   7
ENDBRANCH   4   5
ENDBRANCH   3   4
ENDBRANCH   2   3
ENDBRANCH   1   2
BRANCH   1  72
ATOM     72  C   UNL A   1      32.965  26.506  24.782  1.00  0.00     0.202 C 
BRANCH  72  73
ATOM     73  C   UNL A   1      32.489  25.700  23.588  1.00  0.00     0.261 C 
BRANCH  73  74
ATOM     74  O   UNL A   1      32.644  24.287  23.758  1.00  0.00    -0.462 OA
BRANCH  74  75
ATOM     75  C   UNL A   1      33.816  23.672  23.413  1.00  0.00     0.334 C 
ATOM     76  O   UNL A   1      34.773  24.110  22.804  1.00  0.00    -0.250 OA
BRANCH  75  77
ATOM     77  C   UNL A   1      33.742  22.259  23.875  1.00  0.00     0.252 C 
ATOM     78  C   UNL A   1      32.421  21.587  23.466  1.00  0.00     0.298 C 
ATOM     79  N   UNL A   1      33.973  22.027  25.301  1.00  0.00    -0.300 N 
ATOM     80  N   UNL A   1      32.527  20.116  23.589  1.00  0.00    -0.343 N 
ATOM     81  C   UNL A   1      34.187  20.593  25.520  1.00  0.00     0.183 C 
ATOM     82  C   UNL A   1      33.020  19.745  24.939  1.00  0.00     0.282 C 
ATOM     83  H   UNL A   1      33.177  19.766  22.886  1.00  0.00     0.346 HD
ATOM     84  H   UNL A   1      31.604  19.705  23.450  1.00  0.00     0.346 HD
BRANCH  79  85
ATOM     85  C   UNL A   1      34.457  22.941  26.206  1.00  0.00     0.318 C 
ATOM     86  O   UNL A   1      33.698  23.633  26.887  1.00  0.00    -0.249 OA
ATOM     87  N   UNL A   1      35.800  23.104  26.416  1.00  0.00    -0.333 N 
ATOM     88  H   UNL A   1      36.087  23.058  27.357  1.00  0.00     0.165 HD
BRANCH  87  89
ATOM     89  C   UNL A   1      36.890  23.339  25.432  1.00  0.00     0.112 C 
ATOM     90  C   UNL A   1      37.471  22.075  24.794  1.00  0.00     0.056 C 
ATOM     91  C   UNL A   1      38.164  23.843  26.122  1.00  0.00     0.185 C 
ATOM     92  C   UNL A   1      38.523  21.577  25.751  1.00  0.00     0.162 C 
ATOM     93  O   UNL A   1      38.893  22.683  26.574  1.00  0.00    -0.379 OA
ENDBRANCH  87  89
ENDBRANCH  79  85
ENDBRANCH  75  77
ENDBRANCH  74  75
ENDBRANCH  73  74
ENDBRANCH  72  73
ENDBRANCH   1  72
TORSDOF 16
ENDMDL
MODEL 2
REMARK VINA RESULT:     -11.0      1.076      1.941
REMARK SMILES O=C(OCCOCCOC(=O)[C@@H]1C[NH2+]CCN1C(=O)N[C@@H]1CCOC1)c1ccc(-c2c3nc(c(-c4c(F)c(F)c(F)c(F)c4F)c4ccc([nH]4)c(-c4c(F)c(F)c(F)c(F)c4F)c4nc(c(-c5c(F)c(F)c(F)c(F)c5F)c5ccc2[nH]5)C=C4)C=C3)cc1
REMARK SMILES IDX 6 1 5 2 4 3 3 4 2 5 1 6 26 7 27 8 88 9 28 10 87 11 29 12
REMARK SMILES IDX 30 13 31 14 81 15 32 16 86 17 80 18 82 19 33 20 85 21 79 22
REMARK SMILES IDX 78 23 34 25 66 26 46 27 65 28 47 29 50 30 64 31 83 32 48 33
REMARK SMILES IDX 49 34 63 36 84 37 51 38 35 39 36 40 44 41 37 42 38 43 42 44
REMARK SMILES IDX 45 45 39 46 40 47 43 48 41 49 67 50 68 51 76 52 69 53 70 54
REMARK SMILES IDX 74 55 77 56 71 57 72 58 75 59 73 60 52 61 53 62 61 63 54 64
REMARK SMILES IDX 55 65 59 66 62 67 56 68 57 69 60 70 58 71 7 72 8 73 9 74
REMARK SMILES IDX 10 75 11 76 12 77 13 78 17 79 14 80 16 81 15 82 18 85 19 86
REMARK SMILES IDX 20 87 21 89 22 90 25 91 23 92 24 93
REMARK H PARENT 82 24 50 35 14 83 14 84 20 88
REMARK Flexibility Score: inf
ROOT
ATOM      1  O   UNL A   1      32.897  28.085  26.267  1.00  0.00    -0.374 OA
ENDROOT
BRANCH   1   2
ATOM      2  C   UNL A   1      32.033  29.067  26.842  1.00  0.00     0.202 C 
BRANCH   2   3
ATOM      3  C   UNL A   1      32.241  30.459  26.258  1.00  0.00     0.261 C 
BRANCH   3   4
ATOM      4  O   UNL A   1      32.325  31.487  27.249  1.00  0.00    -0.460 OA
BRANCH   4   5
ATOM      5  C   UNL A   1      33.422  32.198  27.603  1.00  0.00     0.338 C 
ATOM      6  O   UNL A   1      33.319  33.426  27.627  1.00  0.00    -0.246 OA
BRANCH   5   7
ATOM      7  C   UNL A   1      34.738  31.602  28.031  1.00  0.00     0.060 A 
ATOM      8  C   UNL A   1      35.000  30.267  28.377  1.00  0.00     0.016 A 
ATOM      9  C   UNL A   1      35.824  32.497  28.032  1.00  0.00     0.016 A 
ATOM     10  C   UNL A   1      36.279  29.831  28.714  1.00  0.00     0.010 A 
ATOM     11  C   UNL A   1      37.097  32.090  28.426  1.00  0.00     0.010 A 
ATOM     12  C   UNL A   1      37.307  30.762  28.811  1.00  0.00    -0.014 A 
BRANCH  12  13
ATOM     13  C   UNL A   1      38.459  30.441  29.667  1.00  0.00     0.031 A 
ATOM     14  C   UNL A   1      39.457  29.480  29.093  1.00  0.00     0.074 A 
ATOM     15  C   UNL A   1      38.608  30.993  30.878  1.00  0.00     0.049 A 
ATOM     16  N   UNL A   1      40.467  28.884  29.661  1.00  0.00    -0.248 NA
ATOM     17  C   UNL A   1      39.282  29.143  27.668  1.00  0.00     0.031 C 
ATOM     18  C   UNL A   1      37.744  32.021  31.451  1.00  0.00     0.029 A 
ATOM     19  N   UNL A   1      39.539  30.744  31.850  1.00  0.00    -0.354 N 
ATOM     20  C   UNL A   1      41.023  28.081  28.672  1.00  0.00     0.074 A 
ATOM     21  C   UNL A   1      40.245  28.263  27.472  1.00  0.00     0.031 C 
ATOM     22  C   UNL A   1      38.166  32.293  32.698  1.00  0.00     0.029 A 
ATOM     23  C   UNL A   1      39.286  31.411  33.021  1.00  0.00     0.049 A 
ATOM     24  H   UNL A   1      40.312  30.148  31.721  1.00  0.00     0.167 HD
ATOM     25  C   UNL A   1      42.080  27.246  28.776  1.00  0.00     0.037 A 
ATOM     26  C   UNL A   1      39.869  31.264  34.227  1.00  0.00     0.037 A 
ATOM     27  C   UNL A   1      42.798  27.062  30.005  1.00  0.00     0.049 A 
ATOM     28  C   UNL A   1      40.983  30.255  34.358  1.00  0.00     0.074 A 
ATOM     29  C   UNL A   1      43.855  26.219  30.275  1.00  0.00     0.029 A 
ATOM     30  N   UNL A   1      42.501  27.737  31.185  1.00  0.00    -0.354 N 
ATOM     31  N   UNL A   1      41.490  29.461  33.442  1.00  0.00    -0.248 NA
ATOM     32  C   UNL A   1      41.598  30.110  35.682  1.00  0.00     0.031 C 
ATOM     33  C   UNL A   1      44.156  26.336  31.636  1.00  0.00     0.029 A 
ATOM     34  C   UNL A   1      43.340  27.311  32.195  1.00  0.00     0.049 A 
ATOM     35  H   UNL A   1      41.797  28.417  31.284  1.00  0.00     0.167 HD
ATOM     36  C   UNL A   1      42.504  28.747  34.065  1.00  0.00     0.074 A 
ATOM     37  C   UNL A   1      42.534  29.200  35.443  1.00  0.00     0.031 C 
ATOM     38  C   UNL A   1      43.339  27.810  33.550  1.00  0.00     0.037 A 
BRANCH  25  39
ATOM     39  C   UNL A   1      42.418  26.423  27.566  1.00  0.00     0.064 A 
ATOM     40  C   UNL A   1      41.808  25.184  27.310  1.00  0.00     0.173 A 
ATOM     41  C   UNL A   1      43.433  26.843  26.694  1.00  0.00     0.173 A 
ATOM     42  F   UNL A   1      40.855  24.716  28.131  1.00  0.00    -0.203 F 
ATOM     43  C   UNL A   1      42.240  24.375  26.260  1.00  0.00     0.198 A 
ATOM     44  C   UNL A   1      43.836  26.049  25.623  1.00  0.00     0.198 A 
ATOM     45  F   UNL A   1      44.058  28.013  26.896  1.00  0.00    -0.203 F 
ATOM     46  F   UNL A   1      41.707  23.157  26.092  1.00  0.00    -0.200 F 
ATOM     47  C   UNL A   1      43.251  24.809  25.417  1.00  0.00     0.200 A 
ATOM     48  F   UNL A   1      44.810  26.473  24.807  1.00  0.00    -0.200 F 
ATOM     49  F   UNL A   1      43.678  24.023  24.419  1.00  0.00    -0.200 F 
ENDBRANCH  25  39
BRANCH  26  50
ATOM     50  C   UNL A   1      39.371  32.053  35.384  1.00  0.00     0.064 A 
ATOM     51  C   UNL A   1      38.485  31.501  36.317  1.00  0.00     0.173 A 
ATOM     52  C   UNL A   1      39.813  33.368  35.607  1.00  0.00     0.173 A 
ATOM     53  F   UNL A   1      38.015  30.258  36.140  1.00  0.00    -0.203 F 
ATOM     54  C   UNL A   1      38.061  32.231  37.428  1.00  0.00     0.198 A 
ATOM     55  C   UNL A   1      39.411  34.085  36.732  1.00  0.00     0.198 A 
ATOM     56  F   UNL A   1      40.661  33.947  34.744  1.00  0.00    -0.203 F 
ATOM     57  F   UNL A   1      37.193  31.686  38.293  1.00  0.00    -0.200 F 
ATOM     58  C   UNL A   1      38.534  33.517  37.641  1.00  0.00     0.200 A 
ATOM     59  F   UNL A   1      39.883  35.322  36.939  1.00  0.00    -0.200 F 
ATOM     60  F   UNL A   1      38.141  34.210  38.719  1.00  0.00    -0.200 F 
ENDBRANCH  26  50
BRANCH  38  61
ATOM     61  C   UNL A   1      44.400  27.258  34.455  1.00  0.00     0.064 A 
ATOM     62  C   UNL A   1      44.228  26.051  35.147  1.00  0.00     0.173 A 
ATOM     63  C   UNL A   1      45.649  27.892  34.527  1.00  0.00     0.173 A 
ATOM     64  F   UNL A   1      43.047  25.415  35.112  1.00  0.00    -0.203 F 
ATOM     65  C   UNL A   1      45.271  25.503  35.887  1.00  0.00     0.198 A 
ATOM     66  C   UNL A   1      46.698  27.324  35.241  1.00  0.00     0.198 A 
ATOM     67  F   UNL A   1      45.863  29.043  33.870  1.00  0.00    -0.203 F 
ATOM     68  F   UNL A   1      45.082  24.362  36.562  1.00  0.00    -0.200 F 
ATOM     69  C   UNL A   1      46.507  26.132  35.921  1.00  0.00     0.200 A 
ATOM     70  F   UNL A   1      47.898  27.922  35.253  1.00  0.00    -0.200 F 
ATOM     71  F   UNL A   1      47.519  25.586  36.610  1.00  0.00    -0.200 F 
ENDBRANCH  38  61
ENDBRANCH  12  13
ENDBRANCH   5   7
ENDBRANCH   4   5
ENDBRANCH   3   4
ENDBRANCH   2   3
ENDBRANCH   1   2
BRANCH   1  72
ATOM     72  C   UNL A   1      33.651  28.525  25.143  1.00  0.00     0.202 C 
BRANCH  72  73
ATOM     73  C   UNL A   1      33.393  27.656  23.926  1.00  0.00     0.261 C 
BRANCH  73  74
ATOM     74  O   UNL A   1      32.997  26.320  24.256  1.00  0.00    -0.462 OA
BRANCH  74  75
ATOM     75  C   UNL A   1      31.989  25.707  23.565  1.00  0.00     0.334 C 
ATOM     76  O   UNL A   1      31.577  25.917  22.440  1.00  0.00    -0.250 OA
BRANCH  75  77
ATOM     77  C   UNL A   1      31.372  24.692  24.463  1.00  0.00     0.252 C 
ATOM     78  C   UNL A   1      31.140  25.242  25.880  1.00  0.00     0.298 C 
ATOM     79  N   UNL A   1      32.060  23.404  24.559  1.00  0.00    -0.300 N 
ATOM     80  N   UNL A   1      30.199  24.375  26.625  1.00  0.00    -0.343 N 
ATOM     81  C   UNL A   1      31.168  22.436  25.205  1.00  0.00     0.183 C 
ATOM     82  C   UNL A   1      30.649  22.962  26.574  1.00  0.00     0.282 C 
ATOM     83  H   UNL A   1      29.272  24.449  26.207  1.00  0.00     0.346 HD
ATOM     84  H   UNL A   1      30.171  24.679  27.599  1.00  0.00     0.346 HD
BRANCH  79  85
ATOM     85  C   UNL A   1      33.082  22.965  23.751  1.00  0.00     0.318 C 
ATOM     86  O   UNL A   1      32.870  22.576  22.602  1.00  0.00    -0.249 OA
ATOM     87  N   UNL A   1      34.385  22.969  24.174  1.00  0.00    -0.333 N 
ATOM     88  H   UNL A   1      35.022  23.410  23.567  1.00  0.00     0.165 HD
BRANCH  87  89
ATOM     89  C   UNL A   1      34.978  22.406  25.416  1.00  0.00     0.112 C 
ATOM     90  C   UNL A   1      35.982  23.316  26.126  1.00  0.00     0.056 C 
ATOM     91  C   UNL A   1      35.923  21.239  25.101  1.00  0.00     0.185 C 
ATOM     92  C   UNL A   1      37.307  23.072  25.452  1.00  0.00     0.162 C 
ATOM     93  O   UNL A   1      37.215  21.805  24.802  1.00  0.00    -0.379 OA
ENDBRANCH  87  89
ENDBRANCH  79  85
ENDBRANCH  75  77
ENDBRANCH  74  75
ENDBRANCH  73  74
ENDBRANCH  72  73
ENDBRANCH   1  72
TORSDOF 16
ENDMDL
MODEL 3
REMARK VINA RESULT:     -11.0      4.745      8.127
REMARK SMILES O=C(OCCOCCOC(=O)[C@@H]1C[NH2+]CCN1C(=O)N[C@@H]1CCOC1)c1ccc(-c2c3nc(c(-c4c(F)c(F)c(F)c(F)c4F)c4ccc([nH]4)c(-c4c(F)c(F)c(F)c(F)c4F)c4nc(c(-c5c(F)c(F)c(F)c(F)c5F)c5ccc2[nH]5)C=C4)C=C3)cc1
REMARK SMILES IDX 6 1 5 2 4 3 3 4 2 5 1 6 26 7 27 8 88 9 28 10 87 11 29 12
REMARK SMILES IDX 30 13 31 14 81 15 32 16 86 17 80 18 82 19 33 20 85 21 79 22
REMARK SMILES IDX 78 23 34 25 66 26 46 27 65 28 47 29 50 30 64 31 83 32 48 33
REMARK SMILES IDX 49 34 63 36 84 37 51 38 35 39 36 40 44 41 37 42 38 43 42 44
REMARK SMILES IDX 45 45 39 46 40 47 43 48 41 49 67 50 68 51 76 52 69 53 70 54
REMARK SMILES IDX 74 55 77 56 71 57 72 58 75 59 73 60 52 61 53 62 61 63 54 64
REMARK SMILES IDX 55 65 59 66 62 67 56 68 57 69 60 70 58 71 7 72 8 73 9 74
REMARK SMILES IDX 10 75 11 76 12 77 13 78 17 79 14 80 16 81 15 82 18 85 19 86
REMARK SMILES IDX 20 87 21 89 22 90 25 91 23 92 24 93
REMARK H PARENT 82 24 50 35 14 83 14 84 20 88
REMARK Flexibility Score: inf
ROOT
ATOM      1  O   UNL A   1      37.903  22.232  25.298  1.00  0.00    -0.374 OA
ENDROOT
BRANCH   1   2
ATOM      2  C   UNL A   1      38.932  21.463  25.922  1.00  0.00     0.202 C 
BRANCH   2   3
ATOM      3  C   UNL A   1      39.106  20.084  25.299  1.00  0.00     0.261 C 
BRANCH   3   4
ATOM      4  O   UNL A   1      40.061  19.265  25.980  1.00  0.00    -0.460 OA
BRANCH   4   5
ATOM      5  C   UNL A   1      41.401  19.446  26.042  1.00  0.00     0.338 C 
ATOM      6  O   UNL A   1      42.118  18.496  25.723  1.00  0.00    -0.246 OA
BRANCH   5   7
ATOM      7  C   UNL A   1      42.082  20.738  26.411  1.00  0.00     0.060 A 
ATOM      8  C   UNL A   1      42.282  21.262  27.699  1.00  0.00     0.016 A 
ATOM      9  C   UNL A   1      42.610  21.464  25.327  1.00  0.00     0.016 A 
ATOM     10  C   UNL A   1      42.971  22.455  27.909  1.00  0.00     0.010 A 
ATOM     11  C   UNL A   1      43.247  22.688  25.517  1.00  0.00     0.010 A 
ATOM     12  C   UNL A   1      43.384  23.201  26.811  1.00  0.00    -0.014 A 
BRANCH  12  13
ATOM     13  C   UNL A   1      43.590  24.646  26.988  1.00  0.00     0.031 A 
ATOM     14  C   UNL A   1      44.978  25.148  26.727  1.00  0.00     0.074 A 
ATOM     15  C   UNL A   1      42.586  25.459  27.344  1.00  0.00     0.049 A 
ATOM     16  N   UNL A   1      45.501  26.320  26.958  1.00  0.00    -0.248 NA
ATOM     17  C   UNL A   1      45.910  24.182  26.118  1.00  0.00     0.031 C 
ATOM     18  C   UNL A   1      41.190  25.061  27.499  1.00  0.00     0.029 A 
ATOM     19  N   UNL A   1      42.602  26.791  27.657  1.00  0.00    -0.354 N 
ATOM     20  C   UNL A   1      46.826  26.216  26.554  1.00  0.00     0.074 A 
ATOM     21  C   UNL A   1      47.031  24.876  26.063  1.00  0.00     0.031 C 
ATOM     22  C   UNL A   1      40.482  26.125  27.916  1.00  0.00     0.029 A 
ATOM     23  C   UNL A   1      41.394  27.251  28.113  1.00  0.00     0.049 A 
ATOM     24  H   UNL A   1      43.400  27.360  27.564  1.00  0.00     0.167 HD
ATOM     25  C   UNL A   1      47.790  27.161  26.615  1.00  0.00     0.037 A 
ATOM     26  C   UNL A   1      41.093  28.435  28.681  1.00  0.00     0.037 A 
ATOM     27  C   UNL A   1      47.553  28.470  27.153  1.00  0.00     0.049 A 
ATOM     28  C   UNL A   1      42.200  29.448  28.837  1.00  0.00     0.074 A 
ATOM     29  C   UNL A   1      48.439  29.512  27.324  1.00  0.00     0.029 A 
ATOM     30  N   UNL A   1      46.319  28.899  27.631  1.00  0.00    -0.354 N 
ATOM     31  N   UNL A   1      43.465  29.347  28.496  1.00  0.00    -0.248 NA
ATOM     32  C   UNL A   1      41.849  30.728  29.462  1.00  0.00     0.031 C 
ATOM     33  C   UNL A   1      47.756  30.551  27.966  1.00  0.00     0.029 A 
ATOM     34  C   UNL A   1      46.424  30.186  28.121  1.00  0.00     0.049 A 
ATOM     35  H   UNL A   1      45.492  28.365  27.622  1.00  0.00     0.167 HD
ATOM     36  C   UNL A   1      44.055  30.558  28.832  1.00  0.00     0.074 A 
ATOM     37  C   UNL A   1      43.006  31.376  29.411  1.00  0.00     0.031 C 
ATOM     38  C   UNL A   1      45.340  30.964  28.672  1.00  0.00     0.037 A 
BRANCH  25  39
ATOM     39  C   UNL A   1      49.171  26.752  26.188  1.00  0.00     0.064 A 
ATOM     40  C   UNL A   1      50.100  26.203  27.087  1.00  0.00     0.173 A 
ATOM     41  C   UNL A   1      49.600  26.996  24.874  1.00  0.00     0.173 A 
ATOM     42  F   UNL A   1      49.755  25.981  28.366  1.00  0.00    -0.203 F 
ATOM     43  C   UNL A   1      51.418  25.964  26.701  1.00  0.00     0.198 A 
ATOM     44  C   UNL A   1      50.908  26.720  24.482  1.00  0.00     0.198 A 
ATOM     45  F   UNL A   1      48.759  27.529  23.976  1.00  0.00    -0.203 F 
ATOM     46  F   UNL A   1      52.309  25.529  27.601  1.00  0.00    -0.200 F 
ATOM     47  C   UNL A   1      51.819  26.222  25.400  1.00  0.00     0.200 A 
ATOM     48  F   UNL A   1      51.292  26.965  23.222  1.00  0.00    -0.200 F 
ATOM     49  F   UNL A   1      53.091  26.009  25.034  1.00  0.00    -0.200 F 
ENDBRANCH  25  39
BRANCH  26  50
ATOM     50  C   UNL A   1      39.713  28.685  29.171  1.00  0.00     0.064 A 
ATOM     51  C   UNL A   1      39.342  28.389  30.489  1.00  0.00     0.173 A 
ATOM     52  C   UNL A   1      38.744  29.274  28.341  1.00  0.00     0.173 A 
ATOM     53  F   UNL A   1      40.220  27.806  31.317  1.00  0.00    -0.203 F 
ATOM     54  C   UNL A   1      38.058  28.672  30.958  1.00  0.00     0.198 A 
ATOM     55  C   UNL A   1      37.472  29.582  28.818  1.00  0.00     0.198 A 
ATOM     56  F   UNL A   1      39.045  29.577  27.070  1.00  0.00    -0.203 F 
ATOM     57  F   UNL A   1      37.722  28.356  32.216  1.00  0.00    -0.200 F 
ATOM     58  C   UNL A   1      37.129  29.279  30.126  1.00  0.00     0.200 A 
ATOM     59  F   UNL A   1      36.584  30.182  28.014  1.00  0.00    -0.200 F 
ATOM     60  F   UNL A   1      35.903  29.568  30.583  1.00  0.00    -0.200 F 
ENDBRANCH  26  50
BRANCH  38  61
ATOM     61  C   UNL A   1      45.674  32.372  29.064  1.00  0.00     0.064 A 
ATOM     62  C   UNL A   1      46.209  32.683  30.322  1.00  0.00     0.173 A 
ATOM     63  C   UNL A   1      45.567  33.401  28.116  1.00  0.00     0.173 A 
ATOM     64  F   UNL A   1      46.323  31.732  31.262  1.00  0.00    -0.203 F 
ATOM     65  C   UNL A   1      46.619  33.979  30.618  1.00  0.00     0.198 A 
ATOM     66  C   UNL A   1      46.007  34.687  28.405  1.00  0.00     0.198 A 
ATOM     67  F   UNL A   1      45.072  33.146  26.894  1.00  0.00    -0.203 F 
ATOM     68  F   UNL A   1      47.105  34.264  31.833  1.00  0.00    -0.200 F 
ATOM     69  C   UNL A   1      46.531  34.975  29.656  1.00  0.00     0.200 A 
ATOM     70  F   UNL A   1      45.942  35.641  27.466  1.00  0.00    -0.200 F 
ATOM     71  F   UNL A   1      46.955  36.216  29.933  1.00  0.00    -0.200 F 
ENDBRANCH  38  61
ENDBRANCH  12  13
ENDBRANCH   5   7
ENDBRANCH   4   5
ENDBRANCH   3   4
ENDBRANCH   2   3
ENDBRANCH   1   2
BRANCH   1  72
ATOM     72  C   UNL A   1      37.503  23.399  26.007  1.00  0.00     0.202 C 
BRANCH  72  73
ATOM     73  C   UNL A   1      36.032  23.702  25.796  1.00  0.00     0.261 C 
BRANCH  73  74
ATOM     74  O   UNL A   1      35.222  23.413  26.941  1.00  0.00    -0.462 OA
BRANCH  74  75
ATOM     75  C   UNL A   1      34.283  22.420  26.892  1.00  0.00     0.334 C 
ATOM     76  O   UNL A   1      34.058  21.524  27.683  1.00  0.00    -0.250 OA
BRANCH  75  77
ATOM     77  C   UNL A   1      33.539  22.558  25.610  1.00  0.00     0.252 C 
ATOM     78  C   UNL A   1      32.088  23.016  25.834  1.00  0.00     0.298 C 
ATOM     79  N   UNL A   1      33.539  21.390  24.728  1.00  0.00    -0.300 N 
ATOM     80  N   UNL A   1      31.499  23.509  24.568  1.00  0.00    -0.343 N 
ATOM     81  C   UNL A   1      33.056  21.797  23.404  1.00  0.00     0.183 C 
ATOM     82  C   UNL A   1      31.673  22.503  23.491  1.00  0.00     0.282 C 
ATOM     83  H   UNL A   1      31.963  24.376  24.297  1.00  0.00     0.346 HD
ATOM     84  H   UNL A   1      30.502  23.674  24.709  1.00  0.00     0.346 HD
BRANCH  79  85
ATOM     85  C   UNL A   1      34.325  20.271  24.861  1.00  0.00     0.318 C 
ATOM     86  O   UNL A   1      35.536  20.307  24.638  1.00  0.00    -0.249 OA
ATOM     87  N   UNL A   1      33.805  19.073  25.275  1.00  0.00    -0.333 N 
ATOM     88  H   UNL A   1      34.279  18.647  26.026  1.00  0.00     0.165 HD
BRANCH  87  89
ATOM     89  C   UNL A   1      32.631  18.322  24.758  1.00  0.00     0.112 C 
ATOM     90  C   UNL A   1      32.476  16.903  25.308  1.00  0.00     0.056 C 
ATOM     91  C   UNL A   1      32.808  17.966  23.276  1.00  0.00     0.185 C 
ATOM     92  C   UNL A   1      33.344  16.028  24.441  1.00  0.00     0.162 C 
ATOM     93  O   UNL A   1      33.556  16.734  23.220  1.00  0.00    -0.379 OA
ENDBRANCH  87  89
ENDBRANCH  79  85
ENDBRANCH  75  77
ENDBRANCH  74  75
ENDBRANCH  73  74
ENDBRANCH  72  73
ENDBRANCH   1  72
TORSDOF 16
ENDMDL
