MODEL 1
REMARK VINA RESULT:     -11.1      0.000      0.000
REMARK SMILES CSc1ncc(Cl)c(C(=O)Nc2ccsc2C(=O)OCCOCCOC(=O)c2ccc(-c3c4nc(c(-c5c(F)c(F)c(F)c(F)c5F)c5ccc([nH]5)c(-c5c(F)c(F)c(F)c(F)c5F)c5nc(c(-c6c(F)c(F)c(F)c(F)c6F)c6ccc3[nH]6)C=C5)C=C4)cc2)n1
REMARK SMILES IDX 21 1 20 2 19 3 17 4 18 5 16 6 12 7 13 8 14 9 15 10 11 11
REMARK SMILES IDX 9 12 10 13 8 15 3 16 4 17 91 18 5 19 6 20 7 21 2 22 1 23
REMARK SMILES IDX 22 24 23 25 24 26 25 27 26 28 27 29 28 30 29 31 90 32 30 33
REMARK SMILES IDX 89 34 31 35 32 36 33 37 83 38 34 39 88 40 82 41 84 42 35 43
REMARK SMILES IDX 87 44 81 45 80 46 36 48 68 49 48 50 67 51 49 52 52 53 66 54
REMARK SMILES IDX 85 55 50 56 51 57 65 59 86 60 53 61 37 62 38 63 46 64 39 65
REMARK SMILES IDX 40 66 44 67 47 68 41 69 42 70 45 71 43 72 69 73 70 74 78 75
REMARK SMILES IDX 71 76 72 77 76 78 79 79 73 80 74 81 77 82 75 83 54 84 55 85
REMARK SMILES IDX 63 86 56 87 57 88 61 89 64 90 58 91 59 92 62 93 60 94
REMARK H PARENT 11 14 84 47 52 58
REMARK Flexibility Score: inf
ROOT
ATOM      1  C   UNL A   1      32.599  28.466  24.742  1.00  0.00     0.202 C 
ENDROOT
BRANCH   1   2
ATOM      2  C   UNL A   1      33.983  27.916  24.396  1.00  0.00     0.261 C 
BRANCH   2   3
ATOM      3  O   UNL A   1      33.914  26.535  23.991  1.00  0.00    -0.459 OA
BRANCH   3   4
ATOM      4  C   UNL A   1      33.599  25.654  24.990  1.00  0.00     0.350 C 
ATOM      5  O   UNL A   1      34.180  25.616  26.070  1.00  0.00    -0.245 OA
BRANCH   4   6
ATOM      6  C   UNL A   1      32.477  24.806  24.602  1.00  0.00     0.136 A 
ATOM      7  C   UNL A   1      31.723  23.859  25.295  1.00  0.00     0.067 A 
ATOM      8  C   UNL A   1      30.672  23.336  24.473  1.00  0.00     0.039 A 
ATOM      9  C   UNL A   1      30.769  23.740  23.163  1.00  0.00     0.068 A 
ATOM     10  S   UNL A   1      32.023  24.862  22.939  1.00  0.00    -0.135 S 
BRANCH   7  11
ATOM     11  N   UNL A   1      31.989  23.509  26.615  1.00  0.00    -0.319 N 
ATOM     12  C   UNL A   1      32.846  22.575  27.163  1.00  0.00     0.276 C 
ATOM     13  O   UNL A   1      32.763  22.354  28.375  1.00  0.00    -0.267 OA
ATOM     14  H   UNL A   1      31.472  24.020  27.279  1.00  0.00     0.170 HD
BRANCH  12  15
ATOM     15  C   UNL A   1      33.920  21.872  26.395  1.00  0.00     0.151 A 
ATOM     16  C   UNL A   1      36.137  21.959  25.775  1.00  0.00     0.188 A 
ATOM     17  N   UNL A   1      36.033  20.860  25.016  1.00  0.00    -0.230 NA
ATOM     18  N   UNL A   1      35.140  22.469  26.509  1.00  0.00    -0.216 NA
ATOM     19  C   UNL A   1      34.807  20.314  24.913  1.00  0.00     0.137 A 
ATOM     20  C   UNL A   1      33.684  20.819  25.531  1.00  0.00     0.090 A 
ATOM     21  Cl  UNL A   1      32.154  20.189  25.081  1.00  0.00    -0.080 Cl
BRANCH  16  22
ATOM     22  S   UNL A   1      37.637  22.886  25.637  1.00  0.00    -0.090 SA
ATOM     23  C   UNL A   1      38.795  21.497  25.752  1.00  0.00     0.094 C 
ENDBRANCH  16  22
ENDBRANCH  12  15
ENDBRANCH   7  11
ENDBRANCH   4   6
ENDBRANCH   3   4
ENDBRANCH   2   3
ENDBRANCH   1   2
BRANCH   1  24
ATOM     24  O   UNL A   1      32.502  29.886  24.811  1.00  0.00    -0.374 OA
BRANCH  24  25
ATOM     25  C   UNL A   1      31.309  30.427  25.384  1.00  0.00     0.202 C 
BRANCH  25  26
ATOM     26  C   UNL A   1      31.517  31.458  26.501  1.00  0.00     0.261 C 
BRANCH  26  27
ATOM     27  O   UNL A   1      32.715  31.175  27.251  1.00  0.00    -0.460 OA
BRANCH  27  28
ATOM     28  C   UNL A   1      33.469  32.260  27.558  1.00  0.00     0.338 C 
ATOM     29  O   UNL A   1      33.101  33.420  27.626  1.00  0.00    -0.246 OA
BRANCH  28  30
ATOM     30  C   UNL A   1      34.806  31.828  28.008  1.00  0.00     0.060 A 
ATOM     31  C   UNL A   1      34.975  30.474  28.337  1.00  0.00     0.016 A 
ATOM     32  C   UNL A   1      35.854  32.733  28.170  1.00  0.00     0.016 A 
ATOM     33  C   UNL A   1      36.177  30.033  28.889  1.00  0.00     0.010 A 
ATOM     34  C   UNL A   1      37.053  32.291  28.732  1.00  0.00     0.010 A 
ATOM     35  C   UNL A   1      37.206  30.950  29.132  1.00  0.00    -0.014 A 
BRANCH  35  36
ATOM     36  C   UNL A   1      38.373  30.567  29.963  1.00  0.00     0.031 A 
ATOM     37  C   UNL A   1      39.353  29.574  29.404  1.00  0.00     0.074 A 
ATOM     38  C   UNL A   1      38.549  31.074  31.195  1.00  0.00     0.049 A 
ATOM     39  N   UNL A   1      40.355  28.971  29.988  1.00  0.00    -0.248 NA
ATOM     40  C   UNL A   1      39.170  29.206  27.990  1.00  0.00     0.031 C 
ATOM     41  C   UNL A   1      37.699  32.082  31.822  1.00  0.00     0.029 A 
ATOM     42  N   UNL A   1      39.492  30.783  32.149  1.00  0.00    -0.354 N 
ATOM     43  C   UNL A   1      40.905  28.134  29.025  1.00  0.00     0.074 A 
ATOM     44  C   UNL A   1      40.117  28.294  27.823  1.00  0.00     0.031 C 
ATOM     45  C   UNL A   1      38.144  32.310  33.070  1.00  0.00     0.029 A 
ATOM     46  C   UNL A   1      39.277  31.426  33.343  1.00  0.00     0.049 A 
ATOM     47  H   UNL A   1      40.249  30.175  31.992  1.00  0.00     0.167 HD
ATOM     48  C   UNL A   1      41.972  27.309  29.137  1.00  0.00     0.037 A 
ATOM     49  C   UNL A   1      39.899  31.283  34.530  1.00  0.00     0.037 A 
ATOM     50  C   UNL A   1      42.753  27.162  30.337  1.00  0.00     0.049 A 
ATOM     51  C   UNL A   1      41.036  30.300  34.653  1.00  0.00     0.074 A 
ATOM     52  C   UNL A   1      43.862  26.364  30.552  1.00  0.00     0.029 A 
ATOM     53  N   UNL A   1      42.499  27.827  31.527  1.00  0.00    -0.354 N 
ATOM     54  N   UNL A   1      41.559  29.518  33.740  1.00  0.00    -0.248 NA
ATOM     55  C   UNL A   1      41.671  30.177  35.974  1.00  0.00     0.031 C 
ATOM     56  C   UNL A   1      44.246  26.501  31.888  1.00  0.00     0.029 A 
ATOM     57  C   UNL A   1      43.420  27.440  32.487  1.00  0.00     0.049 A 
ATOM     58  H   UNL A   1      41.775  28.478  31.669  1.00  0.00     0.167 HD
ATOM     59  C   UNL A   1      42.608  28.849  34.360  1.00  0.00     0.074 A 
ATOM     60  C   UNL A   1      42.646  29.312  35.730  1.00  0.00     0.031 C 
ATOM     61  C   UNL A   1      43.466  27.939  33.837  1.00  0.00     0.037 A 
BRANCH  48  62
ATOM     62  C   UNL A   1      42.339  26.476  27.945  1.00  0.00     0.064 A 
ATOM     63  C   UNL A   1      41.729  25.239  27.687  1.00  0.00     0.173 A 
ATOM     64  C   UNL A   1      43.287  26.942  27.021  1.00  0.00     0.173 A 
ATOM     65  F   UNL A   1      40.825  24.741  28.545  1.00  0.00    -0.203 F 
ATOM     66  C   UNL A   1      42.071  24.490  26.565  1.00  0.00     0.198 A 
ATOM     67  C   UNL A   1      43.604  26.207  25.883  1.00  0.00     0.198 A 
ATOM     68  F   UNL A   1      43.900  28.121  27.216  1.00  0.00    -0.203 F 
ATOM     69  F   UNL A   1      41.509  23.290  26.364  1.00  0.00    -0.200 F 
ATOM     70  C   UNL A   1      43.002  24.978  25.659  1.00  0.00     0.200 A 
ATOM     71  F   UNL A   1      44.493  26.687  25.002  1.00  0.00    -0.200 F 
ATOM     72  F   UNL A   1      43.323  24.262  24.574  1.00  0.00    -0.200 F 
ENDBRANCH  48  62
BRANCH  49  73
ATOM     73  C   UNL A   1      39.449  32.073  35.707  1.00  0.00     0.064 A 
ATOM     74  C   UNL A   1      38.466  31.579  36.576  1.00  0.00     0.173 A 
ATOM     75  C   UNL A   1      39.973  33.347  35.975  1.00  0.00     0.173 A 
ATOM     76  F   UNL A   1      37.916  30.377  36.349  1.00  0.00    -0.203 F 
ATOM     77  C   UNL A   1      38.010  32.335  37.654  1.00  0.00     0.198 A 
ATOM     78  C   UNL A   1      39.539  34.089  37.071  1.00  0.00     0.198 A 
ATOM     79  F   UNL A   1      40.914  33.869  35.174  1.00  0.00    -0.203 F 
ATOM     80  F   UNL A   1      37.032  31.859  38.437  1.00  0.00    -0.200 F 
ATOM     81  C   UNL A   1      38.551  33.587  37.904  1.00  0.00     0.200 A 
ATOM     82  F   UNL A   1      40.074  35.293  37.317  1.00  0.00    -0.200 F 
ATOM     83  F   UNL A   1      38.113  34.313  38.941  1.00  0.00    -0.200 F 
ENDBRANCH  49  73
BRANCH  61  84
ATOM     84  C   UNL A   1      44.577  27.436  34.714  1.00  0.00     0.064 A 
ATOM     85  C   UNL A   1      45.804  28.103  34.818  1.00  0.00     0.173 A 
ATOM     86  C   UNL A   1      44.368  26.312  35.530  1.00  0.00     0.173 A 
ATOM     87  F   UNL A   1      46.058  29.174  34.050  1.00  0.00    -0.203 F 
ATOM     88  C   UNL A   1      46.786  27.660  35.701  1.00  0.00     0.198 A 
ATOM     89  C   UNL A   1      45.339  25.890  36.432  1.00  0.00     0.198 A 
ATOM     90  F   UNL A   1      43.207  25.642  35.474  1.00  0.00    -0.203 F 
ATOM     91  F   UNL A   1      47.964  28.295  35.762  1.00  0.00    -0.200 F 
ATOM     92  C   UNL A   1      46.548  26.562  36.515  1.00  0.00     0.200 A 
ATOM     93  F   UNL A   1      45.099  24.840  37.231  1.00  0.00    -0.200 F 
ATOM     94  F   UNL A   1      47.486  26.151  37.380  1.00  0.00    -0.200 F 
ENDBRANCH  61  84
ENDBRANCH  35  36
ENDBRANCH  28  30
ENDBRANCH  27  28
ENDBRANCH  26  27
ENDBRANCH  25  26
ENDBRANCH  24  25
ENDBRANCH   1  24
TORSDOF 17
ENDMDL
MODEL 2
REMARK VINA RESULT:     -11.0      1.906      2.451
REMARK SMILES CSc1ncc(Cl)c(C(=O)Nc2ccsc2C(=O)OCCOCCOC(=O)c2ccc(-c3c4nc(c(-c5c(F)c(F)c(F)c(F)c5F)c5ccc([nH]5)c(-c5c(F)c(F)c(F)c(F)c5F)c5nc(c(-c6c(F)c(F)c(F)c(F)c6F)c6ccc3[nH]6)C=C5)C=C4)cc2)n1
REMARK SMILES IDX 21 1 20 2 19 3 17 4 18 5 16 6 12 7 13 8 14 9 15 10 11 11
REMARK SMILES IDX 9 12 10 13 8 15 3 16 4 17 91 18 5 19 6 20 7 21 2 22 1 23
REMARK SMILES IDX 22 24 23 25 24 26 25 27 26 28 27 29 28 30 29 31 90 32 30 33
REMARK SMILES IDX 89 34 31 35 32 36 33 37 83 38 34 39 88 40 82 41 84 42 35 43
REMARK SMILES IDX 87 44 81 45 80 46 36 48 68 49 48 50 67 51 49 52 52 53 66 54
REMARK SMILES IDX 85 55 50 56 51 57 65 59 86 60 53 61 37 62 38 63 46 64 39 65
REMARK SMILES IDX 40 66 44 67 47 68 41 69 42 70 45 71 43 72 69 73 70 74 78 75
REMARK SMILES IDX 71 76 72 77 76 78 79 79 73 80 74 81 77 82 75 83 54 84 55 85
REMARK SMILES IDX 63 86 56 87 57 88 61 89 64 90 58 91 59 92 62 93 60 94
REMARK H PARENT 11 14 84 47 52 58
REMARK Flexibility Score: inf
ROOT
ATOM      1  C   UNL A   1      33.429  29.606  27.159  1.00  0.00     0.202 C 
ENDROOT
BRANCH   1   2
ATOM      2  C   UNL A   1      33.617  28.137  26.780  1.00  0.00     0.261 C 
BRANCH   2   3
ATOM      3  O   UNL A   1      32.776  27.768  25.670  1.00  0.00    -0.459 OA
BRANCH   3   4
ATOM      4  C   UNL A   1      32.007  26.653  25.872  1.00  0.00     0.350 C 
ATOM      5  O   UNL A   1      31.473  26.382  26.942  1.00  0.00    -0.245 OA
BRANCH   4   6
ATOM      6  C   UNL A   1      31.895  25.869  24.646  1.00  0.00     0.136 A 
ATOM      7  C   UNL A   1      31.261  24.663  24.350  1.00  0.00     0.067 A 
ATOM      8  C   UNL A   1      31.394  24.338  22.961  1.00  0.00     0.039 A 
ATOM      9  C   UNL A   1      32.259  25.176  22.299  1.00  0.00     0.068 A 
ATOM     10  S   UNL A   1      32.799  26.441  23.294  1.00  0.00    -0.135 S 
BRANCH   7  11
ATOM     11  N   UNL A   1      30.589  23.913  25.311  1.00  0.00    -0.319 N 
ATOM     12  C   UNL A   1      30.804  22.638  25.797  1.00  0.00     0.276 C 
ATOM     13  O   UNL A   1      29.946  22.150  26.539  1.00  0.00    -0.267 OA
ATOM     14  H   UNL A   1      29.821  24.376  25.718  1.00  0.00     0.170 HD
BRANCH  12  15
ATOM     15  C   UNL A   1      32.044  21.843  25.542  1.00  0.00     0.151 A 
ATOM     16  C   UNL A   1      32.840  19.793  24.856  1.00  0.00     0.188 A 
ATOM     17  N   UNL A   1      34.115  20.143  25.076  1.00  0.00    -0.230 NA
ATOM     18  N   UNL A   1      31.792  20.607  25.024  1.00  0.00    -0.216 NA
ATOM     19  C   UNL A   1      34.319  21.364  25.609  1.00  0.00     0.137 A 
ATOM     20  C   UNL A   1      33.309  22.243  25.931  1.00  0.00     0.090 A 
ATOM     21  Cl  UNL A   1      33.703  23.631  26.857  1.00  0.00    -0.080 Cl
BRANCH  16  22
ATOM     22  S   UNL A   1      32.532  18.088  24.501  1.00  0.00    -0.090 SA
ATOM     23  C   UNL A   1      34.205  17.642  23.964  1.00  0.00     0.094 C 
ENDBRANCH  16  22
ENDBRANCH  12  15
ENDBRANCH   7  11
ENDBRANCH   4   6
ENDBRANCH   3   4
ENDBRANCH   2   3
ENDBRANCH   1   2
BRANCH   1  24
ATOM     24  O   UNL A   1      32.077  30.041  27.277  1.00  0.00    -0.374 OA
BRANCH  24  25
ATOM     25  C   UNL A   1      31.651  31.078  26.389  1.00  0.00     0.202 C 
BRANCH  25  26
ATOM     26  C   UNL A   1      31.665  32.498  26.972  1.00  0.00     0.261 C 
BRANCH  26  27
ATOM     27  O   UNL A   1      33.013  32.949  27.207  1.00  0.00    -0.460 OA
BRANCH  27  28
ATOM     28  C   UNL A   1      33.129  33.978  28.082  1.00  0.00     0.338 C 
ATOM     29  O   UNL A   1      32.367  34.919  28.221  1.00  0.00    -0.246 OA
BRANCH  28  30
ATOM     30  C   UNL A   1      34.234  33.711  29.023  1.00  0.00     0.060 A 
ATOM     31  C   UNL A   1      35.445  34.388  28.812  1.00  0.00     0.016 A 
ATOM     32  C   UNL A   1      34.115  32.774  30.049  1.00  0.00     0.016 A 
ATOM     33  C   UNL A   1      36.562  34.083  29.589  1.00  0.00     0.010 A 
ATOM     34  C   UNL A   1      35.238  32.462  30.818  1.00  0.00     0.010 A 
ATOM     35  C   UNL A   1      36.474  33.085  30.566  1.00  0.00    -0.014 A 
BRANCH  35  36
ATOM     36  C   UNL A   1      37.701  32.551  31.207  1.00  0.00     0.031 A 
ATOM     37  C   UNL A   1      38.438  31.436  30.520  1.00  0.00     0.074 A 
ATOM     38  C   UNL A   1      38.140  33.033  32.382  1.00  0.00     0.049 A 
ATOM     39  N   UNL A   1      39.435  30.706  30.950  1.00  0.00    -0.248 NA
ATOM     40  C   UNL A   1      37.981  31.092  29.163  1.00  0.00     0.031 C 
ATOM     41  C   UNL A   1      37.542  34.147  33.114  1.00  0.00     0.029 A 
ATOM     42  N   UNL A   1      39.180  32.622  33.179  1.00  0.00    -0.354 N 
ATOM     43  C   UNL A   1      39.707  29.802  29.931  1.00  0.00     0.074 A 
ATOM     44  C   UNL A   1      38.761  30.062  28.868  1.00  0.00     0.031 C 
ATOM     45  C   UNL A   1      38.210  34.315  34.268  1.00  0.00     0.029 A 
ATOM     46  C   UNL A   1      39.248  33.290  34.376  1.00  0.00     0.049 A 
ATOM     47  H   UNL A   1      39.815  31.918  32.916  1.00  0.00     0.167 HD
ATOM     48  C   UNL A   1      40.661  28.844  29.889  1.00  0.00     0.037 A 
ATOM     49  C   UNL A   1      40.031  33.068  35.450  1.00  0.00     0.037 A 
ATOM     50  C   UNL A   1      41.601  28.596  30.950  1.00  0.00     0.049 A 
ATOM     51  C   UNL A   1      41.035  31.943  35.412  1.00  0.00     0.074 A 
ATOM     52  C   UNL A   1      42.616  27.659  31.002  1.00  0.00     0.029 A 
ATOM     53  N   UNL A   1      41.634  29.292  32.150  1.00  0.00    -0.354 N 
ATOM     54  N   UNL A   1      41.296  31.096  34.445  1.00  0.00    -0.248 NA
ATOM     55  C   UNL A   1      41.855  31.740  36.615  1.00  0.00     0.031 C 
ATOM     56  C   UNL A   1      43.227  27.747  32.256  1.00  0.00     0.029 A 
ATOM     57  C   UNL A   1      42.639  28.787  32.957  1.00  0.00     0.049 A 
ATOM     58  H   UNL A   1      41.033  30.033  32.391  1.00  0.00     0.167 HD
ATOM     59  C   UNL A   1      42.335  30.295  34.903  1.00  0.00     0.074 A 
ATOM     60  C   UNL A   1      42.655  30.753  36.238  1.00  0.00     0.031 C 
ATOM     61  C   UNL A   1      42.969  29.279  34.270  1.00  0.00     0.037 A 
BRANCH  48  62
ATOM     62  C   UNL A   1      40.717  27.966  28.673  1.00  0.00     0.064 A 
ATOM     63  C   UNL A   1      40.000  26.763  28.592  1.00  0.00     0.173 A 
ATOM     64  C   UNL A   1      41.467  28.357  27.553  1.00  0.00     0.173 A 
ATOM     65  F   UNL A   1      39.277  26.336  29.638  1.00  0.00    -0.203 F 
ATOM     66  C   UNL A   1      40.052  25.973  27.446  1.00  0.00     0.198 A 
ATOM     67  C   UNL A   1      41.491  27.582  26.398  1.00  0.00     0.198 A 
ATOM     68  F   UNL A   1      42.170  29.501  27.574  1.00  0.00    -0.203 F 
ATOM     69  F   UNL A   1      39.396  24.805  27.410  1.00  0.00    -0.200 F 
ATOM     70  C   UNL A   1      40.790  26.387  26.348  1.00  0.00     0.200 A 
ATOM     71  F   UNL A   1      42.194  27.991  25.332  1.00  0.00    -0.200 F 
ATOM     72  F   UNL A   1      40.830  25.632  25.242  1.00  0.00    -0.200 F 
ENDBRANCH  48  62
BRANCH  49  73
ATOM     73  C   UNL A   1      39.885  33.913  36.665  1.00  0.00     0.064 A 
ATOM     74  C   UNL A   1      39.013  33.547  37.699  1.00  0.00     0.173 A 
ATOM     75  C   UNL A   1      40.596  35.114  36.809  1.00  0.00     0.173 A 
ATOM     76  F   UNL A   1      38.291  32.421  37.599  1.00  0.00    -0.203 F 
ATOM     77  C   UNL A   1      38.840  34.359  38.819  1.00  0.00     0.198 A 
ATOM     78  C   UNL A   1      40.448  35.909  37.942  1.00  0.00     0.198 A 
ATOM     79  F   UNL A   1      41.444  35.512  35.847  1.00  0.00    -0.203 F 
ATOM     80  F   UNL A   1      37.960  34.010  39.766  1.00  0.00    -0.200 F 
ATOM     81  C   UNL A   1      39.562  35.537  38.942  1.00  0.00     0.200 A 
ATOM     82  F   UNL A   1      41.157  37.039  38.064  1.00  0.00    -0.200 F 
ATOM     83  F   UNL A   1      39.397  36.316  40.019  1.00  0.00    -0.200 F 
ENDBRANCH  49  73
BRANCH  61  84
ATOM     84  C   UNL A   1      44.133  28.634  34.968  1.00  0.00     0.064 A 
ATOM     85  C   UNL A   1      45.434  29.145  34.874  1.00  0.00     0.173 A 
ATOM     86  C   UNL A   1      43.918  27.536  35.818  1.00  0.00     0.173 A 
ATOM     87  F   UNL A   1      45.695  30.185  34.066  1.00  0.00    -0.203 F 
ATOM     88  C   UNL A   1      46.480  28.576  35.597  1.00  0.00     0.198 A 
ATOM     89  C   UNL A   1      44.958  26.990  36.561  1.00  0.00     0.198 A 
ATOM     90  F   UNL A   1      42.689  27.015  35.949  1.00  0.00    -0.203 F 
ATOM     91  F   UNL A   1      47.722  29.061  35.469  1.00  0.00    -0.200 F 
ATOM     92  C   UNL A   1      46.238  27.507  36.449  1.00  0.00     0.200 A 
ATOM     93  F   UNL A   1      44.718  25.969  37.397  1.00  0.00    -0.200 F 
ATOM     94  F   UNL A   1      47.241  26.976  37.161  1.00  0.00    -0.200 F 
ENDBRANCH  61  84
ENDBRANCH  35  36
ENDBRANCH  28  30
ENDBRANCH  27  28
ENDBRANCH  26  27
ENDBRANCH  25  26
ENDBRANCH  24  25
ENDBRANCH   1  24
TORSDOF 17
ENDMDL
MODEL 3
REMARK VINA RESULT:     -10.9      1.438      7.450
REMARK SMILES CSc1ncc(Cl)c(C(=O)Nc2ccsc2C(=O)OCCOCCOC(=O)c2ccc(-c3c4nc(c(-c5c(F)c(F)c(F)c(F)c5F)c5ccc([nH]5)c(-c5c(F)c(F)c(F)c(F)c5F)c5nc(c(-c6c(F)c(F)c(F)c(F)c6F)c6ccc3[nH]6)C=C5)C=C4)cc2)n1
REMARK SMILES IDX 21 1 20 2 19 3 17 4 18 5 16 6 12 7 13 8 14 9 15 10 11 11
REMARK SMILES IDX 9 12 10 13 8 15 3 16 4 17 91 18 5 19 6 20 7 21 2 22 1 23
REMARK SMILES IDX 22 24 23 25 24 26 25 27 26 28 27 29 28 30 29 31 90 32 30 33
REMARK SMILES IDX 89 34 31 35 32 36 33 37 83 38 34 39 88 40 82 41 84 42 35 43
REMARK SMILES IDX 87 44 81 45 80 46 36 48 68 49 48 50 67 51 49 52 52 53 66 54
REMARK SMILES IDX 85 55 50 56 51 57 65 59 86 60 53 61 37 62 38 63 46 64 39 65
REMARK SMILES IDX 40 66 44 67 47 68 41 69 42 70 45 71 43 72 69 73 70 74 78 75
REMARK SMILES IDX 71 76 72 77 76 78 79 79 73 80 74 81 77 82 75 83 54 84 55 85
REMARK SMILES IDX 63 86 56 87 57 88 61 89 64 90 58 91 59 92 62 93 60 94
REMARK H PARENT 11 14 84 47 52 58
REMARK Flexibility Score: inf
ROOT
ATOM      1  C   UNL A   1      32.134  29.037  27.211  1.00  0.00     0.202 C 
ENDROOT
BRANCH   1   2
ATOM      2  C   UNL A   1      32.663  27.840  26.420  1.00  0.00     0.261 C 
BRANCH   2   3
ATOM      3  O   UNL A   1      31.599  26.943  26.049  1.00  0.00    -0.459 OA
BRANCH   3   4
ATOM      4  C   UNL A   1      31.097  27.129  24.789  1.00  0.00     0.350 C 
ATOM      5  O   UNL A   1      30.430  28.105  24.462  1.00  0.00    -0.245 OA
BRANCH   4   6
ATOM      6  C   UNL A   1      31.488  26.036  23.906  1.00  0.00     0.136 A 
ATOM      7  C   UNL A   1      31.307  24.655  23.973  1.00  0.00     0.067 A 
ATOM      8  C   UNL A   1      31.833  24.009  22.807  1.00  0.00     0.039 A 
ATOM      9  C   UNL A   1      32.548  24.863  22.002  1.00  0.00     0.068 A 
ATOM     10  S   UNL A   1      32.470  26.467  22.554  1.00  0.00    -0.135 S 
BRANCH   7  11
ATOM     11  N   UNL A   1      30.680  24.032  25.048  1.00  0.00    -0.319 N 
ATOM     12  C   UNL A   1      30.908  22.819  25.667  1.00  0.00     0.276 C 
ATOM     13  O   UNL A   1      30.087  22.433  26.504  1.00  0.00    -0.267 OA
ATOM     14  H   UNL A   1      29.940  24.552  25.438  1.00  0.00     0.170 HD
BRANCH  12  15
ATOM     15  C   UNL A   1      32.125  21.979  25.441  1.00  0.00     0.151 A 
ATOM     16  C   UNL A   1      32.864  19.844  24.994  1.00  0.00     0.188 A 
ATOM     17  N   UNL A   1      34.152  20.204  25.077  1.00  0.00    -0.230 NA
ATOM     18  N   UNL A   1      31.832  20.687  25.118  1.00  0.00    -0.216 NA
ATOM     19  C   UNL A   1      34.397  21.483  25.419  1.00  0.00     0.137 A 
ATOM     20  C   UNL A   1      33.415  22.412  25.684  1.00  0.00     0.090 A 
ATOM     21  Cl  UNL A   1      33.877  23.910  26.380  1.00  0.00    -0.080 Cl
BRANCH  16  22
ATOM     22  S   UNL A   1      32.526  18.110  24.902  1.00  0.00    -0.090 SA
ATOM     23  C   UNL A   1      33.061  17.845  23.191  1.00  0.00     0.094 C 
ENDBRANCH  16  22
ENDBRANCH  12  15
ENDBRANCH   7  11
ENDBRANCH   4   6
ENDBRANCH   3   4
ENDBRANCH   2   3
ENDBRANCH   1   2
BRANCH   1  24
ATOM     24  O   UNL A   1      32.492  30.317  26.698  1.00  0.00    -0.374 OA
BRANCH  24  25
ATOM     25  C   UNL A   1      31.537  31.370  26.860  1.00  0.00     0.202 C 
BRANCH  25  26
ATOM     26  C   UNL A   1      32.113  32.792  26.873  1.00  0.00     0.261 C 
BRANCH  26  27
ATOM     27  O   UNL A   1      32.869  33.035  28.075  1.00  0.00    -0.460 OA
BRANCH  27  28
ATOM     28  C   UNL A   1      34.027  33.716  27.897  1.00  0.00     0.338 C 
ATOM     29  O   UNL A   1      34.157  34.897  27.627  1.00  0.00    -0.246 OA
BRANCH  28  30
ATOM     30  C   UNL A   1      35.171  32.863  28.275  1.00  0.00     0.060 A 
ATOM     31  C   UNL A   1      34.900  31.533  28.631  1.00  0.00     0.016 A 
ATOM     32  C   UNL A   1      36.470  33.365  28.343  1.00  0.00     0.016 A 
ATOM     33  C   UNL A   1      35.920  30.717  29.119  1.00  0.00     0.010 A 
ATOM     34  C   UNL A   1      37.488  32.550  28.842  1.00  0.00     0.010 A 
ATOM     35  C   UNL A   1      37.211  31.238  29.269  1.00  0.00    -0.014 A 
BRANCH  35  36
ATOM     36  C   UNL A   1      38.237  30.490  30.036  1.00  0.00     0.031 A 
ATOM     37  C   UNL A   1      38.447  30.844  31.482  1.00  0.00     0.074 A 
ATOM     38  C   UNL A   1      38.981  29.533  29.456  1.00  0.00     0.049 A 
ATOM     39  N   UNL A   1      39.377  30.447  32.311  1.00  0.00    -0.248 NA
ATOM     40  C   UNL A   1      37.475  31.781  32.070  1.00  0.00     0.031 C 
ATOM     41  C   UNL A   1      38.833  29.066  28.081  1.00  0.00     0.029 A 
ATOM     42  N   UNL A   1      40.032  28.801  29.952  1.00  0.00    -0.354 N 
ATOM     43  C   UNL A   1      39.120  31.103  33.508  1.00  0.00     0.074 A 
ATOM     44  C   UNL A   1      37.957  31.938  33.294  1.00  0.00     0.031 C 
ATOM     45  C   UNL A   1      39.777  28.143  27.832  1.00  0.00     0.029 A 
ATOM     46  C   UNL A   1      40.624  27.992  29.015  1.00  0.00     0.049 A 
ATOM     47  H   UNL A   1      40.330  28.851  30.889  1.00  0.00     0.167 HD
ATOM     48  C   UNL A   1      39.794  31.016  34.678  1.00  0.00     0.037 A 
ATOM     49  C   UNL A   1      41.746  27.250  29.094  1.00  0.00     0.037 A 
ATOM     50  C   UNL A   1      40.947  30.179  34.882  1.00  0.00     0.049 A 
ATOM     51  C   UNL A   1      42.527  27.229  30.385  1.00  0.00     0.074 A 
ATOM     52  C   UNL A   1      41.695  30.007  36.032  1.00  0.00     0.029 A 
ATOM     53  N   UNL A   1      41.520  29.378  33.905  1.00  0.00    -0.354 N 
ATOM     54  N   UNL A   1      42.277  27.843  31.516  1.00  0.00    -0.248 NA
ATOM     55  C   UNL A   1      43.749  26.411  30.411  1.00  0.00     0.031 C 
ATOM     56  C   UNL A   1      42.756  29.146  35.737  1.00  0.00     0.029 A 
ATOM     57  C   UNL A   1      42.626  28.726  34.422  1.00  0.00     0.049 A 
ATOM     58  H   UNL A   1      41.189  29.286  32.982  1.00  0.00     0.167 HD
ATOM     59  C   UNL A   1      43.278  27.451  32.397  1.00  0.00     0.074 A 
ATOM     60  C   UNL A   1      44.144  26.549  31.668  1.00  0.00     0.031 C 
ATOM     61  C   UNL A   1      43.457  27.802  33.693  1.00  0.00     0.037 A 
BRANCH  48  62
ATOM     62  C   UNL A   1      39.327  31.870  35.820  1.00  0.00     0.064 A 
ATOM     63  C   UNL A   1      38.363  31.423  36.735  1.00  0.00     0.173 A 
ATOM     64  C   UNL A   1      39.885  33.142  36.025  1.00  0.00     0.173 A 
ATOM     65  F   UNL A   1      37.788  30.221  36.577  1.00  0.00    -0.203 F 
ATOM     66  C   UNL A   1      37.957  32.225  37.799  1.00  0.00     0.198 A 
ATOM     67  C   UNL A   1      39.501  33.928  37.108  1.00  0.00     0.198 A 
ATOM     68  F   UNL A   1      40.814  33.618  35.182  1.00  0.00    -0.203 F 
ATOM     69  F   UNL A   1      37.001  31.795  38.633  1.00  0.00    -0.200 F 
ATOM     70  C   UNL A   1      38.532  33.472  37.989  1.00  0.00     0.200 A 
ATOM     71  F   UNL A   1      40.069  35.127  37.298  1.00  0.00    -0.200 F 
ATOM     72  F   UNL A   1      38.149  34.239  39.019  1.00  0.00    -0.200 F 
ENDBRANCH  48  62
BRANCH  49  73
ATOM     73  C   UNL A   1      42.216  26.482  27.911  1.00  0.00     0.064 A 
ATOM     74  C   UNL A   1      43.136  27.035  27.009  1.00  0.00     0.173 A 
ATOM     75  C   UNL A   1      41.740  25.189  27.644  1.00  0.00     0.173 A 
ATOM     76  F   UNL A   1      43.602  28.277  27.206  1.00  0.00    -0.203 F 
ATOM     77  C   UNL A   1      43.544  26.335  25.875  1.00  0.00     0.198 A 
ATOM     78  C   UNL A   1      42.173  24.477  26.527  1.00  0.00     0.198 A 
ATOM     79  F   UNL A   1      40.857  24.614  28.474  1.00  0.00    -0.203 F 
ATOM     80  F   UNL A   1      44.383  26.909  25.002  1.00  0.00    -0.200 F 
ATOM     81  C   UNL A   1      43.066  25.055  25.638  1.00  0.00     0.200 A 
ATOM     82  F   UNL A   1      41.720  23.236  26.309  1.00  0.00    -0.200 F 
ATOM     83  F   UNL A   1      43.461  24.381  24.549  1.00  0.00    -0.200 F 
ENDBRANCH  49  73
BRANCH  61  84
ATOM     84  C   UNL A   1      44.582  27.153  34.448  1.00  0.00     0.064 A 
ATOM     85  C   UNL A   1      45.862  27.721  34.511  1.00  0.00     0.173 A 
ATOM     86  C   UNL A   1      44.343  25.987  35.195  1.00  0.00     0.173 A 
ATOM     87  F   UNL A   1      46.145  28.827  33.807  1.00  0.00    -0.203 F 
ATOM     88  C   UNL A   1      46.863  27.141  35.286  1.00  0.00     0.198 A 
ATOM     89  C   UNL A   1      45.336  25.429  35.991  1.00  0.00     0.198 A 
ATOM     90  F   UNL A   1      43.132  25.409  35.174  1.00  0.00    -0.203 F 
ATOM     91  F   UNL A   1      48.088  27.683  35.308  1.00  0.00    -0.200 F 
ATOM     92  C   UNL A   1      46.596  26.004  36.035  1.00  0.00     0.200 A 
ATOM     93  F   UNL A   1      45.070  24.340  36.727  1.00  0.00    -0.200 F 
ATOM     94  F   UNL A   1      47.555  25.461  36.797  1.00  0.00    -0.200 F 
ENDBRANCH  61  84
ENDBRANCH  35  36
ENDBRANCH  28  30
ENDBRANCH  27  28
ENDBRANCH  26  27
ENDBRANCH  25  26
ENDBRANCH  24  25
ENDBRANCH   1  24
TORSDOF 17
ENDMDL
