MODEL 1
REMARK VINA RESULT:      -9.8      0.000      0.000
REMARK SMILES Cc1sc2[nH]c(SCC(=O)OCCOCCOC(=O)c3ccc(-c4c5nc(c(-c6c(F)c(F)c(F)c(F)c6F)c6ccc([nH]6)c(-c6c(F)c(F)c(F)c(F)c6F)c6nc(c(-c7c(F)c(F)c(F)c(F)c7F)c7ccc4[nH]7)C=C6)C=C5)cc3)nc(=O)c2c1C
REMARK SMILES IDX 14 1 13 2 12 3 11 4 9 5 10 6 8 7 7 8 6 9 1 10 2 11 3 12
REMARK SMILES IDX 87 13 4 14 86 15 88 16 5 17 84 18 83 20 85 21 15 22 16 23
REMARK SMILES IDX 17 24 18 25 19 26 20 27 21 28 82 29 22 30 81 31 23 32 24 33
REMARK SMILES IDX 25 34 75 35 26 36 80 37 74 38 76 39 27 40 79 41 73 42 72 43
REMARK SMILES IDX 28 45 60 46 40 47 59 48 41 49 44 50 58 51 77 52 42 53 43 54
REMARK SMILES IDX 57 56 78 57 45 58 29 59 30 60 38 61 31 62 32 63 36 64 39 65
REMARK SMILES IDX 33 66 34 67 37 68 35 69 61 70 62 71 70 72 63 73 64 74 68 75
REMARK SMILES IDX 71 76 65 77 66 78 69 79 67 80 46 81 47 82 55 83 48 84 49 85
REMARK SMILES IDX 53 86 56 87 50 88 51 89 54 90 52 91
REMARK H PARENT 5 19 76 44 44 55
REMARK Flexibility Score: inf
ROOT
ATOM      1  O   UNL A   1      35.553  32.664  33.069  1.00  0.00    -0.374 OA
ENDROOT
BRANCH   1   2
ATOM      2  C   UNL A   1      34.493  33.103  32.240  1.00  0.00     0.202 C 
BRANCH   2   3
ATOM      3  C   UNL A   1      34.161  34.597  32.142  1.00  0.00     0.261 C 
BRANCH   3   4
ATOM      4  O   UNL A   1      32.902  34.915  31.512  1.00  0.00    -0.463 OA
BRANCH   4   5
ATOM      5  C   UNL A   1      32.903  36.058  30.772  1.00  0.00     0.316 C 
ATOM      6  O   UNL A   1      32.531  37.148  31.204  1.00  0.00    -0.251 OA
BRANCH   5   7
ATOM      7  C   UNL A   1      33.366  35.935  29.334  1.00  0.00     0.200 C 
BRANCH   7   8
ATOM      8  S   UNL A   1      33.157  34.358  28.484  1.00  0.00    -0.076 SA
BRANCH   8   9
ATOM      9  C   UNL A   1      34.771  33.669  28.479  1.00  0.00     0.170 A 
ATOM     10  C   UNL A   1      38.445  28.709  28.329  1.00  0.00     0.057 C 
ATOM     11  C   UNL A   1      37.685  29.999  28.365  1.00  0.00     0.007 A 
ATOM     12  S   UNL A   1      36.138  30.080  27.626  1.00  0.00    -0.122 S 
ATOM     13  C   UNL A   1      38.042  31.202  28.967  1.00  0.00    -0.022 A 
ATOM     14  C   UNL A   1      35.938  31.687  28.092  1.00  0.00     0.108 A 
ATOM     15  C   UNL A   1      37.027  32.211  28.744  1.00  0.00     0.080 A 
ATOM     16  C   UNL A   1      39.286  31.418  29.775  1.00  0.00     0.046 C 
ATOM     17  N   UNL A   1      34.828  32.423  27.919  1.00  0.00    -0.326 N 
ATOM     18  C   UNL A   1      36.984  33.623  29.157  1.00  0.00     0.282 A 
ATOM     19  H   UNL A   1      34.070  32.073  27.399  1.00  0.00     0.169 HD
ATOM     20  N   UNL A   1      35.759  34.274  29.052  1.00  0.00    -0.185 NA
ATOM     21  O   UNL A   1      37.970  34.177  29.636  1.00  0.00    -0.267 OA
ENDBRANCH   8   9
ENDBRANCH   7   8
ENDBRANCH   5   7
ENDBRANCH   4   5
ENDBRANCH   3   4
ENDBRANCH   2   3
ENDBRANCH   1   2
BRANCH   1  22
ATOM     22  C   UNL A   1      36.609  31.907  32.501  1.00  0.00     0.202 C 
BRANCH  22  23
ATOM     23  C   UNL A   1      37.376  30.881  33.352  1.00  0.00     0.261 C 
BRANCH  23  24
ATOM     24  O   UNL A   1      38.455  30.199  32.730  1.00  0.00    -0.460 OA
BRANCH  24  25
ATOM     25  C   UNL A   1      38.361  28.866  32.877  1.00  0.00     0.338 C 
ATOM     26  O   UNL A   1      37.403  28.214  33.251  1.00  0.00    -0.246 OA
BRANCH  25  27
ATOM     27  C   UNL A   1      39.649  28.257  32.571  1.00  0.00     0.060 A 
ATOM     28  C   UNL A   1      40.553  28.025  33.608  1.00  0.00     0.016 A 
ATOM     29  C   UNL A   1      40.030  28.203  31.235  1.00  0.00     0.016 A 
ATOM     30  C   UNL A   1      41.896  27.832  33.302  1.00  0.00     0.010 A 
ATOM     31  C   UNL A   1      41.374  28.044  30.941  1.00  0.00     0.010 A 
ATOM     32  C   UNL A   1      42.324  27.896  31.969  1.00  0.00    -0.014 A 
BRANCH  32  33
ATOM     33  C   UNL A   1      43.770  27.770  31.671  1.00  0.00     0.031 A 
ATOM     34  C   UNL A   1      44.066  26.890  30.497  1.00  0.00     0.074 A 
ATOM     35  C   UNL A   1      44.644  28.759  31.977  1.00  0.00     0.049 A 
ATOM     36  N   UNL A   1      43.918  27.315  29.275  1.00  0.00    -0.248 NA
ATOM     37  C   UNL A   1      44.186  25.438  30.599  1.00  0.00     0.031 C 
ATOM     38  C   UNL A   1      44.267  30.171  32.141  1.00  0.00     0.029 A 
ATOM     39  N   UNL A   1      46.022  28.780  32.024  1.00  0.00    -0.354 N 
ATOM     40  C   UNL A   1      43.832  26.208  28.456  1.00  0.00     0.074 A 
ATOM     41  C   UNL A   1      44.052  25.063  29.314  1.00  0.00     0.031 C 
ATOM     42  C   UNL A   1      45.379  30.931  32.076  1.00  0.00     0.029 A 
ATOM     43  C   UNL A   1      46.558  30.070  31.997  1.00  0.00     0.049 A 
ATOM     44  H   UNL A   1      46.574  27.967  32.072  1.00  0.00     0.167 HD
ATOM     45  C   UNL A   1      43.543  26.310  27.131  1.00  0.00     0.037 A 
ATOM     46  C   UNL A   1      47.699  30.423  31.335  1.00  0.00     0.037 A 
ATOM     47  C   UNL A   1      43.260  27.632  26.651  1.00  0.00     0.049 A 
ATOM     48  C   UNL A   1      47.262  30.254  29.897  1.00  0.00     0.074 A 
ATOM     49  C   UNL A   1      42.155  28.386  26.315  1.00  0.00     0.029 A 
ATOM     50  N   UNL A   1      44.321  28.484  26.460  1.00  0.00    -0.354 N 
ATOM     51  N   UNL A   1      46.509  31.070  29.206  1.00  0.00    -0.248 NA
ATOM     52  C   UNL A   1      47.401  28.915  29.323  1.00  0.00     0.031 C 
ATOM     53  C   UNL A   1      42.579  29.751  26.424  1.00  0.00     0.029 A 
ATOM     54  C   UNL A   1      43.908  29.734  26.843  1.00  0.00     0.049 A 
ATOM     55  H   UNL A   1      45.210  28.243  26.113  1.00  0.00     0.167 HD
ATOM     56  C   UNL A   1      45.872  30.268  28.256  1.00  0.00     0.074 A 
ATOM     57  C   UNL A   1      46.479  28.960  28.375  1.00  0.00     0.031 C 
ATOM     58  C   UNL A   1      44.772  30.654  27.545  1.00  0.00     0.037 A 
BRANCH  45  59
ATOM     59  C   UNL A   1      43.706  25.225  26.150  1.00  0.00     0.064 A 
ATOM     60  C   UNL A   1      42.656  24.296  26.068  1.00  0.00     0.173 A 
ATOM     61  C   UNL A   1      44.900  24.937  25.490  1.00  0.00     0.173 A 
ATOM     62  F   UNL A   1      41.498  24.539  26.708  1.00  0.00    -0.203 F 
ATOM     63  C   UNL A   1      42.808  23.094  25.394  1.00  0.00     0.198 A 
ATOM     64  C   UNL A   1      45.045  23.732  24.797  1.00  0.00     0.198 A 
ATOM     65  F   UNL A   1      45.935  25.786  25.555  1.00  0.00    -0.203 F 
ATOM     66  F   UNL A   1      41.808  22.203  25.391  1.00  0.00    -0.200 F 
ATOM     67  C   UNL A   1      44.007  22.808  24.765  1.00  0.00     0.200 A 
ATOM     68  F   UNL A   1      46.205  23.446  24.188  1.00  0.00    -0.200 F 
ATOM     69  F   UNL A   1      44.169  21.633  24.142  1.00  0.00    -0.200 F 
ENDBRANCH  45  59
BRANCH  46  70
ATOM     70  C   UNL A   1      48.986  29.852  31.857  1.00  0.00     0.064 A 
ATOM     71  C   UNL A   1      49.081  29.527  33.227  1.00  0.00     0.173 A 
ATOM     72  C   UNL A   1      50.135  29.604  31.091  1.00  0.00     0.173 A 
ATOM     73  F   UNL A   1      48.089  29.857  34.069  1.00  0.00    -0.203 F 
ATOM     74  C   UNL A   1      50.182  28.851  33.753  1.00  0.00     0.198 A 
ATOM     75  C   UNL A   1      51.225  28.898  31.607  1.00  0.00     0.198 A 
ATOM     76  F   UNL A   1      50.223  30.020  29.820  1.00  0.00    -0.203 F 
ATOM     77  F   UNL A   1      50.204  28.517  35.051  1.00  0.00    -0.200 F 
ATOM     78  C   UNL A   1      51.237  28.499  32.932  1.00  0.00     0.200 A 
ATOM     79  F   UNL A   1      52.251  28.578  30.805  1.00  0.00    -0.200 F 
ATOM     80  F   UNL A   1      52.262  27.783  33.413  1.00  0.00    -0.200 F 
ENDBRANCH  46  70
BRANCH  58  81
ATOM     81  C   UNL A   1      44.364  32.077  27.697  1.00  0.00     0.064 A 
ATOM     82  C   UNL A   1      44.781  33.027  26.756  1.00  0.00     0.173 A 
ATOM     83  C   UNL A   1      43.498  32.496  28.720  1.00  0.00     0.173 A 
ATOM     84  F   UNL A   1      45.595  32.670  25.750  1.00  0.00    -0.203 F 
ATOM     85  C   UNL A   1      44.328  34.341  26.819  1.00  0.00     0.198 A 
ATOM     86  C   UNL A   1      43.028  33.806  28.765  1.00  0.00     0.198 A 
ATOM     87  F   UNL A   1      43.076  31.634  29.658  1.00  0.00    -0.203 F 
ATOM     88  F   UNL A   1      44.726  35.228  25.896  1.00  0.00    -0.200 F 
ATOM     89  C   UNL A   1      43.440  34.725  27.811  1.00  0.00     0.200 A 
ATOM     90  F   UNL A   1      42.150  34.172  29.711  1.00  0.00    -0.200 F 
ATOM     91  F   UNL A   1      42.964  35.978  27.838  1.00  0.00    -0.200 F 
ENDBRANCH  58  81
ENDBRANCH  32  33
ENDBRANCH  25  27
ENDBRANCH  24  25
ENDBRANCH  23  24
ENDBRANCH  22  23
ENDBRANCH   1  22
TORSDOF 16
ENDMDL
MODEL 2
REMARK VINA RESULT:      -9.8      4.966      6.963
REMARK SMILES Cc1sc2[nH]c(SCC(=O)OCCOCCOC(=O)c3ccc(-c4c5nc(c(-c6c(F)c(F)c(F)c(F)c6F)c6ccc([nH]6)c(-c6c(F)c(F)c(F)c(F)c6F)c6nc(c(-c7c(F)c(F)c(F)c(F)c7F)c7ccc4[nH]7)C=C6)C=C5)cc3)nc(=O)c2c1C
REMARK SMILES IDX 14 1 13 2 12 3 11 4 9 5 10 6 8 7 7 8 6 9 1 10 2 11 3 12
REMARK SMILES IDX 87 13 4 14 86 15 88 16 5 17 84 18 83 20 85 21 15 22 16 23
REMARK SMILES IDX 17 24 18 25 19 26 20 27 21 28 82 29 22 30 81 31 23 32 24 33
REMARK SMILES IDX 25 34 75 35 26 36 80 37 74 38 76 39 27 40 79 41 73 42 72 43
REMARK SMILES IDX 28 45 60 46 40 47 59 48 41 49 44 50 58 51 77 52 42 53 43 54
REMARK SMILES IDX 57 56 78 57 45 58 29 59 30 60 38 61 31 62 32 63 36 64 39 65
REMARK SMILES IDX 33 66 34 67 37 68 35 69 61 70 62 71 70 72 63 73 64 74 68 75
REMARK SMILES IDX 71 76 65 77 66 78 69 79 67 80 46 81 47 82 55 83 48 84 49 85
REMARK SMILES IDX 53 86 56 87 50 88 51 89 54 90 52 91
REMARK H PARENT 5 19 76 44 44 55
REMARK Flexibility Score: inf
ROOT
ATOM      1  O   UNL A   1      32.933  29.663  27.067  1.00  0.00    -0.374 OA
ENDROOT
BRANCH   1   2
ATOM      2  C   UNL A   1      31.917  28.683  26.950  1.00  0.00     0.202 C 
BRANCH   2   3
ATOM      3  C   UNL A   1      31.420  28.254  25.564  1.00  0.00     0.261 C 
BRANCH   3   4
ATOM      4  O   UNL A   1      31.555  26.849  25.262  1.00  0.00    -0.463 OA
BRANCH   4   5
ATOM      5  C   UNL A   1      31.033  26.468  24.064  1.00  0.00     0.316 C 
ATOM      6  O   UNL A   1      30.106  25.667  23.950  1.00  0.00    -0.251 OA
BRANCH   5   7
ATOM      7  C   UNL A   1      31.674  27.058  22.825  1.00  0.00     0.200 C 
BRANCH   7   8
ATOM      8  S   UNL A   1      32.179  25.950  21.493  1.00  0.00    -0.076 SA
BRANCH   8   9
ATOM      9  C   UNL A   1      33.033  24.661  22.323  1.00  0.00     0.170 A 
ATOM     10  C   UNL A   1      33.015  19.035  24.866  1.00  0.00     0.057 C 
ATOM     11  C   UNL A   1      33.173  20.406  24.285  1.00  0.00     0.007 A 
ATOM     12  S   UNL A   1      32.178  20.876  22.968  1.00  0.00    -0.122 S 
ATOM     13  C   UNL A   1      34.026  21.429  24.688  1.00  0.00    -0.022 A 
ATOM     14  C   UNL A   1      32.863  22.415  22.926  1.00  0.00     0.108 A 
ATOM     15  C   UNL A   1      33.877  22.591  23.836  1.00  0.00     0.080 A 
ATOM     16  C   UNL A   1      34.945  21.360  25.870  1.00  0.00     0.046 C 
ATOM     17  N   UNL A   1      32.469  23.430  22.140  1.00  0.00    -0.326 N 
ATOM     18  C   UNL A   1      34.582  23.882  23.858  1.00  0.00     0.282 A 
ATOM     19  H   UNL A   1      31.786  23.290  21.446  1.00  0.00     0.169 HD
ATOM     20  N   UNL A   1      34.033  24.914  23.103  1.00  0.00    -0.185 NA
ATOM     21  O   UNL A   1      35.571  24.057  24.565  1.00  0.00    -0.267 OA
ENDBRANCH   8   9
ENDBRANCH   7   8
ENDBRANCH   5   7
ENDBRANCH   4   5
ENDBRANCH   3   4
ENDBRANCH   2   3
ENDBRANCH   1   2
BRANCH   1  22
ATOM     22  C   UNL A   1      32.575  31.035  27.063  1.00  0.00     0.202 C 
BRANCH  22  23
ATOM     23  C   UNL A   1      33.497  32.082  27.712  1.00  0.00     0.261 C 
BRANCH  23  24
ATOM     24  O   UNL A   1      34.707  31.612  28.288  1.00  0.00    -0.460 OA
BRANCH  24  25
ATOM     25  C   UNL A   1      35.747  32.416  28.005  1.00  0.00     0.338 C 
ATOM     26  O   UNL A   1      35.743  33.461  27.380  1.00  0.00    -0.246 OA
BRANCH  25  27
ATOM     27  C   UNL A   1      36.971  31.817  28.520  1.00  0.00     0.060 A 
ATOM     28  C   UNL A   1      37.355  30.557  28.060  1.00  0.00     0.016 A 
ATOM     29  C   UNL A   1      37.540  32.395  29.649  1.00  0.00     0.016 A 
ATOM     30  C   UNL A   1      38.261  29.813  28.808  1.00  0.00     0.010 A 
ATOM     31  C   UNL A   1      38.417  31.634  30.405  1.00  0.00     0.010 A 
ATOM     32  C   UNL A   1      38.757  30.325  30.015  1.00  0.00    -0.014 A 
BRANCH  32  33
ATOM     33  C   UNL A   1      39.657  29.485  30.838  1.00  0.00     0.031 A 
ATOM     34  C   UNL A   1      39.670  28.045  30.431  1.00  0.00     0.074 A 
ATOM     35  C   UNL A   1      40.759  30.001  31.434  1.00  0.00     0.049 A 
ATOM     36  N   UNL A   1      40.346  27.638  29.395  1.00  0.00    -0.248 NA
ATOM     37  C   UNL A   1      38.690  27.072  30.906  1.00  0.00     0.031 C 
ATOM     38  C   UNL A   1      41.455  31.212  30.973  1.00  0.00     0.029 A 
ATOM     39  N   UNL A   1      41.589  29.500  32.415  1.00  0.00    -0.354 N 
ATOM     40  C   UNL A   1      39.834  26.413  29.018  1.00  0.00     0.074 A 
ATOM     41  C   UNL A   1      38.839  26.077  30.013  1.00  0.00     0.031 C 
ATOM     42  C   UNL A   1      42.683  31.249  31.529  1.00  0.00     0.029 A 
ATOM     43  C   UNL A   1      42.824  30.149  32.481  1.00  0.00     0.049 A 
ATOM     44  H   UNL A   1      41.336  28.758  33.010  1.00  0.00     0.167 HD
ATOM     45  C   UNL A   1      40.239  25.779  27.884  1.00  0.00     0.037 A 
ATOM     46  C   UNL A   1      44.014  29.530  32.737  1.00  0.00     0.037 A 
ATOM     47  C   UNL A   1      41.175  26.494  27.066  1.00  0.00     0.049 A 
ATOM     48  C   UNL A   1      44.183  28.700  31.483  1.00  0.00     0.074 A 
ATOM     49  C   UNL A   1      41.162  27.236  25.904  1.00  0.00     0.029 A 
ATOM     50  N   UNL A   1      42.484  26.536  27.479  1.00  0.00    -0.354 N 
ATOM     51  N   UNL A   1      44.562  29.126  30.307  1.00  0.00    -0.248 NA
ATOM     52  C   UNL A   1      43.551  27.379  31.482  1.00  0.00     0.031 C 
ATOM     53  C   UNL A   1      42.330  28.064  25.969  1.00  0.00     0.029 A 
ATOM     54  C   UNL A   1      42.962  27.786  27.180  1.00  0.00     0.049 A 
ATOM     55  H   UNL A   1      42.986  25.807  27.910  1.00  0.00     0.167 HD
ATOM     56  C   UNL A   1      43.981  28.245  29.391  1.00  0.00     0.074 A 
ATOM     57  C   UNL A   1      43.388  27.189  30.183  1.00  0.00     0.031 C 
ATOM     58  C   UNL A   1      43.857  28.504  28.057  1.00  0.00     0.037 A 
BRANCH  45  59
ATOM     59  C   UNL A   1      39.954  24.371  27.564  1.00  0.00     0.064 A 
ATOM     60  C   UNL A   1      40.897  23.429  28.005  1.00  0.00     0.173 A 
ATOM     61  C   UNL A   1      38.963  23.953  26.675  1.00  0.00     0.173 A 
ATOM     62  F   UNL A   1      41.874  23.806  28.850  1.00  0.00    -0.203 F 
ATOM     63  C   UNL A   1      40.886  22.124  27.536  1.00  0.00     0.198 A 
ATOM     64  C   UNL A   1      38.944  22.633  26.217  1.00  0.00     0.198 A 
ATOM     65  F   UNL A   1      38.052  24.821  26.214  1.00  0.00    -0.203 F 
ATOM     66  F   UNL A   1      41.840  21.269  27.929  1.00  0.00    -0.200 F 
ATOM     67  C   UNL A   1      39.914  21.728  26.634  1.00  0.00     0.200 A 
ATOM     68  F   UNL A   1      38.007  22.243  25.341  1.00  0.00    -0.200 F 
ATOM     69  F   UNL A   1      39.921  20.477  26.154  1.00  0.00    -0.200 F 
ENDBRANCH  45  59
BRANCH  46  70
ATOM     70  C   UNL A   1      44.192  28.955  34.113  1.00  0.00     0.064 A 
ATOM     71  C   UNL A   1      45.352  29.285  34.845  1.00  0.00     0.173 A 
ATOM     72  C   UNL A   1      43.290  28.094  34.757  1.00  0.00     0.173 A 
ATOM     73  F   UNL A   1      46.340  29.985  34.264  1.00  0.00    -0.203 F 
ATOM     74  C   UNL A   1      45.514  28.918  36.181  1.00  0.00     0.198 A 
ATOM     75  C   UNL A   1      43.433  27.753  36.104  1.00  0.00     0.198 A 
ATOM     76  F   UNL A   1      42.238  27.580  34.105  1.00  0.00    -0.203 F 
ATOM     77  F   UNL A   1      46.610  29.301  36.851  1.00  0.00    -0.200 F 
ATOM     78  C   UNL A   1      44.533  28.187  36.823  1.00  0.00     0.200 A 
ATOM     79  F   UNL A   1      42.483  27.027  36.712  1.00  0.00    -0.200 F 
ATOM     80  F   UNL A   1      44.646  27.897  38.126  1.00  0.00    -0.200 F 
ENDBRANCH  46  70
BRANCH  58  81
ATOM     81  C   UNL A   1      44.547  29.727  27.563  1.00  0.00     0.064 A 
ATOM     82  C   UNL A   1      43.867  30.952  27.544  1.00  0.00     0.173 A 
ATOM     83  C   UNL A   1      45.898  29.715  27.181  1.00  0.00     0.173 A 
ATOM     84  F   UNL A   1      42.579  31.015  27.916  1.00  0.00    -0.203 F 
ATOM     85  C   UNL A   1      44.521  32.126  27.185  1.00  0.00     0.198 A 
ATOM     86  C   UNL A   1      46.555  30.896  26.847  1.00  0.00     0.198 A 
ATOM     87  F   UNL A   1      46.597  28.570  27.167  1.00  0.00    -0.203 F 
ATOM     88  F   UNL A   1      43.856  33.289  27.193  1.00  0.00    -0.200 F 
ATOM     89  C   UNL A   1      45.867  32.100  26.854  1.00  0.00     0.200 A 
ATOM     90  F   UNL A   1      47.863  30.875  26.549  1.00  0.00    -0.200 F 
ATOM     91  F   UNL A   1      46.508  33.240  26.559  1.00  0.00    -0.200 F 
ENDBRANCH  58  81
ENDBRANCH  32  33
ENDBRANCH  25  27
ENDBRANCH  24  25
ENDBRANCH  23  24
ENDBRANCH  22  23
ENDBRANCH   1  22
TORSDOF 16
ENDMDL
MODEL 3
REMARK VINA RESULT:      -9.7      7.729     11.724
REMARK SMILES Cc1sc2[nH]c(SCC(=O)OCCOCCOC(=O)c3ccc(-c4c5nc(c(-c6c(F)c(F)c(F)c(F)c6F)c6ccc([nH]6)c(-c6c(F)c(F)c(F)c(F)c6F)c6nc(c(-c7c(F)c(F)c(F)c(F)c7F)c7ccc4[nH]7)C=C6)C=C5)cc3)nc(=O)c2c1C
REMARK SMILES IDX 14 1 13 2 12 3 11 4 9 5 10 6 8 7 7 8 6 9 1 10 2 11 3 12
REMARK SMILES IDX 87 13 4 14 86 15 88 16 5 17 84 18 83 20 85 21 15 22 16 23
REMARK SMILES IDX 17 24 18 25 19 26 20 27 21 28 82 29 22 30 81 31 23 32 24 33
REMARK SMILES IDX 25 34 75 35 26 36 80 37 74 38 76 39 27 40 79 41 73 42 72 43
REMARK SMILES IDX 28 45 60 46 40 47 59 48 41 49 44 50 58 51 77 52 42 53 43 54
REMARK SMILES IDX 57 56 78 57 45 58 29 59 30 60 38 61 31 62 32 63 36 64 39 65
REMARK SMILES IDX 33 66 34 67 37 68 35 69 61 70 62 71 70 72 63 73 64 74 68 75
REMARK SMILES IDX 71 76 65 77 66 78 69 79 67 80 46 81 47 82 55 83 48 84 49 85
REMARK SMILES IDX 53 86 56 87 50 88 51 89 54 90 52 91
REMARK H PARENT 5 19 76 44 44 55
REMARK Flexibility Score: inf
ROOT
ATOM      1  O   UNL A   1      46.749  23.000  38.209  1.00  0.00    -0.374 OA
ENDROOT
BRANCH   1   2
ATOM      2  C   UNL A   1      46.878  22.060  37.158  1.00  0.00     0.202 C 
BRANCH   2   3
ATOM      3  C   UNL A   1      47.464  20.671  37.437  1.00  0.00     0.261 C 
BRANCH   3   4
ATOM      4  O   UNL A   1      47.113  20.091  38.712  1.00  0.00    -0.463 OA
BRANCH   4   5
ATOM      5  C   UNL A   1      46.381  18.945  38.639  1.00  0.00     0.316 C 
ATOM      6  O   UNL A   1      45.545  18.727  37.764  1.00  0.00    -0.251 OA
BRANCH   5   7
ATOM      7  C   UNL A   1      46.616  17.920  39.730  1.00  0.00     0.200 C 
BRANCH   7   8
ATOM      8  S   UNL A   1      45.724  18.088  41.289  1.00  0.00    -0.076 SA
BRANCH   8   9
ATOM      9  C   UNL A   1      44.391  16.957  41.132  1.00  0.00     0.170 A 
ATOM     10  C   UNL A   1      40.946  12.421  43.513  1.00  0.00     0.057 C 
ATOM     11  C   UNL A   1      41.687  13.515  42.809  1.00  0.00     0.007 A 
ATOM     12  S   UNL A   1      42.450  14.740  43.738  1.00  0.00    -0.122 S 
ATOM     13  C   UNL A   1      41.894  13.687  41.444  1.00  0.00    -0.022 A 
ATOM     14  C   UNL A   1      43.049  15.494  42.355  1.00  0.00     0.108 A 
ATOM     15  C   UNL A   1      42.649  14.896  41.185  1.00  0.00     0.080 A 
ATOM     16  C   UNL A   1      41.439  12.731  40.383  1.00  0.00     0.046 C 
ATOM     17  N   UNL A   1      43.882  16.547  42.331  1.00  0.00    -0.326 N 
ATOM     18  C   UNL A   1      43.072  15.497  39.910  1.00  0.00     0.282 A 
ATOM     19  H   UNL A   1      44.121  17.016  43.163  1.00  0.00     0.169 HD
ATOM     20  N   UNL A   1      44.029  16.506  39.975  1.00  0.00    -0.185 NA
ATOM     21  O   UNL A   1      42.649  15.078  38.836  1.00  0.00    -0.267 OA
ENDBRANCH   8   9
ENDBRANCH   7   8
ENDBRANCH   5   7
ENDBRANCH   4   5
ENDBRANCH   3   4
ENDBRANCH   2   3
ENDBRANCH   1   2
BRANCH   1  22
ATOM     22  C   UNL A   1      45.848  24.085  38.061  1.00  0.00     0.202 C 
BRANCH  22  23
ATOM     23  C   UNL A   1      45.697  24.790  36.702  1.00  0.00     0.261 C 
BRANCH  23  24
ATOM     24  O   UNL A   1      44.376  25.028  36.239  1.00  0.00    -0.460 OA
BRANCH  24  25
ATOM     25  C   UNL A   1      43.976  24.099  35.354  1.00  0.00     0.338 C 
ATOM     26  O   UNL A   1      43.757  22.917  35.550  1.00  0.00    -0.246 OA
BRANCH  25  27
ATOM     27  C   UNL A   1      43.885  24.701  34.031  1.00  0.00     0.060 A 
ATOM     28  C   UNL A   1      44.438  24.029  32.940  1.00  0.00     0.016 A 
ATOM     29  C   UNL A   1      43.515  26.040  33.962  1.00  0.00     0.016 A 
ATOM     30  C   UNL A   1      44.719  24.742  31.780  1.00  0.00     0.010 A 
ATOM     31  C   UNL A   1      43.829  26.750  32.814  1.00  0.00     0.010 A 
ATOM     32  C   UNL A   1      44.467  26.120  31.729  1.00  0.00    -0.014 A 
BRANCH  32  33
ATOM     33  C   UNL A   1      44.849  26.877  30.514  1.00  0.00     0.031 A 
ATOM     34  C   UNL A   1      44.886  26.041  29.274  1.00  0.00     0.074 A 
ATOM     35  C   UNL A   1      44.592  28.202  30.397  1.00  0.00     0.049 A 
ATOM     36  N   UNL A   1      43.795  25.711  28.644  1.00  0.00    -0.248 NA
ATOM     37  C   UNL A   1      46.050  25.251  28.879  1.00  0.00     0.031 C 
ATOM     38  C   UNL A   1      43.534  28.907  31.137  1.00  0.00     0.029 A 
ATOM     39  N   UNL A   1      45.052  29.148  29.504  1.00  0.00    -0.354 N 
ATOM     40  C   UNL A   1      44.087  24.624  27.846  1.00  0.00     0.074 A 
ATOM     41  C   UNL A   1      45.510  24.401  27.985  1.00  0.00     0.031 C 
ATOM     42  C   UNL A   1      43.300  30.094  30.542  1.00  0.00     0.029 A 
ATOM     43  C   UNL A   1      44.266  30.302  29.464  1.00  0.00     0.049 A 
ATOM     44  H   UNL A   1      45.855  29.023  28.950  1.00  0.00     0.167 HD
ATOM     45  C   UNL A   1      43.125  23.956  27.155  1.00  0.00     0.037 A 
ATOM     46  C   UNL A   1      43.981  31.009  28.332  1.00  0.00     0.037 A 
ATOM     47  C   UNL A   1      41.778  24.402  27.365  1.00  0.00     0.049 A 
ATOM     48  C   UNL A   1      43.101  30.026  27.592  1.00  0.00     0.074 A 
ATOM     49  C   UNL A   1      40.667  24.006  28.079  1.00  0.00     0.029 A 
ATOM     50  N   UNL A   1      41.384  25.562  26.742  1.00  0.00    -0.354 N 
ATOM     51  N   UNL A   1      41.846  29.757  27.840  1.00  0.00    -0.248 NA
ATOM     52  C   UNL A   1      43.782  29.043  26.749  1.00  0.00     0.031 C 
ATOM     53  C   UNL A   1      39.870  25.188  28.228  1.00  0.00     0.029 A 
ATOM     54  C   UNL A   1      40.564  26.230  27.615  1.00  0.00     0.049 A 
ATOM     55  H   UNL A   1      41.641  25.858  25.839  1.00  0.00     0.167 HD
ATOM     56  C   UNL A   1      41.657  28.443  27.404  1.00  0.00     0.074 A 
ATOM     57  C   UNL A   1      42.882  28.073  26.730  1.00  0.00     0.031 C 
ATOM     58  C   UNL A   1      40.592  27.667  27.759  1.00  0.00     0.037 A 
BRANCH  45  59
ATOM     59  C   UNL A   1      43.385  22.981  26.083  1.00  0.00     0.064 A 
ATOM     60  C   UNL A   1      43.219  21.628  26.417  1.00  0.00     0.173 A 
ATOM     61  C   UNL A   1      43.994  23.296  24.868  1.00  0.00     0.173 A 
ATOM     62  F   UNL A   1      42.649  21.294  27.589  1.00  0.00    -0.203 F 
ATOM     63  C   UNL A   1      43.692  20.619  25.592  1.00  0.00     0.198 A 
ATOM     64  C   UNL A   1      44.454  22.277  24.030  1.00  0.00     0.198 A 
ATOM     65  F   UNL A   1      44.189  24.574  24.515  1.00  0.00    -0.203 F 
ATOM     66  F   UNL A   1      43.574  19.340  25.972  1.00  0.00    -0.200 F 
ATOM     67  C   UNL A   1      44.318  20.944  24.401  1.00  0.00     0.200 A 
ATOM     68  F   UNL A   1      45.066  22.584  22.877  1.00  0.00    -0.200 F 
ATOM     69  F   UNL A   1      44.806  19.972  23.618  1.00  0.00    -0.200 F 
ENDBRANCH  45  59
BRANCH  46  70
ATOM     70  C   UNL A   1      45.129  31.716  27.672  1.00  0.00     0.064 A 
ATOM     71  C   UNL A   1      44.961  33.055  27.261  1.00  0.00     0.173 A 
ATOM     72  C   UNL A   1      46.390  31.154  27.416  1.00  0.00     0.173 A 
ATOM     73  F   UNL A   1      43.752  33.635  27.332  1.00  0.00    -0.203 F 
ATOM     74  C   UNL A   1      46.024  33.823  26.786  1.00  0.00     0.198 A 
ATOM     75  C   UNL A   1      47.464  31.929  26.971  1.00  0.00     0.198 A 
ATOM     76  F   UNL A   1      46.619  29.848  27.610  1.00  0.00    -0.203 F 
ATOM     77  F   UNL A   1      45.826  35.107  26.457  1.00  0.00    -0.200 F 
ATOM     78  C   UNL A   1      47.287  33.271  26.681  1.00  0.00     0.200 A 
ATOM     79  F   UNL A   1      48.681  31.378  26.856  1.00  0.00    -0.200 F 
ATOM     80  F   UNL A   1      48.327  34.023  26.298  1.00  0.00    -0.200 F 
ENDBRANCH  46  70
BRANCH  58  81
ATOM     81  C   UNL A   1      39.508  28.352  28.515  1.00  0.00     0.064 A 
ATOM     82  C   UNL A   1      38.573  29.141  27.834  1.00  0.00     0.173 A 
ATOM     83  C   UNL A   1      39.340  28.172  29.897  1.00  0.00     0.173 A 
ATOM     84  F   UNL A   1      38.683  29.328  26.509  1.00  0.00    -0.203 F 
ATOM     85  C   UNL A   1      37.493  29.706  28.504  1.00  0.00     0.198 A 
ATOM     86  C   UNL A   1      38.244  28.718  30.559  1.00  0.00     0.198 A 
ATOM     87  F   UNL A   1      40.212  27.438  30.605  1.00  0.00    -0.203 F 
ATOM     88  F   UNL A   1      36.599  30.441  27.828  1.00  0.00    -0.200 F 
ATOM     89  C   UNL A   1      37.319  29.480  29.860  1.00  0.00     0.200 A 
ATOM     90  F   UNL A   1      38.062  28.481  31.867  1.00  0.00    -0.200 F 
ATOM     91  F   UNL A   1      36.249  29.982  30.493  1.00  0.00    -0.200 F 
ENDBRANCH  58  81
ENDBRANCH  32  33
ENDBRANCH  25  27
ENDBRANCH  24  25
ENDBRANCH  23  24
ENDBRANCH  22  23
ENDBRANCH   1  22
TORSDOF 16
ENDMDL
