MODEL 1
REMARK VINA RESULT:     -11.3      0.000      0.000
REMARK SMILES O=C(OCCOCCOC(=O)[C@@H]1[C@H](C(=O)Nc2ccccc2OC(F)F)[C@@H]2C=C[C@H]1C2)c1ccc(-c2c3nc(c(-c4c(F)c(F)c(F)c(F)c4F)c4ccc([nH]4)c(-c4c(F)c(F)c(F)c(F)c4F)c4nc(c(-c5c(F)c(F)c(F)c(F)c5F)c5ccc2[nH]5)C=C4)C=C3)cc1
REMARK SMILES IDX 7 1 6 2 5 3 4 4 3 5 2 6 1 7 32 8 33 9 94 10 34 11 93 12
REMARK SMILES IDX 35 13 36 14 37 15 87 16 38 17 92 18 86 19 88 20 39 21 91 22
REMARK SMILES IDX 85 23 84 24 40 26 72 27 52 28 71 29 53 30 56 31 70 32 89 33
REMARK SMILES IDX 54 34 55 35 69 37 90 38 57 39 41 40 42 41 50 42 43 43 44 44
REMARK SMILES IDX 48 45 51 46 45 47 46 48 49 49 47 50 73 51 74 52 82 53 75 54
REMARK SMILES IDX 76 55 80 56 83 57 77 58 78 59 81 60 79 61 58 62 59 63 67 64
REMARK SMILES IDX 60 65 61 66 65 67 68 68 62 69 63 70 66 71 64 72 8 73 9 74
REMARK SMILES IDX 10 75 11 76 12 77 13 78 30 79 27 80 29 81 31 82 28 83 14 84
REMARK SMILES IDX 15 85 16 86 17 88 18 89 22 90 19 91 21 92 20 93 23 94 24 95
REMARK SMILES IDX 25 96 26 97
REMARK H PARENT 88 25 56 36 16 87
REMARK Flexibility Score: inf
ROOT
ATOM      1  C   UNL A   1      33.661  22.081  23.870  1.00  0.00     0.202 C 
ENDROOT
BRANCH   1   2
ATOM      2  O   UNL A   1      34.842  21.404  24.310  1.00  0.00    -0.374 OA
BRANCH   2   3
ATOM      3  C   UNL A   1      35.848  22.252  24.858  1.00  0.00     0.202 C 
BRANCH   3   4
ATOM      4  C   UNL A   1      37.249  21.639  24.745  1.00  0.00     0.261 C 
BRANCH   4   5
ATOM      5  O   UNL A   1      37.905  21.633  26.032  1.00  0.00    -0.460 OA
BRANCH   5   6
ATOM      6  C   UNL A   1      39.221  21.718  26.334  1.00  0.00     0.338 C 
ATOM      7  O   UNL A   1      39.884  20.683  26.389  1.00  0.00    -0.246 OA
BRANCH   6   8
ATOM      8  C   UNL A   1      39.920  22.993  26.672  1.00  0.00     0.060 A 
ATOM      9  C   UNL A   1      39.604  24.223  26.106  1.00  0.00     0.016 A 
ATOM     10  C   UNL A   1      40.857  22.982  27.717  1.00  0.00     0.016 A 
ATOM     11  C   UNL A   1      40.087  25.413  26.593  1.00  0.00     0.010 A 
ATOM     12  C   UNL A   1      41.438  24.175  28.165  1.00  0.00     0.010 A 
ATOM     13  C   UNL A   1      41.033  25.388  27.600  1.00  0.00    -0.014 A 
BRANCH  13  14
ATOM     14  C   UNL A   1      41.745  26.652  27.777  1.00  0.00     0.031 A 
ATOM     15  C   UNL A   1      41.100  27.654  28.680  1.00  0.00     0.074 A 
ATOM     16  C   UNL A   1      43.026  26.748  27.387  1.00  0.00     0.049 A 
ATOM     17  N   UNL A   1      41.473  28.862  28.981  1.00  0.00    -0.248 NA
ATOM     18  C   UNL A   1      39.871  27.211  29.369  1.00  0.00     0.031 C 
ATOM     19  C   UNL A   1      43.794  25.677  26.743  1.00  0.00     0.029 A 
ATOM     20  N   UNL A   1      43.921  27.769  27.521  1.00  0.00    -0.354 N 
ATOM     21  C   UNL A   1      40.500  29.341  29.847  1.00  0.00     0.074 A 
ATOM     22  C   UNL A   1      39.538  28.288  30.056  1.00  0.00     0.031 C 
ATOM     23  C   UNL A   1      45.050  26.106  26.532  1.00  0.00     0.029 A 
ATOM     24  C   UNL A   1      45.138  27.502  26.944  1.00  0.00     0.049 A 
ATOM     25  H   UNL A   1      43.715  28.612  27.984  1.00  0.00     0.167 HD
ATOM     26  C   UNL A   1      40.420  30.579  30.381  1.00  0.00     0.037 A 
ATOM     27  C   UNL A   1      46.168  28.337  26.725  1.00  0.00     0.037 A 
ATOM     28  C   UNL A   1      41.414  31.581  30.121  1.00  0.00     0.049 A 
ATOM     29  C   UNL A   1      45.994  29.760  27.193  1.00  0.00     0.074 A 
ATOM     30  C   UNL A   1      41.425  32.914  30.472  1.00  0.00     0.029 A 
ATOM     31  N   UNL A   1      42.593  31.332  29.422  1.00  0.00    -0.354 N 
ATOM     32  N   UNL A   1      45.002  30.288  27.875  1.00  0.00    -0.248 NA
ATOM     33  C   UNL A   1      47.054  30.707  26.840  1.00  0.00     0.031 C 
ATOM     34  C   UNL A   1      42.587  33.484  29.937  1.00  0.00     0.029 A 
ATOM     35  C   UNL A   1      43.334  32.491  29.313  1.00  0.00     0.049 A 
ATOM     36  H   UNL A   1      42.860  30.456  29.060  1.00  0.00     0.167 HD
ATOM     37  C   UNL A   1      45.323  31.624  28.054  1.00  0.00     0.074 A 
ATOM     38  C   UNL A   1      46.615  31.818  27.417  1.00  0.00     0.031 C 
ATOM     39  C   UNL A   1      44.624  32.608  28.675  1.00  0.00     0.037 A 
BRANCH  26  40
ATOM     40  C   UNL A   1      39.169  30.908  31.140  1.00  0.00     0.064 A 
ATOM     41  C   UNL A   1      38.097  31.606  30.563  1.00  0.00     0.173 A 
ATOM     42  C   UNL A   1      39.090  30.606  32.508  1.00  0.00     0.173 A 
ATOM     43  F   UNL A   1      38.141  31.963  29.271  1.00  0.00    -0.203 F 
ATOM     44  C   UNL A   1      37.015  32.025  31.337  1.00  0.00     0.198 A 
ATOM     45  C   UNL A   1      37.994  30.999  33.271  1.00  0.00     0.198 A 
ATOM     46  F   UNL A   1      40.096  29.961  33.117  1.00  0.00    -0.203 F 
ATOM     47  F   UNL A   1      36.044  32.766  30.783  1.00  0.00    -0.200 F 
ATOM     48  C   UNL A   1      36.964  31.720  32.688  1.00  0.00     0.200 A 
ATOM     49  F   UNL A   1      37.951  30.707  34.578  1.00  0.00    -0.200 F 
ATOM     50  F   UNL A   1      35.934  32.142  33.435  1.00  0.00    -0.200 F 
ENDBRANCH  26  40
BRANCH  27  51
ATOM     51  C   UNL A   1      47.364  27.889  25.962  1.00  0.00     0.064 A 
ATOM     52  C   UNL A   1      47.364  27.832  24.562  1.00  0.00     0.173 A 
ATOM     53  C   UNL A   1      48.540  27.489  26.622  1.00  0.00     0.173 A 
ATOM     54  F   UNL A   1      46.266  28.182  23.878  1.00  0.00    -0.203 F 
ATOM     55  C   UNL A   1      48.480  27.378  23.856  1.00  0.00     0.198 A 
ATOM     56  C   UNL A   1      49.665  27.068  25.915  1.00  0.00     0.198 A 
ATOM     57  F   UNL A   1      48.601  27.515  27.962  1.00  0.00    -0.203 F 
ATOM     58  F   UNL A   1      48.433  27.289  22.520  1.00  0.00    -0.200 F 
ATOM     59  C   UNL A   1      49.631  27.003  24.533  1.00  0.00     0.200 A 
ATOM     60  F   UNL A   1      50.778  26.721  26.577  1.00  0.00    -0.200 F 
ATOM     61  F   UNL A   1      50.702  26.569  23.854  1.00  0.00    -0.200 F 
ENDBRANCH  27  51
BRANCH  39  62
ATOM     62  C   UNL A   1      45.276  33.954  28.739  1.00  0.00     0.064 A 
ATOM     63  C   UNL A   1      45.021  34.940  27.777  1.00  0.00     0.173 A 
ATOM     64  C   UNL A   1      46.108  34.275  29.821  1.00  0.00     0.173 A 
ATOM     65  F   UNL A   1      44.243  34.669  26.719  1.00  0.00    -0.203 F 
ATOM     66  C   UNL A   1      45.598  36.201  27.887  1.00  0.00     0.198 A 
ATOM     67  C   UNL A   1      46.651  35.547  29.946  1.00  0.00     0.198 A 
ATOM     68  F   UNL A   1      46.368  33.361  30.769  1.00  0.00    -0.203 F 
ATOM     69  F   UNL A   1      45.381  37.119  26.935  1.00  0.00    -0.200 F 
ATOM     70  C   UNL A   1      46.402  36.505  28.977  1.00  0.00     0.200 A 
ATOM     71  F   UNL A   1      47.410  35.845  31.009  1.00  0.00    -0.200 F 
ATOM     72  F   UNL A   1      46.941  37.727  29.090  1.00  0.00    -0.200 F 
ENDBRANCH  39  62
ENDBRANCH  13  14
ENDBRANCH   6   8
ENDBRANCH   5   6
ENDBRANCH   4   5
ENDBRANCH   3   4
ENDBRANCH   2   3
ENDBRANCH   1   2
BRANCH   1  73
ATOM     73  C   UNL A   1      34.117  22.986  22.767  1.00  0.00     0.261 C 
BRANCH  73  74
ATOM     74  O   UNL A   1      32.894  23.411  22.138  1.00  0.00    -0.463 OA
BRANCH  74  75
ATOM     75  C   UNL A   1      32.758  24.733  21.928  1.00  0.00     0.310 C 
ATOM     76  O   UNL A   1      33.403  25.376  21.100  1.00  0.00    -0.252 OA
BRANCH  75  77
ATOM     77  C   UNL A   1      31.712  25.345  22.805  1.00  0.00     0.119 C 
ATOM     78  C   UNL A   1      32.060  26.222  24.039  1.00  0.00     0.100 C 
ATOM     79  C   UNL A   1      30.491  24.517  23.284  1.00  0.00     0.027 C 
ATOM     80  C   UNL A   1      30.830  25.969  24.965  1.00  0.00     0.025 C 
ATOM     81  C   UNL A   1      30.758  23.717  24.537  1.00  0.00    -0.027 C 
ATOM     82  C   UNL A   1      29.709  25.665  23.954  1.00  0.00     0.017 C 
ATOM     83  C   UNL A   1      30.910  24.586  25.547  1.00  0.00    -0.027 C 
BRANCH  78  84
ATOM     84  C   UNL A   1      33.391  26.428  24.817  1.00  0.00     0.229 C 
ATOM     85  O   UNL A   1      34.131  25.439  24.939  1.00  0.00    -0.274 OA
ATOM     86  N   UNL A   1      33.960  27.629  25.152  1.00  0.00    -0.323 N 
ATOM     87  H   UNL A   1      34.938  27.658  25.042  1.00  0.00     0.170 HD
BRANCH  86  88
ATOM     88  C   UNL A   1      33.399  28.823  25.622  1.00  0.00     0.084 A 
ATOM     89  C   UNL A   1      32.397  29.459  24.884  1.00  0.00     0.030 A 
ATOM     90  C   UNL A   1      33.813  29.402  26.807  1.00  0.00     0.149 A 
ATOM     91  C   UNL A   1      31.630  30.472  25.476  1.00  0.00     0.002 A 
ATOM     92  C   UNL A   1      33.018  30.370  27.430  1.00  0.00     0.049 A 
ATOM     93  C   UNL A   1      31.897  30.877  26.781  1.00  0.00     0.004 A 
BRANCH  90  94
ATOM     94  O   UNL A   1      34.928  28.960  27.434  1.00  0.00    -0.433 OA
BRANCH  94  95
ATOM     95  C   UNL A   1      35.745  29.900  28.116  1.00  0.00     0.542 C 
ATOM     96  F   UNL A   1      36.257  29.346  29.234  1.00  0.00    -0.167 F 
ATOM     97  F   UNL A   1      36.763  30.303  27.327  1.00  0.00    -0.167 F 
ENDBRANCH  94  95
ENDBRANCH  90  94
ENDBRANCH  86  88
ENDBRANCH  78  84
ENDBRANCH  75  77
ENDBRANCH  74  75
ENDBRANCH  73  74
ENDBRANCH   1  73
TORSDOF 18
ENDMDL
MODEL 2
REMARK VINA RESULT:     -11.3      4.385      7.723
REMARK SMILES O=C(OCCOCCOC(=O)[C@@H]1[C@H](C(=O)Nc2ccccc2OC(F)F)[C@@H]2C=C[C@H]1C2)c1ccc(-c2c3nc(c(-c4c(F)c(F)c(F)c(F)c4F)c4ccc([nH]4)c(-c4c(F)c(F)c(F)c(F)c4F)c4nc(c(-c5c(F)c(F)c(F)c(F)c5F)c5ccc2[nH]5)C=C4)C=C3)cc1
REMARK SMILES IDX 7 1 6 2 5 3 4 4 3 5 2 6 1 7 32 8 33 9 94 10 34 11 93 12
REMARK SMILES IDX 35 13 36 14 37 15 87 16 38 17 92 18 86 19 88 20 39 21 91 22
REMARK SMILES IDX 85 23 84 24 40 26 72 27 52 28 71 29 53 30 56 31 70 32 89 33
REMARK SMILES IDX 54 34 55 35 69 37 90 38 57 39 41 40 42 41 50 42 43 43 44 44
REMARK SMILES IDX 48 45 51 46 45 47 46 48 49 49 47 50 73 51 74 52 82 53 75 54
REMARK SMILES IDX 76 55 80 56 83 57 77 58 78 59 81 60 79 61 58 62 59 63 67 64
REMARK SMILES IDX 60 65 61 66 65 67 68 68 62 69 63 70 66 71 64 72 8 73 9 74
REMARK SMILES IDX 10 75 11 76 12 77 13 78 30 79 27 80 29 81 31 82 28 83 14 84
REMARK SMILES IDX 15 85 16 86 17 88 18 89 22 90 19 91 21 92 20 93 23 94 24 95
REMARK SMILES IDX 25 96 26 97
REMARK H PARENT 88 25 56 36 16 87
REMARK Flexibility Score: inf
ROOT
ATOM      1  C   UNL A   1      32.982  29.494  27.427  1.00  0.00     0.202 C 
ENDROOT
BRANCH   1   2
ATOM      2  O   UNL A   1      32.725  30.549  26.495  1.00  0.00    -0.374 OA
BRANCH   2   3
ATOM      3  C   UNL A   1      31.625  31.391  26.834  1.00  0.00     0.202 C 
BRANCH   3   4
ATOM      4  C   UNL A   1      31.961  32.878  26.670  1.00  0.00     0.261 C 
BRANCH   4   5
ATOM      5  O   UNL A   1      32.402  33.440  27.925  1.00  0.00    -0.460 OA
BRANCH   5   6
ATOM      6  C   UNL A   1      33.567  34.052  28.238  1.00  0.00     0.338 C 
ATOM      7  O   UNL A   1      33.682  35.256  28.012  1.00  0.00    -0.246 OA
BRANCH   6   8
ATOM      8  C   UNL A   1      34.760  33.345  28.789  1.00  0.00     0.060 A 
ATOM      9  C   UNL A   1      34.708  32.094  29.394  1.00  0.00     0.016 A 
ATOM     10  C   UNL A   1      36.027  33.906  28.569  1.00  0.00     0.016 A 
ATOM     11  C   UNL A   1      35.831  31.358  29.681  1.00  0.00     0.010 A 
ATOM     12  C   UNL A   1      37.187  33.216  28.944  1.00  0.00     0.010 A 
ATOM     13  C   UNL A   1      37.074  31.933  29.489  1.00  0.00    -0.014 A 
BRANCH  13  14
ATOM     14  C   UNL A   1      38.163  31.231  30.165  1.00  0.00     0.031 A 
ATOM     15  C   UNL A   1      38.273  31.445  31.640  1.00  0.00     0.074 A 
ATOM     16  C   UNL A   1      38.806  30.240  29.527  1.00  0.00     0.049 A 
ATOM     17  N   UNL A   1      39.156  30.996  32.481  1.00  0.00    -0.248 NA
ATOM     18  C   UNL A   1      37.206  32.257  32.260  1.00  0.00     0.031 C 
ATOM     19  C   UNL A   1      38.532  29.804  28.154  1.00  0.00     0.029 A 
ATOM     20  N   UNL A   1      39.778  29.388  29.962  1.00  0.00    -0.354 N 
ATOM     21  C   UNL A   1      38.786  31.516  33.714  1.00  0.00     0.074 A 
ATOM     22  C   UNL A   1      37.580  32.282  33.526  1.00  0.00     0.031 C 
ATOM     23  C   UNL A   1      39.330  28.764  27.858  1.00  0.00     0.029 A 
ATOM     24  C   UNL A   1      40.222  28.528  28.987  1.00  0.00     0.049 A 
ATOM     25  H   UNL A   1      40.127  29.389  30.882  1.00  0.00     0.167 HD
ATOM     26  C   UNL A   1      39.440  31.378  34.887  1.00  0.00     0.037 A 
ATOM     27  C   UNL A   1      41.282  27.702  29.011  1.00  0.00     0.037 A 
ATOM     28  C   UNL A   1      40.643  30.603  34.997  1.00  0.00     0.049 A 
ATOM     29  C   UNL A   1      42.092  27.681  30.283  1.00  0.00     0.074 A 
ATOM     30  C   UNL A   1      41.499  30.463  36.069  1.00  0.00     0.029 A 
ATOM     31  N   UNL A   1      41.159  29.830  33.959  1.00  0.00    -0.354 N 
ATOM     32  N   UNL A   1      41.856  28.295  31.421  1.00  0.00    -0.248 NA
ATOM     33  C   UNL A   1      43.321  26.885  30.271  1.00  0.00     0.031 C 
ATOM     34  C   UNL A   1      42.561  29.648  35.660  1.00  0.00     0.029 A 
ATOM     35  C   UNL A   1      42.332  29.224  34.356  1.00  0.00     0.049 A 
ATOM     36  H   UNL A   1      40.744  29.731  33.071  1.00  0.00     0.167 HD
ATOM     37  C   UNL A   1      42.894  27.948  32.270  1.00  0.00     0.074 A 
ATOM     38  C   UNL A   1      43.754  27.052  31.514  1.00  0.00     0.031 C 
ATOM     39  C   UNL A   1      43.131  28.329  33.551  1.00  0.00     0.037 A 
BRANCH  26  40
ATOM     40  C   UNL A   1      38.935  32.191  36.041  1.00  0.00     0.064 A 
ATOM     41  C   UNL A   1      39.334  33.518  36.263  1.00  0.00     0.173 A 
ATOM     42  C   UNL A   1      38.112  31.588  37.005  1.00  0.00     0.173 A 
ATOM     43  F   UNL A   1      40.160  34.128  35.400  1.00  0.00    -0.203 F 
ATOM     44  C   UNL A   1      38.963  34.195  37.425  1.00  0.00     0.198 A 
ATOM     45  C   UNL A   1      37.718  32.277  38.150  1.00  0.00     0.198 A 
ATOM     46  F   UNL A   1      37.719  30.314  36.857  1.00  0.00    -0.203 F 
ATOM     47  F   UNL A   1      39.428  35.431  37.656  1.00  0.00    -0.200 F 
ATOM     48  C   UNL A   1      38.155  33.574  38.365  1.00  0.00     0.200 A 
ATOM     49  F   UNL A   1      36.942  31.671  39.058  1.00  0.00    -0.200 F 
ATOM     50  F   UNL A   1      37.817  34.217  39.492  1.00  0.00    -0.200 F 
ENDBRANCH  26  40
BRANCH  27  51
ATOM     51  C   UNL A   1      41.680  26.938  27.798  1.00  0.00     0.064 A 
ATOM     52  C   UNL A   1      41.275  25.611  27.600  1.00  0.00     0.173 A 
ATOM     53  C   UNL A   1      42.495  27.517  26.809  1.00  0.00     0.173 A 
ATOM     54  F   UNL A   1      40.514  24.999  28.518  1.00  0.00    -0.203 F 
ATOM     55  C   UNL A   1      41.681  24.891  26.475  1.00  0.00     0.198 A 
ATOM     56  C   UNL A   1      42.872  26.808  25.670  1.00  0.00     0.198 A 
ATOM     57  F   UNL A   1      42.920  28.782  26.943  1.00  0.00    -0.203 F 
ATOM     58  F   UNL A   1      41.318  23.609  26.337  1.00  0.00    -0.200 F 
ATOM     59  C   UNL A   1      42.474  25.492  25.508  1.00  0.00     0.200 A 
ATOM     60  F   UNL A   1      43.626  27.401  24.734  1.00  0.00    -0.200 F 
ATOM     61  F   UNL A   1      42.862  24.800  24.428  1.00  0.00    -0.200 F 
ENDBRANCH  27  51
BRANCH  39  62
ATOM     62  C   UNL A   1      44.331  27.732  34.217  1.00  0.00     0.064 A 
ATOM     63  C   UNL A   1      45.569  28.387  34.226  1.00  0.00     0.173 A 
ATOM     64  C   UNL A   1      44.211  26.521  34.913  1.00  0.00     0.173 A 
ATOM     65  F   UNL A   1      45.730  29.540  33.559  1.00  0.00    -0.203 F 
ATOM     66  C   UNL A   1      46.656  27.837  34.896  1.00  0.00     0.198 A 
ATOM     67  C   UNL A   1      45.289  25.994  35.612  1.00  0.00     0.198 A 
ATOM     68  F   UNL A   1      43.039  25.867  34.938  1.00  0.00    -0.203 F 
ATOM     69  F   UNL A   1      47.845  28.453  34.857  1.00  0.00    -0.200 F 
ATOM     70  C   UNL A   1      46.511  26.647  35.597  1.00  0.00     0.200 A 
ATOM     71  F   UNL A   1      45.142  24.857  36.306  1.00  0.00    -0.200 F 
ATOM     72  F   UNL A   1      47.555  26.129  36.258  1.00  0.00    -0.200 F 
ENDBRANCH  39  62
ENDBRANCH  13  14
ENDBRANCH   6   8
ENDBRANCH   5   6
ENDBRANCH   4   5
ENDBRANCH   3   4
ENDBRANCH   2   3
ENDBRANCH   1   2
BRANCH   1  73
ATOM     73  C   UNL A   1      33.409  28.329  26.587  1.00  0.00     0.261 C 
BRANCH  73  74
ATOM     74  O   UNL A   1      34.041  28.936  25.445  1.00  0.00    -0.463 OA
BRANCH  74  75
ATOM     75  C   UNL A   1      33.701  28.441  24.241  1.00  0.00     0.310 C 
ATOM     76  O   UNL A   1      34.326  28.649  23.202  1.00  0.00    -0.252 OA
BRANCH  75  77
ATOM     77  C   UNL A   1      32.477  27.584  24.302  1.00  0.00     0.119 C 
ATOM     78  C   UNL A   1      32.428  26.147  23.714  1.00  0.00     0.100 C 
ATOM     79  C   UNL A   1      31.081  28.165  23.951  1.00  0.00     0.027 C 
ATOM     80  C   UNL A   1      30.919  26.009  23.340  1.00  0.00     0.025 C 
ATOM     81  C   UNL A   1      30.765  28.127  22.474  1.00  0.00    -0.027 C 
ATOM     82  C   UNL A   1      30.237  26.940  24.358  1.00  0.00     0.017 C 
ATOM     83  C   UNL A   1      30.620  26.840  22.125  1.00  0.00    -0.027 C 
BRANCH  78  84
ATOM     84  C   UNL A   1      33.381  25.397  22.740  1.00  0.00     0.229 C 
ATOM     85  O   UNL A   1      33.969  26.083  21.887  1.00  0.00    -0.274 OA
ATOM     86  N   UNL A   1      33.846  24.116  22.882  1.00  0.00    -0.323 N 
ATOM     87  H   UNL A   1      34.794  24.001  22.643  1.00  0.00     0.170 HD
BRANCH  86  88
ATOM     88  C   UNL A   1      33.213  22.941  23.307  1.00  0.00     0.084 A 
ATOM     89  C   UNL A   1      32.507  22.159  22.389  1.00  0.00     0.030 A 
ATOM     90  C   UNL A   1      33.262  22.526  24.625  1.00  0.00     0.149 A 
ATOM     91  C   UNL A   1      32.131  20.852  22.728  1.00  0.00     0.002 A 
ATOM     92  C   UNL A   1      32.945  21.206  24.957  1.00  0.00     0.049 A 
ATOM     93  C   UNL A   1      32.417  20.351  23.995  1.00  0.00     0.004 A 
BRANCH  90  94
ATOM     94  O   UNL A   1      33.726  23.357  25.588  1.00  0.00    -0.433 OA
BRANCH  94  95
ATOM     95  C   UNL A   1      32.831  23.795  26.600  1.00  0.00     0.542 C 
ATOM     96  F   UNL A   1      31.605  24.004  26.079  1.00  0.00    -0.167 F 
ATOM     97  F   UNL A   1      32.734  22.869  27.578  1.00  0.00    -0.167 F 
ENDBRANCH  94  95
ENDBRANCH  90  94
ENDBRANCH  86  88
ENDBRANCH  78  84
ENDBRANCH  75  77
ENDBRANCH  74  75
ENDBRANCH  73  74
ENDBRANCH   1  73
TORSDOF 18
ENDMDL
MODEL 3
REMARK VINA RESULT:     -11.2      4.520     10.254
REMARK SMILES O=C(OCCOCCOC(=O)[C@@H]1[C@H](C(=O)Nc2ccccc2OC(F)F)[C@@H]2C=C[C@H]1C2)c1ccc(-c2c3nc(c(-c4c(F)c(F)c(F)c(F)c4F)c4ccc([nH]4)c(-c4c(F)c(F)c(F)c(F)c4F)c4nc(c(-c5c(F)c(F)c(F)c(F)c5F)c5ccc2[nH]5)C=C4)C=C3)cc1
REMARK SMILES IDX 7 1 6 2 5 3 4 4 3 5 2 6 1 7 32 8 33 9 94 10 34 11 93 12
REMARK SMILES IDX 35 13 36 14 37 15 87 16 38 17 92 18 86 19 88 20 39 21 91 22
REMARK SMILES IDX 85 23 84 24 40 26 72 27 52 28 71 29 53 30 56 31 70 32 89 33
REMARK SMILES IDX 54 34 55 35 69 37 90 38 57 39 41 40 42 41 50 42 43 43 44 44
REMARK SMILES IDX 48 45 51 46 45 47 46 48 49 49 47 50 73 51 74 52 82 53 75 54
REMARK SMILES IDX 76 55 80 56 83 57 77 58 78 59 81 60 79 61 58 62 59 63 67 64
REMARK SMILES IDX 60 65 61 66 65 67 68 68 62 69 63 70 66 71 64 72 8 73 9 74
REMARK SMILES IDX 10 75 11 76 12 77 13 78 30 79 27 80 29 81 31 82 28 83 14 84
REMARK SMILES IDX 15 85 16 86 17 88 18 89 22 90 19 91 21 92 20 93 23 94 24 95
REMARK SMILES IDX 25 96 26 97
REMARK H PARENT 88 25 56 36 16 87
REMARK Flexibility Score: inf
ROOT
ATOM      1  C   UNL A   1      33.113  30.292  26.756  1.00  0.00     0.202 C 
ENDROOT
BRANCH   1   2
ATOM      2  O   UNL A   1      31.739  30.692  26.755  1.00  0.00    -0.374 OA
BRANCH   2   3
ATOM      3  C   UNL A   1      31.526  32.099  26.848  1.00  0.00     0.202 C 
BRANCH   3   4
ATOM      4  C   UNL A   1      32.806  32.856  27.216  1.00  0.00     0.261 C 
BRANCH   4   5
ATOM      5  O   UNL A   1      32.494  34.035  27.989  1.00  0.00    -0.460 OA
BRANCH   5   6
ATOM      6  C   UNL A   1      33.162  34.596  29.024  1.00  0.00     0.338 C 
ATOM      7  O   UNL A   1      32.802  35.700  29.431  1.00  0.00    -0.246 OA
BRANCH   6   8
ATOM      8  C   UNL A   1      34.361  33.988  29.672  1.00  0.00     0.060 A 
ATOM      9  C   UNL A   1      34.296  33.012  30.660  1.00  0.00     0.016 A 
ATOM     10  C   UNL A   1      35.629  34.316  29.167  1.00  0.00     0.016 A 
ATOM     11  C   UNL A   1      35.393  32.298  31.075  1.00  0.00     0.010 A 
ATOM     12  C   UNL A   1      36.775  33.669  29.646  1.00  0.00     0.010 A 
ATOM     13  C   UNL A   1      36.641  32.651  30.594  1.00  0.00    -0.014 A 
BRANCH  13  14
ATOM     14  C   UNL A   1      37.752  32.098  31.367  1.00  0.00     0.031 A 
ATOM     15  C   UNL A   1      38.626  31.115  30.658  1.00  0.00     0.074 A 
ATOM     16  C   UNL A   1      38.110  32.685  32.520  1.00  0.00     0.049 A 
ATOM     17  N   UNL A   1      39.642  30.436  31.100  1.00  0.00    -0.248 NA
ATOM     18  C   UNL A   1      38.328  30.893  29.228  1.00  0.00     0.031 C 
ATOM     19  C   UNL A   1      37.443  33.846  33.118  1.00  0.00     0.029 A 
ATOM     20  N   UNL A   1      39.148  32.422  33.366  1.00  0.00    -0.354 N 
ATOM     21  C   UNL A   1      40.067  29.668  30.025  1.00  0.00     0.074 A 
ATOM     22  C   UNL A   1      39.229  29.986  28.896  1.00  0.00     0.031 C 
ATOM     23  C   UNL A   1      38.091  34.190  34.244  1.00  0.00     0.029 A 
ATOM     24  C   UNL A   1      39.153  33.221  34.482  1.00  0.00     0.049 A 
ATOM     25  H   UNL A   1      39.825  31.729  33.192  1.00  0.00     0.167 HD
ATOM     26  C   UNL A   1      41.058  28.751  30.018  1.00  0.00     0.037 A 
ATOM     27  C   UNL A   1      39.902  33.112  35.593  1.00  0.00     0.037 A 
ATOM     28  C   UNL A   1      41.848  28.481  31.186  1.00  0.00     0.049 A 
ATOM     29  C   UNL A   1      40.898  31.980  35.626  1.00  0.00     0.074 A 
ATOM     30  C   UNL A   1      42.799  27.504  31.392  1.00  0.00     0.029 A 
ATOM     31  N   UNL A   1      41.758  29.219  32.364  1.00  0.00    -0.354 N 
ATOM     32  N   UNL A   1      41.208  31.127  34.675  1.00  0.00    -0.248 NA
ATOM     33  C   UNL A   1      41.624  31.774  36.882  1.00  0.00     0.031 C 
ATOM     34  C   UNL A   1      43.243  27.618  32.715  1.00  0.00     0.029 A 
ATOM     35  C   UNL A   1      42.621  28.709  33.311  1.00  0.00     0.049 A 
ATOM     36  H   UNL A   1      41.164  29.994  32.500  1.00  0.00     0.167 HD
ATOM     37  C   UNL A   1      42.178  30.292  35.207  1.00  0.00     0.074 A 
ATOM     38  C   UNL A   1      42.415  30.758  36.563  1.00  0.00     0.031 C 
ATOM     39  C   UNL A   1      42.816  29.235  34.642  1.00  0.00     0.037 A 
BRANCH  26  40
ATOM     40  C   UNL A   1      41.201  27.920  28.778  1.00  0.00     0.064 A 
ATOM     41  C   UNL A   1      42.112  28.235  27.757  1.00  0.00     0.173 A 
ATOM     42  C   UNL A   1      40.328  26.842  28.563  1.00  0.00     0.173 A 
ATOM     43  F   UNL A   1      42.935  29.286  27.889  1.00  0.00    -0.203 F 
ATOM     44  C   UNL A   1      42.114  27.529  26.555  1.00  0.00     0.198 A 
ATOM     45  C   UNL A   1      40.354  26.119  27.373  1.00  0.00     0.198 A 
ATOM     46  F   UNL A   1      39.421  26.510  29.494  1.00  0.00    -0.203 F 
ATOM     47  F   UNL A   1      42.933  27.903  25.562  1.00  0.00    -0.200 F 
ATOM     48  C   UNL A   1      41.238  26.472  26.365  1.00  0.00     0.200 A 
ATOM     49  F   UNL A   1      39.502  25.102  27.191  1.00  0.00    -0.200 F 
ATOM     50  F   UNL A   1      41.226  25.808  25.201  1.00  0.00    -0.200 F 
ENDBRANCH  26  40
BRANCH  27  51
ATOM     51  C   UNL A   1      39.670  34.005  36.760  1.00  0.00     0.064 A 
ATOM     52  C   UNL A   1      40.277  35.265  36.853  1.00  0.00     0.173 A 
ATOM     53  C   UNL A   1      38.842  33.609  37.825  1.00  0.00     0.173 A 
ATOM     54  F   UNL A   1      41.092  35.688  35.878  1.00  0.00    -0.203 F 
ATOM     55  C   UNL A   1      40.080  36.082  37.968  1.00  0.00     0.198 A 
ATOM     56  C   UNL A   1      38.619  34.440  38.922  1.00  0.00     0.198 A 
ATOM     57  F   UNL A   1      38.237  32.412  37.798  1.00  0.00    -0.203 F 
ATOM     58  F   UNL A   1      40.711  37.261  38.051  1.00  0.00    -0.200 F 
ATOM     59  C   UNL A   1      39.246  35.671  38.998  1.00  0.00     0.200 A 
ATOM     60  F   UNL A   1      37.801  34.041  39.906  1.00  0.00    -0.200 F 
ATOM     61  F   UNL A   1      39.056  36.458  40.066  1.00  0.00    -0.200 F 
ENDBRANCH  27  51
BRANCH  39  62
ATOM     62  C   UNL A   1      43.860  28.560  35.475  1.00  0.00     0.064 A 
ATOM     63  C   UNL A   1      45.205  28.948  35.425  1.00  0.00     0.173 A 
ATOM     64  C   UNL A   1      43.486  27.562  36.386  1.00  0.00     0.173 A 
ATOM     65  F   UNL A   1      45.607  29.890  34.557  1.00  0.00    -0.203 F 
ATOM     66  C   UNL A   1      46.148  28.342  36.247  1.00  0.00     0.198 A 
ATOM     67  C   UNL A   1      44.425  26.985  37.232  1.00  0.00     0.198 A 
ATOM     68  F   UNL A   1      42.206  27.169  36.472  1.00  0.00    -0.203 F 
ATOM     69  F   UNL A   1      47.438  28.692  36.155  1.00  0.00    -0.200 F 
ATOM     70  C   UNL A   1      45.754  27.370  37.157  1.00  0.00     0.200 A 
ATOM     71  F   UNL A   1      44.040  26.063  38.124  1.00  0.00    -0.200 F 
ATOM     72  F   UNL A   1      46.662  26.800  37.962  1.00  0.00    -0.200 F 
ENDBRANCH  39  62
ENDBRANCH  13  14
ENDBRANCH   6   8
ENDBRANCH   5   6
ENDBRANCH   4   5
ENDBRANCH   3   4
ENDBRANCH   2   3
ENDBRANCH   1   2
BRANCH   1  73
ATOM     73  C   UNL A   1      33.088  28.814  26.999  1.00  0.00     0.261 C 
BRANCH  73  74
ATOM     74  O   UNL A   1      34.018  28.288  26.034  1.00  0.00    -0.463 OA
BRANCH  74  75
ATOM     75  C   UNL A   1      33.610  28.284  24.751  1.00  0.00     0.310 C 
ATOM     76  O   UNL A   1      34.224  28.812  23.825  1.00  0.00    -0.252 OA
BRANCH  75  77
ATOM     77  C   UNL A   1      32.324  27.544  24.565  1.00  0.00     0.119 C 
ATOM     78  C   UNL A   1      32.237  26.188  23.811  1.00  0.00     0.100 C 
ATOM     79  C   UNL A   1      31.036  28.287  24.120  1.00  0.00     0.027 C 
ATOM     80  C   UNL A   1      30.783  26.232  23.245  1.00  0.00     0.025 C 
ATOM     81  C   UNL A   1      30.912  28.436  22.622  1.00  0.00    -0.027 C 
ATOM     82  C   UNL A   1      30.051  27.110  24.277  1.00  0.00     0.017 C 
ATOM     83  C   UNL A   1      30.711  27.213  22.109  1.00  0.00    -0.027 C 
BRANCH  78  84
ATOM     84  C   UNL A   1      33.245  25.460  22.876  1.00  0.00     0.229 C 
ATOM     85  O   UNL A   1      33.875  26.164  22.069  1.00  0.00    -0.274 OA
ATOM     86  N   UNL A   1      33.708  24.178  23.020  1.00  0.00    -0.323 N 
ATOM     87  H   UNL A   1      34.668  24.072  22.831  1.00  0.00     0.170 HD
BRANCH  86  88
ATOM     88  C   UNL A   1      33.059  22.993  23.389  1.00  0.00     0.084 A 
ATOM     89  C   UNL A   1      32.623  22.103  22.404  1.00  0.00     0.030 A 
ATOM     90  C   UNL A   1      32.830  22.674  24.714  1.00  0.00     0.149 A 
ATOM     91  C   UNL A   1      32.249  20.799  22.757  1.00  0.00     0.002 A 
ATOM     92  C   UNL A   1      32.516  21.360  25.075  1.00  0.00     0.049 A 
ATOM     93  C   UNL A   1      32.267  20.407  24.093  1.00  0.00     0.004 A 
BRANCH  90  94
ATOM     94  O   UNL A   1      33.018  23.598  25.685  1.00  0.00    -0.433 OA
BRANCH  94  95
ATOM     95  C   UNL A   1      31.927  23.930  26.531  1.00  0.00     0.542 C 
ATOM     96  F   UNL A   1      32.122  25.142  27.089  1.00  0.00    -0.167 F 
ATOM     97  F   UNL A   1      30.774  23.956  25.829  1.00  0.00    -0.167 F 
ENDBRANCH  94  95
ENDBRANCH  90  94
ENDBRANCH  86  88
ENDBRANCH  78  84
ENDBRANCH  75  77
ENDBRANCH  74  75
ENDBRANCH  73  74
ENDBRANCH   1  73
TORSDOF 18
ENDMDL
