MODEL 1
REMARK VINA RESULT:      -8.4      0.000      0.000
REMARK SMILES O=C(OCCOCCOC(=O)c1cnc(OCC2CC2)c(Cl)c1)c1ccc(-c2c3nc(c(-c4c(F)c(F)c(F)c(F)c4F)c4ccc([nH]4)c(-c4c(F)c(F)c(F)c(F)c4F)c4nc(c(-c5c(F)c(F)c(F)c(F)c5F)c5ccc2[nH]5)C=C4)C=C3)cc1
REMARK SMILES IDX 7 1 6 2 5 3 4 4 3 5 2 6 1 7 24 8 25 9 86 10 26 11 85 12
REMARK SMILES IDX 27 13 28 14 29 15 79 16 30 17 84 18 78 19 80 20 31 21 83 22
REMARK SMILES IDX 77 23 76 24 32 26 64 27 44 28 63 29 45 30 48 31 62 32 81 33
REMARK SMILES IDX 46 34 47 35 61 37 82 38 49 39 33 40 34 41 42 42 35 43 36 44
REMARK SMILES IDX 40 45 43 46 37 47 38 48 41 49 39 50 65 51 66 52 74 53 67 54
REMARK SMILES IDX 68 55 72 56 75 57 69 58 70 59 73 60 71 61 50 62 51 63 59 64
REMARK SMILES IDX 52 65 53 66 57 67 60 68 54 69 55 70 58 71 56 72 8 73 9 74
REMARK SMILES IDX 10 75 11 76 12 77 13 78 23 79 14 80 21 81 15 82 22 83 16 84
REMARK SMILES IDX 17 85 18 86 19 87 20 88
REMARK H PARENT 80 25 48 36
REMARK Flexibility Score: inf
ROOT
ATOM      1  C   UNL A   1      45.946  21.796  25.277  1.00  0.00     0.202 C 
ENDROOT
BRANCH   1   2
ATOM      2  O   UNL A   1      46.301  20.551  24.666  1.00  0.00    -0.374 OA
BRANCH   2   3
ATOM      3  C   UNL A   1      45.225  19.768  24.148  1.00  0.00     0.202 C 
BRANCH   3   4
ATOM      4  C   UNL A   1      44.399  19.016  25.200  1.00  0.00     0.261 C 
BRANCH   4   5
ATOM      5  O   UNL A   1      42.989  19.187  24.967  1.00  0.00    -0.460 OA
BRANCH   5   6
ATOM      6  C   UNL A   1      42.076  19.782  25.775  1.00  0.00     0.338 C 
ATOM      7  O   UNL A   1      40.990  19.235  25.950  1.00  0.00    -0.246 OA
BRANCH   6   8
ATOM      8  C   UNL A   1      42.323  21.083  26.462  1.00  0.00     0.060 A 
ATOM      9  C   UNL A   1      42.451  21.219  27.841  1.00  0.00     0.016 A 
ATOM     10  C   UNL A   1      42.525  22.227  25.671  1.00  0.00     0.016 A 
ATOM     11  C   UNL A   1      42.687  22.435  28.438  1.00  0.00     0.010 A 
ATOM     12  C   UNL A   1      42.835  23.459  26.262  1.00  0.00     0.010 A 
ATOM     13  C   UNL A   1      42.908  23.558  27.654  1.00  0.00    -0.014 A 
BRANCH  13  14
ATOM     14  C   UNL A   1      43.115  24.810  28.394  1.00  0.00     0.031 A 
ATOM     15  C   UNL A   1      44.510  25.182  28.774  1.00  0.00     0.074 A 
ATOM     16  C   UNL A   1      42.092  25.681  28.479  1.00  0.00     0.049 A 
ATOM     17  N   UNL A   1      44.944  26.255  29.376  1.00  0.00    -0.248 NA
ATOM     18  C   UNL A   1      45.569  24.228  28.400  1.00  0.00     0.031 C 
ATOM     19  C   UNL A   1      40.735  25.438  27.970  1.00  0.00     0.029 A 
ATOM     20  N   UNL A   1      42.040  26.962  28.953  1.00  0.00    -0.354 N 
ATOM     21  C   UNL A   1      46.318  26.097  29.470  1.00  0.00     0.074 A 
ATOM     22  C   UNL A   1      46.651  24.821  28.880  1.00  0.00     0.031 C 
ATOM     23  C   UNL A   1      39.998  26.547  28.131  1.00  0.00     0.029 A 
ATOM     24  C   UNL A   1      40.799  27.541  28.831  1.00  0.00     0.049 A 
ATOM     25  H   UNL A   1      42.815  27.425  29.345  1.00  0.00     0.167 HD
ATOM     26  C   UNL A   1      47.213  26.956  30.006  1.00  0.00     0.037 A 
ATOM     27  C   UNL A   1      40.359  28.728  29.284  1.00  0.00     0.037 A 
ATOM     28  C   UNL A   1      46.836  28.216  30.586  1.00  0.00     0.049 A 
ATOM     29  C   UNL A   1      41.355  29.604  29.996  1.00  0.00     0.074 A 
ATOM     30  C   UNL A   1      47.621  29.134  31.255  1.00  0.00     0.029 A 
ATOM     31  N   UNL A   1      45.544  28.732  30.556  1.00  0.00    -0.354 N 
ATOM     32  N   UNL A   1      42.641  29.412  30.179  1.00  0.00    -0.248 NA
ATOM     33  C   UNL A   1      40.844  30.851  30.570  1.00  0.00     0.031 C 
ATOM     34  C   UNL A   1      46.795  30.184  31.673  1.00  0.00     0.029 A 
ATOM     35  C   UNL A   1      45.508  29.952  31.209  1.00  0.00     0.049 A 
ATOM     36  H   UNL A   1      44.771  28.296  30.132  1.00  0.00     0.167 HD
ATOM     37  C   UNL A   1      43.098  30.518  30.879  1.00  0.00     0.074 A 
ATOM     38  C   UNL A   1      41.954  31.393  31.052  1.00  0.00     0.031 C 
ATOM     39  C   UNL A   1      44.341  30.788  31.350  1.00  0.00     0.037 A 
BRANCH  26  40
ATOM     40  C   UNL A   1      48.644  26.513  30.048  1.00  0.00     0.064 A 
ATOM     41  C   UNL A   1      49.142  25.700  31.077  1.00  0.00     0.173 A 
ATOM     42  C   UNL A   1      49.542  26.942  29.059  1.00  0.00     0.173 A 
ATOM     43  F   UNL A   1      48.334  25.292  32.067  1.00  0.00    -0.203 F 
ATOM     44  C   UNL A   1      50.491  25.353  31.126  1.00  0.00     0.198 A 
ATOM     45  C   UNL A   1      50.883  26.570  29.096  1.00  0.00     0.198 A 
ATOM     46  F   UNL A   1      49.121  27.735  28.061  1.00  0.00    -0.203 F 
ATOM     47  F   UNL A   1      50.957  24.626  32.152  1.00  0.00    -0.200 F 
ATOM     48  C   UNL A   1      51.358  25.783  30.133  1.00  0.00     0.200 A 
ATOM     49  F   UNL A   1      51.719  26.988  28.135  1.00  0.00    -0.200 F 
ATOM     50  F   UNL A   1      52.656  25.454  30.185  1.00  0.00    -0.200 F 
ENDBRANCH  26  40
BRANCH  27  51
ATOM     51  C   UNL A   1      38.923  29.105  29.168  1.00  0.00     0.064 A 
ATOM     52  C   UNL A   1      38.363  29.515  27.950  1.00  0.00     0.173 A 
ATOM     53  C   UNL A   1      38.086  29.113  30.297  1.00  0.00     0.173 A 
ATOM     54  F   UNL A   1      39.117  29.546  26.842  1.00  0.00    -0.203 F 
ATOM     55  C   UNL A   1      37.040  29.952  27.874  1.00  0.00     0.198 A 
ATOM     56  C   UNL A   1      36.754  29.510  30.213  1.00  0.00     0.198 A 
ATOM     57  F   UNL A   1      38.563  28.733  31.492  1.00  0.00    -0.203 F 
ATOM     58  F   UNL A   1      36.553  30.408  26.712  1.00  0.00    -0.200 F 
ATOM     59  C   UNL A   1      36.235  29.946  29.004  1.00  0.00     0.200 A 
ATOM     60  F   UNL A   1      35.979  29.486  31.305  1.00  0.00    -0.200 F 
ATOM     61  F   UNL A   1      34.969  30.375  28.933  1.00  0.00    -0.200 F 
ENDBRANCH  27  51
BRANCH  39  62
ATOM     62  C   UNL A   1      44.514  32.097  32.062  1.00  0.00     0.064 A 
ATOM     63  C   UNL A   1      44.864  33.268  31.376  1.00  0.00     0.173 A 
ATOM     64  C   UNL A   1      44.306  32.177  33.448  1.00  0.00     0.173 A 
ATOM     65  F   UNL A   1      45.089  33.237  30.054  1.00  0.00    -0.203 F 
ATOM     66  C   UNL A   1      45.041  34.467  32.060  1.00  0.00     0.198 A 
ATOM     67  C   UNL A   1      44.443  33.386  34.119  1.00  0.00     0.198 A 
ATOM     68  F   UNL A   1      43.961  31.084  34.145  1.00  0.00    -0.203 F 
ATOM     69  F   UNL A   1      45.442  35.560  31.396  1.00  0.00    -0.200 F 
ATOM     70  C   UNL A   1      44.822  34.526  33.429  1.00  0.00     0.200 A 
ATOM     71  F   UNL A   1      44.213  33.446  35.438  1.00  0.00    -0.200 F 
ATOM     72  F   UNL A   1      44.987  35.683  34.084  1.00  0.00    -0.200 F 
ENDBRANCH  39  62
ENDBRANCH  13  14
ENDBRANCH   6   8
ENDBRANCH   5   6
ENDBRANCH   4   5
ENDBRANCH   3   4
ENDBRANCH   2   3
ENDBRANCH   1   2
BRANCH   1  73
ATOM     73  C   UNL A   1      46.259  22.941  24.310  1.00  0.00     0.261 C 
BRANCH  73  74
ATOM     74  O   UNL A   1      45.732  24.158  24.859  1.00  0.00    -0.460 OA
BRANCH  74  75
ATOM     75  C   UNL A   1      46.555  25.229  24.751  1.00  0.00     0.339 C 
ATOM     76  O   UNL A   1      47.586  25.330  24.105  1.00  0.00    -0.246 OA
BRANCH  75  77
ATOM     77  C   UNL A   1      45.896  26.352  25.414  1.00  0.00     0.080 A 
ATOM     78  C   UNL A   1      44.525  26.476  25.356  1.00  0.00     0.131 A 
ATOM     79  C   UNL A   1      46.618  27.309  26.111  1.00  0.00     0.043 A 
ATOM     80  N   UNL A   1      43.849  27.453  26.000  1.00  0.00    -0.220 NA
ATOM     81  C   UNL A   1      45.952  28.389  26.698  1.00  0.00     0.104 A 
ATOM     82  C   UNL A   1      44.553  28.410  26.670  1.00  0.00     0.232 A 
ATOM     83  Cl  UNL A   1      47.007  29.618  27.289  1.00  0.00    -0.078 Cl
BRANCH  82  84
ATOM     84  O   UNL A   1      43.684  29.286  27.225  1.00  0.00    -0.476 OA
BRANCH  84  85
ATOM     85  C   UNL A   1      43.370  30.550  26.660  1.00  0.00     0.235 C 
BRANCH  85  86
ATOM     86  C   UNL A   1      44.237  31.649  27.206  1.00  0.00     0.027 C 
ATOM     87  C   UNL A   1      44.893  32.638  26.278  1.00  0.00     0.007 C 
ATOM     88  C   UNL A   1      43.785  33.084  27.190  1.00  0.00     0.007 C 
ENDBRANCH  85  86
ENDBRANCH  84  85
ENDBRANCH  82  84
ENDBRANCH  75  77
ENDBRANCH  74  75
ENDBRANCH  73  74
ENDBRANCH   1  73
TORSDOF 17
ENDMDL
MODEL 2
REMARK VINA RESULT:      -8.3      6.250     11.588
REMARK SMILES O=C(OCCOCCOC(=O)c1cnc(OCC2CC2)c(Cl)c1)c1ccc(-c2c3nc(c(-c4c(F)c(F)c(F)c(F)c4F)c4ccc([nH]4)c(-c4c(F)c(F)c(F)c(F)c4F)c4nc(c(-c5c(F)c(F)c(F)c(F)c5F)c5ccc2[nH]5)C=C4)C=C3)cc1
REMARK SMILES IDX 7 1 6 2 5 3 4 4 3 5 2 6 1 7 24 8 25 9 86 10 26 11 85 12
REMARK SMILES IDX 27 13 28 14 29 15 79 16 30 17 84 18 78 19 80 20 31 21 83 22
REMARK SMILES IDX 77 23 76 24 32 26 64 27 44 28 63 29 45 30 48 31 62 32 81 33
REMARK SMILES IDX 46 34 47 35 61 37 82 38 49 39 33 40 34 41 42 42 35 43 36 44
REMARK SMILES IDX 40 45 43 46 37 47 38 48 41 49 39 50 65 51 66 52 74 53 67 54
REMARK SMILES IDX 68 55 72 56 75 57 69 58 70 59 73 60 71 61 50 62 51 63 59 64
REMARK SMILES IDX 52 65 53 66 57 67 60 68 54 69 55 70 58 71 56 72 8 73 9 74
REMARK SMILES IDX 10 75 11 76 12 77 13 78 23 79 14 80 21 81 15 82 22 83 16 84
REMARK SMILES IDX 17 85 18 86 19 87 20 88
REMARK H PARENT 80 25 48 36
REMARK Flexibility Score: inf
ROOT
ATOM      1  C   UNL A   1      32.596  28.054  27.079  1.00  0.00     0.202 C 
ENDROOT
BRANCH   1   2
ATOM      2  O   UNL A   1      31.999  29.213  26.488  1.00  0.00    -0.374 OA
BRANCH   2   3
ATOM      3  C   UNL A   1      32.704  30.445  26.653  1.00  0.00     0.202 C 
BRANCH   3   4
ATOM      4  C   UNL A   1      31.828  31.657  26.995  1.00  0.00     0.261 C 
BRANCH   4   5
ATOM      5  O   UNL A   1      32.594  32.874  26.952  1.00  0.00    -0.460 OA
BRANCH   5   6
ATOM      6  C   UNL A   1      33.258  33.478  27.969  1.00  0.00     0.338 C 
ATOM      7  O   UNL A   1      32.827  34.539  28.416  1.00  0.00    -0.246 OA
BRANCH   6   8
ATOM      8  C   UNL A   1      34.502  32.919  28.575  1.00  0.00     0.060 A 
ATOM      9  C   UNL A   1      34.545  31.734  29.303  1.00  0.00     0.016 A 
ATOM     10  C   UNL A   1      35.718  33.576  28.324  1.00  0.00     0.016 A 
ATOM     11  C   UNL A   1      35.713  31.245  29.839  1.00  0.00     0.010 A 
ATOM     12  C   UNL A   1      36.926  33.053  28.805  1.00  0.00     0.010 A 
ATOM     13  C   UNL A   1      36.915  31.884  29.571  1.00  0.00    -0.014 A 
BRANCH  13  14
ATOM     14  C   UNL A   1      38.096  31.299  30.222  1.00  0.00     0.031 A 
ATOM     15  C   UNL A   1      38.309  31.575  31.673  1.00  0.00     0.074 A 
ATOM     16  C   UNL A   1      38.788  30.352  29.562  1.00  0.00     0.049 A 
ATOM     17  N   UNL A   1      39.241  31.129  32.470  1.00  0.00    -0.248 NA
ATOM     18  C   UNL A   1      37.322  32.453  32.327  1.00  0.00     0.031 C 
ATOM     19  C   UNL A   1      38.516  29.915  28.186  1.00  0.00     0.029 A 
ATOM     20  N   UNL A   1      39.808  29.537  29.969  1.00  0.00    -0.354 N 
ATOM     21  C   UNL A   1      38.964  31.684  33.710  1.00  0.00     0.074 A 
ATOM     22  C   UNL A   1      37.790  32.513  33.564  1.00  0.00     0.031 C 
ATOM     23  C   UNL A   1      39.327  28.892  27.879  1.00  0.00     0.029 A 
ATOM     24  C   UNL A   1      40.230  28.661  28.997  1.00  0.00     0.049 A 
ATOM     25  H   UNL A   1      40.202  29.573  30.870  1.00  0.00     0.167 HD
ATOM     26  C   UNL A   1      39.644  31.505  34.865  1.00  0.00     0.037 A 
ATOM     27  C   UNL A   1      41.266  27.805  29.008  1.00  0.00     0.037 A 
ATOM     28  C   UNL A   1      40.811  30.672  34.964  1.00  0.00     0.049 A 
ATOM     29  C   UNL A   1      42.083  27.731  30.269  1.00  0.00     0.074 A 
ATOM     30  C   UNL A   1      41.655  30.483  36.040  1.00  0.00     0.029 A 
ATOM     31  N   UNL A   1      41.293  29.880  33.926  1.00  0.00    -0.354 N 
ATOM     32  N   UNL A   1      41.886  28.334  31.419  1.00  0.00    -0.248 NA
ATOM     33  C   UNL A   1      43.268  26.868  30.238  1.00  0.00     0.031 C 
ATOM     34  C   UNL A   1      42.676  29.614  35.640  1.00  0.00     0.029 A 
ATOM     35  C   UNL A   1      42.434  29.211  34.334  1.00  0.00     0.049 A 
ATOM     36  H   UNL A   1      40.883  29.806  33.035  1.00  0.00     0.167 HD
ATOM     37  C   UNL A   1      42.912  27.918  32.252  1.00  0.00     0.074 A 
ATOM     38  C   UNL A   1      43.707  26.979  31.483  1.00  0.00     0.031 C 
ATOM     39  C   UNL A   1      43.188  28.281  33.529  1.00  0.00     0.037 A 
BRANCH  26  40
ATOM     40  C   UNL A   1      39.177  32.282  36.059  1.00  0.00     0.064 A 
ATOM     41  C   UNL A   1      39.627  33.584  36.323  1.00  0.00     0.173 A 
ATOM     42  C   UNL A   1      38.291  31.696  36.976  1.00  0.00     0.173 A 
ATOM     43  F   UNL A   1      40.504  34.176  35.498  1.00  0.00    -0.203 F 
ATOM     44  C   UNL A   1      39.227  34.261  37.473  1.00  0.00     0.198 A 
ATOM     45  C   UNL A   1      37.869  32.387  38.109  1.00  0.00     0.198 A 
ATOM     46  F   UNL A   1      37.842  30.447  36.779  1.00  0.00    -0.203 F 
ATOM     47  F   UNL A   1      39.718  35.480  37.737  1.00  0.00    -0.200 F 
ATOM     48  C   UNL A   1      38.344  33.664  38.361  1.00  0.00     0.200 A 
ATOM     49  F   UNL A   1      37.016  31.808  38.966  1.00  0.00    -0.200 F 
ATOM     50  F   UNL A   1      37.963  34.315  39.469  1.00  0.00    -0.200 F 
ENDBRANCH  26  40
BRANCH  27  51
ATOM     51  C   UNL A   1      41.639  27.043  27.783  1.00  0.00     0.064 A 
ATOM     52  C   UNL A   1      41.153  25.751  27.540  1.00  0.00     0.173 A 
ATOM     53  C   UNL A   1      42.542  27.579  26.848  1.00  0.00     0.173 A 
ATOM     54  F   UNL A   1      40.303  25.181  28.407  1.00  0.00    -0.203 F 
ATOM     55  C   UNL A   1      41.581  25.013  26.436  1.00  0.00     0.198 A 
ATOM     56  C   UNL A   1      42.938  26.857  25.724  1.00  0.00     0.198 A 
ATOM     57  F   UNL A   1      43.045  28.809  27.025  1.00  0.00    -0.203 F 
ATOM     58  F   UNL A   1      41.157  23.753  26.269  1.00  0.00    -0.200 F 
ATOM     59  C   UNL A   1      42.470  25.568  25.527  1.00  0.00     0.200 A 
ATOM     60  F   UNL A   1      43.784  27.406  24.843  1.00  0.00    -0.200 F 
ATOM     61  F   UNL A   1      42.889  24.856  24.473  1.00  0.00    -0.200 F 
ENDBRANCH  27  51
BRANCH  39  62
ATOM     62  C   UNL A   1      44.377  27.628  34.167  1.00  0.00     0.064 A 
ATOM     63  C   UNL A   1      45.645  28.225  34.147  1.00  0.00     0.173 A 
ATOM     64  C   UNL A   1      44.235  26.396  34.825  1.00  0.00     0.173 A 
ATOM     65  F   UNL A   1      45.832  29.394  33.516  1.00  0.00    -0.203 F 
ATOM     66  C   UNL A   1      46.740  27.591  34.726  1.00  0.00     0.198 A 
ATOM     67  C   UNL A   1      45.324  25.787  35.438  1.00  0.00     0.198 A 
ATOM     68  F   UNL A   1      43.040  25.790  34.879  1.00  0.00    -0.203 F 
ATOM     69  F   UNL A   1      47.956  28.146  34.635  1.00  0.00    -0.200 F 
ATOM     70  C   UNL A   1      46.577  26.378  35.378  1.00  0.00     0.200 A 
ATOM     71  F   UNL A   1      45.161  24.624  36.084  1.00  0.00    -0.200 F 
ATOM     72  F   UNL A   1      47.631  25.772  35.940  1.00  0.00    -0.200 F 
ENDBRANCH  39  62
ENDBRANCH  13  14
ENDBRANCH   6   8
ENDBRANCH   5   6
ENDBRANCH   4   5
ENDBRANCH   3   4
ENDBRANCH   2   3
ENDBRANCH   1   2
BRANCH   1  73
ATOM     73  C   UNL A   1      33.705  27.532  26.163  1.00  0.00     0.261 C 
BRANCH  73  74
ATOM     74  O   UNL A   1      33.363  26.202  25.745  1.00  0.00    -0.460 OA
BRANCH  74  75
ATOM     75  C   UNL A   1      33.450  25.989  24.409  1.00  0.00     0.339 C 
ATOM     76  O   UNL A   1      34.188  25.223  23.811  1.00  0.00    -0.246 OA
BRANCH  75  77
ATOM     77  C   UNL A   1      32.352  26.719  23.780  1.00  0.00     0.080 A 
ATOM     78  C   UNL A   1      32.619  27.830  23.008  1.00  0.00     0.131 A 
ATOM     79  C   UNL A   1      31.033  26.323  23.935  1.00  0.00     0.043 A 
ATOM     80  N   UNL A   1      31.657  28.511  22.346  1.00  0.00    -0.220 NA
ATOM     81  C   UNL A   1      30.009  27.072  23.347  1.00  0.00     0.104 A 
ATOM     82  C   UNL A   1      30.355  28.139  22.510  1.00  0.00     0.232 A 
ATOM     83  Cl  UNL A   1      28.428  26.606  23.852  1.00  0.00    -0.078 Cl
BRANCH  82  84
ATOM     84  O   UNL A   1      29.569  28.956  21.772  1.00  0.00    -0.476 OA
BRANCH  84  85
ATOM     85  C   UNL A   1      29.578  30.372  21.883  1.00  0.00     0.235 C 
BRANCH  85  86
ATOM     86  C   UNL A   1      28.877  30.849  23.124  1.00  0.00     0.027 C 
ATOM     87  C   UNL A   1      27.749  31.844  23.031  1.00  0.00     0.007 C 
ATOM     88  C   UNL A   1      27.468  30.425  23.440  1.00  0.00     0.007 C 
ENDBRANCH  85  86
ENDBRANCH  84  85
ENDBRANCH  82  84
ENDBRANCH  75  77
ENDBRANCH  74  75
ENDBRANCH  73  74
ENDBRANCH   1  73
TORSDOF 17
ENDMDL
MODEL 3
REMARK VINA RESULT:      -8.1      6.092     11.614
REMARK SMILES O=C(OCCOCCOC(=O)c1cnc(OCC2CC2)c(Cl)c1)c1ccc(-c2c3nc(c(-c4c(F)c(F)c(F)c(F)c4F)c4ccc([nH]4)c(-c4c(F)c(F)c(F)c(F)c4F)c4nc(c(-c5c(F)c(F)c(F)c(F)c5F)c5ccc2[nH]5)C=C4)C=C3)cc1
REMARK SMILES IDX 7 1 6 2 5 3 4 4 3 5 2 6 1 7 24 8 25 9 86 10 26 11 85 12
REMARK SMILES IDX 27 13 28 14 29 15 79 16 30 17 84 18 78 19 80 20 31 21 83 22
REMARK SMILES IDX 77 23 76 24 32 26 64 27 44 28 63 29 45 30 48 31 62 32 81 33
REMARK SMILES IDX 46 34 47 35 61 37 82 38 49 39 33 40 34 41 42 42 35 43 36 44
REMARK SMILES IDX 40 45 43 46 37 47 38 48 41 49 39 50 65 51 66 52 74 53 67 54
REMARK SMILES IDX 68 55 72 56 75 57 69 58 70 59 73 60 71 61 50 62 51 63 59 64
REMARK SMILES IDX 52 65 53 66 57 67 60 68 54 69 55 70 58 71 56 72 8 73 9 74
REMARK SMILES IDX 10 75 11 76 12 77 13 78 23 79 14 80 21 81 15 82 22 83 16 84
REMARK SMILES IDX 17 85 18 86 19 87 20 88
REMARK H PARENT 80 25 48 36
REMARK Flexibility Score: inf
ROOT
ATOM      1  C   UNL A   1      32.498  30.074  25.905  1.00  0.00     0.202 C 
ENDROOT
BRANCH   1   2
ATOM      2  O   UNL A   1      31.304  30.844  25.724  1.00  0.00    -0.374 OA
BRANCH   2   3
ATOM      3  C   UNL A   1      31.160  31.997  26.556  1.00  0.00     0.202 C 
BRANCH   3   4
ATOM      4  C   UNL A   1      32.467  32.726  26.893  1.00  0.00     0.261 C 
BRANCH   4   5
ATOM      5  O   UNL A   1      32.206  33.942  27.617  1.00  0.00    -0.460 OA
BRANCH   5   6
ATOM      6  C   UNL A   1      33.016  34.578  28.499  1.00  0.00     0.338 C 
ATOM      7  O   UNL A   1      32.759  35.738  28.816  1.00  0.00    -0.246 OA
BRANCH   6   8
ATOM      8  C   UNL A   1      34.221  33.939  29.106  1.00  0.00     0.060 A 
ATOM      9  C   UNL A   1      35.528  34.309  28.807  1.00  0.00     0.016 A 
ATOM     10  C   UNL A   1      34.027  32.967  30.102  1.00  0.00     0.016 A 
ATOM     11  C   UNL A   1      36.613  33.702  29.394  1.00  0.00     0.010 A 
ATOM     12  C   UNL A   1      35.122  32.389  30.759  1.00  0.00     0.010 A 
ATOM     13  C   UNL A   1      36.420  32.759  30.393  1.00  0.00    -0.014 A 
BRANCH  13  14
ATOM     14  C   UNL A   1      37.645  32.149  30.927  1.00  0.00     0.031 A 
ATOM     15  C   UNL A   1      38.048  32.483  32.325  1.00  0.00     0.074 A 
ATOM     16  C   UNL A   1      38.209  31.137  30.240  1.00  0.00     0.049 A 
ATOM     17  N   UNL A   1      39.050  32.029  33.027  1.00  0.00    -0.248 NA
ATOM     18  C   UNL A   1      37.188  33.439  33.046  1.00  0.00     0.031 C 
ATOM     19  C   UNL A   1      37.751  30.650  28.932  1.00  0.00     0.029 A 
ATOM     20  N   UNL A   1      39.235  30.293  30.564  1.00  0.00    -0.354 N 
ATOM     21  C   UNL A   1      38.952  32.656  34.259  1.00  0.00     0.074 A 
ATOM     22  C   UNL A   1      37.806  33.535  34.212  1.00  0.00     0.031 C 
ATOM     23  C   UNL A   1      38.473  29.574  28.584  1.00  0.00     0.029 A 
ATOM     24  C   UNL A   1      39.496  29.353  29.596  1.00  0.00     0.049 A 
ATOM     25  H   UNL A   1      39.738  30.353  31.408  1.00  0.00     0.167 HD
ATOM     26  C   UNL A   1      39.760  32.499  35.331  1.00  0.00     0.037 A 
ATOM     27  C   UNL A   1      40.487  28.447  29.527  1.00  0.00     0.037 A 
ATOM     28  C   UNL A   1      40.894  31.615  35.333  1.00  0.00     0.049 A 
ATOM     29  C   UNL A   1      41.449  28.393  30.683  1.00  0.00     0.074 A 
ATOM     30  C   UNL A   1      41.854  31.436  36.308  1.00  0.00     0.029 A 
ATOM     31  N   UNL A   1      41.209  30.752  34.289  1.00  0.00    -0.354 N 
ATOM     32  N   UNL A   1      41.422  29.060  31.814  1.00  0.00    -0.248 NA
ATOM     33  C   UNL A   1      42.582  27.472  30.556  1.00  0.00     0.031 C 
ATOM     34  C   UNL A   1      42.780  30.500  35.834  1.00  0.00     0.029 A 
ATOM     35  C   UNL A   1      42.362  30.047  34.591  1.00  0.00     0.049 A 
ATOM     36  H   UNL A   1      40.690  30.656  33.459  1.00  0.00     0.167 HD
ATOM     37  C   UNL A   1      42.523  28.633  32.538  1.00  0.00     0.074 A 
ATOM     38  C   UNL A   1      43.176  27.620  31.731  1.00  0.00     0.031 C 
ATOM     39  C   UNL A   1      42.970  29.043  33.752  1.00  0.00     0.037 A 
BRANCH  26  40
ATOM     40  C   UNL A   1      39.479  33.354  36.530  1.00  0.00     0.064 A 
ATOM     41  C   UNL A   1      38.674  32.909  37.590  1.00  0.00     0.173 A 
ATOM     42  C   UNL A   1      39.994  34.657  36.600  1.00  0.00     0.173 A 
ATOM     43  F   UNL A   1      38.126  31.686  37.555  1.00  0.00    -0.203 F 
ATOM     44  C   UNL A   1      38.377  33.747  38.663  1.00  0.00     0.198 A 
ATOM     45  C   UNL A   1      39.719  35.481  37.689  1.00  0.00     0.198 A 
ATOM     46  F   UNL A   1      40.756  35.138  35.606  1.00  0.00    -0.203 F 
ATOM     47  F   UNL A   1      37.556  33.323  39.635  1.00  0.00    -0.200 F 
ATOM     48  C   UNL A   1      38.904  35.028  38.714  1.00  0.00     0.200 A 
ATOM     49  F   UNL A   1      40.230  36.719  37.735  1.00  0.00    -0.200 F 
ATOM     50  F   UNL A   1      38.613  35.834  39.745  1.00  0.00    -0.200 F 
ENDBRANCH  26  40
BRANCH  27  51
ATOM     51  C   UNL A   1      40.673  27.611  28.309  1.00  0.00     0.064 A 
ATOM     52  C   UNL A   1      40.087  26.343  28.187  1.00  0.00     0.173 A 
ATOM     53  C   UNL A   1      41.493  28.045  27.254  1.00  0.00     0.173 A 
ATOM     54  F   UNL A   1      39.309  25.867  29.171  1.00  0.00    -0.203 F 
ATOM     55  C   UNL A   1      40.343  25.531  27.081  1.00  0.00     0.198 A 
ATOM     56  C   UNL A   1      41.716  27.252  26.131  1.00  0.00     0.198 A 
ATOM     57  F   UNL A   1      42.085  29.248  27.312  1.00  0.00    -0.203 F 
ATOM     58  F   UNL A   1      39.829  24.295  27.026  1.00  0.00    -0.200 F 
ATOM     59  C   UNL A   1      41.154  25.988  26.053  1.00  0.00     0.200 A 
ATOM     60  F   UNL A   1      42.488  27.706  25.135  1.00  0.00    -0.200 F 
ATOM     61  F   UNL A   1      41.408  25.205  24.996  1.00  0.00    -0.200 F 
ENDBRANCH  27  51
BRANCH  39  62
ATOM     62  C   UNL A   1      44.199  28.363  34.275  1.00  0.00     0.064 A 
ATOM     63  C   UNL A   1      45.481  28.887  34.058  1.00  0.00     0.173 A 
ATOM     64  C   UNL A   1      44.085  27.180  35.023  1.00  0.00     0.173 A 
ATOM     65  F   UNL A   1      45.640  30.006  33.335  1.00  0.00    -0.203 F 
ATOM     66  C   UNL A   1      46.610  28.228  34.534  1.00  0.00     0.198 A 
ATOM     67  C   UNL A   1      45.213  26.548  35.532  1.00  0.00     0.198 A 
ATOM     68  F   UNL A   1      42.879  26.645  35.265  1.00  0.00    -0.203 F 
ATOM     69  F   UNL A   1      47.829  28.709  34.256  1.00  0.00    -0.200 F 
ATOM     70  C   UNL A   1      46.475  27.065  35.277  1.00  0.00     0.200 A 
ATOM     71  F   UNL A   1      45.080  25.435  36.267  1.00  0.00    -0.200 F 
ATOM     72  F   UNL A   1      47.563  26.435  35.740  1.00  0.00    -0.200 F 
ENDBRANCH  39  62
ENDBRANCH  13  14
ENDBRANCH   6   8
ENDBRANCH   5   6
ENDBRANCH   4   5
ENDBRANCH   3   4
ENDBRANCH   2   3
ENDBRANCH   1   2
BRANCH   1  73
ATOM     73  C   UNL A   1      32.625  29.062  24.764  1.00  0.00     0.261 C 
BRANCH  73  74
ATOM     74  O   UNL A   1      31.306  28.688  24.338  1.00  0.00    -0.460 OA
BRANCH  74  75
ATOM     75  C   UNL A   1      31.211  28.346  23.030  1.00  0.00     0.339 C 
ATOM     76  O   UNL A   1      30.806  29.023  22.098  1.00  0.00    -0.246 OA
BRANCH  75  77
ATOM     77  C   UNL A   1      31.861  27.048  22.871  1.00  0.00     0.080 A 
ATOM     78  C   UNL A   1      32.969  26.930  22.059  1.00  0.00     0.131 A 
ATOM     79  C   UNL A   1      31.395  25.917  23.522  1.00  0.00     0.043 A 
ATOM     80  N   UNL A   1      33.656  25.773  21.920  1.00  0.00    -0.220 NA
ATOM     81  C   UNL A   1      32.023  24.686  23.312  1.00  0.00     0.104 A 
ATOM     82  C   UNL A   1      33.191  24.652  22.541  1.00  0.00     0.232 A 
ATOM     83  Cl  UNL A   1      31.166  23.345  23.976  1.00  0.00    -0.078 Cl
BRANCH  82  84
ATOM     84  O   UNL A   1      34.017  23.619  22.259  1.00  0.00    -0.476 OA
BRANCH  84  85
ATOM     85  C   UNL A   1      34.621  22.799  23.248  1.00  0.00     0.235 C 
BRANCH  85  86
ATOM     86  C   UNL A   1      36.082  23.104  23.427  1.00  0.00     0.027 C 
ATOM     87  C   UNL A   1      36.607  23.578  24.757  1.00  0.00     0.007 C 
ATOM     88  C   UNL A   1      36.973  22.212  24.248  1.00  0.00     0.007 C 
ENDBRANCH  85  86
ENDBRANCH  84  85
ENDBRANCH  82  84
ENDBRANCH  75  77
ENDBRANCH  74  75
ENDBRANCH  73  74
ENDBRANCH   1  73
TORSDOF 17
ENDMDL
