MODEL 1
REMARK VINA RESULT:     -11.4      0.000      0.000
REMARK SMILES Cc1ccc(S(=O)(=O)Nc2ccc(C(=O)CCC(=O)OCCOCCOC(=O)c3ccc(-c4c5nc(c(-c6c(F)c(F)c(F)c(F)c6F)c6ccc([nH]6)c(-c6c(F)c(F)c(F)c(F)c6F)c6nc(c(-c7c(F)c(F)c(F)c(F)c7F)c7ccc4[nH]7)C=C6)C=C5)cc3)cc2)c(C)c1
REMARK SMILES IDX 21 1 20 2 18 3 19 4 17 5 16 6 14 7 15 8 13 9 10 10 11 11
REMARK SMILES IDX 93 12 12 13 92 14 9 15 6 17 7 18 8 19 5 20 1 21 2 22 3 23
REMARK SMILES IDX 96 24 4 25 94 26 95 27 22 28 23 29 24 30 25 31 26 32 27 33
REMARK SMILES IDX 28 34 29 35 30 36 91 37 31 38 90 39 32 40 33 41 34 42 84 43
REMARK SMILES IDX 35 44 89 45 83 46 85 47 36 48 88 49 82 50 81 51 37 53 69 54
REMARK SMILES IDX 49 55 68 56 50 57 53 58 67 59 86 60 51 61 52 62 66 64 87 65
REMARK SMILES IDX 54 66 38 67 39 68 47 69 40 70 41 71 45 72 48 73 42 74 43 75
REMARK SMILES IDX 46 76 44 77 70 78 71 79 79 80 72 81 73 82 77 83 80 84 74 85
REMARK SMILES IDX 75 86 78 87 76 88 55 89 56 90 64 91 57 92 58 93 62 94 65 95
REMARK SMILES IDX 59 96 60 97 63 98 61 99
REMARK H PARENT 9 16 85 52 53 63
REMARK Flexibility Score: inf
ROOT
ATOM      1  C   UNL A   1      33.304  36.736  30.863  1.00  0.00     0.261 C 
ENDROOT
BRANCH   1   2
ATOM      2  O   UNL A   1      33.768  35.520  30.250  1.00  0.00    -0.463 OA
BRANCH   2   3
ATOM      3  C   UNL A   1      33.292  35.218  29.022  1.00  0.00     0.306 C 
ATOM      4  O   UNL A   1      32.284  35.707  28.529  1.00  0.00    -0.252 OA
BRANCH   3   5
ATOM      5  C   UNL A   1      34.135  34.177  28.307  1.00  0.00     0.131 C 
BRANCH   5   6
ATOM      6  C   UNL A   1      33.691  32.716  28.398  1.00  0.00     0.093 C 
BRANCH   6   7
ATOM      7  C   UNL A   1      32.599  32.379  27.388  1.00  0.00     0.163 C 
ATOM      8  O   UNL A   1      31.775  33.222  27.040  1.00  0.00    -0.294 OA
BRANCH   7   9
ATOM      9  C   UNL A   1      32.468  30.987  26.869  1.00  0.00     0.018 A 
ATOM     10  C   UNL A   1      32.428  28.436  25.656  1.00  0.00     0.049 A 
ATOM     11  C   UNL A   1      33.334  28.731  26.682  1.00  0.00     0.027 A 
ATOM     12  C   UNL A   1      31.500  29.399  25.311  1.00  0.00     0.027 A 
ATOM     13  C   UNL A   1      33.355  29.996  27.288  1.00  0.00     0.014 A 
ATOM     14  C   UNL A   1      31.502  30.652  25.934  1.00  0.00     0.014 A 
BRANCH  10  15
ATOM     15  N   UNL A   1      32.483  27.154  25.041  1.00  0.00    -0.280 N 
ATOM     16  H   UNL A   1      33.086  27.058  24.269  1.00  0.00     0.180 HD
BRANCH  15  17
ATOM     17  S   UNL A   1      31.618  25.790  25.501  1.00  0.00     0.262 S 
ATOM     18  O   UNL A   1      30.873  25.312  24.356  1.00  0.00    -0.201 OA
ATOM     19  O   UNL A   1      30.946  26.162  26.728  1.00  0.00    -0.201 OA
BRANCH  17  20
ATOM     20  C   UNL A   1      32.808  24.526  25.920  1.00  0.00     0.090 A 
ATOM     21  C   UNL A   1      35.643  21.300  25.801  1.00  0.00     0.044 C 
ATOM     22  C   UNL A   1      34.667  22.430  25.947  1.00  0.00    -0.051 A 
ATOM     23  C   UNL A   1      35.101  23.750  25.826  1.00  0.00     0.005 A 
ATOM     24  C   UNL A   1      33.314  22.180  26.209  1.00  0.00     0.008 A 
ATOM     25  C   UNL A   1      34.178  24.795  25.812  1.00  0.00     0.023 A 
ATOM     26  C   UNL A   1      32.366  23.219  26.203  1.00  0.00    -0.030 A 
ATOM     27  C   UNL A   1      30.955  22.886  26.609  1.00  0.00     0.046 C 
ENDBRANCH  17  20
ENDBRANCH  15  17
ENDBRANCH  10  15
ENDBRANCH   7   9
ENDBRANCH   6   7
ENDBRANCH   5   6
ENDBRANCH   3   5
ENDBRANCH   2   3
ENDBRANCH   1   2
BRANCH   1  28
ATOM     28  C   UNL A   1      33.625  36.746  32.363  1.00  0.00     0.202 C 
BRANCH  28  29
ATOM     29  O   UNL A   1      33.694  35.438  32.924  1.00  0.00    -0.374 OA
BRANCH  29  30
ATOM     30  C   UNL A   1      34.913  35.117  33.600  1.00  0.00     0.202 C 
BRANCH  30  31
ATOM     31  C   UNL A   1      34.957  33.695  34.184  1.00  0.00     0.261 C 
BRANCH  31  32
ATOM     32  O   UNL A   1      35.900  32.837  33.492  1.00  0.00    -0.460 OA
BRANCH  32  33
ATOM     33  C   UNL A   1      35.433  32.216  32.373  1.00  0.00     0.338 C 
ATOM     34  O   UNL A   1      34.295  32.288  31.939  1.00  0.00    -0.246 OA
BRANCH  33  35
ATOM     35  C   UNL A   1      36.505  31.455  31.665  1.00  0.00     0.060 A 
ATOM     36  C   UNL A   1      37.421  30.733  32.443  1.00  0.00     0.016 A 
ATOM     37  C   UNL A   1      36.648  31.446  30.272  1.00  0.00     0.016 A 
ATOM     38  C   UNL A   1      38.465  30.011  31.843  1.00  0.00     0.010 A 
ATOM     39  C   UNL A   1      37.702  30.728  29.670  1.00  0.00     0.010 A 
ATOM     40  C   UNL A   1      38.635  30.021  30.452  1.00  0.00    -0.014 A 
BRANCH  40  41
ATOM     41  C   UNL A   1      39.901  29.492  29.853  1.00  0.00     0.031 A 
ATOM     42  C   UNL A   1      41.087  30.408  29.782  1.00  0.00     0.074 A 
ATOM     43  C   UNL A   1      40.048  28.232  29.398  1.00  0.00     0.049 A 
ATOM     44  N   UNL A   1      42.297  30.168  29.346  1.00  0.00    -0.248 NA
ATOM     45  C   UNL A   1      40.874  31.779  30.265  1.00  0.00     0.031 C 
ATOM     46  C   UNL A   1      39.007  27.224  29.417  1.00  0.00     0.029 A 
ATOM     47  N   UNL A   1      41.120  27.584  28.826  1.00  0.00    -0.354 N 
ATOM     48  C   UNL A   1      42.998  31.348  29.529  1.00  0.00     0.074 A 
ATOM     49  C   UNL A   1      42.066  32.316  30.069  1.00  0.00     0.031 C 
ATOM     50  C   UNL A   1      39.471  26.079  28.887  1.00  0.00     0.029 A 
ATOM     51  C   UNL A   1      40.848  26.289  28.444  1.00  0.00     0.049 A 
ATOM     52  H   UNL A   1      42.000  28.006  28.703  1.00  0.00     0.167 HD
ATOM     53  C   UNL A   1      44.303  31.606  29.280  1.00  0.00     0.037 A 
ATOM     54  C   UNL A   1      41.605  25.384  27.788  1.00  0.00     0.037 A 
ATOM     55  C   UNL A   1      45.228  30.677  28.692  1.00  0.00     0.049 A 
ATOM     56  C   UNL A   1      43.018  25.736  27.397  1.00  0.00     0.074 A 
ATOM     57  C   UNL A   1      46.569  30.864  28.406  1.00  0.00     0.029 A 
ATOM     58  N   UNL A   1      44.902  29.398  28.266  1.00  0.00    -0.354 N 
ATOM     59  N   UNL A   1      43.690  26.835  27.636  1.00  0.00    -0.248 NA
ATOM     60  C   UNL A   1      43.780  24.722  26.647  1.00  0.00     0.031 C 
ATOM     61  C   UNL A   1      47.039  29.721  27.748  1.00  0.00     0.029 A 
ATOM     62  C   UNL A   1      46.007  28.799  27.681  1.00  0.00     0.049 A 
ATOM     63  H   UNL A   1      44.017  28.978  28.365  1.00  0.00     0.167 HD
ATOM     64  C   UNL A   1      44.959  26.633  27.107  1.00  0.00     0.074 A 
ATOM     65  C   UNL A   1      44.965  25.306  26.526  1.00  0.00     0.031 C 
ATOM     66  C   UNL A   1      46.022  27.473  27.117  1.00  0.00     0.037 A 
BRANCH  53  67
ATOM     67  C   UNL A   1      44.780  32.986  29.613  1.00  0.00     0.064 A 
ATOM     68  C   UNL A   1      45.277  33.301  30.887  1.00  0.00     0.173 A 
ATOM     69  C   UNL A   1      44.696  34.010  28.662  1.00  0.00     0.173 A 
ATOM     70  F   UNL A   1      45.352  32.356  31.837  1.00  0.00    -0.203 F 
ATOM     71  C   UNL A   1      45.633  34.607  31.208  1.00  0.00     0.198 A 
ATOM     72  C   UNL A   1      45.082  35.309  28.978  1.00  0.00     0.198 A 
ATOM     73  F   UNL A   1      44.225  33.756  27.432  1.00  0.00    -0.203 F 
ATOM     74  F   UNL A   1      46.039  34.902  32.452  1.00  0.00    -0.200 F 
ATOM     75  C   UNL A   1      45.537  35.608  30.255  1.00  0.00     0.200 A 
ATOM     76  F   UNL A   1      44.993  36.276  28.054  1.00  0.00    -0.200 F 
ATOM     77  F   UNL A   1      45.867  36.869  30.570  1.00  0.00    -0.200 F 
ENDBRANCH  53  67
BRANCH  54  78
ATOM     78  C   UNL A   1      41.036  24.057  27.424  1.00  0.00     0.064 A 
ATOM     79  C   UNL A   1      40.015  23.935  26.471  1.00  0.00     0.173 A 
ATOM     80  C   UNL A   1      41.483  22.883  28.050  1.00  0.00     0.173 A 
ATOM     81  F   UNL A   1      39.530  25.030  25.866  1.00  0.00    -0.203 F 
ATOM     82  C   UNL A   1      39.457  22.694  26.166  1.00  0.00     0.198 A 
ATOM     83  C   UNL A   1      40.943  21.640  27.727  1.00  0.00     0.198 A 
ATOM     84  F   UNL A   1      42.453  22.944  28.974  1.00  0.00    -0.203 F 
ATOM     85  F   UNL A   1      38.454  22.610  25.281  1.00  0.00    -0.200 F 
ATOM     86  C   UNL A   1      39.926  21.547  26.789  1.00  0.00     0.200 A 
ATOM     87  F   UNL A   1      41.406  20.534  28.324  1.00  0.00    -0.200 F 
ATOM     88  F   UNL A   1      39.393  20.353  26.492  1.00  0.00    -0.200 F 
ENDBRANCH  54  78
BRANCH  66  89
ATOM     89  C   UNL A   1      47.316  26.980  26.535  1.00  0.00     0.064 A 
ATOM     90  C   UNL A   1      47.659  27.199  25.194  1.00  0.00     0.173 A 
ATOM     91  C   UNL A   1      48.263  26.349  27.360  1.00  0.00     0.173 A 
ATOM     92  F   UNL A   1      46.785  27.781  24.360  1.00  0.00    -0.203 F 
ATOM     93  C   UNL A   1      48.899  26.801  24.698  1.00  0.00     0.198 A 
ATOM     94  C   UNL A   1      49.510  25.978  26.868  1.00  0.00     0.198 A 
ATOM     95  F   UNL A   1      47.985  26.118  28.652  1.00  0.00    -0.203 F 
ATOM     96  F   UNL A   1      49.195  26.995  23.405  1.00  0.00    -0.200 F 
ATOM     97  C   UNL A   1      49.827  26.202  25.537  1.00  0.00     0.200 A 
ATOM     98  F   UNL A   1      50.410  25.413  27.684  1.00  0.00    -0.200 F 
ATOM     99  F   UNL A   1      51.027  25.839  25.063  1.00  0.00    -0.200 F 
ENDBRANCH  66  89
ENDBRANCH  40  41
ENDBRANCH  33  35
ENDBRANCH  32  33
ENDBRANCH  31  32
ENDBRANCH  30  31
ENDBRANCH  29  30
ENDBRANCH  28  29
ENDBRANCH   1  28
TORSDOF 20
ENDMDL
MODEL 2
REMARK VINA RESULT:     -11.3      5.413     10.762
REMARK SMILES Cc1ccc(S(=O)(=O)Nc2ccc(C(=O)CCC(=O)OCCOCCOC(=O)c3ccc(-c4c5nc(c(-c6c(F)c(F)c(F)c(F)c6F)c6ccc([nH]6)c(-c6c(F)c(F)c(F)c(F)c6F)c6nc(c(-c7c(F)c(F)c(F)c(F)c7F)c7ccc4[nH]7)C=C6)C=C5)cc3)cc2)c(C)c1
REMARK SMILES IDX 21 1 20 2 18 3 19 4 17 5 16 6 14 7 15 8 13 9 10 10 11 11
REMARK SMILES IDX 93 12 12 13 92 14 9 15 6 17 7 18 8 19 5 20 1 21 2 22 3 23
REMARK SMILES IDX 96 24 4 25 94 26 95 27 22 28 23 29 24 30 25 31 26 32 27 33
REMARK SMILES IDX 28 34 29 35 30 36 91 37 31 38 90 39 32 40 33 41 34 42 84 43
REMARK SMILES IDX 35 44 89 45 83 46 85 47 36 48 88 49 82 50 81 51 37 53 69 54
REMARK SMILES IDX 49 55 68 56 50 57 53 58 67 59 86 60 51 61 52 62 66 64 87 65
REMARK SMILES IDX 54 66 38 67 39 68 47 69 40 70 41 71 45 72 48 73 42 74 43 75
REMARK SMILES IDX 46 76 44 77 70 78 71 79 79 80 72 81 73 82 77 83 80 84 74 85
REMARK SMILES IDX 75 86 78 87 76 88 55 89 56 90 64 91 57 92 58 93 62 94 65 95
REMARK SMILES IDX 59 96 60 97 63 98 61 99
REMARK H PARENT 9 16 85 52 53 63
REMARK Flexibility Score: inf
ROOT
ATOM      1  C   UNL A   1      38.047  21.111  25.752  1.00  0.00     0.261 C 
ENDROOT
BRANCH   1   2
ATOM      2  O   UNL A   1      37.401  21.488  24.522  1.00  0.00    -0.463 OA
BRANCH   2   3
ATOM      3  C   UNL A   1      36.051  21.539  24.515  1.00  0.00     0.306 C 
ATOM      4  O   UNL A   1      35.389  22.316  23.839  1.00  0.00    -0.252 OA
BRANCH   3   5
ATOM      5  C   UNL A   1      35.422  20.534  25.464  1.00  0.00     0.131 C 
BRANCH   5   6
ATOM      6  C   UNL A   1      34.636  19.372  24.853  1.00  0.00     0.093 C 
BRANCH   6   7
ATOM      7  C   UNL A   1      33.128  19.563  24.980  1.00  0.00     0.163 C 
ATOM      8  O   UNL A   1      32.418  18.694  25.482  1.00  0.00    -0.294 OA
BRANCH   7   9
ATOM      9  C   UNL A   1      32.482  20.783  24.415  1.00  0.00     0.018 A 
ATOM     10  C   UNL A   1      31.554  23.220  23.330  1.00  0.00     0.049 A 
ATOM     11  C   UNL A   1      31.897  22.147  22.499  1.00  0.00     0.027 A 
ATOM     12  C   UNL A   1      31.602  23.026  24.697  1.00  0.00     0.027 A 
ATOM     13  C   UNL A   1      32.357  20.934  23.034  1.00  0.00     0.014 A 
ATOM     14  C   UNL A   1      32.034  21.808  25.233  1.00  0.00     0.014 A 
BRANCH  10  15
ATOM     15  N   UNL A   1      31.142  24.445  22.733  1.00  0.00    -0.280 N 
ATOM     16  H   UNL A   1      30.173  24.601  22.664  1.00  0.00     0.180 HD
BRANCH  15  17
ATOM     17  S   UNL A   1      32.148  25.650  22.135  1.00  0.00     0.262 S 
ATOM     18  O   UNL A   1      31.533  26.214  20.952  1.00  0.00    -0.201 OA
ATOM     19  O   UNL A   1      33.466  25.052  22.081  1.00  0.00    -0.201 OA
BRANCH  17  20
ATOM     20  C   UNL A   1      32.212  26.944  23.365  1.00  0.00     0.090 A 
ATOM     21  C   UNL A   1      31.456  30.439  25.746  1.00  0.00     0.044 C 
ATOM     22  C   UNL A   1      31.802  29.198  24.977  1.00  0.00    -0.051 A 
ATOM     23  C   UNL A   1      31.210  27.980  25.312  1.00  0.00     0.005 A 
ATOM     24  C   UNL A   1      32.721  29.241  23.921  1.00  0.00     0.008 A 
ATOM     25  C   UNL A   1      31.413  26.856  24.511  1.00  0.00     0.023 A 
ATOM     26  C   UNL A   1      32.943  28.119  23.102  1.00  0.00    -0.030 A 
ATOM     27  C   UNL A   1      34.030  28.210  22.064  1.00  0.00     0.046 C 
ENDBRANCH  17  20
ENDBRANCH  15  17
ENDBRANCH  10  15
ENDBRANCH   7   9
ENDBRANCH   6   7
ENDBRANCH   5   6
ENDBRANCH   3   5
ENDBRANCH   2   3
ENDBRANCH   1   2
BRANCH   1  28
ATOM     28  C   UNL A   1      39.536  21.474  25.717  1.00  0.00     0.202 C 
BRANCH  28  29
ATOM     29  O   UNL A   1      40.303  20.763  26.685  1.00  0.00    -0.374 OA
BRANCH  29  30
ATOM     30  C   UNL A   1      41.330  19.915  26.161  1.00  0.00     0.202 C 
BRANCH  30  31
ATOM     31  C   UNL A   1      42.645  20.641  25.836  1.00  0.00     0.261 C 
BRANCH  31  32
ATOM     32  O   UNL A   1      42.793  21.883  26.572  1.00  0.00    -0.460 OA
BRANCH  32  33
ATOM     33  C   UNL A   1      42.751  23.025  25.831  1.00  0.00     0.338 C 
ATOM     34  O   UNL A   1      43.052  23.124  24.653  1.00  0.00    -0.246 OA
BRANCH  33  35
ATOM     35  C   UNL A   1      42.221  24.181  26.613  1.00  0.00     0.060 A 
ATOM     36  C   UNL A   1      42.924  25.392  26.553  1.00  0.00     0.016 A 
ATOM     37  C   UNL A   1      41.073  24.106  27.412  1.00  0.00     0.016 A 
ATOM     38  C   UNL A   1      42.493  26.514  27.278  1.00  0.00     0.010 A 
ATOM     39  C   UNL A   1      40.644  25.231  28.147  1.00  0.00     0.010 A 
ATOM     40  C   UNL A   1      41.363  26.441  28.105  1.00  0.00    -0.014 A 
BRANCH  40  41
ATOM     41  C   UNL A   1      41.083  27.540  29.081  1.00  0.00     0.031 A 
ATOM     42  C   UNL A   1      41.982  27.673  30.275  1.00  0.00     0.074 A 
ATOM     43  C   UNL A   1      40.085  28.435  28.939  1.00  0.00     0.049 A 
ATOM     44  N   UNL A   1      41.965  28.565  31.232  1.00  0.00    -0.248 NA
ATOM     45  C   UNL A   1      43.039  26.660  30.403  1.00  0.00     0.031 C 
ATOM     46  C   UNL A   1      39.148  28.453  27.833  1.00  0.00     0.029 A 
ATOM     47  N   UNL A   1      39.687  29.495  29.723  1.00  0.00    -0.354 N 
ATOM     48  C   UNL A   1      43.026  28.240  32.061  1.00  0.00     0.074 A 
ATOM     49  C   UNL A   1      43.634  27.041  31.522  1.00  0.00     0.031 C 
ATOM     50  C   UNL A   1      38.276  29.464  27.992  1.00  0.00     0.029 A 
ATOM     51  C   UNL A   1      38.571  30.148  29.250  1.00  0.00     0.049 A 
ATOM     52  H   UNL A   1      40.156  29.761  30.546  1.00  0.00     0.167 HD
ATOM     53  C   UNL A   1      43.465  28.882  33.168  1.00  0.00     0.037 A 
ATOM     54  C   UNL A   1      37.849  31.160  29.777  1.00  0.00     0.037 A 
ATOM     55  C   UNL A   1      42.840  30.038  33.750  1.00  0.00     0.049 A 
ATOM     56  C   UNL A   1      38.275  31.778  31.085  1.00  0.00     0.074 A 
ATOM     57  C   UNL A   1      43.224  30.747  34.875  1.00  0.00     0.029 A 
ATOM     58  N   UNL A   1      41.681  30.634  33.277  1.00  0.00    -0.354 N 
ATOM     59  N   UNL A   1      39.320  31.502  31.825  1.00  0.00    -0.248 NA
ATOM     60  C   UNL A   1      37.425  32.850  31.630  1.00  0.00     0.031 C 
ATOM     61  C   UNL A   1      42.262  31.733  35.120  1.00  0.00     0.029 A 
ATOM     62  C   UNL A   1      41.313  31.678  34.112  1.00  0.00     0.049 A 
ATOM     63  H   UNL A   1      41.194  30.358  32.468  1.00  0.00     0.167 HD
ATOM     64  C   UNL A   1      39.278  32.387  32.896  1.00  0.00     0.074 A 
ATOM     65  C   UNL A   1      38.099  33.208  32.715  1.00  0.00     0.031 C 
ATOM     66  C   UNL A   1      40.150  32.509  33.926  1.00  0.00     0.037 A 
BRANCH  53  67
ATOM     67  C   UNL A   1      44.666  28.295  33.841  1.00  0.00     0.064 A 
ATOM     68  C   UNL A   1      44.542  27.308  34.830  1.00  0.00     0.173 A 
ATOM     69  C   UNL A   1      45.950  28.758  33.525  1.00  0.00     0.173 A 
ATOM     70  F   UNL A   1      43.330  26.852  35.183  1.00  0.00    -0.203 F 
ATOM     71  C   UNL A   1      45.661  26.836  35.510  1.00  0.00     0.198 A 
ATOM     72  C   UNL A   1      47.069  28.262  34.185  1.00  0.00     0.198 A 
ATOM     73  F   UNL A   1      46.117  29.704  32.588  1.00  0.00    -0.203 F 
ATOM     74  F   UNL A   1      45.515  25.944  36.500  1.00  0.00    -0.200 F 
ATOM     75  C   UNL A   1      46.922  27.311  35.185  1.00  0.00     0.200 A 
ATOM     76  F   UNL A   1      48.289  28.720  33.869  1.00  0.00    -0.200 F 
ATOM     77  F   UNL A   1      47.998  26.867  35.850  1.00  0.00    -0.200 F 
ENDBRANCH  53  67
BRANCH  54  78
ATOM     78  C   UNL A   1      36.620  31.641  29.087  1.00  0.00     0.064 A 
ATOM     79  C   UNL A   1      36.517  32.955  28.609  1.00  0.00     0.173 A 
ATOM     80  C   UNL A   1      35.509  30.801  28.923  1.00  0.00     0.173 A 
ATOM     81  F   UNL A   1      37.539  33.808  28.771  1.00  0.00    -0.203 F 
ATOM     82  C   UNL A   1      35.347  33.412  28.002  1.00  0.00     0.198 A 
ATOM     83  C   UNL A   1      34.349  31.250  28.293  1.00  0.00     0.198 A 
ATOM     84  F   UNL A   1      35.552  29.536  29.367  1.00  0.00    -0.203 F 
ATOM     85  F   UNL A   1      35.260  34.684  27.590  1.00  0.00    -0.200 F 
ATOM     86  C   UNL A   1      34.267  32.557  27.838  1.00  0.00     0.200 A 
ATOM     87  F   UNL A   1      33.313  30.418  28.128  1.00  0.00    -0.200 F 
ATOM     88  F   UNL A   1      33.145  32.995  27.250  1.00  0.00    -0.200 F 
ENDBRANCH  54  78
BRANCH  66  89
ATOM     89  C   UNL A   1      39.913  33.605  34.924  1.00  0.00     0.064 A 
ATOM     90  C   UNL A   1      39.190  33.391  36.106  1.00  0.00     0.173 A 
ATOM     91  C   UNL A   1      40.491  34.871  34.731  1.00  0.00     0.173 A 
ATOM     92  F   UNL A   1      38.602  32.207  36.332  1.00  0.00    -0.203 F 
ATOM     93  C   UNL A   1      39.050  34.403  37.054  1.00  0.00     0.198 A 
ATOM     94  C   UNL A   1      40.373  35.870  35.692  1.00  0.00     0.198 A 
ATOM     95  F   UNL A   1      41.196  35.127  33.618  1.00  0.00    -0.203 F 
ATOM     96  F   UNL A   1      38.331  34.185  38.164  1.00  0.00    -0.200 F 
ATOM     97  C   UNL A   1      39.651  35.636  36.852  1.00  0.00     0.200 A 
ATOM     98  F   UNL A   1      40.967  37.056  35.500  1.00  0.00    -0.200 F 
ATOM     99  F   UNL A   1      39.533  36.601  37.774  1.00  0.00    -0.200 F 
ENDBRANCH  66  89
ENDBRANCH  40  41
ENDBRANCH  33  35
ENDBRANCH  32  33
ENDBRANCH  31  32
ENDBRANCH  30  31
ENDBRANCH  29  30
ENDBRANCH  28  29
ENDBRANCH   1  28
TORSDOF 20
ENDMDL
MODEL 3
REMARK VINA RESULT:     -11.2      4.064      7.421
REMARK SMILES Cc1ccc(S(=O)(=O)Nc2ccc(C(=O)CCC(=O)OCCOCCOC(=O)c3ccc(-c4c5nc(c(-c6c(F)c(F)c(F)c(F)c6F)c6ccc([nH]6)c(-c6c(F)c(F)c(F)c(F)c6F)c6nc(c(-c7c(F)c(F)c(F)c(F)c7F)c7ccc4[nH]7)C=C6)C=C5)cc3)cc2)c(C)c1
REMARK SMILES IDX 21 1 20 2 18 3 19 4 17 5 16 6 14 7 15 8 13 9 10 10 11 11
REMARK SMILES IDX 93 12 12 13 92 14 9 15 6 17 7 18 8 19 5 20 1 21 2 22 3 23
REMARK SMILES IDX 96 24 4 25 94 26 95 27 22 28 23 29 24 30 25 31 26 32 27 33
REMARK SMILES IDX 28 34 29 35 30 36 91 37 31 38 90 39 32 40 33 41 34 42 84 43
REMARK SMILES IDX 35 44 89 45 83 46 85 47 36 48 88 49 82 50 81 51 37 53 69 54
REMARK SMILES IDX 49 55 68 56 50 57 53 58 67 59 86 60 51 61 52 62 66 64 87 65
REMARK SMILES IDX 54 66 38 67 39 68 47 69 40 70 41 71 45 72 48 73 42 74 43 75
REMARK SMILES IDX 46 76 44 77 70 78 71 79 79 80 72 81 73 82 77 83 80 84 74 85
REMARK SMILES IDX 75 86 78 87 76 88 55 89 56 90 64 91 57 92 58 93 62 94 65 95
REMARK SMILES IDX 59 96 60 97 63 98 61 99
REMARK H PARENT 9 16 85 52 53 63
REMARK Flexibility Score: inf
ROOT
ATOM      1  C   UNL A   1      32.898  36.502  30.933  1.00  0.00     0.261 C 
ENDROOT
BRANCH   1   2
ATOM      2  O   UNL A   1      32.902  35.375  31.828  1.00  0.00    -0.463 OA
BRANCH   2   3
ATOM      3  C   UNL A   1      33.863  35.334  32.776  1.00  0.00     0.306 C 
ATOM      4  O   UNL A   1      34.384  36.322  33.279  1.00  0.00    -0.252 OA
BRANCH   3   5
ATOM      5  C   UNL A   1      34.258  33.917  33.149  1.00  0.00     0.131 C 
BRANCH   5   6
ATOM      6  C   UNL A   1      34.547  32.934  32.011  1.00  0.00     0.093 C 
BRANCH   6   7
ATOM      7  C   UNL A   1      35.975  32.401  32.056  1.00  0.00     0.163 C 
ATOM      8  O   UNL A   1      36.247  31.365  32.659  1.00  0.00    -0.294 OA
BRANCH   7   9
ATOM      9  C   UNL A   1      37.081  33.182  31.432  1.00  0.00     0.018 A 
ATOM     10  C   UNL A   1      39.361  34.403  30.296  1.00  0.00     0.049 A 
ATOM     11  C   UNL A   1      38.450  33.700  29.500  1.00  0.00     0.027 A 
ATOM     12  C   UNL A   1      39.071  34.554  31.638  1.00  0.00     0.027 A 
ATOM     13  C   UNL A   1      37.315  33.093  30.060  1.00  0.00     0.014 A 
ATOM     14  C   UNL A   1      37.926  33.975  32.193  1.00  0.00     0.014 A 
BRANCH  10  15
ATOM     15  N   UNL A   1      40.522  34.955  29.685  1.00  0.00    -0.280 N 
ATOM     16  H   UNL A   1      40.382  35.704  29.062  1.00  0.00     0.180 HD
BRANCH  15  17
ATOM     17  S   UNL A   1      42.107  34.453  29.922  1.00  0.00     0.262 S 
ATOM     18  O   UNL A   1      42.097  33.043  30.249  1.00  0.00    -0.201 OA
ATOM     19  O   UNL A   1      42.682  35.426  30.828  1.00  0.00    -0.201 OA
BRANCH  17  20
ATOM     20  C   UNL A   1      42.957  34.628  28.361  1.00  0.00     0.090 A 
ATOM     21  C   UNL A   1      44.291  34.203  24.299  1.00  0.00     0.044 C 
ATOM     22  C   UNL A   1      43.897  34.427  25.730  1.00  0.00    -0.051 A 
ATOM     23  C   UNL A   1      42.869  35.319  26.041  1.00  0.00     0.005 A 
ATOM     24  C   UNL A   1      44.551  33.754  26.768  1.00  0.00     0.008 A 
ATOM     25  C   UNL A   1      42.400  35.420  27.350  1.00  0.00     0.023 A 
ATOM     26  C   UNL A   1      44.096  33.844  28.096  1.00  0.00    -0.030 A 
ATOM     27  C   UNL A   1      44.923  33.186  29.169  1.00  0.00     0.046 C 
ENDBRANCH  17  20
ENDBRANCH  15  17
ENDBRANCH  10  15
ENDBRANCH   7   9
ENDBRANCH   6   7
ENDBRANCH   5   6
ENDBRANCH   3   5
ENDBRANCH   2   3
ENDBRANCH   1   2
BRANCH   1  28
ATOM     28  C   UNL A   1      33.069  36.043  29.480  1.00  0.00     0.202 C 
BRANCH  28  29
ATOM     29  O   UNL A   1      32.867  34.642  29.313  1.00  0.00    -0.374 OA
BRANCH  29  30
ATOM     30  C   UNL A   1      33.751  33.993  28.394  1.00  0.00     0.202 C 
BRANCH  30  31
ATOM     31  C   UNL A   1      33.459  32.498  28.184  1.00  0.00     0.261 C 
BRANCH  31  32
ATOM     32  O   UNL A   1      34.414  31.864  27.295  1.00  0.00    -0.460 OA
BRANCH  32  33
ATOM     33  C   UNL A   1      34.572  30.520  27.449  1.00  0.00     0.338 C 
ATOM     34  O   UNL A   1      33.810  29.660  27.039  1.00  0.00    -0.246 OA
BRANCH  33  35
ATOM     35  C   UNL A   1      35.850  30.181  28.142  1.00  0.00     0.060 A 
ATOM     36  C   UNL A   1      37.050  30.389  27.446  1.00  0.00     0.016 A 
ATOM     37  C   UNL A   1      35.904  29.651  29.437  1.00  0.00     0.016 A 
ATOM     38  C   UNL A   1      38.286  30.074  28.031  1.00  0.00     0.010 A 
ATOM     39  C   UNL A   1      37.146  29.327  30.021  1.00  0.00     0.010 A 
ATOM     40  C   UNL A   1      38.350  29.514  29.314  1.00  0.00    -0.014 A 
BRANCH  40  41
ATOM     41  C   UNL A   1      39.634  28.925  29.806  1.00  0.00     0.031 A 
ATOM     42  C   UNL A   1      40.321  29.589  30.963  1.00  0.00     0.074 A 
ATOM     43  C   UNL A   1      40.199  27.816  29.288  1.00  0.00     0.049 A 
ATOM     44  N   UNL A   1      41.417  29.242  31.589  1.00  0.00    -0.248 NA
ATOM     45  C   UNL A   1      39.684  30.809  31.478  1.00  0.00     0.031 C 
ATOM     46  C   UNL A   1      39.649  27.050  28.187  1.00  0.00     0.029 A 
ATOM     47  N   UNL A   1      41.357  27.142  29.609  1.00  0.00    -0.354 N 
ATOM     48  C   UNL A   1      41.586  30.184  32.590  1.00  0.00     0.074 A 
ATOM     49  C   UNL A   1      40.508  31.143  32.457  1.00  0.00     0.031 C 
ATOM     50  C   UNL A   1      40.454  26.010  27.909  1.00  0.00     0.029 A 
ATOM     51  C   UNL A   1      41.615  26.061  28.797  1.00  0.00     0.049 A 
ATOM     52  H   UNL A   1      41.945  27.409  30.352  1.00  0.00     0.167 HD
ATOM     53  C   UNL A   1      42.544  30.246  33.543  1.00  0.00     0.037 A 
ATOM     54  C   UNL A   1      42.674  25.224  28.749  1.00  0.00     0.037 A 
ATOM     55  C   UNL A   1      43.652  29.338  33.655  1.00  0.00     0.049 A 
ATOM     56  C   UNL A   1      43.802  25.391  29.735  1.00  0.00     0.074 A 
ATOM     57  C   UNL A   1      44.669  29.335  34.594  1.00  0.00     0.029 A 
ATOM     58  N   UNL A   1      43.911  28.293  32.781  1.00  0.00    -0.354 N 
ATOM     59  N   UNL A   1      43.916  26.247  30.720  1.00  0.00    -0.248 NA
ATOM     60  C   UNL A   1      44.947  24.474  29.606  1.00  0.00     0.031 C 
ATOM     61  C   UNL A   1      45.578  28.328  34.251  1.00  0.00     0.029 A 
ATOM     62  C   UNL A   1      45.095  27.663  33.135  1.00  0.00     0.049 A 
ATOM     63  H   UNL A   1      43.338  28.036  32.023  1.00  0.00     0.167 HD
ATOM     64  C   UNL A   1      45.117  25.949  31.351  1.00  0.00     0.074 A 
ATOM     65  C   UNL A   1      45.703  24.836  30.635  1.00  0.00     0.031 C 
ATOM     66  C   UNL A   1      45.672  26.544  32.435  1.00  0.00     0.037 A 
BRANCH  53  67
ATOM     67  C   UNL A   1      42.441  31.382  34.512  1.00  0.00     0.064 A 
ATOM     68  C   UNL A   1      41.727  31.257  35.714  1.00  0.00     0.173 A 
ATOM     69  C   UNL A   1      43.024  32.620  34.215  1.00  0.00     0.173 A 
ATOM     70  F   UNL A   1      41.131  30.096  36.028  1.00  0.00    -0.203 F 
ATOM     71  C   UNL A   1      41.565  32.347  36.563  1.00  0.00     0.198 A 
ATOM     72  C   UNL A   1      42.885  33.700  35.081  1.00  0.00     0.198 A 
ATOM     73  F   UNL A   1      43.713  32.788  33.077  1.00  0.00    -0.203 F 
ATOM     74  F   UNL A   1      40.820  32.226  37.671  1.00  0.00    -0.200 F 
ATOM     75  C   UNL A   1      42.146  33.565  36.248  1.00  0.00     0.200 A 
ATOM     76  F   UNL A   1      43.450  34.877  34.777  1.00  0.00    -0.200 F 
ATOM     77  F   UNL A   1      41.977  34.619  37.059  1.00  0.00    -0.200 F 
ENDBRANCH  53  67
BRANCH  54  78
ATOM     78  C   UNL A   1      42.741  24.163  27.706  1.00  0.00     0.064 A 
ATOM     79  C   UNL A   1      42.304  22.856  27.964  1.00  0.00     0.173 A 
ATOM     80  C   UNL A   1      43.277  24.430  26.437  1.00  0.00     0.173 A 
ATOM     81  F   UNL A   1      41.814  22.540  29.172  1.00  0.00    -0.203 F 
ATOM     82  C   UNL A   1      42.410  21.856  26.997  1.00  0.00     0.198 A 
ATOM     83  C   UNL A   1      43.359  23.437  25.463  1.00  0.00     0.198 A 
ATOM     84  F   UNL A   1      43.716  25.662  26.140  1.00  0.00    -0.203 F 
ATOM     85  F   UNL A   1      42.023  20.605  27.283  1.00  0.00    -0.200 F 
ATOM     86  C   UNL A   1      42.931  22.149  25.745  1.00  0.00     0.200 A 
ATOM     87  F   UNL A   1      43.853  23.728  24.252  1.00  0.00    -0.200 F 
ATOM     88  F   UNL A   1      43.028  21.189  24.815  1.00  0.00    -0.200 F 
ENDBRANCH  54  78
BRANCH  66  89
ATOM     89  C   UNL A   1      46.957  25.979  32.969  1.00  0.00     0.064 A 
ATOM     90  C   UNL A   1      48.206  26.509  32.616  1.00  0.00     0.173 A 
ATOM     91  C   UNL A   1      46.930  24.941  33.916  1.00  0.00     0.173 A 
ATOM     92  F   UNL A   1      48.289  27.488  31.703  1.00  0.00    -0.203 F 
ATOM     93  C   UNL A   1      49.379  26.018  33.185  1.00  0.00     0.198 A 
ATOM     94  C   UNL A   1      48.101  24.473  34.503  1.00  0.00     0.198 A 
ATOM     95  F   UNL A   1      45.760  24.401  34.291  1.00  0.00    -0.203 F 
ATOM     96  F   UNL A   1      50.564  26.520  32.811  1.00  0.00    -0.200 F 
ATOM     97  C   UNL A   1      49.325  25.010  34.136  1.00  0.00     0.200 A 
ATOM     98  F   UNL A   1      48.044  23.508  35.432  1.00  0.00    -0.200 F 
ATOM     99  F   UNL A   1      50.453  24.554  34.697  1.00  0.00    -0.200 F 
ENDBRANCH  66  89
ENDBRANCH  40  41
ENDBRANCH  33  35
ENDBRANCH  32  33
ENDBRANCH  31  32
ENDBRANCH  30  31
ENDBRANCH  29  30
ENDBRANCH  28  29
ENDBRANCH   1  28
TORSDOF 20
ENDMDL
