MODEL 1
REMARK VINA RESULT:     -13.0      0.000      0.000
REMARK SMILES O=C(OCCOCCOC(=O)c1ccc(-c2c3nc(c(-c4c(F)c(F)c(F)c(F)c4F)c4ccc([nH]4)c(-c4c(F)c(F)c(F)c(F)c4F)c4nc(c(-c5c(F)c(F)c(F)c(F)c5F)c5ccc2[nH]5)C=C4)C=C3)cc1)C1=Cc2c(Cl)cc(Cl)cc2O[C@@H]1C(F)(F)F
REMARK SMILES IDX 7 1 6 2 5 3 4 4 3 5 2 6 1 7 75 8 76 9 86 10 77 11 85 12
REMARK SMILES IDX 78 13 84 14 79 15 80 16 83 17 81 18 82 19 87 20 88 21 89 22
REMARK SMILES IDX 90 23 8 24 9 25 10 26 11 27 12 28 13 29 74 30 14 31 73 32
REMARK SMILES IDX 15 33 16 34 17 35 67 36 18 37 72 38 66 39 68 40 19 41 71 42
REMARK SMILES IDX 65 43 64 44 20 46 52 47 32 48 51 49 33 50 36 51 50 52 69 53
REMARK SMILES IDX 34 54 35 55 49 57 70 58 37 59 21 60 22 61 30 62 23 63 24 64
REMARK SMILES IDX 28 65 31 66 25 67 26 68 29 69 27 70 53 71 54 72 62 73 55 74
REMARK SMILES IDX 56 75 60 76 63 77 57 78 58 79 61 80 59 81 38 82 39 83 47 84
REMARK SMILES IDX 40 85 41 86 45 87 48 88 42 89 43 90 46 91 44 92
REMARK H PARENT 68 45 36 56
REMARK Flexibility Score: inf
ROOT
ATOM      1  C   UNL A   1      31.302  32.054  26.513  1.00  0.00     0.202 C 
ENDROOT
BRANCH   1   2
ATOM      2  O   UNL A   1      32.044  30.862  26.179  1.00  0.00    -0.374 OA
BRANCH   2   3
ATOM      3  C   UNL A   1      32.502  29.585  27.084  1.00  0.00     0.202 C 
BRANCH   3   4
ATOM      4  C   UNL A   1      33.679  27.833  26.522  1.00  0.00     0.261 C 
BRANCH   4   5
ATOM      5  O   UNL A   1      33.616  27.084  25.191  1.00  0.00    -0.460 OA
BRANCH   5   6
ATOM      6  C   UNL A   1      33.072  25.869  25.307  1.00  0.00     0.338 C 
ATOM      7  O   UNL A   1      32.520  25.368  26.252  1.00  0.00    -0.246 OA
BRANCH   6   8
ATOM      8  C   UNL A   1      33.716  25.300  24.141  1.00  0.00     0.087 C 
ATOM      9  C   UNL A   1      34.681  24.243  24.505  1.00  0.00     0.029 C 
ATOM     10  C   UNL A   1      32.086  25.008  23.145  1.00  0.00     0.316 C 
ATOM     11  C   UNL A   1      34.366  22.465  24.303  1.00  0.00     0.036 A 
ATOM     12  O   UNL A   1      31.684  23.125  22.968  1.00  0.00    -0.475 OA
ATOM     13  C   UNL A   1      35.205  21.538  24.869  1.00  0.00     0.053 A 
ATOM     14  C   UNL A   1      32.871  21.889  23.620  1.00  0.00     0.130 A 
ATOM     15  Cl  UNL A   1      36.720  21.924  25.566  1.00  0.00    -0.083 Cl
ATOM     16  C   UNL A   1      34.724  20.223  24.911  1.00  0.00     0.042 A 
ATOM     17  C   UNL A   1      32.443  20.602  23.792  1.00  0.00     0.067 A 
ATOM     18  C   UNL A   1      33.415  19.800  24.447  1.00  0.00     0.046 A 
ATOM     19  Cl  UNL A   1      33.034  18.156  24.839  1.00  0.00    -0.084 Cl
BRANCH  10  20
ATOM     20  C   UNL A   1      32.336  26.156  22.056  1.00  0.00     0.430 C 
ATOM     21  F   UNL A   1      33.571  26.195  21.526  1.00  0.00    -0.167 F 
ATOM     22  F   UNL A   1      31.512  25.895  20.998  1.00  0.00    -0.167 F 
ATOM     23  F   UNL A   1      31.999  27.405  22.451  1.00  0.00    -0.167 F 
ENDBRANCH  10  20
ENDBRANCH   6   8
ENDBRANCH   5   6
ENDBRANCH   4   5
ENDBRANCH   3   4
ENDBRANCH   2   3
ENDBRANCH   1   2
BRANCH   1  24
ATOM     24  C   UNL A   1      32.127  33.231  27.029  1.00  0.00     0.261 C 
BRANCH  24  25
ATOM     25  O   UNL A   1      33.163  32.808  27.903  1.00  0.00    -0.460 OA
BRANCH  25  26
ATOM     26  C   UNL A   1      34.180  33.691  27.987  1.00  0.00     0.338 C 
ATOM     27  O   UNL A   1      34.165  34.880  27.722  1.00  0.00    -0.246 OA
BRANCH  26  28
ATOM     28  C   UNL A   1      35.376  32.980  28.458  1.00  0.00     0.060 A 
ATOM     29  C   UNL A   1      35.216  31.649  28.848  1.00  0.00     0.016 A 
ATOM     30  C   UNL A   1      36.632  33.603  28.514  1.00  0.00     0.016 A 
ATOM     31  C   UNL A   1      36.318  30.929  29.278  1.00  0.00     0.010 A 
ATOM     32  C   UNL A   1      37.736  32.882  28.952  1.00  0.00     0.010 A 
ATOM     33  C   UNL A   1      37.574  31.546  29.338  1.00  0.00    -0.014 A 
BRANCH  33  34
ATOM     34  C   UNL A   1      38.665  30.838  30.021  1.00  0.00     0.031 A 
ATOM     35  C   UNL A   1      38.887  31.159  31.463  1.00  0.00     0.074 A 
ATOM     36  C   UNL A   1      39.383  29.901  29.383  1.00  0.00     0.049 A 
ATOM     37  N   UNL A   1      39.745  30.649  32.302  1.00  0.00    -0.248 NA
ATOM     38  C   UNL A   1      38.017  32.200  32.038  1.00  0.00     0.031 C 
ATOM     39  C   UNL A   1      39.208  29.508  27.989  1.00  0.00     0.029 A 
ATOM     40  N   UNL A   1      40.396  29.100  29.836  1.00  0.00    -0.354 N 
ATOM     41  C   UNL A   1      39.505  31.290  33.507  1.00  0.00     0.074 A 
ATOM     42  C   UNL A   1      38.456  32.259  33.284  1.00  0.00     0.031 C 
ATOM     43  C   UNL A   1      40.068  28.516  27.702  1.00  0.00     0.029 A 
ATOM     44  C   UNL A   1      40.894  28.252  28.877  1.00  0.00     0.049 A 
ATOM     45  H   UNL A   1      40.736  29.129  30.759  1.00  0.00     0.167 HD
ATOM     46  C   UNL A   1      40.108  31.075  34.697  1.00  0.00     0.037 A 
ATOM     47  C   UNL A   1      41.919  27.385  28.951  1.00  0.00     0.037 A 
ATOM     48  C   UNL A   1      41.182  30.140  34.882  1.00  0.00     0.049 A 
ATOM     49  C   UNL A   1      42.653  27.255  30.263  1.00  0.00     0.074 A 
ATOM     50  C   UNL A   1      41.894  29.862  36.032  1.00  0.00     0.029 A 
ATOM     51  N   UNL A   1      41.713  29.345  33.875  1.00  0.00    -0.354 N 
ATOM     52  N   UNL A   1      42.413  27.844  31.411  1.00  0.00    -0.248 NA
ATOM     53  C   UNL A   1      43.800  26.339  30.291  1.00  0.00     0.031 C 
ATOM     54  C   UNL A   1      42.904  28.951  35.706  1.00  0.00     0.029 A 
ATOM     55  C   UNL A   1      42.767  28.596  34.372  1.00  0.00     0.049 A 
ATOM     56  H   UNL A   1      41.389  29.317  32.945  1.00  0.00     0.167 HD
ATOM     57  C   UNL A   1      43.352  27.343  32.305  1.00  0.00     0.074 A 
ATOM     58  C   UNL A   1      44.153  26.388  31.566  1.00  0.00     0.031 C 
ATOM     59  C   UNL A   1      43.539  27.643  33.615  1.00  0.00     0.037 A 
BRANCH  46  60
ATOM     60  C   UNL A   1      39.645  31.905  35.857  1.00  0.00     0.064 A 
ATOM     61  C   UNL A   1      38.552  31.522  36.650  1.00  0.00     0.173 A 
ATOM     62  C   UNL A   1      40.299  33.103  36.175  1.00  0.00     0.173 A 
ATOM     63  F   UNL A   1      37.874  30.398  36.370  1.00  0.00    -0.203 F 
ATOM     64  C   UNL A   1      38.112  32.325  37.697  1.00  0.00     0.198 A 
ATOM     65  C   UNL A   1      39.880  33.885  37.247  1.00  0.00     0.198 A 
ATOM     66  F   UNL A   1      41.343  33.519  35.442  1.00  0.00    -0.203 F 
ATOM     67  F   UNL A   1      37.026  31.974  38.401  1.00  0.00    -0.200 F 
ATOM     68  C   UNL A   1      38.782  33.501  38.001  1.00  0.00     0.200 A 
ATOM     69  F   UNL A   1      40.535  35.016  37.544  1.00  0.00    -0.200 F 
ATOM     70  F   UNL A   1      38.361  34.272  39.012  1.00  0.00    -0.200 F 
ENDBRANCH  46  60
BRANCH  47  71
ATOM     71  C   UNL A   1      42.339  26.602  27.757  1.00  0.00     0.064 A 
ATOM     72  C   UNL A   1      41.826  25.320  27.507  1.00  0.00     0.173 A 
ATOM     73  C   UNL A   1      43.306  27.095  26.867  1.00  0.00     0.173 A 
ATOM     74  F   UNL A   1      40.914  24.791  28.336  1.00  0.00    -0.203 F 
ATOM     75  C   UNL A   1      42.292  24.550  26.443  1.00  0.00     0.198 A 
ATOM     76  C   UNL A   1      43.743  26.340  25.781  1.00  0.00     0.198 A 
ATOM     77  F   UNL A   1      43.833  28.315  27.055  1.00  0.00    -0.203 F 
ATOM     78  F   UNL A   1      41.837  23.301  26.274  1.00  0.00    -0.200 F 
ATOM     79  C   UNL A   1      43.248  25.062  25.578  1.00  0.00     0.200 A 
ATOM     80  F   UNL A   1      44.655  26.846  24.940  1.00  0.00    -0.200 F 
ATOM     81  F   UNL A   1      43.701  24.319  24.560  1.00  0.00    -0.200 F 
ENDBRANCH  47  71
BRANCH  59  82
ATOM     82  C   UNL A   1      44.613  26.888  34.347  1.00  0.00     0.064 A 
ATOM     83  C   UNL A   1      44.357  25.672  34.998  1.00  0.00     0.173 A 
ATOM     84  C   UNL A   1      45.931  27.374  34.360  1.00  0.00     0.173 A 
ATOM     85  F   UNL A   1      43.115  25.167  35.024  1.00  0.00    -0.203 F 
ATOM     86  C   UNL A   1      45.372  24.991  35.666  1.00  0.00     0.198 A 
ATOM     87  C   UNL A   1      46.950  26.668  34.989  1.00  0.00     0.198 A 
ATOM     88  F   UNL A   1      46.233  28.526  33.742  1.00  0.00    -0.203 F 
ATOM     89  F   UNL A   1      45.091  23.865  36.336  1.00  0.00    -0.200 F 
ATOM     90  C   UNL A   1      46.668  25.485  35.653  1.00  0.00     0.200 A 
ATOM     91  F   UNL A   1      48.206  27.135  34.954  1.00  0.00    -0.200 F 
ATOM     92  F   UNL A   1      47.645  24.822  36.288  1.00  0.00    -0.200 F 
ENDBRANCH  59  82
ENDBRANCH  33  34
ENDBRANCH  26  28
ENDBRANCH  25  26
ENDBRANCH  24  25
ENDBRANCH   1  24
TORSDOF 15
ENDMDL
MODEL 2
REMARK VINA RESULT:     -12.6      4.828     10.390
REMARK SMILES O=C(OCCOCCOC(=O)c1ccc(-c2c3nc(c(-c4c(F)c(F)c(F)c(F)c4F)c4ccc([nH]4)c(-c4c(F)c(F)c(F)c(F)c4F)c4nc(c(-c5c(F)c(F)c(F)c(F)c5F)c5ccc2[nH]5)C=C4)C=C3)cc1)C1=Cc2c(Cl)cc(Cl)cc2O[C@@H]1C(F)(F)F
REMARK SMILES IDX 7 1 6 2 5 3 4 4 3 5 2 6 1 7 75 8 76 9 86 10 77 11 85 12
REMARK SMILES IDX 78 13 84 14 79 15 80 16 83 17 81 18 82 19 87 20 88 21 89 22
REMARK SMILES IDX 90 23 8 24 9 25 10 26 11 27 12 28 13 29 74 30 14 31 73 32
REMARK SMILES IDX 15 33 16 34 17 35 67 36 18 37 72 38 66 39 68 40 19 41 71 42
REMARK SMILES IDX 65 43 64 44 20 46 52 47 32 48 51 49 33 50 36 51 50 52 69 53
REMARK SMILES IDX 34 54 35 55 49 57 70 58 37 59 21 60 22 61 30 62 23 63 24 64
REMARK SMILES IDX 28 65 31 66 25 67 26 68 29 69 27 70 53 71 54 72 62 73 55 74
REMARK SMILES IDX 56 75 60 76 63 77 57 78 58 79 61 80 59 81 38 82 39 83 47 84
REMARK SMILES IDX 40 85 41 86 45 87 48 88 42 89 43 90 46 91 44 92
REMARK H PARENT 68 45 36 56
REMARK Flexibility Score: inf
ROOT
ATOM      1  C   UNL A   1      37.892  19.626  24.943  1.00  0.00     0.202 C 
ENDROOT
BRANCH   1   2
ATOM      2  O   UNL A   1      37.360  20.939  24.663  1.00  0.00    -0.374 OA
BRANCH   2   3
ATOM      3  C   UNL A   1      35.829  21.500  24.629  1.00  0.00     0.202 C 
BRANCH   3   4
ATOM      4  C   UNL A   1      34.749  22.684  26.113  1.00  0.00     0.261 C 
BRANCH   4   5
ATOM      5  O   UNL A   1      34.556  24.200  26.102  1.00  0.00    -0.460 OA
BRANCH   5   6
ATOM      6  C   UNL A   1      33.790  24.615  25.089  1.00  0.00     0.338 C 
ATOM      7  O   UNL A   1      34.099  24.872  23.954  1.00  0.00    -0.246 OA
BRANCH   6   8
ATOM      8  C   UNL A   1      32.658  25.009  25.902  1.00  0.00     0.087 C 
ATOM      9  C   UNL A   1      32.589  26.473  26.078  1.00  0.00     0.029 C 
ATOM     10  C   UNL A   1      31.355  23.951  24.945  1.00  0.00     0.316 C 
ATOM     11  C   UNL A   1      31.412  27.548  25.205  1.00  0.00     0.036 A 
ATOM     12  O   UNL A   1      30.125  25.062  23.948  1.00  0.00    -0.475 OA
ATOM     13  C   UNL A   1      31.552  28.913  25.240  1.00  0.00     0.053 A 
ATOM     14  C   UNL A   1      30.242  26.886  24.098  1.00  0.00     0.130 A 
ATOM     15  Cl  UNL A   1      32.636  29.732  26.280  1.00  0.00    -0.083 Cl
ATOM     16  C   UNL A   1      30.788  29.630  24.311  1.00  0.00     0.042 A 
ATOM     17  C   UNL A   1      29.611  27.657  23.162  1.00  0.00     0.067 A 
ATOM     18  C   UNL A   1      29.918  29.036  23.312  1.00  0.00     0.046 A 
ATOM     19  Cl  UNL A   1      29.287  30.176  22.170  1.00  0.00    -0.084 Cl
BRANCH  10  20
ATOM     20  C   UNL A   1      31.123  22.867  26.101  1.00  0.00     0.430 C 
ATOM     21  F   UNL A   1      31.662  23.167  27.296  1.00  0.00    -0.167 F 
ATOM     22  F   UNL A   1      29.777  22.807  26.333  1.00  0.00    -0.167 F 
ATOM     23  F   UNL A   1      31.471  21.601  25.779  1.00  0.00    -0.167 F 
ENDBRANCH  10  20
ENDBRANCH   6   8
ENDBRANCH   5   6
ENDBRANCH   4   5
ENDBRANCH   3   4
ENDBRANCH   2   3
ENDBRANCH   1   2
BRANCH   1  24
ATOM     24  C   UNL A   1      39.272  19.589  25.594  1.00  0.00     0.261 C 
BRANCH  24  25
ATOM     25  O   UNL A   1      39.509  20.735  26.398  1.00  0.00    -0.460 OA
BRANCH  25  26
ATOM     26  C   UNL A   1      40.732  20.739  26.970  1.00  0.00     0.338 C 
ATOM     27  O   UNL A   1      41.471  19.791  27.164  1.00  0.00    -0.246 OA
BRANCH  26  28
ATOM     28  C   UNL A   1      41.062  22.118  27.352  1.00  0.00     0.060 A 
ATOM     29  C   UNL A   1      40.511  23.144  26.582  1.00  0.00     0.016 A 
ATOM     30  C   UNL A   1      41.892  22.403  28.447  1.00  0.00     0.016 A 
ATOM     31  C   UNL A   1      40.774  24.463  26.917  1.00  0.00     0.010 A 
ATOM     32  C   UNL A   1      42.161  23.725  28.779  1.00  0.00     0.010 A 
ATOM     33  C   UNL A   1      41.604  24.752  28.008  1.00  0.00    -0.014 A 
BRANCH  33  34
ATOM     34  C   UNL A   1      42.056  26.138  28.189  1.00  0.00     0.031 A 
ATOM     35  C   UNL A   1      43.392  26.497  27.622  1.00  0.00     0.074 A 
ATOM     36  C   UNL A   1      41.268  27.048  28.782  1.00  0.00     0.049 A 
ATOM     37  N   UNL A   1      44.000  27.651  27.605  1.00  0.00    -0.248 NA
ATOM     38  C   UNL A   1      44.144  25.402  26.987  1.00  0.00     0.031 C 
ATOM     39  C   UNL A   1      39.942  26.784  29.332  1.00  0.00     0.029 A 
ATOM     40  N   UNL A   1      41.469  28.382  29.009  1.00  0.00    -0.354 N 
ATOM     41  C   UNL A   1      45.194  27.425  26.940  1.00  0.00     0.074 A 
ATOM     42  C   UNL A   1      45.251  26.019  26.610  1.00  0.00     0.031 C 
ATOM     43  C   UNL A   1      39.430  27.931  29.810  1.00  0.00     0.029 A 
ATOM     44  C   UNL A   1      40.422  28.992  29.654  1.00  0.00     0.049 A 
ATOM     45  H   UNL A   1      42.285  28.860  28.735  1.00  0.00     0.167 HD
ATOM     46  C   UNL A   1      46.153  28.324  26.626  1.00  0.00     0.037 A 
ATOM     47  C   UNL A   1      40.306  30.261  30.087  1.00  0.00     0.037 A 
ATOM     48  C   UNL A   1      46.096  29.707  27.008  1.00  0.00     0.049 A 
ATOM     49  C   UNL A   1      41.448  31.211  29.828  1.00  0.00     0.074 A 
ATOM     50  C   UNL A   1      47.024  30.704  26.778  1.00  0.00     0.029 A 
ATOM     51  N   UNL A   1      45.054  30.282  27.724  1.00  0.00    -0.354 N 
ATOM     52  N   UNL A   1      42.570  31.007  29.178  1.00  0.00    -0.248 NA
ATOM     53  C   UNL A   1      41.308  32.572  30.361  1.00  0.00     0.031 C 
ATOM     54  C   UNL A   1      46.579  31.865  27.417  1.00  0.00     0.029 A 
ATOM     55  C   UNL A   1      45.332  31.616  27.972  1.00  0.00     0.049 A 
ATOM     56  H   UNL A   1      44.239  29.811  28.014  1.00  0.00     0.167 HD
ATOM     57  C   UNL A   1      43.250  32.218  29.192  1.00  0.00     0.074 A 
ATOM     58  C   UNL A   1      42.404  33.156  29.900  1.00  0.00     0.031 C 
ATOM     59  C   UNL A   1      44.463  32.530  28.670  1.00  0.00     0.037 A 
BRANCH  46  60
ATOM     60  C   UNL A   1      47.351  27.814  25.884  1.00  0.00     0.064 A 
ATOM     61  C   UNL A   1      47.370  27.726  24.483  1.00  0.00     0.173 A 
ATOM     62  C   UNL A   1      48.493  27.398  26.582  1.00  0.00     0.173 A 
ATOM     63  F   UNL A   1      46.292  28.084  23.768  1.00  0.00    -0.203 F 
ATOM     64  C   UNL A   1      48.476  27.212  23.813  1.00  0.00     0.198 A 
ATOM     65  C   UNL A   1      49.612  26.920  25.908  1.00  0.00     0.198 A 
ATOM     66  F   UNL A   1      48.523  27.452  27.923  1.00  0.00    -0.203 F 
ATOM     67  F   UNL A   1      48.448  27.076  22.479  1.00  0.00    -0.200 F 
ATOM     68  C   UNL A   1      49.600  26.818  24.525  1.00  0.00     0.200 A 
ATOM     69  F   UNL A   1      50.699  26.549  26.597  1.00  0.00    -0.200 F 
ATOM     70  F   UNL A   1      50.666  26.327  23.879  1.00  0.00    -0.200 F 
ENDBRANCH  46  60
BRANCH  47  71
ATOM     71  C   UNL A   1      39.095  30.700  30.833  1.00  0.00     0.064 A 
ATOM     72  C   UNL A   1      39.002  30.550  32.225  1.00  0.00     0.173 A 
ATOM     73  C   UNL A   1      37.981  31.229  30.164  1.00  0.00     0.173 A 
ATOM     74  F   UNL A   1      40.029  30.031  32.913  1.00  0.00    -0.203 F 
ATOM     75  C   UNL A   1      37.830  30.871  32.909  1.00  0.00     0.198 A 
ATOM     76  C   UNL A   1      36.825  31.587  30.853  1.00  0.00     0.198 A 
ATOM     77  F   UNL A   1      38.012  31.396  28.833  1.00  0.00    -0.203 F 
ATOM     78  F   UNL A   1      37.744  30.647  34.227  1.00  0.00    -0.200 F 
ATOM     79  C   UNL A   1      36.744  31.393  32.223  1.00  0.00     0.200 A 
ATOM     80  F   UNL A   1      35.784  32.106  30.188  1.00  0.00    -0.200 F 
ATOM     81  F   UNL A   1      35.616  31.695  32.879  1.00  0.00    -0.200 F 
ENDBRANCH  47  71
BRANCH  59  82
ATOM     82  C   UNL A   1      44.919  33.957  28.794  1.00  0.00     0.064 A 
ATOM     83  C   UNL A   1      45.706  34.397  29.868  1.00  0.00     0.173 A 
ATOM     84  C   UNL A   1      44.595  34.889  27.794  1.00  0.00     0.173 A 
ATOM     85  F   UNL A   1      46.037  33.551  30.856  1.00  0.00    -0.203 F 
ATOM     86  C   UNL A   1      46.118  35.724  29.956  1.00  0.00     0.198 A 
ATOM     87  C   UNL A   1      45.047  36.202  27.862  1.00  0.00     0.198 A 
ATOM     88  F   UNL A   1      43.856  34.518  26.737  1.00  0.00    -0.203 F 
ATOM     89  F   UNL A   1      46.814  36.137  31.025  1.00  0.00    -0.200 F 
ATOM     90  C   UNL A   1      45.797  36.622  28.950  1.00  0.00     0.200 A 
ATOM     91  F   UNL A   1      44.756  37.061  26.876  1.00  0.00    -0.200 F 
ATOM     92  F   UNL A   1      46.204  37.897  29.032  1.00  0.00    -0.200 F 
ENDBRANCH  59  82
ENDBRANCH  33  34
ENDBRANCH  26  28
ENDBRANCH  25  26
ENDBRANCH  24  25
ENDBRANCH   1  24
TORSDOF 15
ENDMDL
MODEL 3
REMARK VINA RESULT:     -12.6      4.845     10.498
REMARK SMILES O=C(OCCOCCOC(=O)c1ccc(-c2c3nc(c(-c4c(F)c(F)c(F)c(F)c4F)c4ccc([nH]4)c(-c4c(F)c(F)c(F)c(F)c4F)c4nc(c(-c5c(F)c(F)c(F)c(F)c5F)c5ccc2[nH]5)C=C4)C=C3)cc1)C1=Cc2c(Cl)cc(Cl)cc2O[C@@H]1C(F)(F)F
REMARK SMILES IDX 7 1 6 2 5 3 4 4 3 5 2 6 1 7 75 8 76 9 86 10 77 11 85 12
REMARK SMILES IDX 78 13 84 14 79 15 80 16 83 17 81 18 82 19 87 20 88 21 89 22
REMARK SMILES IDX 90 23 8 24 9 25 10 26 11 27 12 28 13 29 74 30 14 31 73 32
REMARK SMILES IDX 15 33 16 34 17 35 67 36 18 37 72 38 66 39 68 40 19 41 71 42
REMARK SMILES IDX 65 43 64 44 20 46 52 47 32 48 51 49 33 50 36 51 50 52 69 53
REMARK SMILES IDX 34 54 35 55 49 57 70 58 37 59 21 60 22 61 30 62 23 63 24 64
REMARK SMILES IDX 28 65 31 66 25 67 26 68 29 69 27 70 53 71 54 72 62 73 55 74
REMARK SMILES IDX 56 75 60 76 63 77 57 78 58 79 61 80 59 81 38 82 39 83 47 84
REMARK SMILES IDX 40 85 41 86 45 87 48 88 42 89 43 90 46 91 44 92
REMARK H PARENT 68 45 36 56
REMARK Flexibility Score: inf
ROOT
ATOM      1  C   UNL A   1      38.222  19.809  25.016  1.00  0.00     0.202 C 
ENDROOT
BRANCH   1   2
ATOM      2  O   UNL A   1      38.091  21.247  25.012  1.00  0.00    -0.374 OA
BRANCH   2   3
ATOM      3  C   UNL A   1      36.883  22.221  24.508  1.00  0.00     0.202 C 
BRANCH   3   4
ATOM      4  C   UNL A   1      36.050  24.005  25.452  1.00  0.00     0.261 C 
BRANCH   4   5
ATOM      5  O   UNL A   1      34.600  24.208  25.891  1.00  0.00    -0.460 OA
BRANCH   5   6
ATOM      6  C   UNL A   1      33.831  24.705  24.918  1.00  0.00     0.338 C 
ATOM      7  O   UNL A   1      34.127  25.009  23.792  1.00  0.00    -0.246 OA
BRANCH   6   8
ATOM      8  C   UNL A   1      32.733  25.099  25.776  1.00  0.00     0.087 C 
ATOM      9  C   UNL A   1      32.647  26.566  25.922  1.00  0.00     0.029 C 
ATOM     10  C   UNL A   1      31.404  24.000  24.905  1.00  0.00     0.316 C 
ATOM     11  C   UNL A   1      31.412  27.602  25.083  1.00  0.00     0.036 A 
ATOM     12  O   UNL A   1      30.109  25.069  23.944  1.00  0.00    -0.475 OA
ATOM     13  C   UNL A   1      31.531  28.969  25.082  1.00  0.00     0.053 A 
ATOM     14  C   UNL A   1      30.202  26.897  24.048  1.00  0.00     0.130 A 
ATOM     15  Cl  UNL A   1      32.649  29.829  26.051  1.00  0.00    -0.083 Cl
ATOM     16  C   UNL A   1      30.712  29.653  24.174  1.00  0.00     0.042 A 
ATOM     17  C   UNL A   1      29.515  27.637  23.126  1.00  0.00     0.067 A 
ATOM     18  C   UNL A   1      29.806  29.023  23.232  1.00  0.00     0.046 A 
ATOM     19  Cl  UNL A   1      29.103  30.127  22.097  1.00  0.00    -0.084 Cl
BRANCH  10  20
ATOM     20  C   UNL A   1      31.245  22.939  26.094  1.00  0.00     0.430 C 
ATOM     21  F   UNL A   1      30.079  22.270  26.124  1.00  0.00    -0.167 F 
ATOM     22  F   UNL A   1      32.193  21.973  25.903  1.00  0.00    -0.167 F 
ATOM     23  F   UNL A   1      31.495  23.422  27.332  1.00  0.00    -0.167 F 
ENDBRANCH  10  20
ENDBRANCH   6   8
ENDBRANCH   5   6
ENDBRANCH   4   5
ENDBRANCH   3   4
ENDBRANCH   2   3
ENDBRANCH   1   2
BRANCH   1  24
ATOM     24  C   UNL A   1      39.463  19.254  25.709  1.00  0.00     0.261 C 
BRANCH  24  25
ATOM     25  O   UNL A   1      39.922  20.114  26.742  1.00  0.00    -0.460 OA
BRANCH  25  26
ATOM     26  C   UNL A   1      41.249  20.352  26.684  1.00  0.00     0.338 C 
ATOM     27  O   UNL A   1      42.138  19.577  26.377  1.00  0.00    -0.246 OA
BRANCH  26  28
ATOM     28  C   UNL A   1      41.488  21.749  27.070  1.00  0.00     0.060 A 
ATOM     29  C   UNL A   1      41.089  22.738  26.170  1.00  0.00     0.016 A 
ATOM     30  C   UNL A   1      42.090  22.085  28.292  1.00  0.00     0.016 A 
ATOM     31  C   UNL A   1      41.271  24.072  26.499  1.00  0.00     0.010 A 
ATOM     32  C   UNL A   1      42.279  23.422  28.619  1.00  0.00     0.010 A 
ATOM     33  C   UNL A   1      41.873  24.412  27.717  1.00  0.00    -0.014 A 
BRANCH  33  34
ATOM     34  C   UNL A   1      42.271  25.811  27.929  1.00  0.00     0.031 A 
ATOM     35  C   UNL A   1      43.587  26.236  27.363  1.00  0.00     0.074 A 
ATOM     36  C   UNL A   1      41.452  26.674  28.549  1.00  0.00     0.049 A 
ATOM     37  N   UNL A   1      44.149  27.413  27.370  1.00  0.00    -0.248 NA
ATOM     38  C   UNL A   1      44.378  25.187  26.696  1.00  0.00     0.031 C 
ATOM     39  C   UNL A   1      40.141  26.344  29.100  1.00  0.00     0.029 A 
ATOM     40  N   UNL A   1      41.601  28.009  28.806  1.00  0.00    -0.354 N 
ATOM     41  C   UNL A   1      45.347  27.251  26.692  1.00  0.00     0.074 A 
ATOM     42  C   UNL A   1      45.457  25.857  26.328  1.00  0.00     0.031 C 
ATOM     43  C   UNL A   1      39.588  27.458  29.608  1.00  0.00     0.029 A 
ATOM     44  C   UNL A   1      40.536  28.561  29.472  1.00  0.00     0.049 A 
ATOM     45  H   UNL A   1      42.396  28.525  28.539  1.00  0.00     0.167 HD
ATOM     46  C   UNL A   1      46.267  28.195  26.395  1.00  0.00     0.037 A 
ATOM     47  C   UNL A   1      40.372  29.813  29.937  1.00  0.00     0.037 A 
ATOM     48  C   UNL A   1      46.158  29.565  26.811  1.00  0.00     0.049 A 
ATOM     49  C   UNL A   1      41.473  30.815  29.694  1.00  0.00     0.074 A 
ATOM     50  C   UNL A   1      47.044  30.604  26.599  1.00  0.00     0.029 A 
ATOM     51  N   UNL A   1      45.099  30.081  27.547  1.00  0.00    -0.354 N 
ATOM     52  N   UNL A   1      42.598  30.671  29.032  1.00  0.00    -0.248 NA
ATOM     53  C   UNL A   1      41.283  32.156  30.261  1.00  0.00     0.031 C 
ATOM     54  C   UNL A   1      46.557  31.730  27.269  1.00  0.00     0.029 A 
ATOM     55  C   UNL A   1      45.325  31.419  27.825  1.00  0.00     0.049 A 
ATOM     56  H   UNL A   1      44.305  29.571  27.830  1.00  0.00     0.167 HD
ATOM     57  C   UNL A   1      43.229  31.908  29.072  1.00  0.00     0.074 A 
ATOM     58  C   UNL A   1      42.352  32.794  29.808  1.00  0.00     0.031 C 
ATOM     59  C   UNL A   1      44.425  32.280  28.550  1.00  0.00     0.037 A 
BRANCH  46  60
ATOM     60  C   UNL A   1      47.479  27.751  25.633  1.00  0.00     0.064 A 
ATOM     61  C   UNL A   1      48.640  27.307  26.285  1.00  0.00     0.173 A 
ATOM     62  C   UNL A   1      47.484  27.778  24.232  1.00  0.00     0.173 A 
ATOM     63  F   UNL A   1      48.698  27.289  27.626  1.00  0.00    -0.203 F 
ATOM     64  C   UNL A   1      49.770  26.937  25.562  1.00  0.00     0.198 A 
ATOM     65  C   UNL A   1      48.602  27.371  23.511  1.00  0.00     0.198 A 
ATOM     66  F   UNL A   1      46.403  28.203  23.560  1.00  0.00    -0.203 F 
ATOM     67  F   UNL A   1      50.890  26.578  26.206  1.00  0.00    -0.200 F 
ATOM     68  C   UNL A   1      49.747  26.960  24.175  1.00  0.00     0.200 A 
ATOM     69  F   UNL A   1      48.574  27.385  22.171  1.00  0.00    -0.200 F 
ATOM     70  F   UNL A   1      50.834  26.600  23.480  1.00  0.00    -0.200 F 
ENDBRANCH  46  60
BRANCH  47  71
ATOM     71  C   UNL A   1      39.150  30.186  30.700  1.00  0.00     0.064 A 
ATOM     72  C   UNL A   1      38.048  30.780  30.068  1.00  0.00     0.173 A 
ATOM     73  C   UNL A   1      39.079  30.008  32.091  1.00  0.00     0.173 A 
ATOM     74  F   UNL A   1      38.069  30.993  28.744  1.00  0.00    -0.203 F 
ATOM     75  C   UNL A   1      36.944  31.217  30.800  1.00  0.00     0.198 A 
ATOM     76  C   UNL A   1      37.960  30.409  32.816  1.00  0.00     0.198 A 
ATOM     77  F   UNL A   1      40.103  29.444  32.750  1.00  0.00    -0.203 F 
ATOM     78  F   UNL A   1      35.939  31.849  30.179  1.00  0.00    -0.200 F 
ATOM     79  C   UNL A   1      36.900  31.028  32.173  1.00  0.00     0.200 A 
ATOM     80  F   UNL A   1      37.915  30.209  34.140  1.00  0.00    -0.200 F 
ATOM     81  F   UNL A   1      35.843  31.455  32.877  1.00  0.00    -0.200 F 
ENDBRANCH  47  71
BRANCH  59  82
ATOM     82  C   UNL A   1      44.825  33.721  28.706  1.00  0.00     0.064 A 
ATOM     83  C   UNL A   1      44.451  34.703  27.777  1.00  0.00     0.173 A 
ATOM     84  C   UNL A   1      45.563  34.129  29.830  1.00  0.00     0.173 A 
ATOM     85  F   UNL A   1      43.753  34.366  26.681  1.00  0.00    -0.203 F 
ATOM     86  C   UNL A   1      44.832  36.031  27.948  1.00  0.00     0.198 A 
ATOM     87  C   UNL A   1      45.903  35.464  30.020  1.00  0.00     0.198 A 
ATOM     88  F   UNL A   1      45.937  33.233  30.756  1.00  0.00    -0.203 F 
ATOM     89  F   UNL A   1      44.518  36.940  27.014  1.00  0.00    -0.200 F 
ATOM     90  C   UNL A   1      45.549  36.412  29.072  1.00  0.00     0.200 A 
ATOM     91  F   UNL A   1      46.574  35.832  31.119  1.00  0.00    -0.200 F 
ATOM     92  F   UNL A   1      45.905  37.693  29.239  1.00  0.00    -0.200 F 
ENDBRANCH  59  82
ENDBRANCH  33  34
ENDBRANCH  26  28
ENDBRANCH  25  26
ENDBRANCH  24  25
ENDBRANCH   1  24
TORSDOF 15
ENDMDL
