MODEL 1
REMARK VINA RESULT:     -12.2      0.000      0.000
REMARK SMILES O=C1OC(c2ccc(Cl)cc2)=N/C1=C/Nc1ccc(O)c(C(=O)OCCOCCOC(=O)c2ccc(-c3c4nc(c(-c5c(F)c(F)c(F)c(F)c5F)c5ccc([nH]5)c(-c5c(F)c(F)c(F)c(F)c5F)c5nc(c(-c6c(F)c(F)c(F)c(F)c6F)c6ccc3[nH]6)C=C5)C=C4)cc2)c1
REMARK SMILES IDX 26 1 25 2 24 3 22 4 23 5 21 6 16 7 17 8 96 9 18 10 19 11
REMARK SMILES IDX 15 12 14 14 1 15 2 16 3 17 13 18 4 19 12 20 5 21 6 22 11 23
REMARK SMILES IDX 7 24 10 25 8 26 9 27 20 28 27 30 28 31 29 32 30 33 31 34
REMARK SMILES IDX 32 35 33 36 34 37 95 38 35 39 94 40 36 41 37 42 38 43 88 44
REMARK SMILES IDX 39 45 93 46 87 47 89 48 40 49 92 50 86 51 85 52 41 54 73 55
REMARK SMILES IDX 53 56 72 57 54 58 57 59 71 60 90 61 55 62 56 63 70 65 91 66
REMARK SMILES IDX 58 67 42 68 43 69 51 70 44 71 45 72 49 73 52 74 46 75 47 76
REMARK SMILES IDX 50 77 48 78 74 79 75 80 83 81 76 82 77 83 81 84 84 85 78 86
REMARK SMILES IDX 79 87 82 88 80 89 59 90 60 91 68 92 61 93 62 94 66 95 69 96
REMARK SMILES IDX 63 97 64 98 67 99 65 100
REMARK H PARENT 15 13 20 29 89 53 57 64
REMARK Flexibility Score: inf
ROOT
ATOM      1  C   UNL A   1      34.879  32.608  28.111  1.00  0.00     0.202 C 
ENDROOT
BRANCH   1   2
ATOM      2  C   UNL A   1      33.869  31.460  28.164  1.00  0.00     0.261 C 
BRANCH   2   3
ATOM      3  O   UNL A   1      33.504  31.025  26.848  1.00  0.00    -0.460 OA
BRANCH   3   4
ATOM      4  C   UNL A   1      32.172  30.998  26.603  1.00  0.00     0.342 C 
ATOM      5  O   UNL A   1      31.391  31.928  26.741  1.00  0.00    -0.246 OA
BRANCH   4   6
ATOM      6  C   UNL A   1      31.774  29.739  25.934  1.00  0.00     0.103 A 
ATOM      7  C   UNL A   1      32.076  27.321  25.894  1.00  0.00     0.039 A 
ATOM      8  C   UNL A   1      31.317  27.272  24.720  1.00  0.00     0.030 A 
ATOM      9  C   UNL A   1      32.300  28.561  26.492  1.00  0.00     0.045 A 
ATOM     10  C   UNL A   1      30.736  28.431  24.191  1.00  0.00     0.049 A 
ATOM     11  C   UNL A   1      30.962  29.665  24.801  1.00  0.00     0.130 A 
BRANCH   7  12
ATOM     12  N   UNL A   1      32.698  26.181  26.415  1.00  0.00    -0.360 N 
ATOM     13  H   UNL A   1      32.749  26.096  27.395  1.00  0.00     0.166 HD
BRANCH  12  14
ATOM     14  C   UNL A   1      33.245  25.174  25.660  1.00  0.00     0.119 C 
ATOM     15  O   UNL A   1      31.115  23.747  27.252  1.00  0.00    -0.244 OA
ATOM     16  C   UNL A   1      31.879  23.240  26.459  1.00  0.00     0.365 C 
ATOM     17  O   UNL A   1      31.941  21.931  26.076  1.00  0.00    -0.402 OA
ATOM     18  C   UNL A   1      32.968  23.866  25.662  1.00  0.00     0.168 C 
ATOM     19  C   UNL A   1      32.978  21.845  25.213  1.00  0.00     0.231 C 
ATOM     20  N   UNL A   1      33.631  22.922  24.924  1.00  0.00    -0.204 NA
BRANCH  19  21
ATOM     21  C   UNL A   1      33.270  20.498  24.736  1.00  0.00     0.037 A 
ATOM     22  C   UNL A   1      34.502  19.904  25.021  1.00  0.00     0.015 A 
ATOM     23  C   UNL A   1      32.283  19.802  24.032  1.00  0.00     0.015 A 
ATOM     24  C   UNL A   1      34.743  18.594  24.600  1.00  0.00     0.021 A 
ATOM     25  C   UNL A   1      32.536  18.501  23.596  1.00  0.00     0.021 A 
ATOM     26  C   UNL A   1      33.762  17.901  23.887  1.00  0.00     0.041 A 
ATOM     27  Cl  UNL A   1      34.064  16.288  23.371  1.00  0.00    -0.084 Cl
ENDBRANCH  19  21
ENDBRANCH  12  14
ENDBRANCH   7  12
BRANCH  11  28
ATOM     28  O   UNL A   1      30.406  30.787  24.259  1.00  0.00    -0.507 OA
ATOM     29  H   UNL A   1      30.155  31.500  24.814  1.00  0.00     0.293 HD
ENDBRANCH  11  28
ENDBRANCH   4   6
ENDBRANCH   3   4
ENDBRANCH   2   3
ENDBRANCH   1   2
BRANCH   1  30
ATOM     30  O   UNL A   1      34.639  33.744  28.940  1.00  0.00    -0.374 OA
BRANCH  30  31
ATOM     31  C   UNL A   1      34.110  34.919  28.330  1.00  0.00     0.202 C 
BRANCH  31  32
ATOM     32  C   UNL A   1      33.105  35.757  29.133  1.00  0.00     0.261 C 
BRANCH  32  33
ATOM     33  O   UNL A   1      32.536  35.052  30.248  1.00  0.00    -0.460 OA
BRANCH  33  34
ATOM     34  C   UNL A   1      32.745  35.642  31.452  1.00  0.00     0.338 C 
ATOM     35  O   UNL A   1      32.064  36.500  31.987  1.00  0.00    -0.246 OA
BRANCH  34  36
ATOM     36  C   UNL A   1      33.860  34.977  32.147  1.00  0.00     0.060 A 
ATOM     37  C   UNL A   1      35.121  35.586  32.093  1.00  0.00     0.016 A 
ATOM     38  C   UNL A   1      33.696  33.733  32.759  1.00  0.00     0.016 A 
ATOM     39  C   UNL A   1      36.235  34.931  32.609  1.00  0.00     0.010 A 
ATOM     40  C   UNL A   1      34.817  33.074  33.270  1.00  0.00     0.010 A 
ATOM     41  C   UNL A   1      36.096  33.653  33.165  1.00  0.00    -0.014 A 
BRANCH  41  42
ATOM     42  C   UNL A   1      37.301  32.857  33.500  1.00  0.00     0.031 A 
ATOM     43  C   UNL A   1      38.014  33.125  34.797  1.00  0.00     0.074 A 
ATOM     44  C   UNL A   1      37.749  31.900  32.668  1.00  0.00     0.049 A 
ATOM     45  N   UNL A   1      39.126  32.613  35.258  1.00  0.00    -0.248 NA
ATOM     46  C   UNL A   1      37.389  34.112  35.693  1.00  0.00     0.031 C 
ATOM     47  C   UNL A   1      37.119  31.517  31.407  1.00  0.00     0.029 A 
ATOM     48  N   UNL A   1      38.850  31.086  32.757  1.00  0.00    -0.354 N 
ATOM     49  C   UNL A   1      39.343  33.223  36.487  1.00  0.00     0.074 A 
ATOM     50  C   UNL A   1      38.264  34.167  36.686  1.00  0.00     0.031 C 
ATOM     51  C   UNL A   1      37.852  30.549  30.832  1.00  0.00     0.029 A 
ATOM     52  C   UNL A   1      39.023  30.276  31.663  1.00  0.00     0.049 A 
ATOM     53  H   UNL A   1      39.458  31.083  33.532  1.00  0.00     0.167 HD
ATOM     54  C   UNL A   1      40.344  33.008  37.372  1.00  0.00     0.037 A 
ATOM     55  C   UNL A   1      40.027  29.433  31.356  1.00  0.00     0.037 A 
ATOM     56  C   UNL A   1      41.413  32.063  37.169  1.00  0.00     0.049 A 
ATOM     57  C   UNL A   1      41.174  29.269  32.322  1.00  0.00     0.074 A 
ATOM     58  C   UNL A   1      42.465  31.757  38.014  1.00  0.00     0.029 A 
ATOM     59  N   UNL A   1      41.568  31.279  36.035  1.00  0.00    -0.354 N 
ATOM     60  N   UNL A   1      41.363  29.833  33.491  1.00  0.00    -0.248 NA
ATOM     61  C   UNL A   1      42.247  28.346  31.925  1.00  0.00     0.031 C 
ATOM     62  C   UNL A   1      43.292  30.836  37.364  1.00  0.00     0.029 A 
ATOM     63  C   UNL A   1      42.717  30.511  36.146  1.00  0.00     0.049 A 
ATOM     64  H   UNL A   1      40.954  31.269  35.266  1.00  0.00     0.167 HD
ATOM     65  C   UNL A   1      42.549  29.306  33.984  1.00  0.00     0.074 A 
ATOM     66  C   UNL A   1      43.034  28.370  32.992  1.00  0.00     0.031 C 
ATOM     67  C   UNL A   1      43.181  29.572  35.155  1.00  0.00     0.037 A 
BRANCH  54  68
ATOM     68  C   UNL A   1      40.354  33.832  38.629  1.00  0.00     0.064 A 
ATOM     69  C   UNL A   1      41.107  35.010  38.738  1.00  0.00     0.173 A 
ATOM     70  C   UNL A   1      39.567  33.454  39.728  1.00  0.00     0.173 A 
ATOM     71  F   UNL A   1      41.886  35.410  37.722  1.00  0.00    -0.203 F 
ATOM     72  C   UNL A   1      41.097  35.762  39.911  1.00  0.00     0.198 A 
ATOM     73  C   UNL A   1      39.531  34.227  40.886  1.00  0.00     0.198 A 
ATOM     74  F   UNL A   1      38.822  32.339  39.677  1.00  0.00    -0.203 F 
ATOM     75  F   UNL A   1      41.866  36.855  40.011  1.00  0.00    -0.200 F 
ATOM     76  C   UNL A   1      40.302  35.375  40.980  1.00  0.00     0.200 A 
ATOM     77  F   UNL A   1      38.750  33.859  41.911  1.00  0.00    -0.200 F 
ATOM     78  F   UNL A   1      40.285  36.105  42.103  1.00  0.00    -0.200 F 
ENDBRANCH  54  68
BRANCH  55  79
ATOM     79  C   UNL A   1      40.008  28.689  30.068  1.00  0.00     0.064 A 
ATOM     80  C   UNL A   1      39.409  27.425  29.972  1.00  0.00     0.173 A 
ATOM     81  C   UNL A   1      40.607  29.214  28.914  1.00  0.00     0.173 A 
ATOM     82  F   UNL A   1      38.843  26.868  31.053  1.00  0.00    -0.203 F 
ATOM     83  C   UNL A   1      39.431  26.706  28.779  1.00  0.00     0.198 A 
ATOM     84  C   UNL A   1      40.600  28.510  27.713  1.00  0.00     0.198 A 
ATOM     85  F   UNL A   1      41.196  30.419  28.952  1.00  0.00    -0.203 F 
ATOM     86  F   UNL A   1      38.900  25.477  28.730  1.00  0.00    -0.200 F 
ATOM     87  C   UNL A   1      40.021  27.251  27.648  1.00  0.00     0.200 A 
ATOM     88  F   UNL A   1      41.160  29.047  26.620  1.00  0.00    -0.200 F 
ATOM     89  F   UNL A   1      40.042  26.560  26.501  1.00  0.00    -0.200 F 
ENDBRANCH  55  79
BRANCH  67  90
ATOM     90  C   UNL A   1      44.435  28.801  35.460  1.00  0.00     0.064 A 
ATOM     91  C   UNL A   1      45.706  29.281  35.112  1.00  0.00     0.173 A 
ATOM     92  C   UNL A   1      44.363  27.581  36.152  1.00  0.00     0.173 A 
ATOM     93  F   UNL A   1      45.831  30.435  34.439  1.00  0.00    -0.203 F 
ATOM     94  C   UNL A   1      46.855  28.556  35.421  1.00  0.00     0.198 A 
ATOM     95  C   UNL A   1      45.516  26.878  36.492  1.00  0.00     0.198 A 
ATOM     96  F   UNL A   1      43.174  27.079  36.517  1.00  0.00    -0.203 F 
ATOM     97  F   UNL A   1      48.055  29.009  35.031  1.00  0.00    -0.200 F 
ATOM     98  C   UNL A   1      46.760  27.361  36.117  1.00  0.00     0.200 A 
ATOM     99  F   UNL A   1      45.422  25.732  37.181  1.00  0.00    -0.200 F 
ATOM    100  F   UNL A   1      47.868  26.671  36.423  1.00  0.00    -0.200 F 
ENDBRANCH  67  90
ENDBRANCH  41  42
ENDBRANCH  34  36
ENDBRANCH  33  34
ENDBRANCH  32  33
ENDBRANCH  31  32
ENDBRANCH  30  31
ENDBRANCH   1  30
TORSDOF 18
ENDMDL
MODEL 2
REMARK VINA RESULT:     -11.9      4.678      8.106
REMARK SMILES O=C1OC(c2ccc(Cl)cc2)=N/C1=C/Nc1ccc(O)c(C(=O)OCCOCCOC(=O)c2ccc(-c3c4nc(c(-c5c(F)c(F)c(F)c(F)c5F)c5ccc([nH]5)c(-c5c(F)c(F)c(F)c(F)c5F)c5nc(c(-c6c(F)c(F)c(F)c(F)c6F)c6ccc3[nH]6)C=C5)C=C4)cc2)c1
REMARK SMILES IDX 26 1 25 2 24 3 22 4 23 5 21 6 16 7 17 8 96 9 18 10 19 11
REMARK SMILES IDX 15 12 14 14 1 15 2 16 3 17 13 18 4 19 12 20 5 21 6 22 11 23
REMARK SMILES IDX 7 24 10 25 8 26 9 27 20 28 27 30 28 31 29 32 30 33 31 34
REMARK SMILES IDX 32 35 33 36 34 37 95 38 35 39 94 40 36 41 37 42 38 43 88 44
REMARK SMILES IDX 39 45 93 46 87 47 89 48 40 49 92 50 86 51 85 52 41 54 73 55
REMARK SMILES IDX 53 56 72 57 54 58 57 59 71 60 90 61 55 62 56 63 70 65 91 66
REMARK SMILES IDX 58 67 42 68 43 69 51 70 44 71 45 72 49 73 52 74 46 75 47 76
REMARK SMILES IDX 50 77 48 78 74 79 75 80 83 81 76 82 77 83 81 84 84 85 78 86
REMARK SMILES IDX 79 87 82 88 80 89 59 90 60 91 68 92 61 93 62 94 66 95 69 96
REMARK SMILES IDX 63 97 64 98 67 99 65 100
REMARK H PARENT 15 13 20 29 89 53 57 64
REMARK Flexibility Score: inf
ROOT
ATOM      1  C   UNL A   1      33.130  36.461  31.374  1.00  0.00     0.202 C 
ENDROOT
BRANCH   1   2
ATOM      2  C   UNL A   1      34.108  36.103  32.494  1.00  0.00     0.261 C 
BRANCH   2   3
ATOM      3  O   UNL A   1      34.100  34.695  32.763  1.00  0.00    -0.460 OA
BRANCH   3   4
ATOM      4  C   UNL A   1      35.193  34.023  32.329  1.00  0.00     0.342 C 
ATOM      5  O   UNL A   1      35.307  33.440  31.260  1.00  0.00    -0.246 OA
BRANCH   4   6
ATOM      6  C   UNL A   1      36.350  34.242  33.224  1.00  0.00     0.103 A 
ATOM      7  C   UNL A   1      38.741  34.706  33.317  1.00  0.00     0.039 A 
ATOM      8  C   UNL A   1      38.700  34.504  34.701  1.00  0.00     0.030 A 
ATOM      9  C   UNL A   1      37.560  34.570  32.589  1.00  0.00     0.045 A 
ATOM     10  C   UNL A   1      37.490  34.239  35.353  1.00  0.00     0.049 A 
ATOM     11  C   UNL A   1      36.313  34.112  34.614  1.00  0.00     0.130 A 
BRANCH   7  12
ATOM     12  N   UNL A   1      39.946  34.932  32.642  1.00  0.00    -0.360 N 
ATOM     13  H   UNL A   1      40.013  35.741  32.085  1.00  0.00     0.166 HD
BRANCH  12  14
ATOM     14  C   UNL A   1      41.041  34.106  32.699  1.00  0.00     0.119 C 
ATOM     15  O   UNL A   1      40.015  33.678  29.893  1.00  0.00    -0.244 OA
ATOM     16  C   UNL A   1      40.968  33.126  30.401  1.00  0.00     0.365 C 
ATOM     17  O   UNL A   1      41.812  32.218  29.830  1.00  0.00    -0.402 OA
ATOM     18  C   UNL A   1      41.515  33.261  31.778  1.00  0.00     0.168 C 
ATOM     19  C   UNL A   1      42.683  31.860  30.799  1.00  0.00     0.231 C 
ATOM     20  N   UNL A   1      42.575  32.413  31.962  1.00  0.00    -0.204 NA
BRANCH  19  21
ATOM     21  C   UNL A   1      43.637  30.825  30.416  1.00  0.00     0.037 A 
ATOM     22  C   UNL A   1      43.538  30.206  29.168  1.00  0.00     0.015 A 
ATOM     23  C   UNL A   1      44.672  30.500  31.299  1.00  0.00     0.015 A 
ATOM     24  C   UNL A   1      44.493  29.255  28.799  1.00  0.00     0.021 A 
ATOM     25  C   UNL A   1      45.611  29.536  30.934  1.00  0.00     0.021 A 
ATOM     26  C   UNL A   1      45.521  28.922  29.684  1.00  0.00     0.041 A 
ATOM     27  Cl  UNL A   1      46.694  27.750  29.225  1.00  0.00    -0.084 Cl
ENDBRANCH  19  21
ENDBRANCH  12  14
ENDBRANCH   7  12
BRANCH  11  28
ATOM     28  O   UNL A   1      35.146  33.831  35.264  1.00  0.00    -0.507 OA
ATOM     29  H   UNL A   1      34.735  34.487  35.791  1.00  0.00     0.293 HD
ENDBRANCH  11  28
ENDBRANCH   4   6
ENDBRANCH   3   4
ENDBRANCH   2   3
ENDBRANCH   1   2
BRANCH   1  30
ATOM     30  O   UNL A   1      33.519  36.168  30.033  1.00  0.00    -0.374 OA
BRANCH  30  31
ATOM     31  C   UNL A   1      33.067  34.946  29.455  1.00  0.00     0.202 C 
BRANCH  31  32
ATOM     32  C   UNL A   1      33.461  34.647  28.002  1.00  0.00     0.261 C 
BRANCH  32  33
ATOM     33  O   UNL A   1      34.610  33.793  27.885  1.00  0.00    -0.460 OA
BRANCH  33  34
ATOM     34  C   UNL A   1      34.329  32.466  27.927  1.00  0.00     0.338 C 
ATOM     35  O   UNL A   1      33.283  31.917  27.626  1.00  0.00    -0.246 OA
BRANCH  34  36
ATOM     36  C   UNL A   1      35.552  31.708  28.243  1.00  0.00     0.060 A 
ATOM     37  C   UNL A   1      35.414  30.352  28.570  1.00  0.00     0.016 A 
ATOM     38  C   UNL A   1      36.797  32.333  28.310  1.00  0.00     0.016 A 
ATOM     39  C   UNL A   1      36.515  29.625  29.014  1.00  0.00     0.010 A 
ATOM     40  C   UNL A   1      37.901  31.604  28.763  1.00  0.00     0.010 A 
ATOM     41  C   UNL A   1      37.758  30.258  29.152  1.00  0.00    -0.014 A 
BRANCH  41  42
ATOM     42  C   UNL A   1      38.870  29.562  29.841  1.00  0.00     0.031 A 
ATOM     43  C   UNL A   1      39.220  29.963  31.247  1.00  0.00     0.074 A 
ATOM     44  C   UNL A   1      39.552  28.578  29.229  1.00  0.00     0.049 A 
ATOM     45  N   UNL A   1      40.200  29.552  32.011  1.00  0.00    -0.248 NA
ATOM     46  C   UNL A   1      38.351  30.971  31.874  1.00  0.00     0.031 C 
ATOM     47  C   UNL A   1      39.277  28.069  27.887  1.00  0.00     0.029 A 
ATOM     48  N   UNL A   1      40.627  27.839  29.657  1.00  0.00    -0.354 N 
ATOM     49  C   UNL A   1      40.074  30.260  33.200  1.00  0.00     0.074 A 
ATOM     50  C   UNL A   1      38.943  31.149  33.045  1.00  0.00     0.031 C 
ATOM     51  C   UNL A   1      40.169  27.109  27.595  1.00  0.00     0.029 A 
ATOM     52  C   UNL A   1      41.102  26.966  28.710  1.00  0.00     0.049 A 
ATOM     53  H   UNL A   1      41.019  27.927  30.555  1.00  0.00     0.167 HD
ATOM     54  C   UNL A   1      40.827  30.167  34.321  1.00  0.00     0.037 A 
ATOM     55  C   UNL A   1      42.185  26.165  28.735  1.00  0.00     0.037 A 
ATOM     56  C   UNL A   1      41.949  29.276  34.470  1.00  0.00     0.049 A 
ATOM     57  C   UNL A   1      43.056  26.138  29.966  1.00  0.00     0.074 A 
ATOM     58  C   UNL A   1      42.765  29.094  35.572  1.00  0.00     0.029 A 
ATOM     59  N   UNL A   1      42.417  28.425  33.480  1.00  0.00    -0.354 N 
ATOM     60  N   UNL A   1      42.920  26.794  31.094  1.00  0.00    -0.248 NA
ATOM     61  C   UNL A   1      44.231  25.255  29.927  1.00  0.00     0.031 C 
ATOM     62  C   UNL A   1      43.767  28.180  35.228  1.00  0.00     0.029 A 
ATOM     63  C   UNL A   1      43.531  27.737  33.936  1.00  0.00     0.049 A 
ATOM     64  H   UNL A   1      42.019  28.324  32.585  1.00  0.00     0.167 HD
ATOM     65  C   UNL A   1      43.964  26.375  31.909  1.00  0.00     0.074 A 
ATOM     66  C   UNL A   1      44.721  25.402  31.150  1.00  0.00     0.031 C 
ATOM     67  C   UNL A   1      44.268  26.760  33.174  1.00  0.00     0.037 A 
BRANCH  54  68
ATOM     68  C   UNL A   1      40.486  31.077  35.468  1.00  0.00     0.064 A 
ATOM     69  C   UNL A   1      41.315  32.145  35.840  1.00  0.00     0.173 A 
ATOM     70  C   UNL A   1      39.290  30.897  36.182  1.00  0.00     0.173 A 
ATOM     71  F   UNL A   1      42.475  32.355  35.199  1.00  0.00    -0.203 F 
ATOM     72  C   UNL A   1      40.977  32.980  36.903  1.00  0.00     0.198 A 
ATOM     73  C   UNL A   1      38.938  31.755  37.220  1.00  0.00     0.198 A 
ATOM     74  F   UNL A   1      38.458  29.895  35.865  1.00  0.00    -0.203 F 
ATOM     75  F   UNL A   1      41.809  33.961  37.274  1.00  0.00    -0.200 F 
ATOM     76  C   UNL A   1      39.784  32.790  37.586  1.00  0.00     0.200 A 
ATOM     77  F   UNL A   1      37.777  31.578  37.868  1.00  0.00    -0.200 F 
ATOM     78  F   UNL A   1      39.455  33.600  38.601  1.00  0.00    -0.200 F 
ENDBRANCH  54  68
BRANCH  55  79
ATOM     79  C   UNL A   1      42.522  25.332  27.549  1.00  0.00     0.064 A 
ATOM     80  C   UNL A   1      41.907  24.089  27.340  1.00  0.00     0.173 A 
ATOM     81  C   UNL A   1      43.479  25.749  26.614  1.00  0.00     0.173 A 
ATOM     82  F   UNL A   1      41.003  23.633  28.219  1.00  0.00    -0.203 F 
ATOM     83  C   UNL A   1      42.256  23.286  26.256  1.00  0.00     0.198 A 
ATOM     84  C   UNL A   1      43.803  24.962  25.512  1.00  0.00     0.198 A 
ATOM     85  F   UNL A   1      44.099  26.929  26.767  1.00  0.00    -0.203 F 
ATOM     86  F   UNL A   1      41.694  22.079  26.112  1.00  0.00    -0.200 F 
ATOM     87  C   UNL A   1      43.199  23.726  25.339  1.00  0.00     0.200 A 
ATOM     88  F   UNL A   1      44.705  25.398  24.621  1.00  0.00    -0.200 F 
ATOM     89  F   UNL A   1      43.533  22.954  24.296  1.00  0.00    -0.200 F 
ENDBRANCH  55  79
BRANCH  67  90
ATOM     90  C   UNL A   1      45.435  26.089  33.844  1.00  0.00     0.064 A 
ATOM     91  C   UNL A   1      45.303  24.867  34.519  1.00  0.00     0.173 A 
ATOM     92  C   UNL A   1      46.715  26.661  33.771  1.00  0.00     0.173 A 
ATOM     93  F   UNL A   1      44.100  24.283  34.631  1.00  0.00    -0.203 F 
ATOM     94  C   UNL A   1      46.403  24.257  35.118  1.00  0.00     0.198 A 
ATOM     95  C   UNL A   1      47.818  26.031  34.338  1.00  0.00     0.198 A 
ATOM     96  F   UNL A   1      46.900  27.825  33.131  1.00  0.00    -0.203 F 
ATOM     97  F   UNL A   1      46.242  23.115  35.803  1.00  0.00    -0.200 F 
ATOM     98  C   UNL A   1      47.660  24.834  35.020  1.00  0.00     0.200 A 
ATOM     99  F   UNL A   1      49.035  26.581  34.226  1.00  0.00    -0.200 F 
ATOM    100  F   UNL A   1      48.719  24.239  35.588  1.00  0.00    -0.200 F 
ENDBRANCH  67  90
ENDBRANCH  41  42
ENDBRANCH  34  36
ENDBRANCH  33  34
ENDBRANCH  32  33
ENDBRANCH  31  32
ENDBRANCH  30  31
ENDBRANCH   1  30
TORSDOF 18
ENDMDL
MODEL 3
REMARK VINA RESULT:     -11.9      5.097      7.371
REMARK SMILES O=C1OC(c2ccc(Cl)cc2)=N/C1=C/Nc1ccc(O)c(C(=O)OCCOCCOC(=O)c2ccc(-c3c4nc(c(-c5c(F)c(F)c(F)c(F)c5F)c5ccc([nH]5)c(-c5c(F)c(F)c(F)c(F)c5F)c5nc(c(-c6c(F)c(F)c(F)c(F)c6F)c6ccc3[nH]6)C=C5)C=C4)cc2)c1
REMARK SMILES IDX 26 1 25 2 24 3 22 4 23 5 21 6 16 7 17 8 96 9 18 10 19 11
REMARK SMILES IDX 15 12 14 14 1 15 2 16 3 17 13 18 4 19 12 20 5 21 6 22 11 23
REMARK SMILES IDX 7 24 10 25 8 26 9 27 20 28 27 30 28 31 29 32 30 33 31 34
REMARK SMILES IDX 32 35 33 36 34 37 95 38 35 39 94 40 36 41 37 42 38 43 88 44
REMARK SMILES IDX 39 45 93 46 87 47 89 48 40 49 92 50 86 51 85 52 41 54 73 55
REMARK SMILES IDX 53 56 72 57 54 58 57 59 71 60 90 61 55 62 56 63 70 65 91 66
REMARK SMILES IDX 58 67 42 68 43 69 51 70 44 71 45 72 49 73 52 74 46 75 47 76
REMARK SMILES IDX 50 77 48 78 74 79 75 80 83 81 76 82 77 83 81 84 84 85 78 86
REMARK SMILES IDX 79 87 82 88 80 89 59 90 60 91 68 92 61 93 62 94 66 95 69 96
REMARK SMILES IDX 63 97 64 98 67 99 65 100
REMARK H PARENT 15 13 20 29 89 53 57 64
REMARK Flexibility Score: inf
ROOT
ATOM      1  C   UNL A   1      33.827  32.005  27.890  1.00  0.00     0.202 C 
ENDROOT
BRANCH   1   2
ATOM      2  C   UNL A   1      32.678  31.452  27.044  1.00  0.00     0.261 C 
BRANCH   2   3
ATOM      3  O   UNL A   1      33.028  30.198  26.446  1.00  0.00    -0.460 OA
BRANCH   3   4
ATOM      4  C   UNL A   1      32.071  29.241  26.520  1.00  0.00     0.342 C 
ATOM      5  O   UNL A   1      31.634  28.734  27.542  1.00  0.00    -0.246 OA
BRANCH   4   6
ATOM      6  C   UNL A   1      31.442  29.006  25.201  1.00  0.00     0.103 A 
ATOM      7  C   UNL A   1      31.136  27.398  23.396  1.00  0.00     0.039 A 
ATOM      8  C   UNL A   1      30.510  28.399  22.646  1.00  0.00     0.030 A 
ATOM      9  C   UNL A   1      31.600  27.714  24.672  1.00  0.00     0.045 A 
ATOM     10  C   UNL A   1      30.291  29.671  23.186  1.00  0.00     0.049 A 
ATOM     11  C   UNL A   1      30.754  29.974  24.467  1.00  0.00     0.130 A 
BRANCH   7  12
ATOM     12  N   UNL A   1      31.401  26.133  22.859  1.00  0.00    -0.360 N 
ATOM     13  H   UNL A   1      31.761  26.091  21.943  1.00  0.00     0.166 HD
BRANCH  12  14
ATOM     14  C   UNL A   1      31.196  24.946  23.517  1.00  0.00     0.119 C 
ATOM     15  O   UNL A   1      33.564  24.339  21.749  1.00  0.00    -0.244 OA
ATOM     16  C   UNL A   1      33.011  23.563  22.499  1.00  0.00     0.365 C 
ATOM     17  O   UNL A   1      33.338  22.261  22.747  1.00  0.00    -0.402 OA
ATOM     18  C   UNL A   1      31.829  23.777  23.377  1.00  0.00     0.168 C 
ATOM     19  C   UNL A   1      32.409  21.804  23.616  1.00  0.00     0.231 C 
ATOM     20  N   UNL A   1      31.493  22.619  24.026  1.00  0.00    -0.204 NA
BRANCH  19  21
ATOM     21  C   UNL A   1      32.529  20.391  23.958  1.00  0.00     0.037 A 
ATOM     22  C   UNL A   1      32.752  20.006  25.282  1.00  0.00     0.015 A 
ATOM     23  C   UNL A   1      32.374  19.437  22.949  1.00  0.00     0.015 A 
ATOM     24  C   UNL A   1      32.813  18.646  25.597  1.00  0.00     0.021 A 
ATOM     25  C   UNL A   1      32.455  18.081  23.266  1.00  0.00     0.021 A 
ATOM     26  C   UNL A   1      32.668  17.691  24.589  1.00  0.00     0.041 A 
ATOM     27  Cl  UNL A   1      32.744  16.018  24.982  1.00  0.00    -0.084 Cl
ENDBRANCH  19  21
ENDBRANCH  12  14
ENDBRANCH   7  12
BRANCH  11  28
ATOM     28  O   UNL A   1      30.551  31.227  24.970  1.00  0.00    -0.507 OA
ATOM     29  H   UNL A   1      30.159  31.334  25.813  1.00  0.00     0.293 HD
ENDBRANCH  11  28
ENDBRANCH   4   6
ENDBRANCH   3   4
ENDBRANCH   2   3
ENDBRANCH   1   2
BRANCH   1  30
ATOM     30  O   UNL A   1      33.601  33.219  28.605  1.00  0.00    -0.374 OA
BRANCH  30  31
ATOM     31  C   UNL A   1      34.662  33.730  29.410  1.00  0.00     0.202 C 
BRANCH  31  32
ATOM     32  C   UNL A   1      34.507  33.656  30.935  1.00  0.00     0.261 C 
BRANCH  32  33
ATOM     33  O   UNL A   1      34.514  32.314  31.446  1.00  0.00    -0.460 OA
BRANCH  33  34
ATOM     34  C   UNL A   1      35.496  32.060  32.346  1.00  0.00     0.338 C 
ATOM     35  O   UNL A   1      35.492  32.303  33.541  1.00  0.00    -0.246 OA
BRANCH  34  36
ATOM     36  C   UNL A   1      36.563  31.269  31.710  1.00  0.00     0.060 A 
ATOM     37  C   UNL A   1      37.613  30.815  32.520  1.00  0.00     0.016 A 
ATOM     38  C   UNL A   1      36.585  31.055  30.331  1.00  0.00     0.016 A 
ATOM     39  C   UNL A   1      38.715  30.187  31.947  1.00  0.00     0.010 A 
ATOM     40  C   UNL A   1      37.696  30.430  29.757  1.00  0.00     0.010 A 
ATOM     41  C   UNL A   1      38.782  30.027  30.557  1.00  0.00    -0.014 A 
BRANCH  41  42
ATOM     42  C   UNL A   1      40.044  29.577  29.924  1.00  0.00     0.031 A 
ATOM     43  C   UNL A   1      41.173  30.559  29.772  1.00  0.00     0.074 A 
ATOM     44  C   UNL A   1      40.190  28.309  29.501  1.00  0.00     0.049 A 
ATOM     45  N   UNL A   1      42.331  30.412  29.180  1.00  0.00    -0.248 NA
ATOM     46  C   UNL A   1      40.963  31.890  30.362  1.00  0.00     0.031 C 
ATOM     47  C   UNL A   1      39.187  27.255  29.635  1.00  0.00     0.029 A 
ATOM     48  N   UNL A   1      41.239  27.698  28.860  1.00  0.00    -0.354 N 
ATOM     49  C   UNL A   1      42.980  31.633  29.313  1.00  0.00     0.074 A 
ATOM     50  C   UNL A   1      42.076  32.519  30.014  1.00  0.00     0.031 C 
ATOM     51  C   UNL A   1      39.664  26.128  29.079  1.00  0.00     0.029 A 
ATOM     52  C   UNL A   1      40.986  26.394  28.515  1.00  0.00     0.049 A 
ATOM     53  H   UNL A   1      42.091  28.152  28.666  1.00  0.00     0.167 HD
ATOM     54  C   UNL A   1      44.221  31.979  28.898  1.00  0.00     0.037 A 
ATOM     55  C   UNL A   1      41.727  25.525  27.801  1.00  0.00     0.037 A 
ATOM     56  C   UNL A   1      45.118  31.090  28.205  1.00  0.00     0.049 A 
ATOM     57  C   UNL A   1      43.074  25.959  27.279  1.00  0.00     0.074 A 
ATOM     58  C   UNL A   1      46.404  31.338  27.758  1.00  0.00     0.029 A 
ATOM     59  N   UNL A   1      44.816  29.783  27.850  1.00  0.00    -0.354 N 
ATOM     60  N   UNL A   1      43.691  27.107  27.426  1.00  0.00    -0.248 NA
ATOM     61  C   UNL A   1      43.829  24.972  26.494  1.00  0.00     0.031 C 
ATOM     62  C   UNL A   1      46.856  30.204  27.076  1.00  0.00     0.029 A 
ATOM     63  C   UNL A   1      45.881  29.222  27.163  1.00  0.00     0.049 A 
ATOM     64  H   UNL A   1      43.972  29.322  28.055  1.00  0.00     0.167 HD
ATOM     65  C   UNL A   1      44.917  26.968  26.789  1.00  0.00     0.074 A 
ATOM     66  C   UNL A   1      44.962  25.621  26.261  1.00  0.00     0.031 C 
ATOM     67  C   UNL A   1      45.918  27.874  26.654  1.00  0.00     0.037 A 
BRANCH  54  68
ATOM     68  C   UNL A   1      44.674  33.390  29.151  1.00  0.00     0.064 A 
ATOM     69  C   UNL A   1      45.443  33.732  30.273  1.00  0.00     0.173 A 
ATOM     70  C   UNL A   1      44.363  34.407  28.235  1.00  0.00     0.173 A 
ATOM     71  F   UNL A   1      45.758  32.800  31.186  1.00  0.00    -0.203 F 
ATOM     72  C   UNL A   1      45.858  35.045  30.485  1.00  0.00     0.198 A 
ATOM     73  C   UNL A   1      44.810  35.711  28.432  1.00  0.00     0.198 A 
ATOM     74  F   UNL A   1      43.636  34.135  27.142  1.00  0.00    -0.203 F 
ATOM     75  F   UNL A   1      46.546  35.359  31.591  1.00  0.00    -0.200 F 
ATOM     76  C   UNL A   1      45.548  36.031  29.560  1.00  0.00     0.200 A 
ATOM     77  F   UNL A   1      44.523  36.659  27.528  1.00  0.00    -0.200 F 
ATOM     78  F   UNL A   1      45.957  37.291  29.760  1.00  0.00    -0.200 F 
ENDBRANCH  54  68
BRANCH  55  79
ATOM     79  C   UNL A   1      41.207  24.161  27.518  1.00  0.00     0.064 A 
ATOM     80  C   UNL A   1      41.799  23.028  28.095  1.00  0.00     0.173 A 
ATOM     81  C   UNL A   1      40.126  23.958  26.649  1.00  0.00     0.173 A 
ATOM     82  F   UNL A   1      42.852  23.165  28.914  1.00  0.00    -0.203 F 
ATOM     83  C   UNL A   1      41.345  21.745  27.794  1.00  0.00     0.198 A 
ATOM     84  C   UNL A   1      39.650  22.679  26.375  1.00  0.00     0.198 A 
ATOM     85  F   UNL A   1      39.525  25.007  26.069  1.00  0.00    -0.203 F 
ATOM     86  F   UNL A   1      41.964  20.678  28.315  1.00  0.00    -0.200 F 
ATOM     87  C   UNL A   1      40.266  21.572  26.939  1.00  0.00     0.200 A 
ATOM     88  F   UNL A   1      38.599  22.517  25.558  1.00  0.00    -0.200 F 
ATOM     89  F   UNL A   1      39.828  20.339  26.651  1.00  0.00    -0.200 F 
ENDBRANCH  55  79
BRANCH  67  90
ATOM     90  C   UNL A   1      47.174  27.426  25.959  1.00  0.00     0.064 A 
ATOM     91  C   UNL A   1      48.246  26.851  26.656  1.00  0.00     0.173 A 
ATOM     92  C   UNL A   1      47.285  27.535  24.563  1.00  0.00     0.173 A 
ATOM     93  F   UNL A   1      48.198  26.735  27.992  1.00  0.00    -0.203 F 
ATOM     94  C   UNL A   1      49.392  26.428  25.987  1.00  0.00     0.198 A 
ATOM     95  C   UNL A   1      48.416  27.077  23.893  1.00  0.00     0.198 A 
ATOM     96  F   UNL A   1      46.286  28.069  23.844  1.00  0.00    -0.203 F 
ATOM     97  F   UNL A   1      50.426  25.931  26.681  1.00  0.00    -0.200 F 
ATOM     98  C   UNL A   1      49.473  26.533  24.606  1.00  0.00     0.200 A 
ATOM     99  F   UNL A   1      48.483  27.163  22.557  1.00  0.00    -0.200 F 
ATOM    100  F   UNL A   1      50.572  26.116  23.963  1.00  0.00    -0.200 F 
ENDBRANCH  67  90
ENDBRANCH  41  42
ENDBRANCH  34  36
ENDBRANCH  33  34
ENDBRANCH  32  33
ENDBRANCH  31  32
ENDBRANCH  30  31
ENDBRANCH   1  30
TORSDOF 18
ENDMDL
