MODEL 1
REMARK VINA RESULT:     -12.8      0.000      0.000
REMARK SMILES CC(=O)Nc1cc(NC(C)=O)cc(C(=O)Nc2ccc(Br)cc2C(=O)OCCOCCOC(=O)c2ccc(-c3c4nc(c(-c5c(F)c(F)c(F)c(F)c5F)c5ccc([nH]5)c(-c5c(F)c(F)c(F)c(F)c5F)c5nc(c(-c6c(F)c(F)c(F)c(F)c6F)c6ccc3[nH]6)C=C5)C=C4)cc2)c1
REMARK SMILES IDX 28 1 27 2 26 3 24 4 25 5 23 6 17 7 18 8 19 9 22 10 20 11
REMARK SMILES IDX 21 12 16 13 14 14 15 15 13 17 5 18 6 19 98 20 7 21 12 22
REMARK SMILES IDX 4 23 1 24 2 25 3 26 8 28 9 29 10 31 11 32 29 33 30 34 31 35
REMARK SMILES IDX 32 36 33 37 34 38 35 39 36 40 97 41 37 42 96 43 38 44 39 45
REMARK SMILES IDX 40 46 90 47 41 48 95 49 89 50 91 51 42 52 94 53 88 54 87 55
REMARK SMILES IDX 43 57 75 58 55 59 74 60 56 61 59 62 73 63 92 64 57 65 58 66
REMARK SMILES IDX 72 68 93 69 60 70 44 71 45 72 53 73 46 74 47 75 51 76 54 77
REMARK SMILES IDX 48 78 49 79 52 80 50 81 76 82 77 83 85 84 78 85 79 86 83 87
REMARK SMILES IDX 86 88 80 89 81 90 84 91 82 92 61 93 62 94 70 95 63 96 64 97
REMARK SMILES IDX 68 98 71 99 65 100 66 101 69 102 67 103
REMARK H PARENT 16 16 4 27 8 30 91 56 59 67
REMARK Flexibility Score: inf
ROOT
ATOM      1  C   UNL A   1      34.471  29.588  27.465  1.00  0.00     0.202 C 
ENDROOT
BRANCH   1   2
ATOM      2  C   UNL A   1      33.916  28.826  26.260  1.00  0.00     0.261 C 
BRANCH   2   3
ATOM      3  O   UNL A   1      33.310  27.559  26.581  1.00  0.00    -0.460 OA
BRANCH   3   4
ATOM      4  C   UNL A   1      32.006  27.651  26.941  1.00  0.00     0.340 C 
ATOM      5  O   UNL A   1      31.589  28.080  28.008  1.00  0.00    -0.246 OA
BRANCH   4   6
ATOM      6  C   UNL A   1      31.078  27.317  25.833  1.00  0.00     0.084 A 
ATOM      7  C   UNL A   1      30.356  26.122  25.655  1.00  0.00     0.056 A 
ATOM      8  C   UNL A   1      29.627  25.963  24.458  1.00  0.00     0.028 A 
ATOM      9  C   UNL A   1      29.521  26.995  23.518  1.00  0.00     0.018 A 
ATOM     10  C   UNL A   1      30.960  28.353  24.880  1.00  0.00     0.033 A 
ATOM     11  C   UNL A   1      30.175  28.196  23.745  1.00  0.00     0.018 A 
ATOM     12  Br  UNL A   1      29.992  29.620  22.519  1.00  0.00    -0.051 Br
BRANCH   7  13
ATOM     13  N   UNL A   1      30.196  25.043  26.554  1.00  0.00    -0.321 N 
ATOM     14  C   UNL A   1      30.565  23.716  26.533  1.00  0.00     0.255 C 
ATOM     15  O   UNL A   1      30.128  22.959  27.401  1.00  0.00    -0.269 OA
ATOM     16  H   UNL A   1      29.713  25.294  27.375  1.00  0.00     0.170 HD
BRANCH  14  17
ATOM     17  C   UNL A   1      31.516  23.170  25.540  1.00  0.00     0.044 A 
ATOM     18  C   UNL A   1      32.765  23.422  23.497  1.00  0.00     0.044 A 
ATOM     19  C   UNL A   1      32.837  22.019  23.405  1.00  0.00     0.052 A 
ATOM     20  C   UNL A   1      32.180  23.989  24.623  1.00  0.00     0.040 A 
ATOM     21  C   UNL A   1      32.314  21.190  24.403  1.00  0.00     0.044 A 
ATOM     22  C   UNL A   1      31.652  21.779  25.479  1.00  0.00     0.040 A 
BRANCH  18  23
ATOM     23  N   UNL A   1      33.115  24.145  22.339  1.00  0.00    -0.326 N 
ATOM     24  C   UNL A   1      33.553  26.463  23.163  1.00  0.00     0.114 C 
ATOM     25  C   UNL A   1      33.295  25.468  22.070  1.00  0.00     0.221 C 
ATOM     26  O   UNL A   1      33.278  25.840  20.893  1.00  0.00    -0.275 OA
ATOM     27  H   UNL A   1      33.262  23.568  21.554  1.00  0.00     0.169 HD
ENDBRANCH  18  23
BRANCH  21  28
ATOM     28  N   UNL A   1      32.334  19.780  24.365  1.00  0.00    -0.326 N 
ATOM     29  C   UNL A   1      33.431  18.953  24.521  1.00  0.00     0.221 C 
ATOM     30  H   UNL A   1      31.471  19.334  24.208  1.00  0.00     0.169 HD
ATOM     31  C   UNL A   1      33.087  17.488  24.414  1.00  0.00     0.114 C 
ATOM     32  O   UNL A   1      34.589  19.305  24.720  1.00  0.00    -0.275 OA
ENDBRANCH  21  28
ENDBRANCH  14  17
ENDBRANCH   7  13
ENDBRANCH   4   6
ENDBRANCH   3   4
ENDBRANCH   2   3
ENDBRANCH   1   2
BRANCH   1  33
ATOM     33  O   UNL A   1      33.891  30.841  27.800  1.00  0.00    -0.374 OA
BRANCH  33  34
ATOM     34  C   UNL A   1      32.740  31.277  27.086  1.00  0.00     0.202 C 
BRANCH  34  35
ATOM     35  C   UNL A   1      32.214  32.694  27.351  1.00  0.00     0.261 C 
BRANCH  35  36
ATOM     36  O   UNL A   1      33.237  33.707  27.353  1.00  0.00    -0.460 OA
BRANCH  36  37
ATOM     37  C   UNL A   1      33.247  34.489  28.458  1.00  0.00     0.338 C 
ATOM     38  O   UNL A   1      32.413  35.322  28.787  1.00  0.00    -0.246 OA
BRANCH  37  39
ATOM     39  C   UNL A   1      34.364  34.138  29.347  1.00  0.00     0.060 A 
ATOM     40  C   UNL A   1      35.667  34.394  28.897  1.00  0.00     0.016 A 
ATOM     41  C   UNL A   1      34.145  33.395  30.508  1.00  0.00     0.016 A 
ATOM     42  C   UNL A   1      36.757  33.858  29.578  1.00  0.00     0.010 A 
ATOM     43  C   UNL A   1      35.240  32.848  31.184  1.00  0.00     0.010 A 
ATOM     44  C   UNL A   1      36.546  33.039  30.696  1.00  0.00    -0.014 A 
BRANCH  44  45
ATOM     45  C   UNL A   1      37.674  32.251  31.247  1.00  0.00     0.031 A 
ATOM     46  C   UNL A   1      38.175  32.562  32.631  1.00  0.00     0.074 A 
ATOM     47  C   UNL A   1      38.230  31.256  30.535  1.00  0.00     0.049 A 
ATOM     48  N   UNL A   1      39.170  32.032  33.295  1.00  0.00    -0.248 NA
ATOM     49  C   UNL A   1      37.457  33.617  33.365  1.00  0.00     0.031 C 
ATOM     50  C   UNL A   1      37.812  30.841  29.200  1.00  0.00     0.029 A 
ATOM     51  N   UNL A   1      39.277  30.423  30.839  1.00  0.00    -0.354 N 
ATOM     52  C   UNL A   1      39.204  32.691  34.516  1.00  0.00     0.074 A 
ATOM     53  C   UNL A   1      38.144  33.677  34.497  1.00  0.00     0.031 C 
ATOM     54  C   UNL A   1      38.604  29.835  28.791  1.00  0.00     0.029 A 
ATOM     55  C   UNL A   1      39.602  29.560  29.823  1.00  0.00     0.049 A 
ATOM     56  H   UNL A   1      39.749  30.443  31.703  1.00  0.00     0.167 HD
ATOM     57  C   UNL A   1      40.041  32.491  35.562  1.00  0.00     0.037 A 
ATOM     58  C   UNL A   1      40.606  28.667  29.731  1.00  0.00     0.037 A 
ATOM     59  C   UNL A   1      41.092  31.508  35.584  1.00  0.00     0.049 A 
ATOM     60  C   UNL A   1      41.557  28.499  30.888  1.00  0.00     0.074 A 
ATOM     61  C   UNL A   1      41.977  31.211  36.606  1.00  0.00     0.029 A 
ATOM     62  N   UNL A   1      41.403  30.664  34.528  1.00  0.00    -0.354 N 
ATOM     63  N   UNL A   1      41.567  29.109  32.048  1.00  0.00    -0.248 NA
ATOM     64  C   UNL A   1      42.636  27.515  30.720  1.00  0.00     0.031 C 
ATOM     65  C   UNL A   1      42.851  30.217  36.153  1.00  0.00     0.029 A 
ATOM     66  C   UNL A   1      42.482  29.864  34.865  1.00  0.00     0.049 A 
ATOM     67  H   UNL A   1      40.927  30.639  33.666  1.00  0.00     0.167 HD
ATOM     68  C   UNL A   1      42.634  28.570  32.754  1.00  0.00     0.074 A 
ATOM     69  C   UNL A   1      43.242  27.574  31.897  1.00  0.00     0.031 C 
ATOM     70  C   UNL A   1      43.071  28.873  34.002  1.00  0.00     0.037 A 
BRANCH  57  71
ATOM     71  C   UNL A   1      39.871  33.371  36.764  1.00  0.00     0.064 A 
ATOM     72  C   UNL A   1      40.605  34.557  36.919  1.00  0.00     0.173 A 
ATOM     73  C   UNL A   1      38.937  33.042  37.758  1.00  0.00     0.173 A 
ATOM     74  F   UNL A   1      41.519  34.908  36.001  1.00  0.00    -0.203 F 
ATOM     75  C   UNL A   1      40.425  35.370  38.035  1.00  0.00     0.198 A 
ATOM     76  C   UNL A   1      38.743  33.868  38.861  1.00  0.00     0.198 A 
ATOM     77  F   UNL A   1      38.208  31.920  37.656  1.00  0.00    -0.203 F 
ATOM     78  F   UNL A   1      41.164  36.478  38.182  1.00  0.00    -0.200 F 
ATOM     79  C   UNL A   1      39.490  35.028  39.002  1.00  0.00     0.200 A 
ATOM     80  F   UNL A   1      37.833  33.542  39.789  1.00  0.00    -0.200 F 
ATOM     81  F   UNL A   1      39.315  35.814  40.073  1.00  0.00    -0.200 F 
ENDBRANCH  57  71
BRANCH  58  82
ATOM     82  C   UNL A   1      40.772  27.871  28.490  1.00  0.00     0.064 A 
ATOM     83  C   UNL A   1      41.536  28.352  27.419  1.00  0.00     0.173 A 
ATOM     84  C   UNL A   1      40.162  26.616  28.347  1.00  0.00     0.173 A 
ATOM     85  F   UNL A   1      42.116  29.559  27.499  1.00  0.00    -0.203 F 
ATOM     86  C   UNL A   1      41.676  27.611  26.247  1.00  0.00     0.198 A 
ATOM     87  C   UNL A   1      40.324  25.865  27.186  1.00  0.00     0.198 A 
ATOM     88  F   UNL A   1      39.417  26.115  29.344  1.00  0.00    -0.203 F 
ATOM     89  F   UNL A   1      42.382  28.110  25.222  1.00  0.00    -0.200 F 
ATOM     90  C   UNL A   1      41.075  26.366  26.134  1.00  0.00     0.200 A 
ATOM     91  F   UNL A   1      39.749  24.659  27.084  1.00  0.00    -0.200 F 
ATOM     92  F   UNL A   1      41.215  25.653  25.008  1.00  0.00    -0.200 F 
ENDBRANCH  58  82
BRANCH  70  93
ATOM     93  C   UNL A   1      44.244  28.100  34.528  1.00  0.00     0.064 A 
ATOM     94  C   UNL A   1      44.076  26.902  35.238  1.00  0.00     0.173 A 
ATOM     95  C   UNL A   1      45.553  28.539  34.279  1.00  0.00     0.173 A 
ATOM     96  F   UNL A   1      42.844  26.449  35.514  1.00  0.00    -0.203 F 
ATOM     97  C   UNL A   1      45.176  26.183  35.696  1.00  0.00     0.198 A 
ATOM     98  C   UNL A   1      46.651  27.804  34.717  1.00  0.00     0.198 A 
ATOM     99  F   UNL A   1      45.767  29.675  33.599  1.00  0.00    -0.203 F 
ATOM    100  F   UNL A   1      44.992  25.061  36.406  1.00  0.00    -0.200 F 
ATOM    101  C   UNL A   1      46.462  26.629  35.429  1.00  0.00     0.200 A 
ATOM    102  F   UNL A   1      47.892  28.232  34.448  1.00  0.00    -0.200 F 
ATOM    103  F   UNL A   1      47.519  25.932  35.865  1.00  0.00    -0.200 F 
ENDBRANCH  70  93
ENDBRANCH  44  45
ENDBRANCH  37  39
ENDBRANCH  36  37
ENDBRANCH  35  36
ENDBRANCH  34  35
ENDBRANCH  33  34
ENDBRANCH   1  33
TORSDOF 18
ENDMDL
MODEL 2
REMARK VINA RESULT:     -12.6      2.222      4.153
REMARK SMILES CC(=O)Nc1cc(NC(C)=O)cc(C(=O)Nc2ccc(Br)cc2C(=O)OCCOCCOC(=O)c2ccc(-c3c4nc(c(-c5c(F)c(F)c(F)c(F)c5F)c5ccc([nH]5)c(-c5c(F)c(F)c(F)c(F)c5F)c5nc(c(-c6c(F)c(F)c(F)c(F)c6F)c6ccc3[nH]6)C=C5)C=C4)cc2)c1
REMARK SMILES IDX 28 1 27 2 26 3 24 4 25 5 23 6 17 7 18 8 19 9 22 10 20 11
REMARK SMILES IDX 21 12 16 13 14 14 15 15 13 17 5 18 6 19 98 20 7 21 12 22
REMARK SMILES IDX 4 23 1 24 2 25 3 26 8 28 9 29 10 31 11 32 29 33 30 34 31 35
REMARK SMILES IDX 32 36 33 37 34 38 35 39 36 40 97 41 37 42 96 43 38 44 39 45
REMARK SMILES IDX 40 46 90 47 41 48 95 49 89 50 91 51 42 52 94 53 88 54 87 55
REMARK SMILES IDX 43 57 75 58 55 59 74 60 56 61 59 62 73 63 92 64 57 65 58 66
REMARK SMILES IDX 72 68 93 69 60 70 44 71 45 72 53 73 46 74 47 75 51 76 54 77
REMARK SMILES IDX 48 78 49 79 52 80 50 81 76 82 77 83 85 84 78 85 79 86 83 87
REMARK SMILES IDX 86 88 80 89 81 90 84 91 82 92 61 93 62 94 70 95 63 96 64 97
REMARK SMILES IDX 68 98 71 99 65 100 66 101 69 102 67 103
REMARK H PARENT 16 16 4 27 8 30 91 56 59 67
REMARK Flexibility Score: inf
ROOT
ATOM      1  C   UNL A   1      33.941  27.769  24.865  1.00  0.00     0.202 C 
ENDROOT
BRANCH   1   2
ATOM      2  C   UNL A   1      33.875  26.325  25.366  1.00  0.00     0.261 C 
BRANCH   2   3
ATOM      3  O   UNL A   1      34.399  25.349  24.446  1.00  0.00    -0.460 OA
BRANCH   3   4
ATOM      4  C   UNL A   1      34.536  24.110  24.980  1.00  0.00     0.340 C 
ATOM      5  O   UNL A   1      35.058  23.850  26.055  1.00  0.00    -0.246 OA
BRANCH   4   6
ATOM      6  C   UNL A   1      33.837  23.064  24.194  1.00  0.00     0.084 A 
ATOM      7  C   UNL A   1      33.318  23.180  22.890  1.00  0.00     0.056 A 
ATOM      8  C   UNL A   1      32.574  22.097  22.377  1.00  0.00     0.028 A 
ATOM      9  C   UNL A   1      32.443  20.895  23.081  1.00  0.00     0.018 A 
ATOM     10  C   UNL A   1      33.702  21.844  24.893  1.00  0.00     0.033 A 
ATOM     11  C   UNL A   1      33.026  20.768  24.333  1.00  0.00     0.018 A 
ATOM     12  Br  UNL A   1      32.913  19.133  25.269  1.00  0.00    -0.051 Br
BRANCH   7  13
ATOM     13  N   UNL A   1      33.488  24.232  21.960  1.00  0.00    -0.321 N 
ATOM     14  C   UNL A   1      32.731  25.327  21.606  1.00  0.00     0.255 C 
ATOM     15  O   UNL A   1      33.061  25.988  20.620  1.00  0.00    -0.269 OA
ATOM     16  H   UNL A   1      34.330  24.167  21.455  1.00  0.00     0.170 HD
BRANCH  14  17
ATOM     17  C   UNL A   1      31.566  25.781  22.397  1.00  0.00     0.044 A 
ATOM     18  C   UNL A   1      30.219  27.571  23.278  1.00  0.00     0.044 A 
ATOM     19  C   UNL A   1      29.761  26.691  24.278  1.00  0.00     0.052 A 
ATOM     20  C   UNL A   1      31.053  27.076  22.283  1.00  0.00     0.040 A 
ATOM     21  C   UNL A   1      30.146  25.347  24.306  1.00  0.00     0.044 A 
ATOM     22  C   UNL A   1      31.054  24.894  23.351  1.00  0.00     0.040 A 
BRANCH  18  23
ATOM     23  N   UNL A   1      29.954  28.940  23.478  1.00  0.00    -0.326 N 
ATOM     24  C   UNL A   1      27.581  29.227  22.746  1.00  0.00     0.114 C 
ATOM     25  C   UNL A   1      28.930  29.766  23.123  1.00  0.00     0.221 C 
ATOM     26  O   UNL A   1      29.118  30.986  23.148  1.00  0.00    -0.275 OA
ATOM     27  H   UNL A   1      30.662  29.400  23.986  1.00  0.00     0.169 HD
ENDBRANCH  18  23
BRANCH  21  28
ATOM     28  N   UNL A   1      29.742  24.419  25.288  1.00  0.00    -0.326 N 
ATOM     29  C   UNL A   1      30.435  24.045  26.424  1.00  0.00     0.221 C 
ATOM     30  H   UNL A   1      28.867  23.988  25.149  1.00  0.00     0.169 HD
ATOM     31  C   UNL A   1      29.702  23.018  27.253  1.00  0.00     0.114 C 
ATOM     32  O   UNL A   1      31.534  24.457  26.778  1.00  0.00    -0.275 OA
ENDBRANCH  21  28
ENDBRANCH  14  17
ENDBRANCH   7  13
ENDBRANCH   4   6
ENDBRANCH   3   4
ENDBRANCH   2   3
ENDBRANCH   1   2
BRANCH   1  33
ATOM     33  O   UNL A   1      32.752  28.547  24.879  1.00  0.00    -0.374 OA
BRANCH  33  34
ATOM     34  C   UNL A   1      32.278  29.053  26.122  1.00  0.00     0.202 C 
BRANCH  34  35
ATOM     35  C   UNL A   1      32.300  30.571  26.343  1.00  0.00     0.261 C 
BRANCH  35  36
ATOM     36  O   UNL A   1      32.779  30.966  27.642  1.00  0.00    -0.460 OA
BRANCH  36  37
ATOM     37  C   UNL A   1      33.698  31.961  27.619  1.00  0.00     0.338 C 
ATOM     38  O   UNL A   1      33.494  33.160  27.487  1.00  0.00    -0.246 OA
BRANCH  37  39
ATOM     39  C   UNL A   1      35.045  31.445  27.907  1.00  0.00     0.060 A 
ATOM     40  C   UNL A   1      35.204  30.058  28.034  1.00  0.00     0.016 A 
ATOM     41  C   UNL A   1      36.086  32.314  28.238  1.00  0.00     0.016 A 
ATOM     42  C   UNL A   1      36.389  29.537  28.548  1.00  0.00     0.010 A 
ATOM     43  C   UNL A   1      37.269  31.790  28.766  1.00  0.00     0.010 A 
ATOM     44  C   UNL A   1      37.408  30.404  28.965  1.00  0.00    -0.014 A 
BRANCH  44  45
ATOM     45  C   UNL A   1      38.539  29.871  29.761  1.00  0.00     0.031 A 
ATOM     46  C   UNL A   1      38.732  30.356  31.171  1.00  0.00     0.074 A 
ATOM     47  C   UNL A   1      39.370  28.951  29.244  1.00  0.00     0.049 A 
ATOM     48  N   UNL A   1      39.670  30.058  32.033  1.00  0.00    -0.248 NA
ATOM     49  C   UNL A   1      37.730  31.308  31.679  1.00  0.00     0.031 C 
ATOM     50  C   UNL A   1      39.266  28.381  27.903  1.00  0.00     0.029 A 
ATOM     51  N   UNL A   1      40.473  28.342  29.788  1.00  0.00    -0.354 N 
ATOM     52  C   UNL A   1      39.381  30.790  33.177  1.00  0.00     0.074 A 
ATOM     53  C   UNL A   1      38.189  31.563  32.896  1.00  0.00     0.031 C 
ATOM     54  C   UNL A   1      40.276  27.513  27.722  1.00  0.00     0.029 A 
ATOM     55  C   UNL A   1      41.110  27.489  28.922  1.00  0.00     0.049 A 
ATOM     56  H   UNL A   1      40.777  28.502  30.711  1.00  0.00     0.167 HD
ATOM     57  C   UNL A   1      40.044  30.812  34.357  1.00  0.00     0.037 A 
ATOM     58  C   UNL A   1      42.251  26.790  29.077  1.00  0.00     0.037 A 
ATOM     59  C   UNL A   1      41.225  30.040  34.639  1.00  0.00     0.049 A 
ATOM     60  C   UNL A   1      43.000  26.871  30.381  1.00  0.00     0.074 A 
ATOM     61  C   UNL A   1      41.955  29.975  35.814  1.00  0.00     0.029 A 
ATOM     62  N   UNL A   1      41.852  29.201  33.730  1.00  0.00    -0.354 N 
ATOM     63  N   UNL A   1      42.705  27.546  31.465  1.00  0.00    -0.248 NA
ATOM     64  C   UNL A   1      44.242  26.091  30.481  1.00  0.00     0.031 C 
ATOM     65  C   UNL A   1      43.050  29.129  35.601  1.00  0.00     0.029 A 
ATOM     66  C   UNL A   1      42.975  28.633  34.309  1.00  0.00     0.049 A 
ATOM     67  H   UNL A   1      41.545  29.035  32.810  1.00  0.00     0.167 HD
ATOM     68  C   UNL A   1      43.708  27.256  32.381  1.00  0.00     0.074 A 
ATOM     69  C   UNL A   1      44.615  26.335  31.729  1.00  0.00     0.031 C 
ATOM     70  C   UNL A   1      43.864  27.713  33.649  1.00  0.00     0.037 A 
BRANCH  57  71
ATOM     71  C   UNL A   1      39.522  31.722  35.429  1.00  0.00     0.064 A 
ATOM     72  C   UNL A   1      38.536  31.304  36.335  1.00  0.00     0.173 A 
ATOM     73  C   UNL A   1      40.039  33.019  35.572  1.00  0.00     0.173 A 
ATOM     74  F   UNL A   1      38.000  30.078  36.230  1.00  0.00    -0.203 F 
ATOM     75  C   UNL A   1      38.071  32.158  37.332  1.00  0.00     0.198 A 
ATOM     76  C   UNL A   1      39.590  33.861  36.585  1.00  0.00     0.198 A 
ATOM     77  F   UNL A   1      40.986  33.466  34.733  1.00  0.00    -0.203 F 
ATOM     78  F   UNL A   1      37.101  31.752  38.162  1.00  0.00    -0.200 F 
ATOM     79  C   UNL A   1      38.603  33.433  37.460  1.00  0.00     0.200 A 
ATOM     80  F   UNL A   1      40.111  35.089  36.714  1.00  0.00    -0.200 F 
ATOM     81  F   UNL A   1      38.159  34.252  38.424  1.00  0.00    -0.200 F 
ENDBRANCH  57  71
BRANCH  58  82
ATOM     82  C   UNL A   1      42.762  25.959  27.958  1.00  0.00     0.064 A 
ATOM     83  C   UNL A   1      43.621  26.498  26.991  1.00  0.00     0.173 A 
ATOM     84  C   UNL A   1      42.394  24.612  27.830  1.00  0.00     0.173 A 
ATOM     85  F   UNL A   1      43.978  27.789  27.057  1.00  0.00    -0.203 F 
ATOM     86  C   UNL A   1      44.085  25.722  25.931  1.00  0.00     0.198 A 
ATOM     87  C   UNL A   1      42.880  23.830  26.784  1.00  0.00     0.198 A 
ATOM     88  F   UNL A   1      41.571  24.052  28.728  1.00  0.00    -0.203 F 
ATOM     89  F   UNL A   1      44.876  26.270  24.998  1.00  0.00    -0.200 F 
ATOM     90  C   UNL A   1      43.719  24.387  25.832  1.00  0.00     0.200 A 
ATOM     91  F   UNL A   1      42.531  22.539  26.698  1.00  0.00    -0.200 F 
ATOM     92  F   UNL A   1      44.171  23.641  24.815  1.00  0.00    -0.200 F 
ENDBRANCH  58  82
BRANCH  70  93
ATOM     93  C   UNL A   1      45.040  27.200  34.425  1.00  0.00     0.064 A 
ATOM     94  C   UNL A   1      46.263  27.887  34.445  1.00  0.00     0.173 A 
ATOM     95  C   UNL A   1      44.929  26.033  35.195  1.00  0.00     0.173 A 
ATOM     96  F   UNL A   1      46.423  29.000  33.714  1.00  0.00    -0.203 F 
ATOM     97  C   UNL A   1      47.337  27.412  35.193  1.00  0.00     0.198 A 
ATOM     98  C   UNL A   1      45.997  25.575  35.961  1.00  0.00     0.198 A 
ATOM     99  F   UNL A   1      43.779  25.343  35.215  1.00  0.00    -0.203 F 
ATOM    100  F   UNL A   1      48.509  28.063  35.167  1.00  0.00    -0.200 F 
ATOM    101  C   UNL A   1      47.202  26.262  35.956  1.00  0.00     0.200 A 
ATOM    102  F   UNL A   1      45.860  24.469  36.706  1.00  0.00    -0.200 F 
ATOM    103  F   UNL A   1      48.235  25.811  36.680  1.00  0.00    -0.200 F 
ENDBRANCH  70  93
ENDBRANCH  44  45
ENDBRANCH  37  39
ENDBRANCH  36  37
ENDBRANCH  35  36
ENDBRANCH  34  35
ENDBRANCH  33  34
ENDBRANCH   1  33
TORSDOF 18
ENDMDL
MODEL 3
REMARK VINA RESULT:     -12.5      1.352      7.274
REMARK SMILES CC(=O)Nc1cc(NC(C)=O)cc(C(=O)Nc2ccc(Br)cc2C(=O)OCCOCCOC(=O)c2ccc(-c3c4nc(c(-c5c(F)c(F)c(F)c(F)c5F)c5ccc([nH]5)c(-c5c(F)c(F)c(F)c(F)c5F)c5nc(c(-c6c(F)c(F)c(F)c(F)c6F)c6ccc3[nH]6)C=C5)C=C4)cc2)c1
REMARK SMILES IDX 28 1 27 2 26 3 24 4 25 5 23 6 17 7 18 8 19 9 22 10 20 11
REMARK SMILES IDX 21 12 16 13 14 14 15 15 13 17 5 18 6 19 98 20 7 21 12 22
REMARK SMILES IDX 4 23 1 24 2 25 3 26 8 28 9 29 10 31 11 32 29 33 30 34 31 35
REMARK SMILES IDX 32 36 33 37 34 38 35 39 36 40 97 41 37 42 96 43 38 44 39 45
REMARK SMILES IDX 40 46 90 47 41 48 95 49 89 50 91 51 42 52 94 53 88 54 87 55
REMARK SMILES IDX 43 57 75 58 55 59 74 60 56 61 59 62 73 63 92 64 57 65 58 66
REMARK SMILES IDX 72 68 93 69 60 70 44 71 45 72 53 73 46 74 47 75 51 76 54 77
REMARK SMILES IDX 48 78 49 79 52 80 50 81 76 82 77 83 85 84 78 85 79 86 83 87
REMARK SMILES IDX 86 88 80 89 81 90 84 91 82 92 61 93 62 94 70 95 63 96 64 97
REMARK SMILES IDX 68 98 71 99 65 100 66 101 69 102 67 103
REMARK H PARENT 16 16 4 27 8 30 91 56 59 67
REMARK Flexibility Score: inf
ROOT
ATOM      1  C   UNL A   1      34.987  29.308  27.650  1.00  0.00     0.202 C 
ENDROOT
BRANCH   1   2
ATOM      2  C   UNL A   1      33.784  29.187  26.713  1.00  0.00     0.261 C 
BRANCH   2   3
ATOM      3  O   UNL A   1      33.313  27.840  26.516  1.00  0.00    -0.460 OA
BRANCH   3   4
ATOM      4  C   UNL A   1      32.028  27.646  26.903  1.00  0.00     0.340 C 
ATOM      5  O   UNL A   1      31.577  27.876  28.016  1.00  0.00    -0.246 OA
BRANCH   4   6
ATOM      6  C   UNL A   1      31.141  27.258  25.780  1.00  0.00     0.084 A 
ATOM      7  C   UNL A   1      30.424  26.055  25.634  1.00  0.00     0.056 A 
ATOM      8  C   UNL A   1      29.739  25.838  24.420  1.00  0.00     0.028 A 
ATOM      9  C   UNL A   1      29.667  26.823  23.429  1.00  0.00     0.018 A 
ATOM     10  C   UNL A   1      31.059  28.247  24.774  1.00  0.00     0.033 A 
ATOM     11  C   UNL A   1      30.315  28.034  23.620  1.00  0.00     0.018 A 
ATOM     12  Br  UNL A   1      30.177  29.396  22.321  1.00  0.00    -0.051 Br
BRANCH   7  13
ATOM     13  N   UNL A   1      30.230  25.020  26.578  1.00  0.00    -0.321 N 
ATOM     14  C   UNL A   1      30.659  23.714  26.669  1.00  0.00     0.255 C 
ATOM     15  O   UNL A   1      30.178  22.986  27.538  1.00  0.00    -0.269 OA
ATOM     16  H   UNL A   1      29.664  25.293  27.336  1.00  0.00     0.170 HD
BRANCH  14  17
ATOM     17  C   UNL A   1      31.720  23.162  25.799  1.00  0.00     0.044 A 
ATOM     18  C   UNL A   1      32.486  21.468  24.270  1.00  0.00     0.044 A 
ATOM     19  C   UNL A   1      33.810  21.807  24.607  1.00  0.00     0.052 A 
ATOM     20  C   UNL A   1      31.446  22.219  24.805  1.00  0.00     0.040 A 
ATOM     21  C   UNL A   1      34.098  22.859  25.482  1.00  0.00     0.044 A 
ATOM     22  C   UNL A   1      33.038  23.541  26.076  1.00  0.00     0.040 A 
BRANCH  18  23
ATOM     23  N   UNL A   1      32.307  20.258  23.569  1.00  0.00    -0.326 N 
ATOM     24  C   UNL A   1      32.685  18.483  25.287  1.00  0.00     0.114 C 
ATOM     25  C   UNL A   1      32.540  18.950  23.868  1.00  0.00     0.221 C 
ATOM     26  O   UNL A   1      32.596  18.133  22.945  1.00  0.00    -0.275 OA
ATOM     27  H   UNL A   1      31.933  20.387  22.667  1.00  0.00     0.169 HD
ENDBRANCH  18  23
BRANCH  21  28
ATOM     28  N   UNL A   1      35.399  23.238  25.877  1.00  0.00    -0.326 N 
ATOM     29  C   UNL A   1      36.487  23.476  25.059  1.00  0.00     0.221 C 
ATOM     30  H   UNL A   1      35.548  23.345  26.844  1.00  0.00     0.169 HD
ATOM     31  C   UNL A   1      37.730  23.859  25.824  1.00  0.00     0.114 C 
ATOM     32  O   UNL A   1      36.513  23.396  23.836  1.00  0.00    -0.275 OA
ENDBRANCH  21  28
ENDBRANCH  14  17
ENDBRANCH   7  13
ENDBRANCH   4   6
ENDBRANCH   3   4
ENDBRANCH   2   3
ENDBRANCH   1   2
BRANCH   1  33
ATOM     33  O   UNL A   1      35.205  30.543  28.318  1.00  0.00    -0.374 OA
BRANCH  33  34
ATOM     34  C   UNL A   1      34.958  31.756  27.615  1.00  0.00     0.202 C 
BRANCH  34  35
ATOM     35  C   UNL A   1      33.658  32.514  27.909  1.00  0.00     0.261 C 
BRANCH  35  36
ATOM     36  O   UNL A   1      33.778  33.945  27.804  1.00  0.00    -0.460 OA
BRANCH  36  37
ATOM     37  C   UNL A   1      33.564  34.610  28.964  1.00  0.00     0.338 C 
ATOM     38  O   UNL A   1      32.568  35.241  29.287  1.00  0.00    -0.246 OA
BRANCH  37  39
ATOM     39  C   UNL A   1      34.667  34.390  29.912  1.00  0.00     0.060 A 
ATOM     40  C   UNL A   1      35.974  34.631  29.467  1.00  0.00     0.016 A 
ATOM     41  C   UNL A   1      34.436  33.773  31.143  1.00  0.00     0.016 A 
ATOM     42  C   UNL A   1      37.059  34.204  30.230  1.00  0.00     0.010 A 
ATOM     43  C   UNL A   1      35.526  33.335  31.901  1.00  0.00     0.010 A 
ATOM     44  C   UNL A   1      36.838  33.507  31.426  1.00  0.00    -0.014 A 
BRANCH  44  45
ATOM     45  C   UNL A   1      37.971  32.817  32.087  1.00  0.00     0.031 A 
ATOM     46  C   UNL A   1      38.611  31.642  31.399  1.00  0.00     0.074 A 
ATOM     47  C   UNL A   1      38.439  33.243  33.272  1.00  0.00     0.049 A 
ATOM     48  N   UNL A   1      39.584  30.867  31.807  1.00  0.00    -0.248 NA
ATOM     49  C   UNL A   1      38.082  31.294  30.070  1.00  0.00     0.031 C 
ATOM     50  C   UNL A   1      37.923  34.386  34.020  1.00  0.00     0.029 A 
ATOM     51  N   UNL A   1      39.451  32.751  34.058  1.00  0.00    -0.354 N 
ATOM     52  C   UNL A   1      39.776  29.936  30.795  1.00  0.00     0.074 A 
ATOM     53  C   UNL A   1      38.807  30.228  29.760  1.00  0.00     0.031 C 
ATOM     54  C   UNL A   1      38.615  34.502  35.166  1.00  0.00     0.029 A 
ATOM     55  C   UNL A   1      39.599  33.424  35.244  1.00  0.00     0.049 A 
ATOM     56  H   UNL A   1      40.016  31.988  33.795  1.00  0.00     0.167 HD
ATOM     57  C   UNL A   1      40.682  28.932  30.732  1.00  0.00     0.037 A 
ATOM     58  C   UNL A   1      40.420  33.179  36.283  1.00  0.00     0.037 A 
ATOM     59  C   UNL A   1      41.649  28.644  31.758  1.00  0.00     0.049 A 
ATOM     60  C   UNL A   1      41.384  32.024  36.211  1.00  0.00     0.074 A 
ATOM     61  C   UNL A   1      42.626  27.664  31.775  1.00  0.00     0.029 A 
ATOM     62  N   UNL A   1      41.756  29.337  32.954  1.00  0.00    -0.354 N 
ATOM     63  N   UNL A   1      41.576  31.164  35.241  1.00  0.00    -0.248 NA
ATOM     64  C   UNL A   1      42.245  31.806  37.383  1.00  0.00     0.031 C 
ATOM     65  C   UNL A   1      43.296  27.736  33.001  1.00  0.00     0.029 A 
ATOM     66  C   UNL A   1      42.766  28.790  33.728  1.00  0.00     0.049 A 
ATOM     67  H   UNL A   1      41.196  30.104  33.215  1.00  0.00     0.167 HD
ATOM     68  C   UNL A   1      42.591  30.321  35.672  1.00  0.00     0.074 A 
ATOM     69  C   UNL A   1      42.983  30.778  36.988  1.00  0.00     0.031 C 
ATOM     70  C   UNL A   1      43.148  29.261  35.033  1.00  0.00     0.037 A 
BRANCH  57  71
ATOM     71  C   UNL A   1      40.654  28.049  29.519  1.00  0.00     0.064 A 
ATOM     72  C   UNL A   1      41.490  28.283  28.418  1.00  0.00     0.173 A 
ATOM     73  C   UNL A   1      39.802  26.934  29.473  1.00  0.00     0.173 A 
ATOM     74  F   UNL A   1      42.312  29.344  28.409  1.00  0.00    -0.203 F 
ATOM     75  C   UNL A   1      41.460  27.446  27.305  1.00  0.00     0.198 A 
ATOM     76  C   UNL A   1      39.792  26.086  28.370  1.00  0.00     0.198 A 
ATOM     77  F   UNL A   1      38.985  26.665  30.502  1.00  0.00    -0.203 F 
ATOM     78  F   UNL A   1      42.240  27.710  26.248  1.00  0.00    -0.200 F 
ATOM     79  C   UNL A   1      40.616  26.345  27.285  1.00  0.00     0.200 A 
ATOM     80  F   UNL A   1      38.983  25.018  28.356  1.00  0.00    -0.200 F 
ATOM     81  F   UNL A   1      40.592  25.537  26.216  1.00  0.00    -0.200 F 
ENDBRANCH  57  71
BRANCH  58  82
ATOM     82  C   UNL A   1      40.358  34.042  37.490  1.00  0.00     0.064 A 
ATOM     83  C   UNL A   1      39.461  33.766  38.530  1.00  0.00     0.173 A 
ATOM     84  C   UNL A   1      41.189  35.164  37.622  1.00  0.00     0.173 A 
ATOM     85  F   UNL A   1      38.627  32.720  38.436  1.00  0.00    -0.203 F 
ATOM     86  C   UNL A   1      39.390  34.587  39.654  1.00  0.00     0.198 A 
ATOM     87  C   UNL A   1      41.136  35.968  38.757  1.00  0.00     0.198 A 
ATOM     88  F   UNL A   1      42.061  35.471  36.651  1.00  0.00    -0.203 F 
ATOM     89  F   UNL A   1      38.498  34.324  40.618  1.00  0.00    -0.200 F 
ATOM     90  C   UNL A   1      40.232  35.684  39.768  1.00  0.00     0.200 A 
ATOM     91  F   UNL A   1      41.957  37.022  38.868  1.00  0.00    -0.200 F 
ATOM     92  F   UNL A   1      40.167  36.470  40.853  1.00  0.00    -0.200 F 
ENDBRANCH  58  82
BRANCH  70  93
ATOM     93  C   UNL A   1      44.262  28.542  35.736  1.00  0.00     0.064 A 
ATOM     94  C   UNL A   1      44.013  27.457  36.588  1.00  0.00     0.173 A 
ATOM     95  C   UNL A   1      45.596  28.916  35.517  1.00  0.00     0.173 A 
ATOM     96  F   UNL A   1      42.753  27.072  36.840  1.00  0.00    -0.203 F 
ATOM     97  C   UNL A   1      45.060  26.783  37.211  1.00  0.00     0.198 A 
ATOM     98  C   UNL A   1      46.642  28.224  36.123  1.00  0.00     0.198 A 
ATOM     99  F   UNL A   1      45.887  29.943  34.706  1.00  0.00    -0.203 F 
ATOM    100  F   UNL A   1      44.798  25.773  38.053  1.00  0.00    -0.200 F 
ATOM    101  C   UNL A   1      46.373  27.162  36.973  1.00  0.00     0.200 A 
ATOM    102  F   UNL A   1      47.910  28.585  35.882  1.00  0.00    -0.200 F 
ATOM    103  F   UNL A   1      47.380  26.508  37.569  1.00  0.00    -0.200 F 
ENDBRANCH  70  93
ENDBRANCH  44  45
ENDBRANCH  37  39
ENDBRANCH  36  37
ENDBRANCH  35  36
ENDBRANCH  34  35
ENDBRANCH  33  34
ENDBRANCH   1  33
TORSDOF 18
ENDMDL
