MODEL 1
REMARK VINA RESULT:     -12.5      0.000      0.000
REMARK SMILES O=C(C[C@@H]1C(=O)NCCN1C(=O)OCC1c2ccccc2-c2ccccc21)OCCOCCOC(=O)c1ccc(-c2c3nc(c(-c4c(F)c(F)c(F)c(F)c4F)c4ccc([nH]4)c(-c4c(F)c(F)c(F)c(F)c4F)c4nc(c(-c5c(F)c(F)c(F)c(F)c5F)c5ccc2[nH]5)C=C4)C=C3)cc1
REMARK SMILES IDX 29 1 28 2 2 3 1 4 3 5 4 6 5 7 10 8 6 9 7 10 9 11 8 12 11 14
REMARK SMILES IDX 12 15 13 16 14 17 15 18 16 19 27 20 17 21 21 22 22 23 26 24
REMARK SMILES IDX 18 25 20 26 23 27 25 28 19 29 24 30 30 31 31 32 32 33 33 34
REMARK SMILES IDX 34 35 35 36 36 37 37 38 38 39 99 40 39 41 98 42 40 43 41 44
REMARK SMILES IDX 42 45 92 46 43 47 97 48 91 49 93 50 44 51 96 52 90 53 89 54
REMARK SMILES IDX 45 56 77 57 57 58 76 59 58 60 61 61 75 62 94 63 59 64 60 65
REMARK SMILES IDX 74 67 95 68 62 69 46 70 47 71 55 72 48 73 49 74 53 75 56 76
REMARK SMILES IDX 50 77 51 78 54 79 52 80 78 81 79 82 87 83 80 84 81 85 85 86
REMARK SMILES IDX 88 87 82 88 83 89 86 90 84 91 63 92 64 93 72 94 65 95 66 96
REMARK SMILES IDX 70 97 73 98 67 99 68 100 71 101 69 102
REMARK H PARENT 7 13 93 55 61 66
REMARK Flexibility Score: inf
ROOT
ATOM      1  C   UNL A   1      32.630  29.930  25.513  1.00  0.00     0.261 C 
ENDROOT
BRANCH   1   2
ATOM      2  O   UNL A   1      32.546  28.503  25.512  1.00  0.00    -0.463 OA
BRANCH   2   3
ATOM      3  C   UNL A   1      33.617  27.730  25.821  1.00  0.00     0.308 C 
ATOM      4  O   UNL A   1      34.339  28.010  26.777  1.00  0.00    -0.252 OA
BRANCH   3   5
ATOM      5  C   UNL A   1      34.021  26.653  24.844  1.00  0.00     0.158 C 
BRANCH   5   6
ATOM      6  C   UNL A   1      32.975  25.878  24.051  1.00  0.00     0.189 C 
ATOM      7  C   UNL A   1      32.506  26.692  22.807  1.00  0.00     0.243 C 
ATOM      8  N   UNL A   1      31.878  25.259  24.860  1.00  0.00    -0.294 N 
ATOM      9  O   UNL A   1      33.292  27.215  22.018  1.00  0.00    -0.273 OA
ATOM     10  N   UNL A   1      31.171  26.753  22.530  1.00  0.00    -0.353 N 
ATOM     11  C   UNL A   1      30.646  24.975  24.129  1.00  0.00     0.145 C 
ATOM     12  C   UNL A   1      30.158  26.223  23.407  1.00  0.00     0.137 C 
ATOM     13  H   UNL A   1      30.887  27.181  21.690  1.00  0.00     0.163 HD
BRANCH   8  14
ATOM     14  C   UNL A   1      31.981  24.716  26.139  1.00  0.00     0.410 C 
ATOM     15  O   UNL A   1      31.266  25.052  27.074  1.00  0.00    -0.224 OA
BRANCH  14  16
ATOM     16  O   UNL A   1      32.988  23.814  26.271  1.00  0.00    -0.448 OA
BRANCH  16  17
ATOM     17  C   UNL A   1      32.716  22.458  25.855  1.00  0.00     0.248 C 
BRANCH  17  18
ATOM     18  C   UNL A   1      33.534  21.972  24.625  1.00  0.00     0.088 C 
ATOM     19  C   UNL A   1      35.041  22.176  24.725  1.00  0.00    -0.029 A 
ATOM     20  C   UNL A   1      33.455  20.455  24.475  1.00  0.00    -0.029 A 
ATOM     21  C   UNL A   1      35.756  23.360  24.693  1.00  0.00     0.005 A 
ATOM     22  C   UNL A   1      35.692  20.937  24.894  1.00  0.00    -0.014 A 
ATOM     23  C   UNL A   1      34.728  19.878  24.684  1.00  0.00    -0.014 A 
ATOM     24  C   UNL A   1      32.355  19.681  24.139  1.00  0.00     0.005 A 
ATOM     25  C   UNL A   1      37.118  23.317  24.994  1.00  0.00     0.000 A 
ATOM     26  C   UNL A   1      37.045  20.890  25.180  1.00  0.00     0.009 A 
ATOM     27  C   UNL A   1      34.901  18.509  24.582  1.00  0.00     0.009 A 
ATOM     28  C   UNL A   1      32.535  18.302  24.024  1.00  0.00     0.000 A 
ATOM     29  C   UNL A   1      37.753  22.095  25.258  1.00  0.00     0.001 A 
ATOM     30  C   UNL A   1      33.794  17.720  24.250  1.00  0.00     0.001 A 
ENDBRANCH  17  18
ENDBRANCH  16  17
ENDBRANCH  14  16
ENDBRANCH   8  14
ENDBRANCH   5   6
ENDBRANCH   3   5
ENDBRANCH   2   3
ENDBRANCH   1   2
BRANCH   1  31
ATOM     31  C   UNL A   1      32.073  30.626  26.758  1.00  0.00     0.202 C 
BRANCH  31  32
ATOM     32  O   UNL A   1      31.159  31.697  26.586  1.00  0.00    -0.374 OA
BRANCH  32  33
ATOM     33  C   UNL A   1      31.661  33.036  26.548  1.00  0.00     0.202 C 
BRANCH  33  34
ATOM     34  C   UNL A   1      32.726  33.443  27.571  1.00  0.00     0.261 C 
BRANCH  34  35
ATOM     35  O   UNL A   1      32.269  34.510  28.420  1.00  0.00    -0.460 OA
BRANCH  35  36
ATOM     36  C   UNL A   1      33.220  35.369  28.846  1.00  0.00     0.338 C 
ATOM     37  O   UNL A   1      33.138  36.585  28.959  1.00  0.00    -0.246 OA
BRANCH  36  38
ATOM     38  C   UNL A   1      34.356  34.597  29.361  1.00  0.00     0.060 A 
ATOM     39  C   UNL A   1      34.183  33.830  30.522  1.00  0.00     0.016 A 
ATOM     40  C   UNL A   1      35.598  34.685  28.737  1.00  0.00     0.016 A 
ATOM     41  C   UNL A   1      35.265  33.147  31.070  1.00  0.00     0.010 A 
ATOM     42  C   UNL A   1      36.686  34.021  29.301  1.00  0.00     0.010 A 
ATOM     43  C   UNL A   1      36.527  33.267  30.477  1.00  0.00    -0.014 A 
BRANCH  43  44
ATOM     44  C   UNL A   1      37.723  32.711  31.143  1.00  0.00     0.031 A 
ATOM     45  C   UNL A   1      38.412  31.536  30.515  1.00  0.00     0.074 A 
ATOM     46  C   UNL A   1      38.143  33.219  32.313  1.00  0.00     0.049 A 
ATOM     47  N   UNL A   1      39.360  30.776  30.998  1.00  0.00    -0.248 NA
ATOM     48  C   UNL A   1      37.968  31.162  29.162  1.00  0.00     0.031 C 
ATOM     49  C   UNL A   1      37.566  34.384  32.983  1.00  0.00     0.029 A 
ATOM     50  N   UNL A   1      39.133  32.795  33.163  1.00  0.00    -0.354 N 
ATOM     51  C   UNL A   1      39.606  29.820  30.022  1.00  0.00     0.074 A 
ATOM     52  C   UNL A   1      38.710  30.090  28.920  1.00  0.00     0.031 C 
ATOM     53  C   UNL A   1      38.184  34.557  34.163  1.00  0.00     0.029 A 
ATOM     54  C   UNL A   1      39.163  33.487  34.348  1.00  0.00     0.049 A 
ATOM     55  H   UNL A   1      39.757  32.066  32.945  1.00  0.00     0.167 HD
ATOM     56  C   UNL A   1      40.502  28.807  30.056  1.00  0.00     0.037 A 
ATOM     57  C   UNL A   1      39.867  33.246  35.471  1.00  0.00     0.037 A 
ATOM     58  C   UNL A   1      41.392  28.560  31.157  1.00  0.00     0.049 A 
ATOM     59  C   UNL A   1      40.803  32.063  35.506  1.00  0.00     0.074 A 
ATOM     60  C   UNL A   1      42.377  27.595  31.269  1.00  0.00     0.029 A 
ATOM     61  N   UNL A   1      41.394  29.277  32.344  1.00  0.00    -0.354 N 
ATOM     62  N   UNL A   1      41.072  31.190  34.564  1.00  0.00    -0.248 NA
ATOM     63  C   UNL A   1      41.529  31.827  36.762  1.00  0.00     0.031 C 
ATOM     64  C   UNL A   1      42.930  27.686  32.550  1.00  0.00     0.029 A 
ATOM     65  C   UNL A   1      42.333  28.746  33.213  1.00  0.00     0.049 A 
ATOM     66  H   UNL A   1      40.815  30.048  32.540  1.00  0.00     0.167 HD
ATOM     67  C   UNL A   1      42.009  30.319  35.105  1.00  0.00     0.074 A 
ATOM     68  C   UNL A   1      42.281  30.782  36.449  1.00  0.00     0.031 C 
ATOM     69  C   UNL A   1      42.589  29.229  34.545  1.00  0.00     0.037 A 
BRANCH  56  70
ATOM     70  C   UNL A   1      40.551  27.867  28.889  1.00  0.00     0.064 A 
ATOM     71  C   UNL A   1      39.756  26.714  28.833  1.00  0.00     0.173 A 
ATOM     72  C   UNL A   1      41.346  28.173  27.773  1.00  0.00     0.173 A 
ATOM     73  F   UNL A   1      38.990  26.370  29.878  1.00  0.00    -0.203 F 
ATOM     74  C   UNL A   1      39.757  25.899  27.703  1.00  0.00     0.198 A 
ATOM     75  C   UNL A   1      41.326  27.370  26.636  1.00  0.00     0.198 A 
ATOM     76  F   UNL A   1      42.125  29.265  27.777  1.00  0.00    -0.203 F 
ATOM     77  F   UNL A   1      39.008  24.789  27.679  1.00  0.00    -0.200 F 
ATOM     78  C   UNL A   1      40.533  26.234  26.602  1.00  0.00     0.200 A 
ATOM     79  F   UNL A   1      42.066  27.703  25.569  1.00  0.00    -0.200 F 
ATOM     80  F   UNL A   1      40.516  25.461  25.508  1.00  0.00    -0.200 F 
ENDBRANCH  56  70
BRANCH  57  81
ATOM     81  C   UNL A   1      39.675  34.096  36.678  1.00  0.00     0.064 A 
ATOM     82  C   UNL A   1      40.368  35.305  36.830  1.00  0.00     0.173 A 
ATOM     83  C   UNL A   1      38.836  33.690  37.728  1.00  0.00     0.173 A 
ATOM     84  F   UNL A   1      41.203  35.723  35.869  1.00  0.00    -0.203 F 
ATOM     85  C   UNL A   1      40.254  36.058  37.997  1.00  0.00     0.198 A 
ATOM     86  C   UNL A   1      38.696  34.462  38.879  1.00  0.00     0.198 A 
ATOM     87  F   UNL A   1      38.154  32.539  37.638  1.00  0.00    -0.203 F 
ATOM     88  F   UNL A   1      40.981  37.174  38.144  1.00  0.00    -0.200 F 
ATOM     89  C   UNL A   1      39.416  35.638  39.019  1.00  0.00     0.200 A 
ATOM     90  F   UNL A   1      37.877  34.057  39.860  1.00  0.00    -0.200 F 
ATOM     91  F   UNL A   1      39.314  36.359  40.144  1.00  0.00    -0.200 F 
ENDBRANCH  57  81
BRANCH  69  92
ATOM     92  C   UNL A   1      43.588  28.477  35.375  1.00  0.00     0.064 A 
ATOM     93  C   UNL A   1      44.949  28.812  35.368  1.00  0.00     0.173 A 
ATOM     94  C   UNL A   1      43.168  27.444  36.228  1.00  0.00     0.173 A 
ATOM     95  F   UNL A   1      45.401  29.782  34.558  1.00  0.00    -0.203 F 
ATOM     96  C   UNL A   1      45.858  28.128  36.169  1.00  0.00     0.198 A 
ATOM     97  C   UNL A   1      44.075  26.784  37.053  1.00  0.00     0.198 A 
ATOM     98  F   UNL A   1      41.875  27.090  36.279  1.00  0.00    -0.203 F 
ATOM     99  F   UNL A   1      47.161  28.435  36.113  1.00  0.00    -0.200 F 
ATOM    100  C   UNL A   1      45.419  27.122  37.018  1.00  0.00     0.200 A 
ATOM    101  F   UNL A   1      43.646  25.826  37.885  1.00  0.00    -0.200 F 
ATOM    102  F   UNL A   1      46.294  26.474  37.800  1.00  0.00    -0.200 F 
ENDBRANCH  69  92
ENDBRANCH  43  44
ENDBRANCH  36  38
ENDBRANCH  35  36
ENDBRANCH  34  35
ENDBRANCH  33  34
ENDBRANCH  32  33
ENDBRANCH  31  32
ENDBRANCH   1  31
TORSDOF 19
ENDMDL
MODEL 2
REMARK VINA RESULT:     -12.2      5.278     11.110
REMARK SMILES O=C(C[C@@H]1C(=O)NCCN1C(=O)OCC1c2ccccc2-c2ccccc21)OCCOCCOC(=O)c1ccc(-c2c3nc(c(-c4c(F)c(F)c(F)c(F)c4F)c4ccc([nH]4)c(-c4c(F)c(F)c(F)c(F)c4F)c4nc(c(-c5c(F)c(F)c(F)c(F)c5F)c5ccc2[nH]5)C=C4)C=C3)cc1
REMARK SMILES IDX 29 1 28 2 2 3 1 4 3 5 4 6 5 7 10 8 6 9 7 10 9 11 8 12 11 14
REMARK SMILES IDX 12 15 13 16 14 17 15 18 16 19 27 20 17 21 21 22 22 23 26 24
REMARK SMILES IDX 18 25 20 26 23 27 25 28 19 29 24 30 30 31 31 32 32 33 33 34
REMARK SMILES IDX 34 35 35 36 36 37 37 38 38 39 99 40 39 41 98 42 40 43 41 44
REMARK SMILES IDX 42 45 92 46 43 47 97 48 91 49 93 50 44 51 96 52 90 53 89 54
REMARK SMILES IDX 45 56 77 57 57 58 76 59 58 60 61 61 75 62 94 63 59 64 60 65
REMARK SMILES IDX 74 67 95 68 62 69 46 70 47 71 55 72 48 73 49 74 53 75 56 76
REMARK SMILES IDX 50 77 51 78 54 79 52 80 78 81 79 82 87 83 80 84 81 85 85 86
REMARK SMILES IDX 88 87 82 88 83 89 86 90 84 91 63 92 64 93 72 94 65 95 66 96
REMARK SMILES IDX 70 97 73 98 67 99 68 100 71 101 69 102
REMARK H PARENT 7 13 93 55 61 66
REMARK Flexibility Score: inf
ROOT
ATOM      1  C   UNL A   1      37.102  23.031  24.481  1.00  0.00     0.261 C 
ENDROOT
BRANCH   1   2
ATOM      2  O   UNL A   1      36.002  22.284  23.957  1.00  0.00    -0.463 OA
BRANCH   2   3
ATOM      3  C   UNL A   1      34.909  22.901  23.442  1.00  0.00     0.308 C 
ATOM      4  O   UNL A   1      35.029  23.869  22.693  1.00  0.00    -0.252 OA
BRANCH   3   5
ATOM      5  C   UNL A   1      33.553  22.506  23.976  1.00  0.00     0.158 C 
BRANCH   5   6
ATOM      6  C   UNL A   1      32.898  23.284  25.112  1.00  0.00     0.189 C 
ATOM      7  C   UNL A   1      32.955  22.478  26.444  1.00  0.00     0.243 C 
ATOM      8  N   UNL A   1      31.570  23.898  24.793  1.00  0.00    -0.294 N 
ATOM      9  O   UNL A   1      33.989  21.960  26.865  1.00  0.00    -0.273 OA
ATOM     10  N   UNL A   1      31.836  22.417  27.222  1.00  0.00    -0.353 N 
ATOM     11  C   UNL A   1      30.721  24.185  25.947  1.00  0.00     0.145 C 
ATOM     12  C   UNL A   1      30.559  22.940  26.808  1.00  0.00     0.137 C 
ATOM     13  H   UNL A   1      31.905  21.994  28.108  1.00  0.00     0.163 HD
BRANCH   8  14
ATOM     14  C   UNL A   1      31.162  24.433  23.573  1.00  0.00     0.410 C 
ATOM     15  O   UNL A   1      30.193  24.024  22.947  1.00  0.00    -0.224 OA
BRANCH  14  16
ATOM     16  O   UNL A   1      31.973  25.420  23.111  1.00  0.00    -0.448 OA
BRANCH  16  17
ATOM     17  C   UNL A   1      31.360  26.695  22.822  1.00  0.00     0.248 C 
BRANCH  17  18
ATOM     18  C   UNL A   1      30.605  27.345  24.016  1.00  0.00     0.088 C 
ATOM     19  C   UNL A   1      31.491  28.014  25.059  1.00  0.00    -0.029 A 
ATOM     20  C   UNL A   1      29.757  28.528  23.553  1.00  0.00    -0.029 A 
ATOM     21  C   UNL A   1      32.352  27.423  25.967  1.00  0.00     0.005 A 
ATOM     22  C   UNL A   1      31.358  29.415  24.988  1.00  0.00    -0.014 A 
ATOM     23  C   UNL A   1      30.255  29.729  24.105  1.00  0.00    -0.014 A 
ATOM     24  C   UNL A   1      28.625  28.512  22.752  1.00  0.00     0.005 A 
ATOM     25  C   UNL A   1      33.206  28.248  26.700  1.00  0.00     0.000 A 
ATOM     26  C   UNL A   1      32.196  30.237  25.723  1.00  0.00     0.009 A 
ATOM     27  C   UNL A   1      29.632  30.934  23.835  1.00  0.00     0.009 A 
ATOM     28  C   UNL A   1      27.991  29.728  22.491  1.00  0.00     0.000 A 
ATOM     29  C   UNL A   1      33.146  29.642  26.561  1.00  0.00     0.001 A 
ATOM     30  C   UNL A   1      28.493  30.929  23.023  1.00  0.00     0.001 A 
ENDBRANCH  17  18
ENDBRANCH  16  17
ENDBRANCH  14  16
ENDBRANCH   8  14
ENDBRANCH   5   6
ENDBRANCH   3   5
ENDBRANCH   2   3
ENDBRANCH   1   2
BRANCH   1  31
ATOM     31  C   UNL A   1      37.675  22.524  25.808  1.00  0.00     0.202 C 
BRANCH  31  32
ATOM     32  O   UNL A   1      38.725  21.570  25.775  1.00  0.00    -0.374 OA
BRANCH  32  33
ATOM     33  C   UNL A   1      38.428  20.228  25.377  1.00  0.00     0.202 C 
BRANCH  33  34
ATOM     34  C   UNL A   1      39.543  19.181  25.459  1.00  0.00     0.261 C 
BRANCH  34  35
ATOM     35  O   UNL A   1      40.459  19.461  26.532  1.00  0.00    -0.460 OA
BRANCH  35  36
ATOM     36  C   UNL A   1      41.729  19.735  26.162  1.00  0.00     0.338 C 
ATOM     37  O   UNL A   1      42.480  19.046  25.485  1.00  0.00    -0.246 OA
BRANCH  36  38
ATOM     38  C   UNL A   1      42.039  21.120  26.536  1.00  0.00     0.060 A 
ATOM     39  C   UNL A   1      42.229  22.069  25.522  1.00  0.00     0.016 A 
ATOM     40  C   UNL A   1      42.206  21.458  27.877  1.00  0.00     0.016 A 
ATOM     41  C   UNL A   1      42.595  23.371  25.850  1.00  0.00     0.010 A 
ATOM     42  C   UNL A   1      42.597  22.755  28.202  1.00  0.00     0.010 A 
ATOM     43  C   UNL A   1      42.811  23.708  27.190  1.00  0.00    -0.014 A 
BRANCH  43  44
ATOM     44  C   UNL A   1      43.383  25.023  27.550  1.00  0.00     0.031 A 
ATOM     45  C   UNL A   1      42.465  26.081  28.086  1.00  0.00     0.074 A 
ATOM     46  C   UNL A   1      44.686  25.272  27.344  1.00  0.00     0.049 A 
ATOM     47  N   UNL A   1      42.699  27.350  28.301  1.00  0.00    -0.248 NA
ATOM     48  C   UNL A   1      41.096  25.655  28.419  1.00  0.00     0.031 C 
ATOM     49  C   UNL A   1      45.666  24.299  26.865  1.00  0.00     0.029 A 
ATOM     50  N   UNL A   1      45.402  26.435  27.478  1.00  0.00    -0.354 N 
ATOM     51  C   UNL A   1      41.502  27.877  28.767  1.00  0.00     0.074 A 
ATOM     52  C   UNL A   1      40.542  26.797  28.803  1.00  0.00     0.031 C 
ATOM     53  C   UNL A   1      46.849  24.916  26.705  1.00  0.00     0.029 A 
ATOM     54  C   UNL A   1      46.693  26.334  27.023  1.00  0.00     0.049 A 
ATOM     55  H   UNL A   1      45.025  27.261  27.862  1.00  0.00     0.167 HD
ATOM     56  C   UNL A   1      41.239  29.154  29.127  1.00  0.00     0.037 A 
ATOM     57  C   UNL A   1      47.621  27.292  26.837  1.00  0.00     0.037 A 
ATOM     58  C   UNL A   1      42.210  30.213  29.093  1.00  0.00     0.049 A 
ATOM     59  C   UNL A   1      47.273  28.721  27.177  1.00  0.00     0.074 A 
ATOM     60  C   UNL A   1      42.062  31.531  29.489  1.00  0.00     0.029 A 
ATOM     61  N   UNL A   1      43.507  30.077  28.622  1.00  0.00    -0.354 N 
ATOM     62  N   UNL A   1      46.157  29.209  27.665  1.00  0.00    -0.248 NA
ATOM     63  C   UNL A   1      48.309  29.733  26.932  1.00  0.00     0.031 C 
ATOM     64  C   UNL A   1      43.250  32.208  29.197  1.00  0.00     0.029 A 
ATOM     65  C   UNL A   1      44.157  31.299  28.676  1.00  0.00     0.049 A 
ATOM     66  H   UNL A   1      43.907  29.238  28.298  1.00  0.00     0.167 HD
ATOM     67  C   UNL A   1      46.365  30.575  27.805  1.00  0.00     0.074 A 
ATOM     68  C   UNL A   1      47.722  30.836  27.373  1.00  0.00     0.031 C 
ATOM     69  C   UNL A   1      45.511  31.531  28.245  1.00  0.00     0.037 A 
BRANCH  56  70
ATOM     70  C   UNL A   1      39.844  29.494  29.557  1.00  0.00     0.064 A 
ATOM     71  C   UNL A   1      38.805  29.668  28.634  1.00  0.00     0.173 A 
ATOM     72  C   UNL A   1      39.528  29.562  30.924  1.00  0.00     0.173 A 
ATOM     73  F   UNL A   1      39.057  29.627  27.317  1.00  0.00    -0.203 F 
ATOM     74  C   UNL A   1      37.500  29.903  29.061  1.00  0.00     0.198 A 
ATOM     75  C   UNL A   1      38.218  29.771  31.348  1.00  0.00     0.198 A 
ATOM     76  F   UNL A   1      40.486  29.401  31.849  1.00  0.00    -0.203 F 
ATOM     77  F   UNL A   1      36.525  30.091  28.161  1.00  0.00    -0.200 F 
ATOM     78  C   UNL A   1      37.206  29.943  30.416  1.00  0.00     0.200 A 
ATOM     79  F   UNL A   1      37.936  29.796  32.658  1.00  0.00    -0.200 F 
ATOM     80  F   UNL A   1      35.947  30.145  30.826  1.00  0.00    -0.200 F 
ENDBRANCH  56  70
BRANCH  57  81
ATOM     81  C   UNL A   1      48.945  26.955  26.248  1.00  0.00     0.064 A 
ATOM     82  C   UNL A   1      49.194  27.123  24.879  1.00  0.00     0.173 A 
ATOM     83  C   UNL A   1      49.971  26.406  27.033  1.00  0.00     0.173 A 
ATOM     84  F   UNL A   1      48.236  27.616  24.080  1.00  0.00    -0.203 F 
ATOM     85  C   UNL A   1      50.403  26.726  24.312  1.00  0.00     0.198 A 
ATOM     86  C   UNL A   1      51.194  26.044  26.471  1.00  0.00     0.198 A 
ATOM     87  F   UNL A   1      49.786  26.217  28.348  1.00  0.00    -0.203 F 
ATOM     88  F   UNL A   1      50.588  26.835  22.990  1.00  0.00    -0.200 F 
ATOM     89  C   UNL A   1      51.404  26.191  25.110  1.00  0.00     0.200 A 
ATOM     90  F   UNL A   1      52.161  25.535  27.247  1.00  0.00    -0.200 F 
ATOM     91  F   UNL A   1      52.564  25.803  24.562  1.00  0.00    -0.200 F 
ENDBRANCH  57  81
BRANCH  69  92
ATOM     92  C   UNL A   1      46.024  32.941  28.300  1.00  0.00     0.064 A 
ATOM     93  C   UNL A   1      46.704  33.430  29.424  1.00  0.00     0.173 A 
ATOM     94  C   UNL A   1      45.881  33.793  27.193  1.00  0.00     0.173 A 
ATOM     95  F   UNL A   1      46.853  32.660  30.512  1.00  0.00    -0.203 F 
ATOM     96  C   UNL A   1      47.204  34.729  29.447  1.00  0.00     0.198 A 
ATOM     97  C   UNL A   1      46.411  35.080  27.208  1.00  0.00     0.198 A 
ATOM     98  F   UNL A   1      45.245  33.370  26.090  1.00  0.00    -0.203 F 
ATOM     99  F   UNL A   1      47.812  35.191  30.548  1.00  0.00    -0.200 F 
ATOM    100  C   UNL A   1      47.066  35.549  28.336  1.00  0.00     0.200 A 
ATOM    101  F   UNL A   1      46.293  35.863  26.127  1.00  0.00    -0.200 F 
ATOM    102  F   UNL A   1      47.561  36.794  28.355  1.00  0.00    -0.200 F 
ENDBRANCH  69  92
ENDBRANCH  43  44
ENDBRANCH  36  38
ENDBRANCH  35  36
ENDBRANCH  34  35
ENDBRANCH  33  34
ENDBRANCH  32  33
ENDBRANCH  31  32
ENDBRANCH   1  31
TORSDOF 19
ENDMDL
MODEL 3
REMARK VINA RESULT:     -12.0      0.909      2.381
REMARK SMILES O=C(C[C@@H]1C(=O)NCCN1C(=O)OCC1c2ccccc2-c2ccccc21)OCCOCCOC(=O)c1ccc(-c2c3nc(c(-c4c(F)c(F)c(F)c(F)c4F)c4ccc([nH]4)c(-c4c(F)c(F)c(F)c(F)c4F)c4nc(c(-c5c(F)c(F)c(F)c(F)c5F)c5ccc2[nH]5)C=C4)C=C3)cc1
REMARK SMILES IDX 29 1 28 2 2 3 1 4 3 5 4 6 5 7 10 8 6 9 7 10 9 11 8 12 11 14
REMARK SMILES IDX 12 15 13 16 14 17 15 18 16 19 27 20 17 21 21 22 22 23 26 24
REMARK SMILES IDX 18 25 20 26 23 27 25 28 19 29 24 30 30 31 31 32 32 33 33 34
REMARK SMILES IDX 34 35 35 36 36 37 37 38 38 39 99 40 39 41 98 42 40 43 41 44
REMARK SMILES IDX 42 45 92 46 43 47 97 48 91 49 93 50 44 51 96 52 90 53 89 54
REMARK SMILES IDX 45 56 77 57 57 58 76 59 58 60 61 61 75 62 94 63 59 64 60 65
REMARK SMILES IDX 74 67 95 68 62 69 46 70 47 71 55 72 48 73 49 74 53 75 56 76
REMARK SMILES IDX 50 77 51 78 54 79 52 80 78 81 79 82 87 83 80 84 81 85 85 86
REMARK SMILES IDX 88 87 82 88 83 89 86 90 84 91 63 92 64 93 72 94 65 95 66 96
REMARK SMILES IDX 70 97 73 98 67 99 68 100 71 101 69 102
REMARK H PARENT 7 13 93 55 61 66
REMARK Flexibility Score: inf
ROOT
ATOM      1  C   UNL A   1      33.631  28.947  27.572  1.00  0.00     0.261 C 
ENDROOT
BRANCH   1   2
ATOM      2  O   UNL A   1      34.443  28.434  26.513  1.00  0.00    -0.463 OA
BRANCH   2   3
ATOM      3  C   UNL A   1      33.914  28.115  25.306  1.00  0.00     0.308 C 
ATOM      4  O   UNL A   1      33.588  28.994  24.511  1.00  0.00    -0.252 OA
BRANCH   3   5
ATOM      5  C   UNL A   1      33.541  26.674  25.053  1.00  0.00     0.158 C 
BRANCH   5   6
ATOM      6  C   UNL A   1      32.204  26.307  24.420  1.00  0.00     0.189 C 
ATOM      7  C   UNL A   1      31.158  25.927  25.512  1.00  0.00     0.243 C 
ATOM      8  N   UNL A   1      32.275  25.372  23.253  1.00  0.00    -0.294 N 
ATOM      9  O   UNL A   1      30.947  26.625  26.503  1.00  0.00    -0.273 OA
ATOM     10  N   UNL A   1      30.379  24.824  25.318  1.00  0.00    -0.353 N 
ATOM     11  C   UNL A   1      31.051  24.628  22.971  1.00  0.00     0.145 C 
ATOM     12  C   UNL A   1      30.570  23.906  24.222  1.00  0.00     0.137 C 
ATOM     13  H   UNL A   1      29.653  24.645  25.958  1.00  0.00     0.163 HD
BRANCH   8  14
ATOM     14  C   UNL A   1      33.275  25.314  22.283  1.00  0.00     0.410 C 
ATOM     15  O   UNL A   1      33.233  25.942  21.233  1.00  0.00    -0.224 OA
BRANCH  14  16
ATOM     16  O   UNL A   1      34.278  24.450  22.584  1.00  0.00    -0.448 OA
BRANCH  16  17
ATOM     17  C   UNL A   1      33.921  23.061  22.763  1.00  0.00     0.248 C 
BRANCH  17  18
ATOM     18  C   UNL A   1      34.034  22.538  24.223  1.00  0.00     0.088 C 
ATOM     19  C   UNL A   1      33.727  21.057  24.407  1.00  0.00    -0.029 A 
ATOM     20  C   UNL A   1      35.477  22.599  24.719  1.00  0.00    -0.029 A 
ATOM     21  C   UNL A   1      32.509  20.408  24.303  1.00  0.00     0.005 A 
ATOM     22  C   UNL A   1      34.909  20.344  24.694  1.00  0.00    -0.014 A 
ATOM     23  C   UNL A   1      35.972  21.295  24.941  1.00  0.00    -0.014 A 
ATOM     24  C   UNL A   1      36.246  23.722  24.985  1.00  0.00     0.005 A 
ATOM     25  C   UNL A   1      32.500  19.013  24.328  1.00  0.00     0.000 A 
ATOM     26  C   UNL A   1      34.901  18.960  24.731  1.00  0.00     0.009 A 
ATOM     27  C   UNL A   1      37.259  21.105  25.411  1.00  0.00     0.009 A 
ATOM     28  C   UNL A   1      37.540  23.528  25.471  1.00  0.00     0.000 A 
ATOM     29  C   UNL A   1      33.689  18.294  24.517  1.00  0.00     0.001 A 
ATOM     30  C   UNL A   1      38.044  22.232  25.676  1.00  0.00     0.001 A 
ENDBRANCH  17  18
ENDBRANCH  16  17
ENDBRANCH  14  16
ENDBRANCH   8  14
ENDBRANCH   5   6
ENDBRANCH   3   5
ENDBRANCH   2   3
ENDBRANCH   1   2
BRANCH   1  31
ATOM     31  C   UNL A   1      32.880  30.245  27.261  1.00  0.00     0.202 C 
BRANCH  31  32
ATOM     32  O   UNL A   1      33.340  31.453  27.848  1.00  0.00    -0.374 OA
BRANCH  32  33
ATOM     33  C   UNL A   1      33.091  32.689  27.171  1.00  0.00     0.202 C 
BRANCH  33  34
ATOM     34  C   UNL A   1      32.204  33.730  27.861  1.00  0.00     0.261 C 
BRANCH  34  35
ATOM     35  O   UNL A   1      32.955  34.889  28.262  1.00  0.00    -0.460 OA
BRANCH  35  36
ATOM     36  C   UNL A   1      33.122  35.048  29.593  1.00  0.00     0.338 C 
ATOM     37  O   UNL A   1      32.347  35.556  30.392  1.00  0.00    -0.246 OA
BRANCH  36  38
ATOM     38  C   UNL A   1      34.330  34.325  30.005  1.00  0.00     0.060 A 
ATOM     39  C   UNL A   1      34.244  33.409  31.063  1.00  0.00     0.016 A 
ATOM     40  C   UNL A   1      35.551  34.603  29.393  1.00  0.00     0.016 A 
ATOM     41  C   UNL A   1      35.390  32.765  31.519  1.00  0.00     0.010 A 
ATOM     42  C   UNL A   1      36.702  33.977  29.867  1.00  0.00     0.010 A 
ATOM     43  C   UNL A   1      36.628  33.072  30.942  1.00  0.00    -0.014 A 
BRANCH  43  44
ATOM     44  C   UNL A   1      37.879  32.551  31.531  1.00  0.00     0.031 A 
ATOM     45  C   UNL A   1      38.540  31.372  30.880  1.00  0.00     0.074 A 
ATOM     46  C   UNL A   1      38.374  33.092  32.655  1.00  0.00     0.049 A 
ATOM     47  N   UNL A   1      39.533  30.638  31.309  1.00  0.00    -0.248 NA
ATOM     48  C   UNL A   1      38.005  30.959  29.572  1.00  0.00     0.031 C 
ATOM     49  C   UNL A   1      37.828  34.263  33.339  1.00  0.00     0.029 A 
ATOM     50  N   UNL A   1      39.430  32.703  33.440  1.00  0.00    -0.354 N 
ATOM     51  C   UNL A   1      39.724  29.663  30.339  1.00  0.00     0.074 A 
ATOM     52  C   UNL A   1      38.746  29.893  29.299  1.00  0.00     0.031 C 
ATOM     53  C   UNL A   1      38.527  34.473  34.467  1.00  0.00     0.029 A 
ATOM     54  C   UNL A   1      39.535  33.423  34.604  1.00  0.00     0.049 A 
ATOM     55  H   UNL A   1      40.049  31.978  33.193  1.00  0.00     0.167 HD
ATOM     56  C   UNL A   1      40.637  28.665  30.329  1.00  0.00     0.037 A 
ATOM     57  C   UNL A   1      40.322  33.219  35.678  1.00  0.00     0.037 A 
ATOM     58  C   UNL A   1      41.609  28.458  31.368  1.00  0.00     0.049 A 
ATOM     59  C   UNL A   1      41.279  32.051  35.670  1.00  0.00     0.074 A 
ATOM     60  C   UNL A   1      42.615  27.510  31.429  1.00  0.00     0.029 A 
ATOM     61  N   UNL A   1      41.685  29.202  32.536  1.00  0.00    -0.354 N 
ATOM     62  N   UNL A   1      41.493  31.161  34.730  1.00  0.00    -0.248 NA
ATOM     63  C   UNL A   1      42.098  31.856  36.874  1.00  0.00     0.031 C 
ATOM     64  C   UNL A   1      43.259  27.639  32.663  1.00  0.00     0.029 A 
ATOM     65  C   UNL A   1      42.694  28.706  33.345  1.00  0.00     0.049 A 
ATOM     66  H   UNL A   1      41.109  29.969  32.757  1.00  0.00     0.167 HD
ATOM     67  C   UNL A   1      42.481  30.317  35.220  1.00  0.00     0.074 A 
ATOM     68  C   UNL A   1      42.843  30.815  36.531  1.00  0.00     0.031 C 
ATOM     69  C   UNL A   1      43.037  29.224  34.643  1.00  0.00     0.037 A 
BRANCH  56  70
ATOM     70  C   UNL A   1      40.616  27.699  29.183  1.00  0.00     0.064 A 
ATOM     71  C   UNL A   1      39.731  26.613  29.145  1.00  0.00     0.173 A 
ATOM     72  C   UNL A   1      41.441  27.915  28.067  1.00  0.00     0.173 A 
ATOM     73  F   UNL A   1      38.933  26.356  30.192  1.00  0.00    -0.203 F 
ATOM     74  C   UNL A   1      39.673  25.776  28.033  1.00  0.00     0.198 A 
ATOM     75  C   UNL A   1      41.363  27.092  26.948  1.00  0.00     0.198 A 
ATOM     76  F   UNL A   1      42.306  28.940  28.054  1.00  0.00    -0.203 F 
ATOM     77  F   UNL A   1      38.836  24.730  28.027  1.00  0.00    -0.200 F 
ATOM     78  C   UNL A   1      40.480  26.023  26.932  1.00  0.00     0.200 A 
ATOM     79  F   UNL A   1      42.134  27.340  25.880  1.00  0.00    -0.200 F 
ATOM     80  F   UNL A   1      40.407  25.231  25.854  1.00  0.00    -0.200 F 
ENDBRANCH  56  70
BRANCH  57  81
ATOM     81  C   UNL A   1      40.205  34.094  36.876  1.00  0.00     0.064 A 
ATOM     82  C   UNL A   1      39.295  33.801  37.901  1.00  0.00     0.173 A 
ATOM     83  C   UNL A   1      40.963  35.269  36.995  1.00  0.00     0.173 A 
ATOM     84  F   UNL A   1      38.526  32.706  37.821  1.00  0.00    -0.203 F 
ATOM     85  C   UNL A   1      39.123  34.666  38.980  1.00  0.00     0.198 A 
ATOM     86  C   UNL A   1      40.817  36.114  38.093  1.00  0.00     0.198 A 
ATOM     87  F   UNL A   1      41.846  35.600  36.040  1.00  0.00    -0.203 F 
ATOM     88  F   UNL A   1      38.197  34.396  39.909  1.00  0.00    -0.200 F 
ATOM     89  C   UNL A   1      39.887  35.819  39.077  1.00  0.00     0.200 A 
ATOM     90  F   UNL A   1      41.564  37.223  38.187  1.00  0.00    -0.200 F 
ATOM     91  F   UNL A   1      39.715  36.654  40.112  1.00  0.00    -0.200 F 
ENDBRANCH  57  81
BRANCH  69  92
ATOM     92  C   UNL A   1      44.107  28.506  35.414  1.00  0.00     0.064 A 
ATOM     93  C   UNL A   1      45.457  28.864  35.303  1.00  0.00     0.173 A 
ATOM     94  C   UNL A   1      43.768  27.485  36.317  1.00  0.00     0.173 A 
ATOM     95  F   UNL A   1      45.833  29.824  34.443  1.00  0.00    -0.203 F 
ATOM     96  C   UNL A   1      46.434  28.213  36.051  1.00  0.00     0.198 A 
ATOM     97  C   UNL A   1      44.743  26.858  37.087  1.00  0.00     0.198 A 
ATOM     98  F   UNL A   1      42.489  27.110  36.467  1.00  0.00    -0.203 F 
ATOM     99  F   UNL A   1      47.724  28.541  35.895  1.00  0.00    -0.200 F 
ATOM    100  C   UNL A   1      46.075  27.218  36.949  1.00  0.00     0.200 A 
ATOM    101  F   UNL A   1      44.393  25.911  37.967  1.00  0.00    -0.200 F 
ATOM    102  F   UNL A   1      47.016  26.602  37.678  1.00  0.00    -0.200 F 
ENDBRANCH  69  92
ENDBRANCH  43  44
ENDBRANCH  36  38
ENDBRANCH  35  36
ENDBRANCH  34  35
ENDBRANCH  33  34
ENDBRANCH  32  33
ENDBRANCH  31  32
ENDBRANCH   1  31
TORSDOF 19
ENDMDL
