MODEL 1
REMARK VINA RESULT:     -14.0      0.000      0.000
REMARK SMILES O=C(CSc1nnc2sc3ccccc3n12)N[C@H](Cc1c[nH]c2ccccc12)C(=O)OCCOCCOC(=O)c1ccc(-c2c3nc(c(-c4c(F)c(F)c(F)c(F)c4F)c4ccc([nH]4)c(-c4c(F)c(F)c(F)c(F)c4F)c4nc(c(-c5c(F)c(F)c(F)c(F)c5F)c5ccc2[nH]5)C=C4)C=C3)cc1
REMARK SMILES IDX 33 1 32 2 31 3 29 4 30 5 18 6 17 7 1 8 2 9 3 11 4 12 5 13
REMARK SMILES IDX 6 14 16 15 7 16 8 17 15 18 9 19 10 20 14 21 11 22 13 23
REMARK SMILES IDX 12 24 19 25 20 26 21 27 28 28 22 29 23 30 27 31 24 33 26 34
REMARK SMILES IDX 25 35 34 36 35 37 36 38 37 39 38 40 39 41 40 42 41 43 102 44
REMARK SMILES IDX 42 45 101 46 43 47 44 48 45 49 95 50 46 51 100 52 94 53
REMARK SMILES IDX 96 54 47 55 99 56 93 57 92 58 48 60 80 61 60 62 79 63 61 64
REMARK SMILES IDX 64 65 78 66 97 67 62 68 63 69 77 71 98 72 65 73 49 74 50 75
REMARK SMILES IDX 58 76 51 77 52 78 56 79 59 80 53 81 54 82 57 83 55 84 81 85
REMARK SMILES IDX 82 86 90 87 83 88 84 89 88 90 91 91 85 92 86 93 89 94 87 95
REMARK SMILES IDX 66 96 67 97 75 98 68 99 69 100 73 101 76 102 70 103 71 104
REMARK SMILES IDX 74 105 72 106
REMARK H PARENT 17 10 22 32 96 59 64 70
REMARK Flexibility Score: inf
ROOT
ATOM      1  C   UNL A   1      32.644  30.125  26.642  1.00  0.00     0.202 C 
ENDROOT
BRANCH   1   2
ATOM      2  C   UNL A   1      31.782  29.076  27.354  1.00  0.00     0.261 C 
BRANCH   2   3
ATOM      3  O   UNL A   1      31.432  27.679  26.454  1.00  0.00    -0.462 OA
BRANCH   3   4
ATOM      4  C   UNL A   1      30.443  26.161  25.957  1.00  0.00     0.329 C 
ATOM      5  O   UNL A   1      30.552  25.068  26.575  1.00  0.00    -0.250 OA
BRANCH   4   6
ATOM      6  C   UNL A   1      29.527  25.954  24.471  1.00  0.00     0.196 C 
BRANCH   6   7
ATOM      7  N   UNL A   1      29.958  24.631  23.794  1.00  0.00    -0.342 N 
ATOM      8  O   UNL A   1      31.904  25.316  22.811  1.00  0.00    -0.274 OA
ATOM      9  C   UNL A   1      31.209  24.397  23.256  1.00  0.00     0.231 C 
ATOM     10  H   UNL A   1      29.294  23.906  23.742  1.00  0.00     0.164 HD
BRANCH   9  11
ATOM     11  C   UNL A   1      31.826  22.996  23.250  1.00  0.00     0.178 C 
BRANCH  11  12
ATOM     12  S   UNL A   1      33.574  22.812  22.897  1.00  0.00    -0.076 SA
BRANCH  12  13
ATOM     13  C   UNL A   1      34.370  22.492  24.425  1.00  0.00     0.197 A 
ATOM     14  N   UNL A   1      35.233  23.294  25.031  1.00  0.00    -0.122 NA
ATOM     15  N   UNL A   1      34.775  21.232  24.694  1.00  0.00    -0.260 N 
ATOM     16  N   UNL A   1      36.300  22.497  25.496  1.00  0.00    -0.118 NA
ATOM     17  C   UNL A   1      36.078  21.279  25.065  1.00  0.00     0.217 A 
ATOM     18  C   UNL A   1      34.208  20.015  24.558  1.00  0.00     0.068 A 
ATOM     19  S   UNL A   1      37.012  19.781  25.003  1.00  0.00    -0.094 S 
ATOM     20  C   UNL A   1      35.538  18.821  24.499  1.00  0.00     0.055 A 
ATOM     21  C   UNL A   1      32.536  19.581  25.035  1.00  0.00     0.028 A 
ATOM     22  C   UNL A   1      35.188  17.073  24.743  1.00  0.00     0.021 A 
ATOM     23  C   UNL A   1      32.153  17.806  25.285  1.00  0.00     0.002 A 
ATOM     24  C   UNL A   1      33.482  16.545  25.080  1.00  0.00     0.002 A 
ENDBRANCH  12  13
ENDBRANCH  11  12
ENDBRANCH   9  11
ENDBRANCH   6   7
BRANCH   6  25
ATOM     25  C   UNL A   1      28.818  27.015  23.510  1.00  0.00     0.074 C 
BRANCH  25  26
ATOM     26  C   UNL A   1      29.454  28.293  22.953  1.00  0.00    -0.020 A 
ATOM     27  C   UNL A   1      30.639  28.477  22.263  1.00  0.00     0.087 A 
ATOM     28  C   UNL A   1      28.831  29.613  23.000  1.00  0.00     0.003 A 
ATOM     29  N   UNL A   1      30.660  29.755  21.749  1.00  0.00    -0.361 N 
ATOM     30  C   UNL A   1      29.574  30.473  22.188  1.00  0.00     0.046 A 
ATOM     31  C   UNL A   1      27.662  30.134  23.603  1.00  0.00     0.010 A 
ATOM     32  H   UNL A   1      31.358  30.106  21.150  1.00  0.00     0.166 HD
ATOM     33  C   UNL A   1      29.186  31.797  21.913  1.00  0.00     0.026 A 
ATOM     34  C   UNL A   1      27.281  31.465  23.373  1.00  0.00     0.001 A 
ATOM     35  C   UNL A   1      28.024  32.279  22.524  1.00  0.00     0.002 A 
ENDBRANCH  25  26
ENDBRANCH   6  25
ENDBRANCH   4   6
ENDBRANCH   3   4
ENDBRANCH   2   3
ENDBRANCH   1   2
BRANCH   1  36
ATOM     36  O   UNL A   1      32.834  31.465  27.120  1.00  0.00    -0.374 OA
BRANCH  36  37
ATOM     37  C   UNL A   1      34.021  31.904  27.755  1.00  0.00     0.202 C 
BRANCH  37  38
ATOM     38  C   UNL A   1      33.863  33.107  28.695  1.00  0.00     0.261 C 
BRANCH  38  39
ATOM     39  O   UNL A   1      35.052  33.354  29.438  1.00  0.00    -0.460 OA
BRANCH  39  40
ATOM     40  C   UNL A   1      35.209  32.575  30.532  1.00  0.00     0.338 C 
ATOM     41  O   UNL A   1      34.399  32.329  31.412  1.00  0.00    -0.246 OA
BRANCH  40  42
ATOM     42  C   UNL A   1      36.388  31.763  30.225  1.00  0.00     0.060 A 
ATOM     43  C   UNL A   1      36.341  30.366  30.295  1.00  0.00     0.016 A 
ATOM     44  C   UNL A   1      37.599  32.460  30.174  1.00  0.00     0.016 A 
ATOM     45  C   UNL A   1      37.533  29.670  30.424  1.00  0.00     0.010 A 
ATOM     46  C   UNL A   1      38.784  31.766  30.331  1.00  0.00     0.010 A 
ATOM     47  C   UNL A   1      38.748  30.378  30.492  1.00  0.00    -0.014 A 
BRANCH  47  48
ATOM     48  C   UNL A   1      39.985  29.615  30.334  1.00  0.00     0.031 A 
ATOM     49  C   UNL A   1      40.616  29.475  31.671  1.00  0.00     0.074 A 
ATOM     50  C   UNL A   1      40.430  29.004  29.215  1.00  0.00     0.049 A 
ATOM     51  N   UNL A   1      41.669  30.084  32.103  1.00  0.00    -0.248 NA
ATOM     52  C   UNL A   1      39.841  28.805  32.738  1.00  0.00     0.031 C 
ATOM     53  C   UNL A   1      39.703  28.852  27.954  1.00  0.00     0.029 A 
ATOM     54  N   UNL A   1      41.589  28.292  28.993  1.00  0.00    -0.354 N 
ATOM     55  C   UNL A   1      41.829  29.621  33.403  1.00  0.00     0.074 A 
ATOM     56  C   UNL A   1      40.558  29.107  33.820  1.00  0.00     0.031 C 
ATOM     57  C   UNL A   1      40.326  27.932  27.182  1.00  0.00     0.029 A 
ATOM     58  C   UNL A   1      41.549  27.503  27.836  1.00  0.00     0.049 A 
ATOM     59  H   UNL A   1      42.371  28.334  29.591  1.00  0.00     0.167 HD
ATOM     60  C   UNL A   1      43.072  29.298  33.848  1.00  0.00     0.037 A 
ATOM     61  C   UNL A   1      42.426  26.521  27.488  1.00  0.00     0.037 A 
ATOM     62  C   UNL A   1      44.080  29.885  33.007  1.00  0.00     0.049 A 
ATOM     63  C   UNL A   1      43.679  26.731  28.252  1.00  0.00     0.074 A 
ATOM     64  C   UNL A   1      44.616  31.139  32.826  1.00  0.00     0.029 A 
ATOM     65  N   UNL A   1      44.320  29.174  31.861  1.00  0.00    -0.354 N 
ATOM     66  N   UNL A   1      44.516  27.700  28.019  1.00  0.00    -0.248 NA
ATOM     67  C   UNL A   1      43.847  26.059  29.536  1.00  0.00     0.031 C 
ATOM     68  C   UNL A   1      45.141  31.166  31.500  1.00  0.00     0.029 A 
ATOM     69  C   UNL A   1      44.995  29.907  30.921  1.00  0.00     0.049 A 
ATOM     70  H   UNL A   1      44.039  28.240  31.727  1.00  0.00     0.167 HD
ATOM     71  C   UNL A   1      44.955  28.071  29.273  1.00  0.00     0.074 A 
ATOM     72  C   UNL A   1      44.671  26.925  30.131  1.00  0.00     0.031 C 
ATOM     73  C   UNL A   1      45.175  29.382  29.579  1.00  0.00     0.037 A 
BRANCH  60  74
ATOM     74  C   UNL A   1      43.359  28.072  34.686  1.00  0.00     0.064 A 
ATOM     75  C   UNL A   1      43.158  26.797  34.130  1.00  0.00     0.173 A 
ATOM     76  C   UNL A   1      43.561  28.095  36.087  1.00  0.00     0.173 A 
ATOM     77  F   UNL A   1      42.899  26.658  32.821  1.00  0.00    -0.203 F 
ATOM     78  C   UNL A   1      43.151  25.640  34.919  1.00  0.00     0.198 A 
ATOM     79  C   UNL A   1      43.615  26.939  36.860  1.00  0.00     0.198 A 
ATOM     80  F   UNL A   1      43.600  29.233  36.789  1.00  0.00    -0.203 F 
ATOM     81  F   UNL A   1      42.861  24.457  34.363  1.00  0.00    -0.200 F 
ATOM     82  C   UNL A   1      43.388  25.712  36.281  1.00  0.00     0.200 A 
ATOM     83  F   UNL A   1      43.814  27.040  38.182  1.00  0.00    -0.200 F 
ATOM     84  F   UNL A   1      43.350  24.611  37.043  1.00  0.00    -0.200 F 
ENDBRANCH  60  74
BRANCH  61  85
ATOM     85  C   UNL A   1      42.190  25.248  26.751  1.00  0.00     0.064 A 
ATOM     86  C   UNL A   1      42.996  24.873  25.656  1.00  0.00     0.173 A 
ATOM     87  C   UNL A   1      41.382  24.234  27.296  1.00  0.00     0.173 A 
ATOM     88  F   UNL A   1      43.820  25.763  25.085  1.00  0.00    -0.203 F 
ATOM     89  C   UNL A   1      43.030  23.555  25.180  1.00  0.00     0.198 A 
ATOM     90  C   UNL A   1      41.414  22.922  26.818  1.00  0.00     0.198 A 
ATOM     91  F   UNL A   1      40.619  24.468  28.373  1.00  0.00    -0.203 F 
ATOM     92  F   UNL A   1      43.869  23.221  24.188  1.00  0.00    -0.200 F 
ATOM     93  C   UNL A   1      42.253  22.577  25.775  1.00  0.00     0.200 A 
ATOM     94  F   UNL A   1      40.679  21.979  27.423  1.00  0.00    -0.200 F 
ATOM     95  F   UNL A   1      42.343  21.300  25.376  1.00  0.00    -0.200 F 
ENDBRANCH  61  85
BRANCH  73  96
ATOM     96  C   UNL A   1      45.474  30.345  28.460  1.00  0.00     0.064 A 
ATOM     97  C   UNL A   1      44.514  31.032  27.699  1.00  0.00     0.173 A 
ATOM     98  C   UNL A   1      46.819  30.652  28.204  1.00  0.00     0.173 A 
ATOM     99  F   UNL A   1      43.202  30.812  27.872  1.00  0.00    -0.203 F 
ATOM    100  C   UNL A   1      44.886  32.004  26.764  1.00  0.00     0.198 A 
ATOM    101  C   UNL A   1      47.187  31.644  27.300  1.00  0.00     0.198 A 
ATOM    102  F   UNL A   1      47.795  30.002  28.859  1.00  0.00    -0.203 F 
ATOM    103  F   UNL A   1      43.951  32.656  26.055  1.00  0.00    -0.200 F 
ATOM    104  C   UNL A   1      46.219  32.329  26.589  1.00  0.00     0.200 A 
ATOM    105  F   UNL A   1      48.482  31.940  27.128  1.00  0.00    -0.200 F 
ATOM    106  F   UNL A   1      46.574  33.296  25.731  1.00  0.00    -0.200 F 
ENDBRANCH  73  96
ENDBRANCH  47  48
ENDBRANCH  40  42
ENDBRANCH  39  40
ENDBRANCH  38  39
ENDBRANCH  37  38
ENDBRANCH  36  37
ENDBRANCH   1  36
TORSDOF 20
ENDMDL
MODEL 2
REMARK VINA RESULT:     -13.5      3.472      9.748
REMARK SMILES O=C(CSc1nnc2sc3ccccc3n12)N[C@H](Cc1c[nH]c2ccccc12)C(=O)OCCOCCOC(=O)c1ccc(-c2c3nc(c(-c4c(F)c(F)c(F)c(F)c4F)c4ccc([nH]4)c(-c4c(F)c(F)c(F)c(F)c4F)c4nc(c(-c5c(F)c(F)c(F)c(F)c5F)c5ccc2[nH]5)C=C4)C=C3)cc1
REMARK SMILES IDX 33 1 32 2 31 3 29 4 30 5 18 6 17 7 1 8 2 9 3 11 4 12 5 13
REMARK SMILES IDX 6 14 16 15 7 16 8 17 15 18 9 19 10 20 14 21 11 22 13 23
REMARK SMILES IDX 12 24 19 25 20 26 21 27 28 28 22 29 23 30 27 31 24 33 26 34
REMARK SMILES IDX 25 35 34 36 35 37 36 38 37 39 38 40 39 41 40 42 41 43 102 44
REMARK SMILES IDX 42 45 101 46 43 47 44 48 45 49 95 50 46 51 100 52 94 53
REMARK SMILES IDX 96 54 47 55 99 56 93 57 92 58 48 60 80 61 60 62 79 63 61 64
REMARK SMILES IDX 64 65 78 66 97 67 62 68 63 69 77 71 98 72 65 73 49 74 50 75
REMARK SMILES IDX 58 76 51 77 52 78 56 79 59 80 53 81 54 82 57 83 55 84 81 85
REMARK SMILES IDX 82 86 90 87 83 88 84 89 88 90 91 91 85 92 86 93 89 94 87 95
REMARK SMILES IDX 66 96 67 97 75 98 68 99 69 100 73 101 76 102 70 103 71 104
REMARK SMILES IDX 74 105 72 106
REMARK H PARENT 17 10 22 32 96 59 64 70
REMARK Flexibility Score: inf
ROOT
ATOM      1  C   UNL A   1      41.698  20.061  26.427  1.00  0.00     0.202 C 
ENDROOT
BRANCH   1   2
ATOM      2  C   UNL A   1      41.061  21.367  26.915  1.00  0.00     0.261 C 
BRANCH   2   3
ATOM      3  O   UNL A   1      39.673  21.866  26.073  1.00  0.00    -0.462 OA
BRANCH   3   4
ATOM      4  C   UNL A   1      38.068  22.809  25.815  1.00  0.00     0.329 C 
ATOM      5  O   UNL A   1      37.932  24.002  26.198  1.00  0.00    -0.250 OA
BRANCH   4   6
ATOM      6  C   UNL A   1      36.524  22.126  25.329  1.00  0.00     0.196 C 
BRANCH   6   7
ATOM      7  N   UNL A   1      35.652  23.243  24.706  1.00  0.00    -0.342 N 
ATOM      8  O   UNL A   1      36.252  23.023  22.512  1.00  0.00    -0.274 OA
ATOM      9  C   UNL A   1      35.428  23.398  23.351  1.00  0.00     0.231 C 
ATOM     10  H   UNL A   1      35.229  23.888  25.318  1.00  0.00     0.164 HD
BRANCH   9  11
ATOM     11  C   UNL A   1      34.115  23.980  22.821  1.00  0.00     0.178 C 
BRANCH  11  12
ATOM     12  S   UNL A   1      32.718  24.138  23.933  1.00  0.00    -0.076 SA
BRANCH  12  13
ATOM     13  C   UNL A   1      31.713  25.429  23.305  1.00  0.00     0.197 A 
ATOM     14  N   UNL A   1      31.238  25.510  22.072  1.00  0.00    -0.122 NA
ATOM     15  N   UNL A   1      31.969  26.697  23.694  1.00  0.00    -0.260 N 
ATOM     16  N   UNL A   1      31.414  26.839  21.635  1.00  0.00    -0.118 NA
ATOM     17  C   UNL A   1      32.069  27.466  22.580  1.00  0.00     0.217 A 
ATOM     18  C   UNL A   1      32.243  27.279  24.880  1.00  0.00     0.068 A 
ATOM     19  S   UNL A   1      32.871  29.033  22.726  1.00  0.00    -0.094 S 
ATOM     20  C   UNL A   1      33.090  28.813  24.529  1.00  0.00     0.055 A 
ATOM     21  C   UNL A   1      31.366  26.984  26.416  1.00  0.00     0.028 A 
ATOM     22  C   UNL A   1      33.248  30.066  25.812  1.00  0.00     0.021 A 
ATOM     23  C   UNL A   1      31.515  28.244  27.739  1.00  0.00     0.002 A 
ATOM     24  C   UNL A   1      32.512  29.766  27.446  1.00  0.00     0.002 A 
ENDBRANCH  12  13
ENDBRANCH  11  12
ENDBRANCH   9  11
ENDBRANCH   6   7
BRANCH   6  25
ATOM     25  C   UNL A   1      35.724  20.844  25.848  1.00  0.00     0.074 C 
BRANCH  25  26
ATOM     26  C   UNL A   1      34.343  20.386  25.365  1.00  0.00    -0.020 A 
ATOM     27  C   UNL A   1      33.118  21.026  25.419  1.00  0.00     0.087 A 
ATOM     28  C   UNL A   1      34.092  19.138  24.651  1.00  0.00     0.003 A 
ATOM     29  N   UNL A   1      32.221  20.335  24.634  1.00  0.00    -0.361 N 
ATOM     30  C   UNL A   1      32.785  19.175  24.158  1.00  0.00     0.046 A 
ATOM     31  C   UNL A   1      34.881  18.011  24.319  1.00  0.00     0.010 A 
ATOM     32  H   UNL A   1      31.303  20.631  24.440  1.00  0.00     0.166 HD
ATOM     33  C   UNL A   1      32.251  18.180  23.320  1.00  0.00     0.026 A 
ATOM     34  C   UNL A   1      34.351  16.988  23.519  1.00  0.00     0.001 A 
ATOM     35  C   UNL A   1      33.059  17.081  23.011  1.00  0.00     0.002 A 
ENDBRANCH  25  26
ENDBRANCH   6  25
ENDBRANCH   4   6
ENDBRANCH   3   4
ENDBRANCH   2   3
ENDBRANCH   1   2
BRANCH   1  36
ATOM     36  O   UNL A   1      42.677  19.989  25.380  1.00  0.00    -0.374 OA
BRANCH  36  37
ATOM     37  C   UNL A   1      44.064  19.835  25.621  1.00  0.00     0.202 C 
BRANCH  37  38
ATOM     38  C   UNL A   1      44.919  21.091  25.395  1.00  0.00     0.261 C 
BRANCH  38  39
ATOM     39  O   UNL A   1      44.330  22.242  25.990  1.00  0.00    -0.460 OA
BRANCH  39  40
ATOM     40  C   UNL A   1      43.738  23.090  25.120  1.00  0.00     0.338 C 
ATOM     41  O   UNL A   1      43.121  22.823  24.099  1.00  0.00    -0.246 OA
BRANCH  40  42
ATOM     42  C   UNL A   1      43.625  24.345  25.864  1.00  0.00     0.060 A 
ATOM     43  C   UNL A   1      44.223  24.496  27.121  1.00  0.00     0.016 A 
ATOM     44  C   UNL A   1      42.649  25.232  25.398  1.00  0.00     0.016 A 
ATOM     45  C   UNL A   1      43.752  25.493  27.961  1.00  0.00     0.010 A 
ATOM     46  C   UNL A   1      42.163  26.208  26.249  1.00  0.00     0.010 A 
ATOM     47  C   UNL A   1      42.688  26.313  27.540  1.00  0.00    -0.014 A 
BRANCH  47  48
ATOM     48  C   UNL A   1      42.418  27.522  28.317  1.00  0.00     0.031 A 
ATOM     49  C   UNL A   1      43.508  28.494  28.055  1.00  0.00     0.074 A 
ATOM     50  C   UNL A   1      41.310  27.797  29.039  1.00  0.00     0.049 A 
ATOM     51  N   UNL A   1      44.463  28.829  28.857  1.00  0.00    -0.248 NA
ATOM     52  C   UNL A   1      43.728  28.931  26.659  1.00  0.00     0.031 C 
ATOM     53  C   UNL A   1      40.078  27.009  29.086  1.00  0.00     0.029 A 
ATOM     54  N   UNL A   1      41.002  28.899  29.807  1.00  0.00    -0.354 N 
ATOM     55  C   UNL A   1      45.216  29.747  28.136  1.00  0.00     0.074 A 
ATOM     56  C   UNL A   1      44.911  29.539  26.751  1.00  0.00     0.031 C 
ATOM     57  C   UNL A   1      39.094  27.741  29.655  1.00  0.00     0.029 A 
ATOM     58  C   UNL A   1      39.639  29.008  30.111  1.00  0.00     0.049 A 
ATOM     59  H   UNL A   1      41.677  29.549  30.114  1.00  0.00     0.167 HD
ATOM     60  C   UNL A   1      45.670  30.870  28.754  1.00  0.00     0.037 A 
ATOM     61  C   UNL A   1      39.003  30.093  30.632  1.00  0.00     0.037 A 
ATOM     62  C   UNL A   1      45.630  30.713  30.183  1.00  0.00     0.049 A 
ATOM     63  C   UNL A   1      40.022  30.958  31.276  1.00  0.00     0.074 A 
ATOM     64  C   UNL A   1      46.377  30.050  31.130  1.00  0.00     0.029 A 
ATOM     65  N   UNL A   1      44.392  30.931  30.725  1.00  0.00    -0.354 N 
ATOM     66  N   UNL A   1      40.632  30.656  32.385  1.00  0.00    -0.248 NA
ATOM     67  C   UNL A   1      40.639  32.026  30.497  1.00  0.00     0.031 C 
ATOM     68  C   UNL A   1      45.513  29.833  32.244  1.00  0.00     0.029 A 
ATOM     69  C   UNL A   1      44.283  30.438  31.998  1.00  0.00     0.049 A 
ATOM     70  H   UNL A   1      43.661  31.392  30.252  1.00  0.00     0.167 HD
ATOM     71  C   UNL A   1      41.917  31.117  32.195  1.00  0.00     0.074 A 
ATOM     72  C   UNL A   1      41.815  32.103  31.125  1.00  0.00     0.031 C 
ATOM     73  C   UNL A   1      42.990  30.414  32.661  1.00  0.00     0.037 A 
BRANCH  60  74
ATOM     74  C   UNL A   1      45.646  32.237  28.109  1.00  0.00     0.064 A 
ATOM     75  C   UNL A   1      44.410  32.818  27.775  1.00  0.00     0.173 A 
ATOM     76  C   UNL A   1      46.782  32.880  27.563  1.00  0.00     0.173 A 
ATOM     77  F   UNL A   1      43.262  32.261  28.189  1.00  0.00    -0.203 F 
ATOM     78  C   UNL A   1      44.323  33.946  26.950  1.00  0.00     0.198 A 
ATOM     79  C   UNL A   1      46.698  34.036  26.794  1.00  0.00     0.198 A 
ATOM     80  F   UNL A   1      48.012  32.359  27.646  1.00  0.00    -0.203 F 
ATOM     81  F   UNL A   1      43.123  34.410  26.580  1.00  0.00    -0.200 F 
ATOM     82  C   UNL A   1      45.467  34.559  26.469  1.00  0.00     0.200 A 
ATOM     83  F   UNL A   1      47.820  34.591  26.313  1.00  0.00    -0.200 F 
ATOM     84  F   UNL A   1      45.386  35.619  25.654  1.00  0.00    -0.200 F 
ENDBRANCH  60  74
BRANCH  61  85
ATOM     85  C   UNL A   1      37.621  30.596  30.395  1.00  0.00     0.064 A 
ATOM     86  C   UNL A   1      36.787  30.985  31.463  1.00  0.00     0.173 A 
ATOM     87  C   UNL A   1      37.209  31.001  29.113  1.00  0.00     0.173 A 
ATOM     88  F   UNL A   1      37.110  30.670  32.725  1.00  0.00    -0.203 F 
ATOM     89  C   UNL A   1      35.648  31.776  31.262  1.00  0.00     0.198 A 
ATOM     90  C   UNL A   1      36.070  31.786  28.913  1.00  0.00     0.198 A 
ATOM     91  F   UNL A   1      37.956  30.733  28.033  1.00  0.00    -0.203 F 
ATOM     92  F   UNL A   1      34.924  32.192  32.311  1.00  0.00    -0.200 F 
ATOM     93  C   UNL A   1      35.302  32.192  29.988  1.00  0.00     0.200 A 
ATOM     94  F   UNL A   1      35.765  32.206  27.677  1.00  0.00    -0.200 F 
ATOM     95  F   UNL A   1      34.261  33.015  29.799  1.00  0.00    -0.200 F 
ENDBRANCH  61  85
BRANCH  73  96
ATOM     96  C   UNL A   1      42.789  29.469  33.817  1.00  0.00     0.064 A 
ATOM     97  C   UNL A   1      43.025  29.773  35.167  1.00  0.00     0.173 A 
ATOM     98  C   UNL A   1      42.244  28.206  33.541  1.00  0.00     0.173 A 
ATOM     99  F   UNL A   1      43.540  30.956  35.534  1.00  0.00    -0.203 F 
ATOM    100  C   UNL A   1      42.689  28.874  36.185  1.00  0.00     0.198 A 
ATOM    101  C   UNL A   1      41.877  27.327  34.555  1.00  0.00     0.198 A 
ATOM    102  F   UNL A   1      42.035  27.824  32.270  1.00  0.00    -0.203 F 
ATOM    103  F   UNL A   1      42.914  29.190  37.470  1.00  0.00    -0.200 F 
ATOM    104  C   UNL A   1      42.089  27.666  35.879  1.00  0.00     0.200 A 
ATOM    105  F   UNL A   1      41.309  26.153  34.246  1.00  0.00    -0.200 F 
ATOM    106  F   UNL A   1      41.720  26.826  36.856  1.00  0.00    -0.200 F 
ENDBRANCH  73  96
ENDBRANCH  47  48
ENDBRANCH  40  42
ENDBRANCH  39  40
ENDBRANCH  38  39
ENDBRANCH  37  38
ENDBRANCH  36  37
ENDBRANCH   1  36
TORSDOF 20
ENDMDL
MODEL 3
REMARK VINA RESULT:     -12.9      5.856     11.735
REMARK SMILES O=C(CSc1nnc2sc3ccccc3n12)N[C@H](Cc1c[nH]c2ccccc12)C(=O)OCCOCCOC(=O)c1ccc(-c2c3nc(c(-c4c(F)c(F)c(F)c(F)c4F)c4ccc([nH]4)c(-c4c(F)c(F)c(F)c(F)c4F)c4nc(c(-c5c(F)c(F)c(F)c(F)c5F)c5ccc2[nH]5)C=C4)C=C3)cc1
REMARK SMILES IDX 33 1 32 2 31 3 29 4 30 5 18 6 17 7 1 8 2 9 3 11 4 12 5 13
REMARK SMILES IDX 6 14 16 15 7 16 8 17 15 18 9 19 10 20 14 21 11 22 13 23
REMARK SMILES IDX 12 24 19 25 20 26 21 27 28 28 22 29 23 30 27 31 24 33 26 34
REMARK SMILES IDX 25 35 34 36 35 37 36 38 37 39 38 40 39 41 40 42 41 43 102 44
REMARK SMILES IDX 42 45 101 46 43 47 44 48 45 49 95 50 46 51 100 52 94 53
REMARK SMILES IDX 96 54 47 55 99 56 93 57 92 58 48 60 80 61 60 62 79 63 61 64
REMARK SMILES IDX 64 65 78 66 97 67 62 68 63 69 77 71 98 72 65 73 49 74 50 75
REMARK SMILES IDX 58 76 51 77 52 78 56 79 59 80 53 81 54 82 57 83 55 84 81 85
REMARK SMILES IDX 82 86 90 87 83 88 84 89 88 90 91 91 85 92 86 93 89 94 87 95
REMARK SMILES IDX 66 96 67 97 75 98 68 99 69 100 73 101 76 102 70 103 71 104
REMARK SMILES IDX 74 105 72 106
REMARK H PARENT 17 10 22 32 96 59 64 70
REMARK Flexibility Score: inf
ROOT
ATOM      1  C   UNL A   1      47.296  31.358  26.689  1.00  0.00     0.202 C 
ENDROOT
BRANCH   1   2
ATOM      2  C   UNL A   1      46.035  30.612  26.240  1.00  0.00     0.261 C 
BRANCH   2   3
ATOM      3  O   UNL A   1      46.255  28.979  25.826  1.00  0.00    -0.462 OA
BRANCH   3   4
ATOM      4  C   UNL A   1      45.745  27.285  25.194  1.00  0.00     0.329 C 
ATOM      5  O   UNL A   1      44.534  26.978  25.026  1.00  0.00    -0.250 OA
BRANCH   4   6
ATOM      6  C   UNL A   1      46.778  25.870  25.054  1.00  0.00     0.196 C 
BRANCH   6   7
ATOM      7  N   UNL A   1      46.038  24.647  25.646  1.00  0.00    -0.342 N 
ATOM      8  O   UNL A   1      45.454  23.576  23.712  1.00  0.00    -0.274 OA
ATOM      9  C   UNL A   1      45.682  23.522  24.924  1.00  0.00     0.231 C 
ATOM     10  H   UNL A   1      45.803  24.671  26.601  1.00  0.00     0.164 HD
BRANCH   9  11
ATOM     11  C   UNL A   1      45.621  22.140  25.580  1.00  0.00     0.178 C 
BRANCH  11  12
ATOM     12  S   UNL A   1      44.877  20.779  24.681  1.00  0.00    -0.076 SA
BRANCH  12  13
ATOM     13  C   UNL A   1      43.946  19.853  25.842  1.00  0.00     0.197 A 
ATOM     14  N   UNL A   1      43.981  18.537  25.988  1.00  0.00    -0.122 NA
ATOM     15  N   UNL A   1      42.673  20.227  26.097  1.00  0.00    -0.260 N 
ATOM     16  N   UNL A   1      42.650  18.090  26.127  1.00  0.00    -0.118 NA
ATOM     17  C   UNL A   1      41.879  19.136  25.960  1.00  0.00     0.217 A 
ATOM     18  C   UNL A   1      42.071  21.412  26.328  1.00  0.00     0.068 A 
ATOM     19  S   UNL A   1      40.145  19.396  25.747  1.00  0.00    -0.094 S 
ATOM     20  C   UNL A   1      40.339  21.205  25.936  1.00  0.00     0.055 A 
ATOM     21  C   UNL A   1      42.670  22.692  27.430  1.00  0.00     0.028 A 
ATOM     22  C   UNL A   1      39.138  22.419  26.504  1.00  0.00     0.021 A 
ATOM     23  C   UNL A   1      41.466  23.943  28.019  1.00  0.00     0.002 A 
ATOM     24  C   UNL A   1      39.701  23.830  27.501  1.00  0.00     0.002 A 
ENDBRANCH  12  13
ENDBRANCH  11  12
ENDBRANCH   9  11
ENDBRANCH   6   7
BRANCH   6  25
ATOM     25  C   UNL A   1      48.365  25.726  24.953  1.00  0.00     0.074 C 
BRANCH  25  26
ATOM     26  C   UNL A   1      49.327  26.750  24.341  1.00  0.00    -0.020 A 
ATOM     27  C   UNL A   1      50.320  27.511  24.933  1.00  0.00     0.087 A 
ATOM     28  C   UNL A   1      49.408  27.056  22.916  1.00  0.00     0.003 A 
ATOM     29  N   UNL A   1      51.084  28.090  23.943  1.00  0.00    -0.361 N 
ATOM     30  C   UNL A   1      50.548  27.835  22.704  1.00  0.00     0.046 A 
ATOM     31  C   UNL A   1      48.654  26.682  21.779  1.00  0.00     0.010 A 
ATOM     32  H   UNL A   1      51.903  28.614  24.103  1.00  0.00     0.166 HD
ATOM     33  C   UNL A   1      50.994  28.213  21.424  1.00  0.00     0.026 A 
ATOM     34  C   UNL A   1      49.061  27.084  20.498  1.00  0.00     0.001 A 
ATOM     35  C   UNL A   1      50.226  27.824  20.322  1.00  0.00     0.002 A 
ENDBRANCH  25  26
ENDBRANCH   6  25
ENDBRANCH   4   6
ENDBRANCH   3   4
ENDBRANCH   2   3
ENDBRANCH   1   2
BRANCH   1  36
ATOM     36  O   UNL A   1      47.734  32.603  26.126  1.00  0.00    -0.374 OA
BRANCH  36  37
ATOM     37  C   UNL A   1      48.658  33.465  26.766  1.00  0.00     0.202 C 
BRANCH  37  38
ATOM     38  C   UNL A   1      48.527  34.954  26.415  1.00  0.00     0.261 C 
BRANCH  38  39
ATOM     39  O   UNL A   1      47.165  35.355  26.322  1.00  0.00    -0.460 OA
BRANCH  39  40
ATOM     40  C   UNL A   1      46.658  35.905  27.448  1.00  0.00     0.338 C 
ATOM     41  O   UNL A   1      46.634  37.082  27.775  1.00  0.00    -0.246 OA
BRANCH  40  42
ATOM     42  C   UNL A   1      45.780  34.866  27.988  1.00  0.00     0.060 A 
ATOM     43  C   UNL A   1      44.811  34.251  27.188  1.00  0.00     0.016 A 
ATOM     44  C   UNL A   1      45.760  34.764  29.383  1.00  0.00     0.016 A 
ATOM     45  C   UNL A   1      43.746  33.615  27.809  1.00  0.00     0.010 A 
ATOM     46  C   UNL A   1      44.684  34.153  29.999  1.00  0.00     0.010 A 
ATOM     47  C   UNL A   1      43.662  33.613  29.214  1.00  0.00    -0.014 A 
BRANCH  47  48
ATOM     48  C   UNL A   1      42.703  32.698  29.832  1.00  0.00     0.031 A 
ATOM     49  C   UNL A   1      43.124  31.309  29.522  1.00  0.00     0.074 A 
ATOM     50  C   UNL A   1      41.689  33.018  30.666  1.00  0.00     0.049 A 
ATOM     51  N   UNL A   1      42.565  30.492  28.693  1.00  0.00    -0.248 NA
ATOM     52  C   UNL A   1      44.466  30.874  29.966  1.00  0.00     0.031 C 
ATOM     53  C   UNL A   1      41.417  34.333  31.246  1.00  0.00     0.029 A 
ATOM     54  N   UNL A   1      40.742  32.214  31.261  1.00  0.00    -0.354 N 
ATOM     55  C   UNL A   1      43.344  29.343  28.758  1.00  0.00     0.074 A 
ATOM     56  C   UNL A   1      44.615  29.733  29.293  1.00  0.00     0.031 C 
ATOM     57  C   UNL A   1      40.528  34.206  32.257  1.00  0.00     0.029 A 
ATOM     58  C   UNL A   1      40.083  32.826  32.335  1.00  0.00     0.049 A 
ATOM     59  H   UNL A   1      40.548  31.295  30.961  1.00  0.00     0.167 HD
ATOM     60  C   UNL A   1      42.737  28.127  28.791  1.00  0.00     0.037 A 
ATOM     61  C   UNL A   1      39.289  32.217  33.258  1.00  0.00     0.037 A 
ATOM     62  C   UNL A   1      41.376  28.227  28.336  1.00  0.00     0.049 A 
ATOM     63  C   UNL A   1      38.835  30.923  32.694  1.00  0.00     0.074 A 
ATOM     64  C   UNL A   1      40.742  28.363  27.122  1.00  0.00     0.029 A 
ATOM     65  N   UNL A   1      40.507  28.672  29.297  1.00  0.00    -0.354 N 
ATOM     66  N   UNL A   1      37.968  30.817  31.729  1.00  0.00    -0.248 NA
ATOM     67  C   UNL A   1      39.615  29.720  32.963  1.00  0.00     0.031 C 
ATOM     68  C   UNL A   1      39.475  28.959  27.394  1.00  0.00     0.029 A 
ATOM     69  C   UNL A   1      39.318  29.100  28.771  1.00  0.00     0.049 A 
ATOM     70  H   UNL A   1      40.714  28.682  30.260  1.00  0.00     0.167 HD
ATOM     71  C   UNL A   1      38.431  29.758  30.979  1.00  0.00     0.074 A 
ATOM     72  C   UNL A   1      39.312  29.013  31.872  1.00  0.00     0.031 C 
ATOM     73  C   UNL A   1      38.348  29.774  29.617  1.00  0.00     0.037 A 
BRANCH  60  74
ATOM     74  C   UNL A   1      43.185  27.001  29.696  1.00  0.00     0.064 A 
ATOM     75  C   UNL A   1      43.143  27.180  31.089  1.00  0.00     0.173 A 
ATOM     76  C   UNL A   1      43.904  25.864  29.255  1.00  0.00     0.173 A 
ATOM     77  F   UNL A   1      42.538  28.255  31.619  1.00  0.00    -0.203 F 
ATOM     78  C   UNL A   1      43.780  26.295  31.967  1.00  0.00     0.198 A 
ATOM     79  C   UNL A   1      44.484  24.953  30.131  1.00  0.00     0.198 A 
ATOM     80  F   UNL A   1      44.180  25.645  27.964  1.00  0.00    -0.203 F 
ATOM     81  F   UNL A   1      43.794  26.555  33.280  1.00  0.00    -0.200 F 
ATOM     82  C   UNL A   1      44.441  25.178  31.488  1.00  0.00     0.200 A 
ATOM     83  F   UNL A   1      45.147  23.896  29.638  1.00  0.00    -0.200 F 
ATOM     84  F   UNL A   1      45.078  24.347  32.323  1.00  0.00    -0.200 F 
ENDBRANCH  60  74
BRANCH  61  85
ATOM     85  C   UNL A   1      39.095  32.524  34.703  1.00  0.00     0.064 A 
ATOM     86  C   UNL A   1      40.188  32.817  35.545  1.00  0.00     0.173 A 
ATOM     87  C   UNL A   1      37.824  32.845  35.212  1.00  0.00     0.173 A 
ATOM     88  F   UNL A   1      41.442  32.572  35.139  1.00  0.00    -0.203 F 
ATOM     89  C   UNL A   1      40.018  33.443  36.788  1.00  0.00     0.198 A 
ATOM     90  C   UNL A   1      37.655  33.465  36.452  1.00  0.00     0.198 A 
ATOM     91  F   UNL A   1      36.721  32.660  34.473  1.00  0.00    -0.203 F 
ATOM     92  F   UNL A   1      41.088  33.776  37.524  1.00  0.00    -0.200 F 
ATOM     93  C   UNL A   1      38.752  33.784  37.231  1.00  0.00     0.200 A 
ATOM     94  F   UNL A   1      36.426  33.817  36.854  1.00  0.00    -0.200 F 
ATOM     95  F   UNL A   1      38.591  34.455  38.380  1.00  0.00    -0.200 F 
ENDBRANCH  61  85
BRANCH  73  96
ATOM     96  C   UNL A   1      37.301  30.639  28.966  1.00  0.00     0.064 A 
ATOM     97  C   UNL A   1      36.062  30.191  28.479  1.00  0.00     0.173 A 
ATOM     98  C   UNL A   1      37.536  32.022  28.912  1.00  0.00     0.173 A 
ATOM     99  F   UNL A   1      35.740  28.889  28.492  1.00  0.00    -0.203 F 
ATOM    100  C   UNL A   1      35.098  31.088  28.005  1.00  0.00     0.198 A 
ATOM    101  C   UNL A   1      36.564  32.916  28.474  1.00  0.00     0.198 A 
ATOM    102  F   UNL A   1      38.716  32.521  29.315  1.00  0.00    -0.203 F 
ATOM    103  F   UNL A   1      33.917  30.638  27.554  1.00  0.00    -0.200 F 
ATOM    104  C   UNL A   1      35.340  32.449  28.032  1.00  0.00     0.200 A 
ATOM    105  F   UNL A   1      36.815  34.232  28.491  1.00  0.00    -0.200 F 
ATOM    106  F   UNL A   1      34.398  33.313  27.626  1.00  0.00    -0.200 F 
ENDBRANCH  73  96
ENDBRANCH  47  48
ENDBRANCH  40  42
ENDBRANCH  39  40
ENDBRANCH  38  39
ENDBRANCH  37  38
ENDBRANCH  36  37
ENDBRANCH   1  36
TORSDOF 20
ENDMDL
