MODEL 1
REMARK VINA RESULT:     -11.5      0.000      0.000
REMARK SMILES O=C(OCCOCCOC(=O)[C@H]1CCC(=O)N(C[C@@H]2COc3ccccc32)C1)c1ccc(-c2c3nc(c(-c4c(F)c(F)c(F)c(F)c4F)c4ccc([nH]4)c(-c4c(F)c(F)c(F)c(F)c4F)c4nc(c(-c5c(F)c(F)c(F)c(F)c5F)c5ccc2[nH]5)C=C4)C=C3)cc1
REMARK SMILES IDX 6 1 5 2 4 3 3 4 2 5 1 6 29 7 30 8 91 9 31 10 90 11 32 12
REMARK SMILES IDX 33 13 34 14 84 15 35 16 89 17 83 18 85 19 36 20 88 21 82 22
REMARK SMILES IDX 81 23 37 25 69 26 49 27 68 28 50 29 53 30 67 31 86 32 51 33
REMARK SMILES IDX 52 34 66 36 87 37 54 38 38 39 39 40 47 41 40 42 41 43 45 44
REMARK SMILES IDX 48 45 42 46 43 47 46 48 44 49 70 50 71 51 79 52 72 53 73 54
REMARK SMILES IDX 77 55 80 56 74 57 75 58 78 59 76 60 55 61 56 62 64 63 57 64
REMARK SMILES IDX 58 65 62 66 65 67 59 68 60 69 63 70 61 71 7 72 8 73 9 74
REMARK SMILES IDX 10 75 11 76 12 77 13 78 28 79 14 80 17 81 15 82 16 83 18 84
REMARK SMILES IDX 19 85 20 86 27 87 21 88 22 89 26 90 23 91 25 92 24 93
REMARK H PARENT 85 24 53 35
REMARK Flexibility Score: inf
ROOT
ATOM      1  O   UNL A   1      40.352  21.376  25.628  1.00  0.00    -0.374 OA
ENDROOT
BRANCH   1   2
ATOM      2  C   UNL A   1      41.455  20.717  26.255  1.00  0.00     0.202 C 
BRANCH   2   3
ATOM      3  C   UNL A   1      42.815  21.206  25.760  1.00  0.00     0.261 C 
BRANCH   3   4
ATOM      4  O   UNL A   1      42.672  22.416  25.006  1.00  0.00    -0.460 OA
BRANCH   4   5
ATOM      5  C   UNL A   1      43.192  23.635  25.274  1.00  0.00     0.338 C 
ATOM      6  O   UNL A   1      44.124  24.030  24.574  1.00  0.00    -0.246 OA
BRANCH   5   7
ATOM      7  C   UNL A   1      42.697  24.558  26.346  1.00  0.00     0.060 A 
ATOM      8  C   UNL A   1      41.878  24.212  27.427  1.00  0.00     0.016 A 
ATOM      9  C   UNL A   1      43.197  25.872  26.304  1.00  0.00     0.016 A 
ATOM     10  C   UNL A   1      41.559  25.128  28.423  1.00  0.00     0.010 A 
ATOM     11  C   UNL A   1      42.894  26.796  27.307  1.00  0.00     0.010 A 
ATOM     12  C   UNL A   1      42.071  26.419  28.370  1.00  0.00    -0.014 A 
BRANCH  12  13
ATOM     13  C   UNL A   1      41.680  27.374  29.418  1.00  0.00     0.031 A 
ATOM     14  C   UNL A   1      42.518  27.461  30.651  1.00  0.00     0.074 A 
ATOM     15  C   UNL A   1      40.638  28.196  29.204  1.00  0.00     0.049 A 
ATOM     16  N   UNL A   1      42.333  28.176  31.727  1.00  0.00    -0.248 NA
ATOM     17  C   UNL A   1      43.742  26.642  30.671  1.00  0.00     0.031 C 
ATOM     18  C   UNL A   1      39.839  28.241  27.978  1.00  0.00     0.029 A 
ATOM     19  N   UNL A   1      40.079  29.156  30.004  1.00  0.00    -0.354 N 
ATOM     20  C   UNL A   1      43.400  27.876  32.560  1.00  0.00     0.074 A 
ATOM     21  C   UNL A   1      44.238  26.923  31.867  1.00  0.00     0.031 C 
ATOM     22  C   UNL A   1      38.888  29.180  28.109  1.00  0.00     0.029 A 
ATOM     23  C   UNL A   1      38.976  29.756  29.447  1.00  0.00     0.049 A 
ATOM     24  H   UNL A   1      40.432  29.393  30.892  1.00  0.00     0.167 HD
ATOM     25  C   UNL A   1      43.639  28.352  33.803  1.00  0.00     0.037 A 
ATOM     26  C   UNL A   1      38.116  30.640  29.987  1.00  0.00     0.037 A 
ATOM     27  C   UNL A   1      42.782  29.296  34.466  1.00  0.00     0.049 A 
ATOM     28  C   UNL A   1      38.360  31.082  31.407  1.00  0.00     0.074 A 
ATOM     29  C   UNL A   1      42.899  29.831  35.734  1.00  0.00     0.029 A 
ATOM     30  N   UNL A   1      41.636  29.841  33.899  1.00  0.00    -0.354 N 
ATOM     31  N   UNL A   1      39.352  30.774  32.209  1.00  0.00    -0.248 NA
ATOM     32  C   UNL A   1      37.356  31.970  32.007  1.00  0.00     0.031 C 
ATOM     33  C   UNL A   1      41.798  30.666  35.952  1.00  0.00     0.029 A 
ATOM     34  C   UNL A   1      41.018  30.684  34.806  1.00  0.00     0.049 A 
ATOM     35  H   UNL A   1      41.314  29.656  32.989  1.00  0.00     0.167 HD
ATOM     36  C   UNL A   1      39.095  31.428  33.404  1.00  0.00     0.074 A 
ATOM     37  C   UNL A   1      37.868  32.176  33.211  1.00  0.00     0.031 C 
ATOM     38  C   UNL A   1      39.794  31.405  34.565  1.00  0.00     0.037 A 
BRANCH  25  39
ATOM     39  C   UNL A   1      44.824  27.804  34.534  1.00  0.00     0.064 A 
ATOM     40  C   UNL A   1      44.740  26.644  35.318  1.00  0.00     0.173 A 
ATOM     41  C   UNL A   1      46.063  28.455  34.449  1.00  0.00     0.173 A 
ATOM     42  F   UNL A   1      43.571  26.003  35.453  1.00  0.00    -0.203 F 
ATOM     43  C   UNL A   1      45.855  26.165  36.003  1.00  0.00     0.198 A 
ATOM     44  C   UNL A   1      47.179  27.962  35.119  1.00  0.00     0.198 A 
ATOM     45  F   UNL A   1      46.188  29.574  33.720  1.00  0.00    -0.203 F 
ATOM     46  F   UNL A   1      45.747  25.078  36.779  1.00  0.00    -0.200 F 
ATOM     47  C   UNL A   1      47.073  26.821  35.899  1.00  0.00     0.200 A 
ATOM     48  F   UNL A   1      48.354  28.599  35.018  1.00  0.00    -0.200 F 
ATOM     49  F   UNL A   1      48.144  26.359  36.560  1.00  0.00    -0.200 F 
ENDBRANCH  25  39
BRANCH  26  50
ATOM     50  C   UNL A   1      36.924  31.099  29.226  1.00  0.00     0.064 A 
ATOM     51  C   UNL A   1      35.863  30.230  28.935  1.00  0.00     0.173 A 
ATOM     52  C   UNL A   1      36.834  32.415  28.744  1.00  0.00     0.173 A 
ATOM     53  F   UNL A   1      35.909  28.955  29.349  1.00  0.00    -0.203 F 
ATOM     54  C   UNL A   1      34.772  30.652  28.175  1.00  0.00     0.198 A 
ATOM     55  C   UNL A   1      35.729  32.845  28.012  1.00  0.00     0.198 A 
ATOM     56  F   UNL A   1      37.823  33.289  28.986  1.00  0.00    -0.203 F 
ATOM     57  F   UNL A   1      33.800  29.785  27.865  1.00  0.00    -0.200 F 
ATOM     58  C   UNL A   1      34.703  31.960  27.719  1.00  0.00     0.200 A 
ATOM     59  F   UNL A   1      35.664  34.113  27.583  1.00  0.00    -0.200 F 
ATOM     60  F   UNL A   1      33.657  32.364  26.985  1.00  0.00    -0.200 F 
ENDBRANCH  26  50
BRANCH  38  61
ATOM     61  C   UNL A   1      39.242  32.208  35.702  1.00  0.00     0.064 A 
ATOM     62  C   UNL A   1      38.370  31.632  36.637  1.00  0.00     0.173 A 
ATOM     63  C   UNL A   1      39.629  33.542  35.886  1.00  0.00     0.173 A 
ATOM     64  F   UNL A   1      37.961  30.364  36.488  1.00  0.00    -0.203 F 
ATOM     65  C   UNL A   1      37.893  32.374  37.713  1.00  0.00     0.198 A 
ATOM     66  C   UNL A   1      39.170  34.272  36.977  1.00  0.00     0.198 A 
ATOM     67  F   UNL A   1      40.466  34.129  35.017  1.00  0.00    -0.203 F 
ATOM     68  F   UNL A   1      37.032  31.818  38.576  1.00  0.00    -0.200 F 
ATOM     69  C   UNL A   1      38.299  33.688  37.887  1.00  0.00     0.200 A 
ATOM     70  F   UNL A   1      39.573  35.538  37.151  1.00  0.00    -0.200 F 
ATOM     71  F   UNL A   1      37.848  34.397  38.930  1.00  0.00    -0.200 F 
ENDBRANCH  38  61
ENDBRANCH  12  13
ENDBRANCH   5   7
ENDBRANCH   4   5
ENDBRANCH   3   4
ENDBRANCH   2   3
ENDBRANCH   1   2
BRANCH   1  72
ATOM     72  C   UNL A   1      39.278  21.757  26.499  1.00  0.00     0.202 C 
BRANCH  72  73
ATOM     73  C   UNL A   1      38.368  22.756  25.786  1.00  0.00     0.261 C 
BRANCH  73  74
ATOM     74  O   UNL A   1      37.022  22.278  25.908  1.00  0.00    -0.463 OA
BRANCH  74  75
ATOM     75  C   UNL A   1      36.272  22.454  24.784  1.00  0.00     0.310 C 
ATOM     76  O   UNL A   1      36.684  22.365  23.639  1.00  0.00    -0.252 OA
BRANCH  75  77
ATOM     77  C   UNL A   1      34.806  22.644  25.121  1.00  0.00     0.119 C 
ATOM     78  C   UNL A   1      34.342  21.941  26.386  1.00  0.00     0.027 C 
ATOM     79  C   UNL A   1      34.577  24.134  25.228  1.00  0.00     0.134 C 
ATOM     80  C   UNL A   1      32.865  22.219  26.576  1.00  0.00     0.101 C 
ATOM     81  N   UNL A   1      33.387  24.563  25.953  1.00  0.00    -0.341 N 
ATOM     82  C   UNL A   1      32.547  23.698  26.641  1.00  0.00     0.222 C 
ATOM     83  O   UNL A   1      31.544  24.076  27.246  1.00  0.00    -0.275 OA
BRANCH  81  84
ATOM     84  C   UNL A   1      33.190  26.015  26.099  1.00  0.00     0.131 C 
BRANCH  84  85
ATOM     85  C   UNL A   1      33.189  26.821  24.779  1.00  0.00     0.080 C 
ATOM     86  C   UNL A   1      33.782  28.239  24.912  1.00  0.00     0.239 C 
ATOM     87  C   UNL A   1      31.850  27.150  24.222  1.00  0.00     0.002 A 
ATOM     88  O   UNL A   1      32.839  29.230  24.434  1.00  0.00    -0.493 OA
ATOM     89  C   UNL A   1      31.723  28.522  24.083  1.00  0.00     0.122 A 
ATOM     90  C   UNL A   1      30.789  26.309  23.925  1.00  0.00     0.008 A 
ATOM     91  C   UNL A   1      30.539  29.108  23.681  1.00  0.00     0.047 A 
ATOM     92  C   UNL A   1      29.580  26.881  23.522  1.00  0.00     0.001 A 
ATOM     93  C   UNL A   1      29.454  28.274  23.405  1.00  0.00     0.004 A 
ENDBRANCH  84  85
ENDBRANCH  81  84
ENDBRANCH  75  77
ENDBRANCH  74  75
ENDBRANCH  73  74
ENDBRANCH  72  73
ENDBRANCH   1  72
TORSDOF 16
ENDMDL
MODEL 2
REMARK VINA RESULT:     -11.5      4.570      8.614
REMARK SMILES O=C(OCCOCCOC(=O)[C@H]1CCC(=O)N(C[C@@H]2COc3ccccc32)C1)c1ccc(-c2c3nc(c(-c4c(F)c(F)c(F)c(F)c4F)c4ccc([nH]4)c(-c4c(F)c(F)c(F)c(F)c4F)c4nc(c(-c5c(F)c(F)c(F)c(F)c5F)c5ccc2[nH]5)C=C4)C=C3)cc1
REMARK SMILES IDX 6 1 5 2 4 3 3 4 2 5 1 6 29 7 30 8 91 9 31 10 90 11 32 12
REMARK SMILES IDX 33 13 34 14 84 15 35 16 89 17 83 18 85 19 36 20 88 21 82 22
REMARK SMILES IDX 81 23 37 25 69 26 49 27 68 28 50 29 53 30 67 31 86 32 51 33
REMARK SMILES IDX 52 34 66 36 87 37 54 38 38 39 39 40 47 41 40 42 41 43 45 44
REMARK SMILES IDX 48 45 42 46 43 47 46 48 44 49 70 50 71 51 79 52 72 53 73 54
REMARK SMILES IDX 77 55 80 56 74 57 75 58 78 59 76 60 55 61 56 62 64 63 57 64
REMARK SMILES IDX 58 65 62 66 65 67 59 68 60 69 63 70 61 71 7 72 8 73 9 74
REMARK SMILES IDX 10 75 11 76 12 77 13 78 28 79 14 80 17 81 15 82 16 83 18 84
REMARK SMILES IDX 19 85 20 86 27 87 21 88 22 89 26 90 23 91 25 92 24 93
REMARK H PARENT 85 24 53 35
REMARK Flexibility Score: inf
ROOT
ATOM      1  O   UNL A   1      34.774  19.478  24.647  1.00  0.00    -0.374 OA
ENDROOT
BRANCH   1   2
ATOM      2  C   UNL A   1      35.419  20.698  25.018  1.00  0.00     0.202 C 
BRANCH   2   3
ATOM      3  C   UNL A   1      36.939  20.653  24.858  1.00  0.00     0.261 C 
BRANCH   3   4
ATOM      4  O   UNL A   1      37.573  21.490  25.832  1.00  0.00    -0.460 OA
BRANCH   4   5
ATOM      5  C   UNL A   1      38.873  21.501  26.206  1.00  0.00     0.338 C 
ATOM      6  O   UNL A   1      39.496  20.441  26.153  1.00  0.00    -0.246 OA
BRANCH   5   7
ATOM      7  C   UNL A   1      39.624  22.720  26.653  1.00  0.00     0.060 A 
ATOM      8  C   UNL A   1      40.686  22.752  27.563  1.00  0.00     0.016 A 
ATOM      9  C   UNL A   1      39.282  23.922  26.008  1.00  0.00     0.016 A 
ATOM     10  C   UNL A   1      41.380  23.927  27.833  1.00  0.00     0.010 A 
ATOM     11  C   UNL A   1      39.982  25.105  26.261  1.00  0.00     0.010 A 
ATOM     12  C   UNL A   1      41.035  25.104  27.178  1.00  0.00    -0.014 A 
BRANCH  12  13
ATOM     13  C   UNL A   1      41.763  26.336  27.517  1.00  0.00     0.031 A 
ATOM     14  C   UNL A   1      41.077  27.358  28.363  1.00  0.00     0.074 A 
ATOM     15  C   UNL A   1      43.043  26.472  27.130  1.00  0.00     0.049 A 
ATOM     16  N   UNL A   1      41.493  28.539  28.731  1.00  0.00    -0.248 NA
ATOM     17  C   UNL A   1      39.746  26.996  28.879  1.00  0.00     0.031 C 
ATOM     18  C   UNL A   1      43.811  25.467  26.393  1.00  0.00     0.029 A 
ATOM     19  N   UNL A   1      43.926  27.502  27.312  1.00  0.00    -0.354 N 
ATOM     20  C   UNL A   1      40.468  29.070  29.500  1.00  0.00     0.074 A 
ATOM     21  C   UNL A   1      39.413  28.084  29.558  1.00  0.00     0.031 C 
ATOM     22  C   UNL A   1      45.052  25.933  26.181  1.00  0.00     0.029 A 
ATOM     23  C   UNL A   1      45.144  27.288  26.714  1.00  0.00     0.049 A 
ATOM     24  H   UNL A   1      43.709  28.317  27.820  1.00  0.00     0.167 HD
ATOM     25  C   UNL A   1      40.420  30.286  30.088  1.00  0.00     0.037 A 
ATOM     26  C   UNL A   1      46.193  28.122  26.583  1.00  0.00     0.037 A 
ATOM     27  C   UNL A   1      41.487  31.247  30.006  1.00  0.00     0.049 A 
ATOM     28  C   UNL A   1      46.073  29.503  27.172  1.00  0.00     0.074 A 
ATOM     29  C   UNL A   1      41.546  32.523  30.533  1.00  0.00     0.029 A 
ATOM     30  N   UNL A   1      42.687  31.025  29.342  1.00  0.00    -0.354 N 
ATOM     31  N   UNL A   1      45.091  30.020  27.873  1.00  0.00    -0.248 NA
ATOM     32  C   UNL A   1      47.190  30.426  26.933  1.00  0.00     0.031 C 
ATOM     33  C   UNL A   1      42.766  33.090  30.148  1.00  0.00     0.029 A 
ATOM     34  C   UNL A   1      43.482  32.154  29.417  1.00  0.00     0.049 A 
ATOM     35  H   UNL A   1      42.933  30.189  28.886  1.00  0.00     0.167 HD
ATOM     36  C   UNL A   1      45.467  31.322  28.159  1.00  0.00     0.074 A 
ATOM     37  C   UNL A   1      46.785  31.508  27.582  1.00  0.00     0.031 C 
ATOM     38  C   UNL A   1      44.787  32.290  28.823  1.00  0.00     0.037 A 
BRANCH  25  39
ATOM     39  C   UNL A   1      39.157  30.658  30.798  1.00  0.00     0.064 A 
ATOM     40  C   UNL A   1      38.083  31.267  30.133  1.00  0.00     0.173 A 
ATOM     41  C   UNL A   1      39.023  30.403  32.170  1.00  0.00     0.173 A 
ATOM     42  F   UNL A   1      38.175  31.558  28.827  1.00  0.00    -0.203 F 
ATOM     43  C   UNL A   1      36.924  31.620  30.822  1.00  0.00     0.198 A 
ATOM     44  C   UNL A   1      37.857  30.739  32.852  1.00  0.00     0.198 A 
ATOM     45  F   UNL A   1      40.028  29.833  32.852  1.00  0.00    -0.203 F 
ATOM     46  F   UNL A   1      35.925  32.236  30.178  1.00  0.00    -0.200 F 
ATOM     47  C   UNL A   1      36.811  31.351  32.178  1.00  0.00     0.200 A 
ATOM     48  F   UNL A   1      37.749  30.479  34.162  1.00  0.00    -0.200 F 
ATOM     49  F   UNL A   1      35.696  31.692  32.839  1.00  0.00    -0.200 F 
ENDBRANCH  25  39
BRANCH  26  50
ATOM     50  C   UNL A   1      47.396  27.710  25.812  1.00  0.00     0.064 A 
ATOM     51  C   UNL A   1      48.570  27.295  26.454  1.00  0.00     0.173 A 
ATOM     52  C   UNL A   1      47.407  27.753  24.408  1.00  0.00     0.173 A 
ATOM     53  F   UNL A   1      48.623  27.259  27.795  1.00  0.00    -0.203 F 
ATOM     54  C   UNL A   1      49.712  26.961  25.727  1.00  0.00     0.198 A 
ATOM     55  C   UNL A   1      48.539  27.390  23.680  1.00  0.00     0.198 A 
ATOM     56  F   UNL A   1      46.314  28.150  23.738  1.00  0.00    -0.203 F 
ATOM     57  F   UNL A   1      50.837  26.621  26.370  1.00  0.00    -0.200 F 
ATOM     58  C   UNL A   1      49.694  27.003  24.341  1.00  0.00     0.200 A 
ATOM     59  F   UNL A   1      48.511  27.423  22.341  1.00  0.00    -0.200 F 
ATOM     60  F   UNL A   1      50.793  26.686  23.642  1.00  0.00    -0.200 F 
ENDBRANCH  26  50
BRANCH  38  61
ATOM     61  C   UNL A   1      45.460  33.621  28.950  1.00  0.00     0.064 A 
ATOM     62  C   UNL A   1      45.239  34.636  28.008  1.00  0.00     0.173 A 
ATOM     63  C   UNL A   1      46.285  33.900  30.047  1.00  0.00     0.173 A 
ATOM     64  F   UNL A   1      44.471  34.405  26.934  1.00  0.00    -0.203 F 
ATOM     65  C   UNL A   1      45.837  35.883  28.156  1.00  0.00     0.198 A 
ATOM     66  C   UNL A   1      46.859  35.157  30.205  1.00  0.00     0.198 A 
ATOM     67  F   UNL A   1      46.518  32.958  30.975  1.00  0.00    -0.203 F 
ATOM     68  F   UNL A   1      45.642  36.830  27.226  1.00  0.00    -0.200 F 
ATOM     69  C   UNL A   1      46.638  36.146  29.257  1.00  0.00     0.200 A 
ATOM     70  F   UNL A   1      47.624  35.413  31.276  1.00  0.00    -0.200 F 
ATOM     71  F   UNL A   1      47.202  37.352  29.403  1.00  0.00    -0.200 F 
ENDBRANCH  38  61
ENDBRANCH  12  13
ENDBRANCH   5   7
ENDBRANCH   4   5
ENDBRANCH   3   4
ENDBRANCH   2   3
ENDBRANCH   1   2
BRANCH   1  72
ATOM     72  C   UNL A   1      33.347  19.457  24.801  1.00  0.00     0.202 C 
BRANCH  72  73
ATOM     73  C   UNL A   1      32.929  20.492  25.845  1.00  0.00     0.261 C 
BRANCH  73  74
ATOM     74  O   UNL A   1      31.875  21.278  25.275  1.00  0.00    -0.463 OA
BRANCH  74  75
ATOM     75  C   UNL A   1      31.995  22.614  25.514  1.00  0.00     0.310 C 
ATOM     76  O   UNL A   1      31.607  23.189  26.517  1.00  0.00    -0.252 OA
BRANCH  75  77
ATOM     77  C   UNL A   1      32.805  23.300  24.431  1.00  0.00     0.119 C 
ATOM     78  C   UNL A   1      32.109  23.414  23.084  1.00  0.00     0.027 C 
ATOM     79  C   UNL A   1      33.162  24.669  24.962  1.00  0.00     0.134 C 
ATOM     80  C   UNL A   1      33.046  24.109  22.118  1.00  0.00     0.101 C 
ATOM     81  N   UNL A   1      33.554  25.671  23.977  1.00  0.00    -0.341 N 
ATOM     82  C   UNL A   1      33.492  25.471  22.605  1.00  0.00     0.222 C 
ATOM     83  O   UNL A   1      33.829  26.327  21.786  1.00  0.00    -0.275 OA
BRANCH  81  84
ATOM     84  C   UNL A   1      33.855  27.018  24.489  1.00  0.00     0.131 C 
BRANCH  84  85
ATOM     85  C   UNL A   1      32.964  27.499  25.658  1.00  0.00     0.080 C 
ATOM     86  C   UNL A   1      31.605  28.080  25.211  1.00  0.00     0.239 C 
ATOM     87  C   UNL A   1      33.491  28.646  26.445  1.00  0.00     0.002 A 
ATOM     88  O   UNL A   1      31.424  29.414  25.747  1.00  0.00    -0.493 OA
ATOM     89  C   UNL A   1      32.580  29.689  26.424  1.00  0.00     0.122 A 
ATOM     90  C   UNL A   1      34.716  28.791  27.075  1.00  0.00     0.008 A 
ATOM     91  C   UNL A   1      32.861  30.914  26.994  1.00  0.00     0.047 A 
ATOM     92  C   UNL A   1      35.025  30.025  27.652  1.00  0.00     0.001 A 
ATOM     93  C   UNL A   1      34.104  31.083  27.608  1.00  0.00     0.004 A 
ENDBRANCH  84  85
ENDBRANCH  81  84
ENDBRANCH  75  77
ENDBRANCH  74  75
ENDBRANCH  73  74
ENDBRANCH  72  73
ENDBRANCH   1  72
TORSDOF 16
ENDMDL
MODEL 3
REMARK VINA RESULT:     -11.4      3.712      9.076
REMARK SMILES O=C(OCCOCCOC(=O)[C@H]1CCC(=O)N(C[C@@H]2COc3ccccc32)C1)c1ccc(-c2c3nc(c(-c4c(F)c(F)c(F)c(F)c4F)c4ccc([nH]4)c(-c4c(F)c(F)c(F)c(F)c4F)c4nc(c(-c5c(F)c(F)c(F)c(F)c5F)c5ccc2[nH]5)C=C4)C=C3)cc1
REMARK SMILES IDX 6 1 5 2 4 3 3 4 2 5 1 6 29 7 30 8 91 9 31 10 90 11 32 12
REMARK SMILES IDX 33 13 34 14 84 15 35 16 89 17 83 18 85 19 36 20 88 21 82 22
REMARK SMILES IDX 81 23 37 25 69 26 49 27 68 28 50 29 53 30 67 31 86 32 51 33
REMARK SMILES IDX 52 34 66 36 87 37 54 38 38 39 39 40 47 41 40 42 41 43 45 44
REMARK SMILES IDX 48 45 42 46 43 47 46 48 44 49 70 50 71 51 79 52 72 53 73 54
REMARK SMILES IDX 77 55 80 56 74 57 75 58 78 59 76 60 55 61 56 62 64 63 57 64
REMARK SMILES IDX 58 65 62 66 65 67 59 68 60 69 63 70 61 71 7 72 8 73 9 74
REMARK SMILES IDX 10 75 11 76 12 77 13 78 28 79 14 80 17 81 15 82 16 83 18 84
REMARK SMILES IDX 19 85 20 86 27 87 21 88 22 89 26 90 23 91 25 92 24 93
REMARK H PARENT 85 24 53 35
REMARK Flexibility Score: inf
ROOT
ATOM      1  O   UNL A   1      33.358  28.649  24.592  1.00  0.00    -0.374 OA
ENDROOT
BRANCH   1   2
ATOM      2  C   UNL A   1      32.182  29.122  25.252  1.00  0.00     0.202 C 
BRANCH   2   3
ATOM      3  C   UNL A   1      32.481  29.979  26.482  1.00  0.00     0.261 C 
BRANCH   3   4
ATOM      4  O   UNL A   1      33.791  29.695  26.988  1.00  0.00    -0.460 OA
BRANCH   4   5
ATOM      5  C   UNL A   1      34.586  30.486  27.743  1.00  0.00     0.338 C 
ATOM      6  O   UNL A   1      34.155  31.594  28.066  1.00  0.00    -0.246 OA
BRANCH   5   7
ATOM      7  C   UNL A   1      35.946  30.104  28.245  1.00  0.00     0.060 A 
ATOM      8  C   UNL A   1      36.251  29.600  29.514  1.00  0.00     0.016 A 
ATOM      9  C   UNL A   1      36.988  30.166  27.302  1.00  0.00     0.016 A 
ATOM     10  C   UNL A   1      37.535  29.181  29.844  1.00  0.00     0.010 A 
ATOM     11  C   UNL A   1      38.278  29.734  27.618  1.00  0.00     0.010 A 
ATOM     12  C   UNL A   1      38.550  29.240  28.896  1.00  0.00    -0.014 A 
BRANCH  12  13
ATOM     13  C   UNL A   1      39.905  28.828  29.290  1.00  0.00     0.031 A 
ATOM     14  C   UNL A   1      40.689  29.724  30.192  1.00  0.00     0.074 A 
ATOM     15  C   UNL A   1      40.368  27.627  28.900  1.00  0.00     0.049 A 
ATOM     16  N   UNL A   1      41.917  29.600  30.616  1.00  0.00    -0.248 NA
ATOM     17  C   UNL A   1      39.989  30.915  30.701  1.00  0.00     0.031 C 
ATOM     18  C   UNL A   1      39.615  26.653  28.106  1.00  0.00     0.029 A 
ATOM     19  N   UNL A   1      41.572  27.017  29.125  1.00  0.00    -0.354 N 
ATOM     20  C   UNL A   1      42.146  30.707  31.419  1.00  0.00     0.074 A 
ATOM     21  C   UNL A   1      40.930  31.489  31.437  1.00  0.00     0.031 C 
ATOM     22  C   UNL A   1      40.380  25.567  27.907  1.00  0.00     0.029 A 
ATOM     23  C   UNL A   1      41.690  25.796  28.507  1.00  0.00     0.049 A 
ATOM     24  H   UNL A   1      42.285  27.415  29.675  1.00  0.00     0.167 HD
ATOM     25  C   UNL A   1      43.285  31.037  32.068  1.00  0.00     0.037 A 
ATOM     26  C   UNL A   1      42.759  24.985  28.409  1.00  0.00     0.037 A 
ATOM     27  C   UNL A   1      44.479  30.238  32.025  1.00  0.00     0.049 A 
ATOM     28  C   UNL A   1      44.041  25.425  29.068  1.00  0.00     0.074 A 
ATOM     29  C   UNL A   1      45.704  30.480  32.615  1.00  0.00     0.029 A 
ATOM     30  N   UNL A   1      44.588  29.034  31.340  1.00  0.00    -0.354 N 
ATOM     31  N   UNL A   1      44.269  26.489  29.802  1.00  0.00    -0.248 NA
ATOM     32  C   UNL A   1      45.218  24.571  28.866  1.00  0.00     0.031 C 
ATOM     33  C   UNL A   1      46.570  29.443  32.248  1.00  0.00     0.029 A 
ATOM     34  C   UNL A   1      45.872  28.536  31.465  1.00  0.00     0.049 A 
ATOM     35  H   UNL A   1      43.859  28.601  30.841  1.00  0.00     0.167 HD
ATOM     36  C   UNL A   1      45.609  26.434  30.150  1.00  0.00     0.074 A 
ATOM     37  C   UNL A   1      46.138  25.214  29.572  1.00  0.00     0.031 C 
ATOM     38  C   UNL A   1      46.349  27.315  30.867  1.00  0.00     0.037 A 
BRANCH  25  39
ATOM     39  C   UNL A   1      43.303  32.338  32.806  1.00  0.00     0.064 A 
ATOM     40  C   UNL A   1      42.900  32.437  34.146  1.00  0.00     0.173 A 
ATOM     41  C   UNL A   1      43.730  33.506  32.158  1.00  0.00     0.173 A 
ATOM     42  F   UNL A   1      42.457  31.353  34.799  1.00  0.00    -0.203 F 
ATOM     43  C   UNL A   1      42.911  33.665  34.805  1.00  0.00     0.198 A 
ATOM     44  C   UNL A   1      43.757  34.727  32.826  1.00  0.00     0.198 A 
ATOM     45  F   UNL A   1      44.114  33.464  30.873  1.00  0.00    -0.203 F 
ATOM     46  F   UNL A   1      42.485  33.746  36.073  1.00  0.00    -0.200 F 
ATOM     47  C   UNL A   1      43.344  34.806  34.147  1.00  0.00     0.200 A 
ATOM     48  F   UNL A   1      44.175  35.829  32.188  1.00  0.00    -0.200 F 
ATOM     49  F   UNL A   1      43.352  35.986  34.783  1.00  0.00    -0.200 F 
ENDBRANCH  25  39
BRANCH  26  50
ATOM     50  C   UNL A   1      42.690  23.734  27.608  1.00  0.00     0.064 A 
ATOM     51  C   UNL A   1      43.045  23.712  26.252  1.00  0.00     0.173 A 
ATOM     52  C   UNL A   1      42.235  22.533  28.176  1.00  0.00     0.173 A 
ATOM     53  F   UNL A   1      43.463  24.837  25.652  1.00  0.00    -0.203 F 
ATOM     54  C   UNL A   1      42.927  22.549  25.493  1.00  0.00     0.198 A 
ATOM     55  C   UNL A   1      42.146  21.363  27.425  1.00  0.00     0.198 A 
ATOM     56  F   UNL A   1      41.873  22.495  29.468  1.00  0.00    -0.203 F 
ATOM     57  F   UNL A   1      43.221  22.571  24.186  1.00  0.00    -0.200 F 
ATOM     58  C   UNL A   1      42.483  21.373  26.081  1.00  0.00     0.200 A 
ATOM     59  F   UNL A   1      41.726  20.228  28.002  1.00  0.00    -0.200 F 
ATOM     60  F   UNL A   1      42.366  20.256  25.350  1.00  0.00    -0.200 F 
ENDBRANCH  26  50
BRANCH  38  61
ATOM     61  C   UNL A   1      47.797  26.984  31.056  1.00  0.00     0.064 A 
ATOM     62  C   UNL A   1      48.213  26.108  32.068  1.00  0.00     0.173 A 
ATOM     63  C   UNL A   1      48.765  27.503  30.186  1.00  0.00     0.173 A 
ATOM     64  F   UNL A   1      47.321  25.604  32.933  1.00  0.00    -0.203 F 
ATOM     65  C   UNL A   1      49.556  25.776  32.211  1.00  0.00     0.198 A 
ATOM     66  C   UNL A   1      50.103  27.146  30.316  1.00  0.00     0.198 A 
ATOM     67  F   UNL A   1      48.409  28.340  29.199  1.00  0.00    -0.203 F 
ATOM     68  F   UNL A   1      49.939  24.965  33.207  1.00  0.00    -0.200 F 
ATOM     69  C   UNL A   1      50.497  26.287  31.331  1.00  0.00     0.200 A 
ATOM     70  F   UNL A   1      51.011  27.632  29.457  1.00  0.00    -0.200 F 
ATOM     71  F   UNL A   1      51.789  25.954  31.462  1.00  0.00    -0.200 F 
ENDBRANCH  38  61
ENDBRANCH  12  13
ENDBRANCH   5   7
ENDBRANCH   4   5
ENDBRANCH   3   4
ENDBRANCH   2   3
ENDBRANCH   1   2
BRANCH   1  72
ATOM     72  C   UNL A   1      33.451  28.953  23.193  1.00  0.00     0.202 C 
BRANCH  72  73
ATOM     73  C   UNL A   1      33.566  27.657  22.392  1.00  0.00     0.261 C 
BRANCH  73  74
ATOM     74  O   UNL A   1      32.268  27.048  22.368  1.00  0.00    -0.463 OA
BRANCH  74  75
ATOM     75  C   UNL A   1      32.277  25.722  22.679  1.00  0.00     0.310 C 
ATOM     76  O   UNL A   1      32.538  24.817  21.904  1.00  0.00    -0.252 OA
BRANCH  75  77
ATOM     77  C   UNL A   1      32.058  25.500  24.163  1.00  0.00     0.119 C 
ATOM     78  C   UNL A   1      30.653  25.064  24.546  1.00  0.00     0.027 C 
ATOM     79  C   UNL A   1      33.071  24.466  24.598  1.00  0.00     0.134 C 
ATOM     80  C   UNL A   1      30.596  24.895  26.050  1.00  0.00     0.101 C 
ATOM     81  N   UNL A   1      32.797  23.767  25.849  1.00  0.00    -0.341 N 
ATOM     82  C   UNL A   1      31.621  23.909  26.572  1.00  0.00     0.222 C 
ATOM     83  O   UNL A   1      31.406  23.314  27.628  1.00  0.00    -0.275 OA
BRANCH  81  84
ATOM     84  C   UNL A   1      33.759  22.727  26.249  1.00  0.00     0.131 C 
BRANCH  84  85
ATOM     85  C   UNL A   1      34.764  22.295  25.155  1.00  0.00     0.080 C 
ATOM     86  C   UNL A   1      34.832  20.769  24.935  1.00  0.00     0.239 C 
ATOM     87  C   UNL A   1      36.195  22.581  25.441  1.00  0.00     0.002 A 
ATOM     88  O   UNL A   1      36.196  20.299  25.067  1.00  0.00    -0.493 OA
ATOM     89  C   UNL A   1      36.927  21.406  25.398  1.00  0.00     0.122 A 
ATOM     90  C   UNL A   1      36.801  23.778  25.786  1.00  0.00     0.008 A 
ATOM     91  C   UNL A   1      38.267  21.369  25.726  1.00  0.00     0.047 A 
ATOM     92  C   UNL A   1      38.155  23.763  26.128  1.00  0.00     0.001 A 
ATOM     93  C   UNL A   1      38.884  22.564  26.102  1.00  0.00     0.004 A 
ENDBRANCH  84  85
ENDBRANCH  81  84
ENDBRANCH  75  77
ENDBRANCH  74  75
ENDBRANCH  73  74
ENDBRANCH  72  73
ENDBRANCH   1  72
TORSDOF 16
ENDMDL
