MODEL 1
REMARK VINA RESULT:     -12.2      0.000      0.000
REMARK SMILES O=C(OCCOCCOC(=O)[C@H]1CC=CC[C@@H]1C(=O)Nc1ccccc1C(=O)NCc1ccco1)c1ccc(-c2c3nc(c(-c4c(F)c(F)c(F)c(F)c4F)c4ccc([nH]4)c(-c4c(F)c(F)c(F)c(F)c4F)c4nc(c(-c5c(F)c(F)c(F)c(F)c5F)c5ccc2[nH]5)C=C4)C=C3)cc1
REMARK SMILES IDX 7 1 6 2 5 3 4 4 3 5 2 6 1 7 36 8 37 9 98 10 38 11 97 12
REMARK SMILES IDX 39 13 40 14 41 15 91 16 42 17 96 18 90 19 92 20 43 21 95 22
REMARK SMILES IDX 89 23 88 24 44 26 76 27 56 28 75 29 57 30 60 31 74 32 93 33
REMARK SMILES IDX 58 34 59 35 73 37 94 38 61 39 45 40 46 41 54 42 47 43 48 44
REMARK SMILES IDX 52 45 55 46 49 47 50 48 53 49 51 50 77 51 78 52 86 53 79 54
REMARK SMILES IDX 80 55 84 56 87 57 81 58 82 59 85 60 83 61 62 62 63 63 71 64
REMARK SMILES IDX 64 65 65 66 69 67 72 68 66 69 67 70 70 71 68 72 8 73 9 74
REMARK SMILES IDX 10 75 11 76 12 77 13 78 17 79 14 80 16 81 15 82 18 83 19 84
REMARK SMILES IDX 20 85 21 87 22 88 26 89 23 90 25 91 24 92 27 93 28 94 29 95
REMARK SMILES IDX 30 97 31 98 32 99 35 100 33 101 34 102
REMARK H PARENT 92 25 60 36 20 86 29 96
REMARK Flexibility Score: inf
ROOT
ATOM      1  C   UNL A   1      36.806  21.507  25.234  1.00  0.00     0.202 C 
ENDROOT
BRANCH   1   2
ATOM      2  O   UNL A   1      36.662  20.103  24.992  1.00  0.00    -0.374 OA
BRANCH   2   3
ATOM      3  C   UNL A   1      37.867  19.340  24.943  1.00  0.00     0.202 C 
BRANCH   3   4
ATOM      4  C   UNL A   1      39.069  20.081  25.537  1.00  0.00     0.261 C 
BRANCH   4   5
ATOM      5  O   UNL A   1      40.145  19.172  25.812  1.00  0.00    -0.460 OA
BRANCH   5   6
ATOM      6  C   UNL A   1      41.456  19.442  26.004  1.00  0.00     0.338 C 
ATOM      7  O   UNL A   1      42.247  18.498  25.973  1.00  0.00    -0.246 OA
BRANCH   6   8
ATOM      8  C   UNL A   1      42.027  20.807  26.263  1.00  0.00     0.060 A 
ATOM      9  C   UNL A   1      42.228  21.812  25.313  1.00  0.00     0.016 A 
ATOM     10  C   UNL A   1      42.282  21.127  27.610  1.00  0.00     0.016 A 
ATOM     11  C   UNL A   1      42.637  23.089  25.673  1.00  0.00     0.010 A 
ATOM     12  C   UNL A   1      42.699  22.406  27.985  1.00  0.00     0.010 A 
ATOM     13  C   UNL A   1      42.868  23.390  27.008  1.00  0.00    -0.014 A 
BRANCH  13  14
ATOM     14  C   UNL A   1      43.372  24.730  27.330  1.00  0.00     0.031 A 
ATOM     15  C   UNL A   1      42.428  25.702  27.958  1.00  0.00     0.074 A 
ATOM     16  C   UNL A   1      44.677  25.002  27.160  1.00  0.00     0.049 A 
ATOM     17  N   UNL A   1      42.617  26.955  28.267  1.00  0.00    -0.248 NA
ATOM     18  C   UNL A   1      41.091  25.187  28.302  1.00  0.00     0.031 C 
ATOM     19  C   UNL A   1      45.680  24.047  26.682  1.00  0.00     0.029 A 
ATOM     20  N   UNL A   1      45.388  26.149  27.384  1.00  0.00    -0.354 N 
ATOM     21  C   UNL A   1      41.416  27.386  28.811  1.00  0.00     0.074 A 
ATOM     22  C   UNL A   1      40.509  26.263  28.811  1.00  0.00     0.031 C 
ATOM     23  C   UNL A   1      46.877  24.654  26.639  1.00  0.00     0.029 A 
ATOM     24  C   UNL A   1      46.709  26.051  27.022  1.00  0.00     0.049 A 
ATOM     25  H   UNL A   1      44.992  26.965  27.768  1.00  0.00     0.167 HD
ATOM     26  C   UNL A   1      41.110  28.627  29.249  1.00  0.00     0.037 A 
ATOM     27  C   UNL A   1      47.651  27.012  26.959  1.00  0.00     0.037 A 
ATOM     28  C   UNL A   1      42.046  29.717  29.232  1.00  0.00     0.049 A 
ATOM     29  C   UNL A   1      47.248  28.409  27.355  1.00  0.00     0.074 A 
ATOM     30  C   UNL A   1      41.856  31.028  29.621  1.00  0.00     0.029 A 
ATOM     31  N   UNL A   1      43.360  29.608  28.791  1.00  0.00    -0.354 N 
ATOM     32  N   UNL A   1      46.102  28.833  27.835  1.00  0.00    -0.248 NA
ATOM     33  C   UNL A   1      48.251  29.465  27.178  1.00  0.00     0.031 C 
ATOM     34  C   UNL A   1      43.040  31.727  29.362  1.00  0.00     0.029 A 
ATOM     35  C   UNL A   1      43.982  30.840  28.858  1.00  0.00     0.049 A 
ATOM     36  H   UNL A   1      43.784  28.777  28.477  1.00  0.00     0.167 HD
ATOM     37  C   UNL A   1      46.245  30.200  28.021  1.00  0.00     0.074 A 
ATOM     38  C   UNL A   1      47.602  30.529  27.631  1.00  0.00     0.031 C 
ATOM     39  C   UNL A   1      45.340  31.110  28.457  1.00  0.00     0.037 A 
BRANCH  26  40
ATOM     40  C   UNL A   1      39.702  28.879  29.686  1.00  0.00     0.064 A 
ATOM     41  C   UNL A   1      39.290  28.712  31.016  1.00  0.00     0.173 A 
ATOM     42  C   UNL A   1      38.745  29.293  28.748  1.00  0.00     0.173 A 
ATOM     43  F   UNL A   1      40.159  28.286  31.945  1.00  0.00    -0.203 F 
ATOM     44  C   UNL A   1      37.967  28.941  31.388  1.00  0.00     0.198 A 
ATOM     45  C   UNL A   1      37.429  29.543  29.127  1.00  0.00     0.198 A 
ATOM     46  F   UNL A   1      39.087  29.453  27.460  1.00  0.00    -0.203 F 
ATOM     47  F   UNL A   1      37.583  28.738  32.656  1.00  0.00    -0.200 F 
ATOM     48  C   UNL A   1      37.040  29.363  30.444  1.00  0.00     0.200 A 
ATOM     49  F   UNL A   1      36.537  29.950  28.214  1.00  0.00    -0.200 F 
ATOM     50  F   UNL A   1      35.768  29.585  30.804  1.00  0.00    -0.200 F 
ENDBRANCH  26  40
BRANCH  27  51
ATOM     51  C   UNL A   1      49.006  26.716  26.419  1.00  0.00     0.064 A 
ATOM     52  C   UNL A   1      49.322  26.932  25.071  1.00  0.00     0.173 A 
ATOM     53  C   UNL A   1      50.007  26.164  27.236  1.00  0.00     0.173 A 
ATOM     54  F   UNL A   1      48.398  27.432  24.237  1.00  0.00    -0.203 F 
ATOM     55  C   UNL A   1      50.572  26.581  24.556  1.00  0.00     0.198 A 
ATOM     56  C   UNL A   1      51.266  25.848  26.731  1.00  0.00     0.198 A 
ATOM     57  F   UNL A   1      49.763  25.928  28.534  1.00  0.00    -0.203 F 
ATOM     58  F   UNL A   1      50.824  26.738  23.250  1.00  0.00    -0.200 F 
ATOM     59  C   UNL A   1      51.543  26.044  25.387  1.00  0.00     0.200 A 
ATOM     60  F   UNL A   1      52.204  25.340  27.541  1.00  0.00    -0.200 F 
ATOM     61  F   UNL A   1      52.740  25.701  24.890  1.00  0.00    -0.200 F 
ENDBRANCH  27  51
BRANCH  39  62
ATOM     62  C   UNL A   1      45.797  32.534  28.532  1.00  0.00     0.064 A 
ATOM     63  C   UNL A   1      46.442  33.029  29.674  1.00  0.00     0.173 A 
ATOM     64  C   UNL A   1      45.650  33.386  27.429  1.00  0.00     0.173 A 
ATOM     65  F   UNL A   1      46.588  32.252  30.758  1.00  0.00    -0.203 F 
ATOM     66  C   UNL A   1      46.915  34.337  29.712  1.00  0.00     0.198 A 
ATOM     67  C   UNL A   1      46.150  34.683  27.460  1.00  0.00     0.198 A 
ATOM     68  F   UNL A   1      45.045  32.951  26.313  1.00  0.00    -0.203 F 
ATOM     69  F   UNL A   1      47.497  34.803  30.826  1.00  0.00    -0.200 F 
ATOM     70  C   UNL A   1      46.778  35.158  28.603  1.00  0.00     0.200 A 
ATOM     71  F   UNL A   1      46.033  35.471  26.383  1.00  0.00    -0.200 F 
ATOM     72  F   UNL A   1      47.250  36.412  28.636  1.00  0.00    -0.200 F 
ENDBRANCH  39  62
ENDBRANCH  13  14
ENDBRANCH   6   8
ENDBRANCH   5   6
ENDBRANCH   4   5
ENDBRANCH   3   4
ENDBRANCH   2   3
ENDBRANCH   1   2
BRANCH   1  73
ATOM     73  C   UNL A   1      36.590  22.269  23.931  1.00  0.00     0.261 C 
BRANCH  73  74
ATOM     74  O   UNL A   1      35.193  22.559  23.833  1.00  0.00    -0.463 OA
BRANCH  74  75
ATOM     75  C   UNL A   1      34.774  23.614  24.573  1.00  0.00     0.310 C 
ATOM     76  O   UNL A   1      35.471  24.573  24.889  1.00  0.00    -0.252 OA
BRANCH  75  77
ATOM     77  C   UNL A   1      33.305  23.510  24.939  1.00  0.00     0.116 C 
ATOM     78  C   UNL A   1      32.686  22.126  24.682  1.00  0.00     0.043 C 
ATOM     79  C   UNL A   1      33.209  23.948  26.402  1.00  0.00     0.097 C 
ATOM     80  C   UNL A   1      33.000  21.135  25.762  1.00  0.00    -0.030 C 
ATOM     81  C   UNL A   1      33.816  22.898  27.346  1.00  0.00     0.041 C 
ATOM     82  C   UNL A   1      33.531  21.480  26.944  1.00  0.00    -0.030 C 
BRANCH  79  83
ATOM     83  C   UNL A   1      31.784  24.292  26.802  1.00  0.00     0.228 C 
ATOM     84  O   UNL A   1      31.002  23.467  27.275  1.00  0.00    -0.274 OA
ATOM     85  N   UNL A   1      31.353  25.586  26.661  1.00  0.00    -0.325 N 
ATOM     86  H   UNL A   1      30.468  25.791  27.041  1.00  0.00     0.169 HD
BRANCH  85  87
ATOM     87  C   UNL A   1      32.018  26.652  26.041  1.00  0.00     0.054 A 
ATOM     88  C   UNL A   1      32.888  27.313  26.935  1.00  0.00     0.027 A 
ATOM     89  C   UNL A   1      32.012  26.985  24.669  1.00  0.00     0.063 A 
ATOM     90  C   UNL A   1      33.881  28.169  26.475  1.00  0.00     0.002 A 
ATOM     91  C   UNL A   1      33.054  27.848  24.240  1.00  0.00     0.016 A 
ATOM     92  C   UNL A   1      33.990  28.408  25.117  1.00  0.00     0.001 A 
BRANCH  89  93
ATOM     93  C   UNL A   1      31.047  26.646  23.546  1.00  0.00     0.253 C 
ATOM     94  O   UNL A   1      30.619  25.485  23.490  1.00  0.00    -0.269 OA
ATOM     95  N   UNL A   1      30.631  27.423  22.496  1.00  0.00    -0.345 N 
ATOM     96  H   UNL A   1      30.288  26.891  21.741  1.00  0.00     0.164 HD
BRANCH  95  97
ATOM     97  C   UNL A   1      30.579  28.838  22.246  1.00  0.00     0.191 C 
BRANCH  97  98
ATOM     98  C   UNL A   1      29.380  29.502  22.797  1.00  0.00     0.122 A 
ATOM     99  C   UNL A   1      29.079  30.756  23.285  1.00  0.00     0.047 A 
ATOM    100  O   UNL A   1      28.237  28.757  22.710  1.00  0.00    -0.467 OA
ATOM    101  C   UNL A   1      27.672  30.777  23.483  1.00  0.00     0.042 A 
ATOM    102  C   UNL A   1      27.210  29.537  23.115  1.00  0.00     0.195 A 
ENDBRANCH  97  98
ENDBRANCH  95  97
ENDBRANCH  89  93
ENDBRANCH  85  87
ENDBRANCH  79  83
ENDBRANCH  75  77
ENDBRANCH  74  75
ENDBRANCH  73  74
ENDBRANCH   1  73
TORSDOF 19
ENDMDL
MODEL 2
REMARK VINA RESULT:     -11.9      5.113     10.948
REMARK SMILES O=C(OCCOCCOC(=O)[C@H]1CC=CC[C@@H]1C(=O)Nc1ccccc1C(=O)NCc1ccco1)c1ccc(-c2c3nc(c(-c4c(F)c(F)c(F)c(F)c4F)c4ccc([nH]4)c(-c4c(F)c(F)c(F)c(F)c4F)c4nc(c(-c5c(F)c(F)c(F)c(F)c5F)c5ccc2[nH]5)C=C4)C=C3)cc1
REMARK SMILES IDX 7 1 6 2 5 3 4 4 3 5 2 6 1 7 36 8 37 9 98 10 38 11 97 12
REMARK SMILES IDX 39 13 40 14 41 15 91 16 42 17 96 18 90 19 92 20 43 21 95 22
REMARK SMILES IDX 89 23 88 24 44 26 76 27 56 28 75 29 57 30 60 31 74 32 93 33
REMARK SMILES IDX 58 34 59 35 73 37 94 38 61 39 45 40 46 41 54 42 47 43 48 44
REMARK SMILES IDX 52 45 55 46 49 47 50 48 53 49 51 50 77 51 78 52 86 53 79 54
REMARK SMILES IDX 80 55 84 56 87 57 81 58 82 59 85 60 83 61 62 62 63 63 71 64
REMARK SMILES IDX 64 65 65 66 69 67 72 68 66 69 67 70 70 71 68 72 8 73 9 74
REMARK SMILES IDX 10 75 11 76 12 77 13 78 17 79 14 80 16 81 15 82 18 83 19 84
REMARK SMILES IDX 20 85 21 87 22 88 26 89 23 90 25 91 24 92 27 93 28 94 29 95
REMARK SMILES IDX 30 97 31 98 32 99 35 100 33 101 34 102
REMARK H PARENT 92 25 60 36 20 86 29 96
REMARK Flexibility Score: inf
ROOT
ATOM      1  C   UNL A   1      32.032  29.226  26.472  1.00  0.00     0.202 C 
ENDROOT
BRANCH   1   2
ATOM      2  O   UNL A   1      32.343  30.545  26.934  1.00  0.00    -0.374 OA
BRANCH   2   3
ATOM      3  C   UNL A   1      31.684  31.622  26.268  1.00  0.00     0.202 C 
BRANCH   3   4
ATOM      4  C   UNL A   1      31.318  32.773  27.210  1.00  0.00     0.261 C 
BRANCH   4   5
ATOM      5  O   UNL A   1      32.347  33.774  27.217  1.00  0.00    -0.460 OA
BRANCH   5   6
ATOM      6  C   UNL A   1      32.999  34.312  28.272  1.00  0.00     0.338 C 
ATOM      7  O   UNL A   1      32.546  35.349  28.758  1.00  0.00    -0.246 OA
BRANCH   6   8
ATOM      8  C   UNL A   1      34.243  33.749  28.897  1.00  0.00     0.060 A 
ATOM      9  C   UNL A   1      35.536  34.268  28.778  1.00  0.00     0.016 A 
ATOM     10  C   UNL A   1      34.061  32.659  29.768  1.00  0.00     0.016 A 
ATOM     11  C   UNL A   1      36.601  33.754  29.504  1.00  0.00     0.010 A 
ATOM     12  C   UNL A   1      35.126  32.128  30.500  1.00  0.00     0.010 A 
ATOM     13  C   UNL A   1      36.398  32.688  30.369  1.00  0.00    -0.014 A 
BRANCH  13  14
ATOM     14  C   UNL A   1      37.570  32.131  31.056  1.00  0.00     0.031 A 
ATOM     15  C   UNL A   1      38.377  31.100  30.340  1.00  0.00     0.074 A 
ATOM     16  C   UNL A   1      37.942  32.641  32.243  1.00  0.00     0.049 A 
ATOM     17  N   UNL A   1      39.404  30.416  30.762  1.00  0.00    -0.248 NA
ATOM     18  C   UNL A   1      37.985  30.810  28.949  1.00  0.00     0.031 C 
ATOM     19  C   UNL A   1      37.273  33.748  32.929  1.00  0.00     0.029 A 
ATOM     20  N   UNL A   1      38.978  32.310  33.072  1.00  0.00    -0.354 N 
ATOM     21  C   UNL A   1      39.761  29.595  29.702  1.00  0.00     0.074 A 
ATOM     22  C   UNL A   1      38.858  29.873  28.611  1.00  0.00     0.031 C 
ATOM     23  C   UNL A   1      37.912  33.998  34.083  1.00  0.00     0.029 A 
ATOM     24  C   UNL A   1      38.988  33.027  34.244  1.00  0.00     0.049 A 
ATOM     25  H   UNL A   1      39.650  31.626  32.851  1.00  0.00     0.167 HD
ATOM     26  C   UNL A   1      40.750  28.675  29.672  1.00  0.00     0.037 A 
ATOM     27  C   UNL A   1      39.756  32.863  35.338  1.00  0.00     0.037 A 
ATOM     28  C   UNL A   1      41.628  28.431  30.784  1.00  0.00     0.049 A 
ATOM     29  C   UNL A   1      40.780  31.758  35.311  1.00  0.00     0.074 A 
ATOM     30  C   UNL A   1      42.652  27.511  30.893  1.00  0.00     0.029 A 
ATOM     31  N   UNL A   1      41.571  29.122  31.988  1.00  0.00    -0.354 N 
ATOM     32  N   UNL A   1      41.099  30.951  34.326  1.00  0.00    -0.248 NA
ATOM     33  C   UNL A   1      41.533  31.520  36.548  1.00  0.00     0.031 C 
ATOM     34  C   UNL A   1      43.178  27.608  32.186  1.00  0.00     0.029 A 
ATOM     35  C   UNL A   1      42.515  28.621  32.864  1.00  0.00     0.049 A 
ATOM     36  H   UNL A   1      40.949  29.860  32.187  1.00  0.00     0.167 HD
ATOM     37  C   UNL A   1      42.087  30.113  34.819  1.00  0.00     0.074 A 
ATOM     38  C   UNL A   1      42.339  30.533  36.185  1.00  0.00     0.031 C 
ATOM     39  C   UNL A   1      42.723  29.080  34.214  1.00  0.00     0.037 A 
BRANCH  26  40
ATOM     40  C   UNL A   1      40.866  27.822  28.448  1.00  0.00     0.064 A 
ATOM     41  C   UNL A   1      40.161  26.619  28.305  1.00  0.00     0.173 A 
ATOM     42  C   UNL A   1      41.707  28.221  27.399  1.00  0.00     0.173 A 
ATOM     43  F   UNL A   1      39.369  26.177  29.294  1.00  0.00    -0.203 F 
ATOM     44  C   UNL A   1      40.302  25.841  27.158  1.00  0.00     0.198 A 
ATOM     45  C   UNL A   1      41.828  27.453  26.244  1.00  0.00     0.198 A 
ATOM     46  F   UNL A   1      42.414  29.357  27.495  1.00  0.00    -0.203 F 
ATOM     47  F   UNL A   1      39.650  24.674  27.056  1.00  0.00    -0.200 F 
ATOM     48  C   UNL A   1      41.130  26.262  26.126  1.00  0.00     0.200 A 
ATOM     49  F   UNL A   1      42.629  27.863  25.251  1.00  0.00    -0.200 F 
ATOM     50  F   UNL A   1      41.264  25.513  25.023  1.00  0.00    -0.200 F 
ENDBRANCH  26  40
BRANCH  27  51
ATOM     51  C   UNL A   1      39.523  33.679  36.562  1.00  0.00     0.064 A 
ATOM     52  C   UNL A   1      40.132  34.929  36.737  1.00  0.00     0.173 A 
ATOM     53  C   UNL A   1      38.719  33.200  37.609  1.00  0.00     0.173 A 
ATOM     54  F   UNL A   1      40.932  35.425  35.781  1.00  0.00    -0.203 F 
ATOM     55  C   UNL A   1      39.969  35.653  37.919  1.00  0.00     0.198 A 
ATOM     56  C   UNL A   1      38.527  33.940  38.774  1.00  0.00     0.198 A 
ATOM     57  F   UNL A   1      38.115  32.007  37.504  1.00  0.00    -0.203 F 
ATOM     58  F   UNL A   1      40.615  36.815  38.084  1.00  0.00    -0.200 F 
ATOM     59  C   UNL A   1      39.163  35.160  38.934  1.00  0.00     0.200 A 
ATOM     60  F   UNL A   1      37.738  33.463  39.747  1.00  0.00    -0.200 F 
ATOM     61  F   UNL A   1      39.014  35.853  40.072  1.00  0.00    -0.200 F 
ENDBRANCH  27  51
BRANCH  39  62
ATOM     62  C   UNL A   1      43.743  28.345  35.028  1.00  0.00     0.064 A 
ATOM     63  C   UNL A   1      45.076  28.778  35.081  1.00  0.00     0.173 A 
ATOM     64  C   UNL A   1      43.370  27.246  35.812  1.00  0.00     0.173 A 
ATOM     65  F   UNL A   1      45.480  29.816  34.333  1.00  0.00    -0.203 F 
ATOM     66  C   UNL A   1      46.004  28.124  35.885  1.00  0.00     0.198 A 
ATOM     67  C   UNL A   1      44.293  26.613  36.637  1.00  0.00     0.198 A 
ATOM     68  F   UNL A   1      42.103  26.803  35.796  1.00  0.00    -0.203 F 
ATOM     69  F   UNL A   1      47.281  28.530  35.895  1.00  0.00    -0.200 F 
ATOM     70  C   UNL A   1      45.609  27.050  36.669  1.00  0.00     0.200 A 
ATOM     71  F   UNL A   1      43.908  25.586  37.407  1.00  0.00    -0.200 F 
ATOM     72  F   UNL A   1      46.501  26.432  37.456  1.00  0.00    -0.200 F 
ENDBRANCH  39  62
ENDBRANCH  13  14
ENDBRANCH   6   8
ENDBRANCH   5   6
ENDBRANCH   4   5
ENDBRANCH   3   4
ENDBRANCH   2   3
ENDBRANCH   1   2
BRANCH   1  73
ATOM     73  C   UNL A   1      33.092  28.252  26.976  1.00  0.00     0.261 C 
BRANCH  73  74
ATOM     74  O   UNL A   1      32.528  26.939  26.914  1.00  0.00    -0.463 OA
BRANCH  74  75
ATOM     75  C   UNL A   1      33.174  26.076  26.093  1.00  0.00     0.310 C 
ATOM     76  O   UNL A   1      34.349  26.174  25.752  1.00  0.00    -0.252 OA
BRANCH  75  77
ATOM     77  C   UNL A   1      32.289  24.919  25.666  1.00  0.00     0.116 C 
ATOM     78  C   UNL A   1      30.829  25.034  26.133  1.00  0.00     0.043 C 
ATOM     79  C   UNL A   1      32.428  24.829  24.145  1.00  0.00     0.097 C 
ATOM     80  C   UNL A   1      30.009  25.948  25.272  1.00  0.00    -0.030 C 
ATOM     81  C   UNL A   1      31.724  26.004  23.445  1.00  0.00     0.041 C 
ATOM     82  C   UNL A   1      30.424  26.401  24.080  1.00  0.00    -0.030 C 
BRANCH  79  83
ATOM     83  C   UNL A   1      31.942  23.494  23.605  1.00  0.00     0.228 C 
ATOM     84  O   UNL A   1      30.793  23.310  23.205  1.00  0.00    -0.274 OA
ATOM     85  N   UNL A   1      32.829  22.451  23.529  1.00  0.00    -0.325 N 
ATOM     86  H   UNL A   1      32.508  21.644  23.065  1.00  0.00     0.169 HD
BRANCH  85  87
ATOM     87  C   UNL A   1      34.136  22.395  24.032  1.00  0.00     0.054 A 
ATOM     88  C   UNL A   1      35.064  22.966  23.134  1.00  0.00     0.027 A 
ATOM     89  C   UNL A   1      34.541  21.996  25.323  1.00  0.00     0.063 A 
ATOM     90  C   UNL A   1      36.343  23.318  23.546  1.00  0.00     0.002 A 
ATOM     91  C   UNL A   1      35.848  22.393  25.709  1.00  0.00     0.016 A 
ATOM     92  C   UNL A   1      36.724  23.066  24.852  1.00  0.00     0.001 A 
BRANCH  89  93
ATOM     93  C   UNL A   1      33.861  21.148  26.385  1.00  0.00     0.253 C 
ATOM     94  O   UNL A   1      33.982  21.502  27.565  1.00  0.00    -0.269 OA
ATOM     95  N   UNL A   1      33.185  19.963  26.246  1.00  0.00    -0.345 N 
ATOM     96  H   UNL A   1      33.135  19.453  27.087  1.00  0.00     0.164 HD
BRANCH  95  97
ATOM     97  C   UNL A   1      32.532  19.295  25.153  1.00  0.00     0.191 C 
BRANCH  97  98
ATOM     98  C   UNL A   1      33.138  17.995  24.795  1.00  0.00     0.122 A 
ATOM     99  C   UNL A   1      33.948  17.525  23.784  1.00  0.00     0.047 A 
ATOM    100  O   UNL A   1      32.971  17.021  25.740  1.00  0.00    -0.467 OA
ATOM    101  C   UNL A   1      34.309  16.201  24.148  1.00  0.00     0.042 A 
ATOM    102  C   UNL A   1      33.690  15.946  25.347  1.00  0.00     0.195 A 
ENDBRANCH  97  98
ENDBRANCH  95  97
ENDBRANCH  89  93
ENDBRANCH  85  87
ENDBRANCH  79  83
ENDBRANCH  75  77
ENDBRANCH  74  75
ENDBRANCH  73  74
ENDBRANCH   1  73
TORSDOF 19
ENDMDL
MODEL 3
REMARK VINA RESULT:     -11.9      0.846      2.205
REMARK SMILES O=C(OCCOCCOC(=O)[C@H]1CC=CC[C@@H]1C(=O)Nc1ccccc1C(=O)NCc1ccco1)c1ccc(-c2c3nc(c(-c4c(F)c(F)c(F)c(F)c4F)c4ccc([nH]4)c(-c4c(F)c(F)c(F)c(F)c4F)c4nc(c(-c5c(F)c(F)c(F)c(F)c5F)c5ccc2[nH]5)C=C4)C=C3)cc1
REMARK SMILES IDX 7 1 6 2 5 3 4 4 3 5 2 6 1 7 36 8 37 9 98 10 38 11 97 12
REMARK SMILES IDX 39 13 40 14 41 15 91 16 42 17 96 18 90 19 92 20 43 21 95 22
REMARK SMILES IDX 89 23 88 24 44 26 76 27 56 28 75 29 57 30 60 31 74 32 93 33
REMARK SMILES IDX 58 34 59 35 73 37 94 38 61 39 45 40 46 41 54 42 47 43 48 44
REMARK SMILES IDX 52 45 55 46 49 47 50 48 53 49 51 50 77 51 78 52 86 53 79 54
REMARK SMILES IDX 80 55 84 56 87 57 81 58 82 59 85 60 83 61 62 62 63 63 71 64
REMARK SMILES IDX 64 65 65 66 69 67 72 68 66 69 67 70 70 71 68 72 8 73 9 74
REMARK SMILES IDX 10 75 11 76 12 77 13 78 17 79 14 80 16 81 15 82 18 83 19 84
REMARK SMILES IDX 20 85 21 87 22 88 26 89 23 90 25 91 24 92 27 93 28 94 29 95
REMARK SMILES IDX 30 97 31 98 32 99 35 100 33 101 34 102
REMARK H PARENT 92 25 60 36 20 86 29 96
REMARK Flexibility Score: inf
ROOT
ATOM      1  C   UNL A   1      36.719  21.441  25.385  1.00  0.00     0.202 C 
ENDROOT
BRANCH   1   2
ATOM      2  O   UNL A   1      36.608  20.082  24.948  1.00  0.00    -0.374 OA
BRANCH   2   3
ATOM      3  C   UNL A   1      37.800  19.298  25.001  1.00  0.00     0.202 C 
BRANCH   3   4
ATOM      4  C   UNL A   1      38.958  20.017  25.699  1.00  0.00     0.261 C 
BRANCH   4   5
ATOM      5  O   UNL A   1      40.122  19.178  25.751  1.00  0.00    -0.460 OA
BRANCH   5   6
ATOM      6  C   UNL A   1      41.389  19.506  26.090  1.00  0.00     0.338 C 
ATOM      7  O   UNL A   1      42.234  18.610  26.086  1.00  0.00    -0.246 OA
BRANCH   6   8
ATOM      8  C   UNL A   1      41.850  20.881  26.480  1.00  0.00     0.060 A 
ATOM      9  C   UNL A   1      42.217  21.297  27.763  1.00  0.00     0.016 A 
ATOM     10  C   UNL A   1      42.026  21.798  25.426  1.00  0.00     0.016 A 
ATOM     11  C   UNL A   1      42.759  22.553  27.999  1.00  0.00     0.010 A 
ATOM     12  C   UNL A   1      42.565  23.067  25.651  1.00  0.00     0.010 A 
ATOM     13  C   UNL A   1      42.939  23.438  26.945  1.00  0.00    -0.014 A 
BRANCH  13  14
ATOM     14  C   UNL A   1      43.444  24.780  27.256  1.00  0.00     0.031 A 
ATOM     15  C   UNL A   1      42.501  25.757  27.877  1.00  0.00     0.074 A 
ATOM     16  C   UNL A   1      44.749  25.050  27.083  1.00  0.00     0.049 A 
ATOM     17  N   UNL A   1      42.691  27.012  28.176  1.00  0.00    -0.248 NA
ATOM     18  C   UNL A   1      41.164  25.245  28.227  1.00  0.00     0.031 C 
ATOM     19  C   UNL A   1      45.751  24.091  26.610  1.00  0.00     0.029 A 
ATOM     20  N   UNL A   1      45.460  26.198  27.297  1.00  0.00    -0.354 N 
ATOM     21  C   UNL A   1      41.491  27.447  28.719  1.00  0.00     0.074 A 
ATOM     22  C   UNL A   1      40.583  26.325  28.728  1.00  0.00     0.031 C 
ATOM     23  C   UNL A   1      46.948  24.697  26.561  1.00  0.00     0.029 A 
ATOM     24  C   UNL A   1      46.781  26.097  26.934  1.00  0.00     0.049 A 
ATOM     25  H   UNL A   1      45.065  27.017  27.675  1.00  0.00     0.167 HD
ATOM     26  C   UNL A   1      41.186  28.692  29.148  1.00  0.00     0.037 A 
ATOM     27  C   UNL A   1      47.724  27.057  26.862  1.00  0.00     0.037 A 
ATOM     28  C   UNL A   1      42.123  29.781  29.122  1.00  0.00     0.049 A 
ATOM     29  C   UNL A   1      47.321  28.457  27.249  1.00  0.00     0.074 A 
ATOM     30  C   UNL A   1      41.934  31.095  29.501  1.00  0.00     0.029 A 
ATOM     31  N   UNL A   1      43.435  29.669  28.680  1.00  0.00    -0.354 N 
ATOM     32  N   UNL A   1      46.176  28.886  27.727  1.00  0.00    -0.248 NA
ATOM     33  C   UNL A   1      48.325  29.512  27.063  1.00  0.00     0.031 C 
ATOM     34  C   UNL A   1      43.117  31.792  29.235  1.00  0.00     0.029 A 
ATOM     35  C   UNL A   1      44.059  30.901  28.737  1.00  0.00     0.049 A 
ATOM     36  H   UNL A   1      43.859  28.835  28.371  1.00  0.00     0.167 HD
ATOM     37  C   UNL A   1      46.320  30.253  27.902  1.00  0.00     0.074 A 
ATOM     38  C   UNL A   1      47.677  30.579  27.508  1.00  0.00     0.031 C 
ATOM     39  C   UNL A   1      45.416  31.167  28.333  1.00  0.00     0.037 A 
BRANCH  26  40
ATOM     40  C   UNL A   1      39.778  28.948  29.585  1.00  0.00     0.064 A 
ATOM     41  C   UNL A   1      38.789  29.394  28.699  1.00  0.00     0.173 A 
ATOM     42  C   UNL A   1      39.418  28.744  30.925  1.00  0.00     0.173 A 
ATOM     43  F   UNL A   1      39.090  29.636  27.414  1.00  0.00    -0.203 F 
ATOM     44  C   UNL A   1      37.490  29.638  29.141  1.00  0.00     0.198 A 
ATOM     45  C   UNL A   1      38.114  28.966  31.360  1.00  0.00     0.198 A 
ATOM     46  F   UNL A   1      40.333  28.331  31.815  1.00  0.00    -0.203 F 
ATOM     47  F   UNL A   1      36.567  30.102  28.287  1.00  0.00    -0.200 F 
ATOM     48  C   UNL A   1      37.153  29.416  30.470  1.00  0.00     0.200 A 
ATOM     49  F   UNL A   1      37.792  28.751  32.643  1.00  0.00    -0.200 F 
ATOM     50  F   UNL A   1      35.903  29.649  30.894  1.00  0.00    -0.200 F 
ENDBRANCH  26  40
BRANCH  27  51
ATOM     51  C   UNL A   1      49.078  26.757  26.323  1.00  0.00     0.064 A 
ATOM     52  C   UNL A   1      50.121  26.328  27.156  1.00  0.00     0.173 A 
ATOM     53  C   UNL A   1      49.373  26.940  24.962  1.00  0.00     0.173 A 
ATOM     54  F   UNL A   1      49.905  26.161  28.469  1.00  0.00    -0.203 F 
ATOM     55  C   UNL A   1      51.407  26.122  26.655  1.00  0.00     0.198 A 
ATOM     56  C   UNL A   1      50.648  26.700  24.456  1.00  0.00     0.198 A 
ATOM     57  F   UNL A   1      48.419  27.357  24.116  1.00  0.00    -0.203 F 
ATOM     58  F   UNL A   1      52.400  25.774  27.486  1.00  0.00    -0.200 F 
ATOM     59  C   UNL A   1      51.668  26.303  25.306  1.00  0.00     0.200 A 
ATOM     60  F   UNL A   1      50.891  26.866  23.149  1.00  0.00    -0.200 F 
ATOM     61  F   UNL A   1      52.906  26.113  24.827  1.00  0.00    -0.200 F 
ENDBRANCH  27  51
BRANCH  39  62
ATOM     62  C   UNL A   1      45.873  32.591  28.396  1.00  0.00     0.064 A 
ATOM     63  C   UNL A   1      45.684  33.463  27.313  1.00  0.00     0.173 A 
ATOM     64  C   UNL A   1      46.439  33.105  29.571  1.00  0.00     0.173 A 
ATOM     65  F   UNL A   1      45.162  33.009  26.164  1.00  0.00    -0.203 F 
ATOM     66  C   UNL A   1      46.060  34.799  27.403  1.00  0.00     0.198 A 
ATOM     67  C   UNL A   1      46.786  34.448  29.667  1.00  0.00     0.198 A 
ATOM     68  F   UNL A   1      46.632  32.308  30.633  1.00  0.00    -0.203 F 
ATOM     69  F   UNL A   1      45.904  35.608  26.345  1.00  0.00    -0.200 F 
ATOM     70  C   UNL A   1      46.600  35.292  28.582  1.00  0.00     0.200 A 
ATOM     71  F   UNL A   1      47.292  34.928  30.811  1.00  0.00    -0.200 F 
ATOM     72  F   UNL A   1      46.944  36.584  28.672  1.00  0.00    -0.200 F 
ENDBRANCH  39  62
ENDBRANCH  13  14
ENDBRANCH   6   8
ENDBRANCH   5   6
ENDBRANCH   4   5
ENDBRANCH   3   4
ENDBRANCH   2   3
ENDBRANCH   1   2
BRANCH   1  73
ATOM     73  C   UNL A   1      36.441  22.373  24.210  1.00  0.00     0.261 C 
BRANCH  73  74
ATOM     74  O   UNL A   1      35.021  22.479  24.078  1.00  0.00    -0.463 OA
BRANCH  74  75
ATOM     75  C   UNL A   1      34.511  23.707  24.338  1.00  0.00     0.310 C 
ATOM     76  O   UNL A   1      35.148  24.651  24.794  1.00  0.00    -0.252 OA
BRANCH  75  77
ATOM     77  C   UNL A   1      33.047  23.813  23.954  1.00  0.00     0.116 C 
ATOM     78  C   UNL A   1      32.312  22.465  23.881  1.00  0.00     0.043 C 
ATOM     79  C   UNL A   1      32.423  24.783  24.959  1.00  0.00     0.097 C 
ATOM     80  C   UNL A   1      31.897  21.951  25.227  1.00  0.00    -0.030 C 
ATOM     81  C   UNL A   1      32.309  24.151  26.356  1.00  0.00     0.041 C 
ATOM     82  C   UNL A   1      31.921  22.701  26.338  1.00  0.00    -0.030 C 
BRANCH  79  83
ATOM     83  C   UNL A   1      31.081  25.314  24.482  1.00  0.00     0.228 C 
ATOM     84  O   UNL A   1      30.278  24.634  23.844  1.00  0.00    -0.274 OA
ATOM     85  N   UNL A   1      30.730  26.601  24.801  1.00  0.00    -0.325 N 
ATOM     86  H   UNL A   1      29.808  26.865  24.578  1.00  0.00     0.169 HD
BRANCH  85  87
ATOM     87  C   UNL A   1      31.523  27.585  25.406  1.00  0.00     0.054 A 
ATOM     88  C   UNL A   1      31.403  27.559  26.812  1.00  0.00     0.027 A 
ATOM     89  C   UNL A   1      32.476  28.420  24.783  1.00  0.00     0.063 A 
ATOM     90  C   UNL A   1      32.326  28.203  27.627  1.00  0.00     0.002 A 
ATOM     91  C   UNL A   1      33.409  29.043  25.652  1.00  0.00     0.016 A 
ATOM     92  C   UNL A   1      33.357  28.916  27.044  1.00  0.00     0.001 A 
BRANCH  89  93
ATOM     93  C   UNL A   1      32.664  28.844  23.337  1.00  0.00     0.253 C 
ATOM     94  O   UNL A   1      33.824  29.007  22.934  1.00  0.00    -0.269 OA
ATOM     95  N   UNL A   1      31.719  29.172  22.400  1.00  0.00    -0.345 N 
ATOM     96  H   UNL A   1      32.083  29.724  21.669  1.00  0.00     0.164 HD
BRANCH  95  97
ATOM     97  C   UNL A   1      30.317  28.895  22.240  1.00  0.00     0.191 C 
BRANCH  97  98
ATOM     98  C   UNL A   1      29.446  30.073  22.432  1.00  0.00     0.122 A 
ATOM     99  C   UNL A   1      29.052  30.849  23.501  1.00  0.00     0.047 A 
ATOM    100  O   UNL A   1      28.993  30.631  21.269  1.00  0.00    -0.467 OA
ATOM    101  C   UNL A   1      28.340  31.949  22.952  1.00  0.00     0.042 A 
ATOM    102  C   UNL A   1      28.336  31.767  21.591  1.00  0.00     0.195 A 
ENDBRANCH  97  98
ENDBRANCH  95  97
ENDBRANCH  89  93
ENDBRANCH  85  87
ENDBRANCH  79  83
ENDBRANCH  75  77
ENDBRANCH  74  75
ENDBRANCH  73  74
ENDBRANCH   1  73
TORSDOF 19
ENDMDL
