MODEL 1
REMARK VINA RESULT:     -14.1      0.000      0.000
REMARK SMILES CN(C)S(=O)(=O)c1ccc(-n2c(CCC(=O)OCCOCCOC(=O)c3ccc(-c4c5nc(c(-c6c(F)c(F)c(F)c(F)c6F)c6ccc([nH]6)c(-c6c(F)c(F)c(F)c(F)c6F)c6nc(c(-c7c(F)c(F)c(F)c(F)c7F)c7ccc4[nH]7)C=C6)C=C5)cc3)ccc2-c2ccc(F)cc2)cc1
REMARK SMILES IDX 18 1 17 2 15 3 16 4 14 5 13 6 12 7 11 8 91 9 89 10 90 11
REMARK SMILES IDX 10 12 7 13 8 14 100 15 9 16 99 17 4 18 5 19 6 20 2 21 1 22
REMARK SMILES IDX 3 23 92 24 93 25 98 26 94 27 97 28 95 29 96 30 19 31 20 32
REMARK SMILES IDX 21 33 22 34 23 35 24 36 25 37 26 38 27 39 88 40 28 41 87 42
REMARK SMILES IDX 29 43 30 44 31 45 81 46 32 47 86 48 80 49 82 50 33 51 85 52
REMARK SMILES IDX 79 53 78 54 34 56 66 57 46 58 65 59 47 60 50 61 64 62 83 63
REMARK SMILES IDX 48 64 49 65 63 67 84 68 51 69 35 70 36 71 44 72 37 73 38 74
REMARK SMILES IDX 42 75 45 76 39 77 40 78 43 79 41 80 67 81 68 82 76 83 69 84
REMARK SMILES IDX 70 85 74 86 77 87 71 88 72 89 75 90 73 91 52 92 53 93 61 94
REMARK SMILES IDX 54 95 55 96 59 97 62 98 56 99 57 100 60 101 58 102
REMARK H PARENT 82 55 50 66
REMARK Flexibility Score: inf
ROOT
ATOM      1  C   UNL A   1      31.110  26.845  26.362  1.00  0.00     0.261 C 
ENDROOT
BRANCH   1   2
ATOM      2  O   UNL A   1      31.014  25.140  26.108  1.00  0.00    -0.463 OA
BRANCH   2   3
ATOM      3  C   UNL A   1      31.742  24.182  26.757  1.00  0.00     0.306 C 
ATOM      4  O   UNL A   1      31.215  23.352  27.492  1.00  0.00    -0.252 OA
BRANCH   3   5
ATOM      5  C   UNL A   1      33.288  24.142  26.469  1.00  0.00     0.129 C 
BRANCH   5   6
ATOM      6  C   UNL A   1      33.957  23.933  25.086  1.00  0.00     0.066 C 
BRANCH   6   7
ATOM      7  C   UNL A   1      33.525  22.699  24.400  1.00  0.00     0.024 A 
ATOM      8  N   UNL A   1      34.197  21.492  24.495  1.00  0.00    -0.314 N 
ATOM      9  C   UNL A   1      33.274  20.497  24.087  1.00  0.00     0.053 A 
ATOM     10  C   UNL A   1      32.400  22.526  23.621  1.00  0.00     0.024 A 
ATOM     11  C   UNL A   1      32.225  21.147  23.453  1.00  0.00     0.029 A 
BRANCH   8  12
ATOM     12  C   UNL A   1      35.495  21.308  25.108  1.00  0.00     0.046 A 
ATOM     13  C   UNL A   1      39.029  21.429  25.877  1.00  0.00     0.082 A 
ATOM     14  C   UNL A   1      37.990  22.847  26.155  1.00  0.00     0.024 A 
ATOM     15  C   UNL A   1      38.362  19.914  25.208  1.00  0.00     0.024 A 
ATOM     16  C   UNL A   1      36.252  22.782  25.807  1.00  0.00     0.028 A 
ATOM     17  C   UNL A   1      36.576  19.828  24.845  1.00  0.00     0.028 A 
BRANCH  13  18
ATOM     18  S   UNL A   1      40.533  21.428  26.831  1.00  0.00     0.242 S 
ATOM     19  O   UNL A   1      40.436  20.325  27.765  1.00  0.00    -0.207 OA
ATOM     20  O   UNL A   1      40.706  22.784  27.304  1.00  0.00    -0.207 OA
BRANCH  18  21
ATOM     21  N   UNL A   1      41.772  21.063  25.715  1.00  0.00    -0.204 NA
ATOM     22  C   UNL A   1      42.797  22.123  25.629  1.00  0.00     0.124 C 
ATOM     23  C   UNL A   1      42.402  19.723  25.831  1.00  0.00     0.124 C 
ENDBRANCH  18  21
ENDBRANCH  13  18
ENDBRANCH   8  12
BRANCH   9  24
ATOM     24  C   UNL A   1      33.308  19.047  24.342  1.00  0.00    -0.001 A 
ATOM     25  C   UNL A   1      32.885  18.553  25.587  1.00  0.00     0.013 A 
ATOM     26  C   UNL A   1      33.740  18.132  23.365  1.00  0.00     0.013 A 
ATOM     27  C   UNL A   1      32.779  17.177  25.805  1.00  0.00     0.040 A 
ATOM     28  C   UNL A   1      33.596  16.754  23.571  1.00  0.00     0.040 A 
ATOM     29  C   UNL A   1      33.104  16.292  24.784  1.00  0.00     0.123 A 
ATOM     30  F   UNL A   1      32.930  14.978  24.972  1.00  0.00    -0.207 F 
ENDBRANCH   9  24
ENDBRANCH   6   7
ENDBRANCH   5   6
ENDBRANCH   3   5
ENDBRANCH   2   3
ENDBRANCH   1   2
BRANCH   1  31
ATOM     31  C   UNL A   1      31.867  28.276  24.866  1.00  0.00     0.202 C 
BRANCH  31  32
ATOM     32  O   UNL A   1      32.616  29.663  25.076  1.00  0.00    -0.374 OA
BRANCH  32  33
ATOM     33  C   UNL A   1      33.215  29.989  26.340  1.00  0.00     0.202 C 
BRANCH  33  34
ATOM     34  C   UNL A   1      32.680  31.187  27.094  1.00  0.00     0.261 C 
BRANCH  34  35
ATOM     35  O   UNL A   1      33.726  32.055  27.482  1.00  0.00    -0.460 OA
BRANCH  35  36
ATOM     36  C   UNL A   1      33.324  33.226  28.025  1.00  0.00     0.338 C 
ATOM     37  O   UNL A   1      32.425  33.957  27.655  1.00  0.00    -0.246 OA
BRANCH  36  38
ATOM     38  C   UNL A   1      34.273  33.550  29.091  1.00  0.00     0.060 A 
ATOM     39  C   UNL A   1      35.459  34.182  28.714  1.00  0.00     0.016 A 
ATOM     40  C   UNL A   1      34.148  32.817  30.276  1.00  0.00     0.016 A 
ATOM     41  C   UNL A   1      36.603  33.838  29.395  1.00  0.00     0.010 A 
ATOM     42  C   UNL A   1      35.294  32.360  30.857  1.00  0.00     0.010 A 
ATOM     43  C   UNL A   1      36.513  32.846  30.380  1.00  0.00    -0.014 A 
BRANCH  43  44
ATOM     44  C   UNL A   1      37.717  32.450  31.101  1.00  0.00     0.031 A 
ATOM     45  C   UNL A   1      38.286  31.203  30.304  1.00  0.00     0.074 A 
ATOM     46  C   UNL A   1      37.970  33.225  32.224  1.00  0.00     0.049 A 
ATOM     47  N   UNL A   1      38.871  30.125  30.722  1.00  0.00    -0.248 NA
ATOM     48  C   UNL A   1      38.068  31.093  28.813  1.00  0.00     0.031 C 
ATOM     49  C   UNL A   1      37.209  34.438  32.659  1.00  0.00     0.029 A 
ATOM     50  N   UNL A   1      38.915  33.223  33.227  1.00  0.00    -0.354 N 
ATOM     51  C   UNL A   1      39.304  29.397  29.578  1.00  0.00     0.074 A 
ATOM     52  C   UNL A   1      38.619  29.933  28.456  1.00  0.00     0.031 C 
ATOM     53  C   UNL A   1      37.619  34.897  33.873  1.00  0.00     0.029 A 
ATOM     54  C   UNL A   1      38.712  34.084  34.361  1.00  0.00     0.049 A 
ATOM     55  H   UNL A   1      39.711  32.645  33.168  1.00  0.00     0.167 HD
ATOM     56  C   UNL A   1      40.407  28.594  29.602  1.00  0.00     0.037 A 
ATOM     57  C   UNL A   1      39.357  34.051  35.595  1.00  0.00     0.037 A 
ATOM     58  C   UNL A   1      40.932  28.637  30.912  1.00  0.00     0.049 A 
ATOM     59  C   UNL A   1      40.359  32.984  35.426  1.00  0.00     0.074 A 
ATOM     60  C   UNL A   1      40.617  27.988  32.067  1.00  0.00     0.029 A 
ATOM     61  N   UNL A   1      41.727  29.722  31.173  1.00  0.00    -0.354 N 
ATOM     62  N   UNL A   1      41.346  33.026  34.582  1.00  0.00    -0.248 NA
ATOM     63  C   UNL A   1      39.889  31.681  35.887  1.00  0.00     0.031 C 
ATOM     64  C   UNL A   1      41.068  28.858  33.074  1.00  0.00     0.029 A 
ATOM     65  C   UNL A   1      41.577  30.029  32.492  1.00  0.00     0.049 A 
ATOM     66  H   UNL A   1      42.302  30.192  30.527  1.00  0.00     0.167 HD
ATOM     67  C   UNL A   1      41.404  31.727  34.132  1.00  0.00     0.074 A 
ATOM     68  C   UNL A   1      40.427  30.979  34.909  1.00  0.00     0.031 C 
ATOM     69  C   UNL A   1      41.859  31.383  32.902  1.00  0.00     0.037 A 
BRANCH  56  70
ATOM     70  C   UNL A   1      41.352  28.033  28.568  1.00  0.00     0.064 A 
ATOM     71  C   UNL A   1      42.177  28.965  27.876  1.00  0.00     0.173 A 
ATOM     72  C   UNL A   1      41.176  26.792  27.948  1.00  0.00     0.173 A 
ATOM     73  F   UNL A   1      42.446  30.169  28.405  1.00  0.00    -0.203 F 
ATOM     74  C   UNL A   1      42.640  28.733  26.584  1.00  0.00     0.198 A 
ATOM     75  C   UNL A   1      41.703  26.538  26.674  1.00  0.00     0.198 A 
ATOM     76  F   UNL A   1      40.405  25.845  28.496  1.00  0.00    -0.203 F 
ATOM     77  F   UNL A   1      43.250  29.714  25.906  1.00  0.00    -0.200 F 
ATOM     78  C   UNL A   1      42.389  27.521  25.977  1.00  0.00     0.200 A 
ATOM     79  F   UNL A   1      41.463  25.360  26.084  1.00  0.00    -0.200 F 
ATOM     80  F   UNL A   1      42.775  27.311  24.711  1.00  0.00    -0.200 F 
ENDBRANCH  56  70
BRANCH  57  81
ATOM     81  C   UNL A   1      39.140  34.509  37.042  1.00  0.00     0.064 A 
ATOM     82  C   UNL A   1      38.340  33.882  37.997  1.00  0.00     0.173 A 
ATOM     83  C   UNL A   1      39.859  35.643  37.562  1.00  0.00     0.173 A 
ATOM     84  F   UNL A   1      37.494  32.911  37.631  1.00  0.00    -0.203 F 
ATOM     85  C   UNL A   1      38.366  34.263  39.363  1.00  0.00     0.198 A 
ATOM     86  C   UNL A   1      39.957  35.960  38.919  1.00  0.00     0.198 A 
ATOM     87  F   UNL A   1      40.495  36.508  36.759  1.00  0.00    -0.203 F 
ATOM     88  F   UNL A   1      37.559  33.651  40.240  1.00  0.00    -0.200 F 
ATOM     89  C   UNL A   1      39.217  35.255  39.829  1.00  0.00     0.200 A 
ATOM     90  F   UNL A   1      40.778  36.944  39.319  1.00  0.00    -0.200 F 
ATOM     91  F   UNL A   1      39.300  35.550  41.135  1.00  0.00    -0.200 F 
ENDBRANCH  57  81
BRANCH  69  92
ATOM     92  C   UNL A   1      42.317  32.554  32.017  1.00  0.00     0.064 A 
ATOM     93  C   UNL A   1      43.465  33.292  32.334  1.00  0.00     0.173 A 
ATOM     94  C   UNL A   1      41.578  33.052  30.917  1.00  0.00     0.173 A 
ATOM     95  F   UNL A   1      44.242  32.901  33.352  1.00  0.00    -0.203 F 
ATOM     96  C   UNL A   1      43.843  34.435  31.610  1.00  0.00     0.198 A 
ATOM     97  C   UNL A   1      41.941  34.203  30.201  1.00  0.00     0.198 A 
ATOM     98  F   UNL A   1      40.488  32.418  30.493  1.00  0.00    -0.203 F 
ATOM     99  F   UNL A   1      44.962  35.093  31.942  1.00  0.00    -0.200 F 
ATOM    100  C   UNL A   1      43.080  34.894  30.548  1.00  0.00     0.200 A 
ATOM    101  F   UNL A   1      41.187  34.625  29.172  1.00  0.00    -0.200 F 
ATOM    102  F   UNL A   1      43.452  35.979  29.853  1.00  0.00    -0.200 F 
ENDBRANCH  69  92
ENDBRANCH  43  44
ENDBRANCH  36  38
ENDBRANCH  35  36
ENDBRANCH  34  35
ENDBRANCH  33  34
ENDBRANCH  32  33
ENDBRANCH  31  32
ENDBRANCH   1  31
TORSDOF 20
ENDMDL
MODEL 2
REMARK VINA RESULT:     -13.5      2.475      3.733
REMARK SMILES CN(C)S(=O)(=O)c1ccc(-n2c(CCC(=O)OCCOCCOC(=O)c3ccc(-c4c5nc(c(-c6c(F)c(F)c(F)c(F)c6F)c6ccc([nH]6)c(-c6c(F)c(F)c(F)c(F)c6F)c6nc(c(-c7c(F)c(F)c(F)c(F)c7F)c7ccc4[nH]7)C=C6)C=C5)cc3)ccc2-c2ccc(F)cc2)cc1
REMARK SMILES IDX 18 1 17 2 15 3 16 4 14 5 13 6 12 7 11 8 91 9 89 10 90 11
REMARK SMILES IDX 10 12 7 13 8 14 100 15 9 16 99 17 4 18 5 19 6 20 2 21 1 22
REMARK SMILES IDX 3 23 92 24 93 25 98 26 94 27 97 28 95 29 96 30 19 31 20 32
REMARK SMILES IDX 21 33 22 34 23 35 24 36 25 37 26 38 27 39 88 40 28 41 87 42
REMARK SMILES IDX 29 43 30 44 31 45 81 46 32 47 86 48 80 49 82 50 33 51 85 52
REMARK SMILES IDX 79 53 78 54 34 56 66 57 46 58 65 59 47 60 50 61 64 62 83 63
REMARK SMILES IDX 48 64 49 65 63 67 84 68 51 69 35 70 36 71 44 72 37 73 38 74
REMARK SMILES IDX 42 75 45 76 39 77 40 78 43 79 41 80 67 81 68 82 76 83 69 84
REMARK SMILES IDX 70 85 74 86 77 87 71 88 72 89 75 90 73 91 52 92 53 93 61 94
REMARK SMILES IDX 54 95 55 96 59 97 62 98 56 99 57 100 60 101 58 102
REMARK H PARENT 82 55 50 66
REMARK Flexibility Score: inf
ROOT
ATOM      1  C   UNL A   1      30.431  25.774  26.080  1.00  0.00     0.261 C 
ENDROOT
BRANCH   1   2
ATOM      2  O   UNL A   1      31.120  24.192  26.029  1.00  0.00    -0.463 OA
BRANCH   2   3
ATOM      3  C   UNL A   1      31.128  23.278  27.045  1.00  0.00     0.306 C 
ATOM      4  O   UNL A   1      30.106  22.968  27.649  1.00  0.00    -0.252 OA
BRANCH   3   5
ATOM      5  C   UNL A   1      32.501  22.581  27.367  1.00  0.00     0.129 C 
BRANCH   5   6
ATOM      6  C   UNL A   1      33.907  23.222  27.236  1.00  0.00     0.066 C 
BRANCH   6   7
ATOM      7  C   UNL A   1      34.037  24.129  26.077  1.00  0.00     0.024 A 
ATOM      8  N   UNL A   1      34.011  23.702  24.761  1.00  0.00    -0.314 N 
ATOM      9  C   UNL A   1      33.726  24.850  23.982  1.00  0.00     0.053 A 
ATOM     10  C   UNL A   1      34.151  25.503  26.101  1.00  0.00     0.024 A 
ATOM     11  C   UNL A   1      33.923  25.956  24.796  1.00  0.00     0.029 A 
BRANCH   8  12
ATOM     12  C   UNL A   1      34.046  22.319  24.333  1.00  0.00     0.046 A 
ATOM     13  C   UNL A   1      33.586  18.739  24.093  1.00  0.00     0.082 A 
ATOM     14  C   UNL A   1      32.240  19.852  23.752  1.00  0.00     0.024 A 
ATOM     15  C   UNL A   1      35.193  19.353  24.567  1.00  0.00     0.024 A 
ATOM     16  C   UNL A   1      32.469  21.608  23.840  1.00  0.00     0.028 A 
ATOM     17  C   UNL A   1      35.448  21.157  24.661  1.00  0.00     0.028 A 
BRANCH  13  18
ATOM     18  S   UNL A   1      33.398  17.121  23.368  1.00  0.00     0.242 S 
ATOM     19  O   UNL A   1      34.592  16.871  22.588  1.00  0.00    -0.207 OA
ATOM     20  O   UNL A   1      32.092  17.115  22.746  1.00  0.00    -0.207 OA
BRANCH  18  21
ATOM     21  N   UNL A   1      33.394  16.037  24.686  1.00  0.00    -0.204 NA
ATOM     22  C   UNL A   1      34.737  15.839  25.270  1.00  0.00     0.124 C 
ATOM     23  C   UNL A   1      32.384  16.280  25.748  1.00  0.00     0.124 C 
ENDBRANCH  18  21
ENDBRANCH  13  18
ENDBRANCH   8  12
BRANCH   9  24
ATOM     24  C   UNL A   1      33.216  24.927  22.602  1.00  0.00    -0.001 A 
ATOM     25  C   UNL A   1      32.390  25.999  22.228  1.00  0.00     0.013 A 
ATOM     26  C   UNL A   1      33.544  23.959  21.636  1.00  0.00     0.013 A 
ATOM     27  C   UNL A   1      32.005  26.166  20.895  1.00  0.00     0.040 A 
ATOM     28  C   UNL A   1      33.190  24.149  20.294  1.00  0.00     0.040 A 
ATOM     29  C   UNL A   1      32.437  25.258  19.936  1.00  0.00     0.123 A 
ATOM     30  F   UNL A   1      32.128  25.463  18.649  1.00  0.00    -0.207 F 
ENDBRANCH   9  24
ENDBRANCH   6   7
ENDBRANCH   5   6
ENDBRANCH   3   5
ENDBRANCH   2   3
ENDBRANCH   1   2
BRANCH   1  31
ATOM     31  C   UNL A   1      31.415  27.522  26.996  1.00  0.00     0.202 C 
BRANCH  31  32
ATOM     32  O   UNL A   1      32.294  28.661  26.320  1.00  0.00    -0.374 OA
BRANCH  32  33
ATOM     33  C   UNL A   1      33.031  29.594  27.126  1.00  0.00     0.202 C 
BRANCH  33  34
ATOM     34  C   UNL A   1      32.570  31.035  27.150  1.00  0.00     0.261 C 
BRANCH  34  35
ATOM     35  O   UNL A   1      33.643  31.910  27.431  1.00  0.00    -0.460 OA
BRANCH  35  36
ATOM     36  C   UNL A   1      33.282  33.111  27.937  1.00  0.00     0.338 C 
ATOM     37  O   UNL A   1      32.388  33.846  27.564  1.00  0.00    -0.246 OA
BRANCH  36  38
ATOM     38  C   UNL A   1      34.270  33.457  28.961  1.00  0.00     0.060 A 
ATOM     39  C   UNL A   1      35.484  33.985  28.518  1.00  0.00     0.016 A 
ATOM     40  C   UNL A   1      34.125  32.825  30.200  1.00  0.00     0.016 A 
ATOM     41  C   UNL A   1      36.619  33.625  29.206  1.00  0.00     0.010 A 
ATOM     42  C   UNL A   1      35.254  32.346  30.797  1.00  0.00     0.010 A 
ATOM     43  C   UNL A   1      36.490  32.718  30.265  1.00  0.00    -0.014 A 
BRANCH  43  44
ATOM     44  C   UNL A   1      37.683  32.306  30.996  1.00  0.00     0.031 A 
ATOM     45  C   UNL A   1      38.205  31.013  30.241  1.00  0.00     0.074 A 
ATOM     46  C   UNL A   1      37.966  33.110  32.091  1.00  0.00     0.049 A 
ATOM     47  N   UNL A   1      38.753  29.930  30.695  1.00  0.00    -0.248 NA
ATOM     48  C   UNL A   1      37.976  30.860  28.755  1.00  0.00     0.031 C 
ATOM     49  C   UNL A   1      37.250  34.363  32.485  1.00  0.00     0.029 A 
ATOM     50  N   UNL A   1      38.915  33.110  33.091  1.00  0.00    -0.354 N 
ATOM     51  C   UNL A   1      39.156  29.149  29.575  1.00  0.00     0.074 A 
ATOM     52  C   UNL A   1      38.485  29.669  28.437  1.00  0.00     0.031 C 
ATOM     53  C   UNL A   1      37.680  34.850  33.682  1.00  0.00     0.029 A 
ATOM     54  C   UNL A   1      38.746  34.016  34.195  1.00  0.00     0.049 A 
ATOM     55  H   UNL A   1      39.690  32.503  33.049  1.00  0.00     0.167 HD
ATOM     56  C   UNL A   1      40.231  28.309  29.624  1.00  0.00     0.037 A 
ATOM     57  C   UNL A   1      39.395  34.003  35.427  1.00  0.00     0.037 A 
ATOM     58  C   UNL A   1      40.762  28.380  30.930  1.00  0.00     0.049 A 
ATOM     59  C   UNL A   1      40.358  32.898  35.292  1.00  0.00     0.074 A 
ATOM     60  C   UNL A   1      40.430  27.782  32.107  1.00  0.00     0.029 A 
ATOM     61  N   UNL A   1      41.596  29.444  31.151  1.00  0.00    -0.354 N 
ATOM     62  N   UNL A   1      41.343  32.876  34.445  1.00  0.00    -0.248 NA
ATOM     63  C   UNL A   1      39.846  31.627  35.800  1.00  0.00     0.031 C 
ATOM     64  C   UNL A   1      40.915  28.670  33.083  1.00  0.00     0.029 A 
ATOM     65  C   UNL A   1      41.461  29.802  32.459  1.00  0.00     0.049 A 
ATOM     66  H   UNL A   1      42.184  29.872  30.487  1.00  0.00     0.167 HD
ATOM     67  C   UNL A   1      41.354  31.561  34.039  1.00  0.00     0.074 A 
ATOM     68  C   UNL A   1      40.355  30.874  34.845  1.00  0.00     0.031 C 
ATOM     69  C   UNL A   1      41.792  31.158  32.821  1.00  0.00     0.037 A 
BRANCH  56  70
ATOM     70  C   UNL A   1      41.152  27.680  28.607  1.00  0.00     0.064 A 
ATOM     71  C   UNL A   1      41.871  28.566  27.755  1.00  0.00     0.173 A 
ATOM     72  C   UNL A   1      41.026  26.363  28.157  1.00  0.00     0.173 A 
ATOM     73  F   UNL A   1      42.088  29.841  28.114  1.00  0.00    -0.203 F 
ATOM     74  C   UNL A   1      42.275  28.201  26.473  1.00  0.00     0.198 A 
ATOM     75  C   UNL A   1      41.496  25.983  26.891  1.00  0.00     0.198 A 
ATOM     76  F   UNL A   1      40.352  25.448  28.865  1.00  0.00    -0.203 F 
ATOM     77  F   UNL A   1      42.778  29.124  25.643  1.00  0.00    -0.200 F 
ATOM     78  C   UNL A   1      42.073  26.910  26.037  1.00  0.00     0.200 A 
ATOM     79  F   UNL A   1      41.303  24.727  26.466  1.00  0.00    -0.200 F 
ATOM     80  F   UNL A   1      42.400  26.565  24.784  1.00  0.00    -0.200 F 
ENDBRANCH  56  70
BRANCH  57  81
ATOM     81  C   UNL A   1      39.200  34.518  36.858  1.00  0.00     0.064 A 
ATOM     82  C   UNL A   1      38.402  33.938  37.844  1.00  0.00     0.173 A 
ATOM     83  C   UNL A   1      39.939  35.661  37.327  1.00  0.00     0.173 A 
ATOM     84  F   UNL A   1      37.540  32.966  37.524  1.00  0.00    -0.203 F 
ATOM     85  C   UNL A   1      38.448  34.370  39.194  1.00  0.00     0.198 A 
ATOM     86  C   UNL A   1      40.056  36.028  38.670  1.00  0.00     0.198 A 
ATOM     87  F   UNL A   1      40.577  36.487  36.485  1.00  0.00    -0.203 F 
ATOM     88  F   UNL A   1      37.643  33.803  40.103  1.00  0.00    -0.200 F 
ATOM     89  C   UNL A   1      39.317  35.368  39.614  1.00  0.00     0.200 A 
ATOM     90  F   UNL A   1      40.894  37.016  39.024  1.00  0.00    -0.200 F 
ATOM     91  F   UNL A   1      39.418  35.710  40.907  1.00  0.00    -0.200 F 
ENDBRANCH  57  81
BRANCH  69  92
ATOM     92  C   UNL A   1      42.287  32.282  31.894  1.00  0.00     0.064 A 
ATOM     93  C   UNL A   1      43.482  32.963  32.161  1.00  0.00     0.173 A 
ATOM     94  C   UNL A   1      41.544  32.793  30.803  1.00  0.00     0.173 A 
ATOM     95  F   UNL A   1      44.264  32.555  33.168  1.00  0.00    -0.203 F 
ATOM     96  C   UNL A   1      43.899  34.067  31.399  1.00  0.00     0.198 A 
ATOM     97  C   UNL A   1      41.948  33.905  30.049  1.00  0.00     0.198 A 
ATOM     98  F   UNL A   1      40.410  32.209  30.425  1.00  0.00    -0.203 F 
ATOM     99  F   UNL A   1      45.061  34.671  31.684  1.00  0.00    -0.200 F 
ATOM    100  C   UNL A   1      43.132  34.541  30.347  1.00  0.00     0.200 A 
ATOM    101  F   UNL A   1      41.188  34.343  29.030  1.00  0.00    -0.200 F 
ATOM    102  F   UNL A   1      43.542  35.588  29.615  1.00  0.00    -0.200 F 
ENDBRANCH  69  92
ENDBRANCH  43  44
ENDBRANCH  36  38
ENDBRANCH  35  36
ENDBRANCH  34  35
ENDBRANCH  33  34
ENDBRANCH  32  33
ENDBRANCH  31  32
ENDBRANCH   1  31
TORSDOF 20
ENDMDL
MODEL 3
REMARK VINA RESULT:     -13.4      5.430     12.136
REMARK SMILES CN(C)S(=O)(=O)c1ccc(-n2c(CCC(=O)OCCOCCOC(=O)c3ccc(-c4c5nc(c(-c6c(F)c(F)c(F)c(F)c6F)c6ccc([nH]6)c(-c6c(F)c(F)c(F)c(F)c6F)c6nc(c(-c7c(F)c(F)c(F)c(F)c7F)c7ccc4[nH]7)C=C6)C=C5)cc3)ccc2-c2ccc(F)cc2)cc1
REMARK SMILES IDX 18 1 17 2 15 3 16 4 14 5 13 6 12 7 11 8 91 9 89 10 90 11
REMARK SMILES IDX 10 12 7 13 8 14 100 15 9 16 99 17 4 18 5 19 6 20 2 21 1 22
REMARK SMILES IDX 3 23 92 24 93 25 98 26 94 27 97 28 95 29 96 30 19 31 20 32
REMARK SMILES IDX 21 33 22 34 23 35 24 36 25 37 26 38 27 39 88 40 28 41 87 42
REMARK SMILES IDX 29 43 30 44 31 45 81 46 32 47 86 48 80 49 82 50 33 51 85 52
REMARK SMILES IDX 79 53 78 54 34 56 66 57 46 58 65 59 47 60 50 61 64 62 83 63
REMARK SMILES IDX 48 64 49 65 63 67 84 68 51 69 35 70 36 71 44 72 37 73 38 74
REMARK SMILES IDX 42 75 45 76 39 77 40 78 43 79 41 80 67 81 68 82 76 83 69 84
REMARK SMILES IDX 70 85 74 86 77 87 71 88 72 89 75 90 73 91 52 92 53 93 61 94
REMARK SMILES IDX 54 95 55 96 59 97 62 98 56 99 57 100 60 101 58 102
REMARK H PARENT 82 55 50 66
REMARK Flexibility Score: inf
ROOT
ATOM      1  C   UNL A   1      39.401  24.359  27.462  1.00  0.00     0.261 C 
ENDROOT
BRANCH   1   2
ATOM      2  O   UNL A   1      40.034  25.871  26.921  1.00  0.00    -0.463 OA
BRANCH   2   3
ATOM      3  C   UNL A   1      40.325  26.955  27.701  1.00  0.00     0.306 C 
ATOM      4  O   UNL A   1      41.184  26.915  28.576  1.00  0.00    -0.252 OA
BRANCH   3   5
ATOM      5  C   UNL A   1      39.553  28.289  27.385  1.00  0.00     0.129 C 
BRANCH   5   6
ATOM      6  C   UNL A   1      39.317  29.466  28.368  1.00  0.00     0.066 C 
BRANCH   6   7
ATOM      7  C   UNL A   1      37.899  29.863  28.485  1.00  0.00     0.024 A 
ATOM      8  N   UNL A   1      37.454  30.886  29.305  1.00  0.00    -0.314 N 
ATOM      9  C   UNL A   1      36.168  31.238  28.828  1.00  0.00     0.053 A 
ATOM     10  C   UNL A   1      36.826  29.341  27.795  1.00  0.00     0.024 A 
ATOM     11  C   UNL A   1      35.752  30.220  27.982  1.00  0.00     0.029 A 
BRANCH   8  12
ATOM     12  C   UNL A   1      38.262  31.576  30.289  1.00  0.00     0.046 A 
ATOM     13  C   UNL A   1      39.406  33.339  33.234  1.00  0.00     0.082 A 
ATOM     14  C   UNL A   1      39.015  31.604  33.308  1.00  0.00     0.024 A 
ATOM     15  C   UNL A   1      39.239  34.257  31.712  1.00  0.00     0.024 A 
ATOM     16  C   UNL A   1      38.483  30.730  31.860  1.00  0.00     0.028 A 
ATOM     17  C   UNL A   1      38.694  33.375  30.212  1.00  0.00     0.028 A 
BRANCH  13  18
ATOM     18  S   UNL A   1      40.492  33.899  34.531  1.00  0.00     0.242 S 
ATOM     19  O   UNL A   1      40.620  35.334  34.379  1.00  0.00    -0.207 OA
ATOM     20  O   UNL A   1      41.655  33.042  34.473  1.00  0.00    -0.207 OA
BRANCH  18  21
ATOM     21  N   UNL A   1      39.648  33.598  35.983  1.00  0.00    -0.204 NA
ATOM     22  C   UNL A   1      40.288  32.558  36.815  1.00  0.00     0.124 C 
ATOM     23  C   UNL A   1      39.283  34.783  36.802  1.00  0.00     0.124 C 
ENDBRANCH  18  21
ENDBRANCH  13  18
ENDBRANCH   8  12
BRANCH   9  24
ATOM     24  C   UNL A   1      35.405  32.476  29.059  1.00  0.00    -0.001 A 
ATOM     25  C   UNL A   1      34.888  32.743  30.337  1.00  0.00     0.013 A 
ATOM     26  C   UNL A   1      35.187  33.415  28.035  1.00  0.00     0.013 A 
ATOM     27  C   UNL A   1      34.279  33.970  30.615  1.00  0.00     0.040 A 
ATOM     28  C   UNL A   1      34.612  34.660  28.324  1.00  0.00     0.040 A 
ATOM     29  C   UNL A   1      34.177  34.929  29.615  1.00  0.00     0.123 A 
ATOM     30  F   UNL A   1      33.662  36.130  29.904  1.00  0.00    -0.207 F 
ENDBRANCH   9  24
ENDBRANCH   6   7
ENDBRANCH   5   6
ENDBRANCH   3   5
ENDBRANCH   2   3
ENDBRANCH   1   2
BRANCH   1  31
ATOM     31  C   UNL A   1      40.110  22.396  26.752  1.00  0.00     0.202 C 
BRANCH  31  32
ATOM     32  O   UNL A   1      41.121  21.375  27.434  1.00  0.00    -0.374 OA
BRANCH  32  33
ATOM     33  C   UNL A   1      40.895  19.959  27.356  1.00  0.00     0.202 C 
BRANCH  33  34
ATOM     34  C   UNL A   1      41.999  19.092  26.789  1.00  0.00     0.261 C 
BRANCH  34  35
ATOM     35  O   UNL A   1      42.285  19.438  25.450  1.00  0.00    -0.460 OA
BRANCH  35  36
ATOM     36  C   UNL A   1      43.546  19.164  25.046  1.00  0.00     0.338 C 
ATOM     37  O   UNL A   1      44.072  18.077  24.909  1.00  0.00    -0.246 OA
BRANCH  36  38
ATOM     38  C   UNL A   1      44.243  20.446  24.926  1.00  0.00     0.060 A 
ATOM     39  C   UNL A   1      45.598  20.464  25.260  1.00  0.00     0.016 A 
ATOM     40  C   UNL A   1      43.441  21.592  24.947  1.00  0.00     0.016 A 
ATOM     41  C   UNL A   1      46.079  21.589  25.888  1.00  0.00     0.010 A 
ATOM     42  C   UNL A   1      43.870  22.645  25.699  1.00  0.00     0.010 A 
ATOM     43  C   UNL A   1      45.174  22.612  26.197  1.00  0.00    -0.014 A 
BRANCH  43  44
ATOM     44  C   UNL A   1      45.658  23.805  26.882  1.00  0.00     0.031 A 
ATOM     45  C   UNL A   1      46.802  24.383  25.949  1.00  0.00     0.074 A 
ATOM     46  C   UNL A   1      45.025  24.042  28.094  1.00  0.00     0.049 A 
ATOM     47  N   UNL A   1      47.926  24.959  26.243  1.00  0.00    -0.248 NA
ATOM     48  C   UNL A   1      46.731  24.186  24.453  1.00  0.00     0.031 C 
ATOM     49  C   UNL A   1      43.870  23.277  28.661  1.00  0.00     0.029 A 
ATOM     50  N   UNL A   1      45.152  24.973  29.103  1.00  0.00    -0.354 N 
ATOM     51  C   UNL A   1      48.512  25.408  25.026  1.00  0.00     0.074 A 
ATOM     52  C   UNL A   1      47.842  24.740  23.967  1.00  0.00     0.031 C 
ATOM     53  C   UNL A   1      43.562  23.670  29.927  1.00  0.00     0.029 A 
ATOM     54  C   UNL A   1      44.433  24.754  30.330  1.00  0.00     0.049 A 
ATOM     55  H   UNL A   1      45.721  25.768  28.987  1.00  0.00     0.167 HD
ATOM     56  C   UNL A   1      49.316  26.509  24.969  1.00  0.00     0.037 A 
ATOM     57  C   UNL A   1      44.616  25.380  31.559  1.00  0.00     0.037 A 
ATOM     58  C   UNL A   1      49.432  27.014  26.282  1.00  0.00     0.049 A 
ATOM     59  C   UNL A   1      45.658  26.383  31.278  1.00  0.00     0.074 A 
ATOM     60  C   UNL A   1      50.215  26.681  27.346  1.00  0.00     0.029 A 
ATOM     61  N   UNL A   1      48.390  27.808  26.684  1.00  0.00    -0.354 N 
ATOM     62  N   UNL A   1      45.519  27.382  30.460  1.00  0.00    -0.248 NA
ATOM     63  C   UNL A   1      47.006  25.904  31.572  1.00  0.00     0.031 C 
ATOM     64  C   UNL A   1      49.474  27.119  28.457  1.00  0.00     0.029 A 
ATOM     65  C   UNL A   1      48.243  27.638  28.027  1.00  0.00     0.049 A 
ATOM     66  H   UNL A   1      47.847  28.393  26.107  1.00  0.00     0.167 HD
ATOM     67  C   UNL A   1      46.754  27.445  29.857  1.00  0.00     0.074 A 
ATOM     68  C   UNL A   1      47.587  26.455  30.525  1.00  0.00     0.031 C 
ATOM     69  C   UNL A   1      46.950  27.917  28.601  1.00  0.00     0.037 A 
BRANCH  56  70
ATOM     70  C   UNL A   1      49.752  27.468  23.889  1.00  0.00     0.064 A 
ATOM     71  C   UNL A   1      48.772  27.843  22.926  1.00  0.00     0.173 A 
ATOM     72  C   UNL A   1      51.086  27.660  23.513  1.00  0.00     0.173 A 
ATOM     73  F   UNL A   1      47.462  27.741  23.203  1.00  0.00    -0.203 F 
ATOM     74  C   UNL A   1      49.109  28.210  21.626  1.00  0.00     0.198 A 
ATOM     75  C   UNL A   1      51.418  28.097  22.223  1.00  0.00     0.198 A 
ATOM     76  F   UNL A   1      52.092  27.324  24.329  1.00  0.00    -0.203 F 
ATOM     77  F   UNL A   1      48.148  28.370  20.706  1.00  0.00    -0.200 F 
ATOM     78  C   UNL A   1      50.435  28.324  21.271  1.00  0.00     0.200 A 
ATOM     79  F   UNL A   1      52.707  28.210  21.878  1.00  0.00    -0.200 F 
ATOM     80  F   UNL A   1      50.771  28.616  20.007  1.00  0.00    -0.200 F 
ENDBRANCH  56  70
BRANCH  57  81
ATOM     81  C   UNL A   1      44.335  25.143  33.048  1.00  0.00     0.064 A 
ATOM     82  C   UNL A   1      44.578  23.968  33.758  1.00  0.00     0.173 A 
ATOM     83  C   UNL A   1      43.845  26.215  33.876  1.00  0.00     0.173 A 
ATOM     84  F   UNL A   1      44.887  22.841  33.106  1.00  0.00    -0.203 F 
ATOM     85  C   UNL A   1      44.477  23.913  35.172  1.00  0.00     0.198 A 
ATOM     86  C   UNL A   1      43.834  26.191  35.272  1.00  0.00     0.198 A 
ATOM     87  F   UNL A   1      43.338  27.340  33.352  1.00  0.00    -0.203 F 
ATOM     88  F   UNL A   1      44.692  22.755  35.810  1.00  0.00    -0.200 F 
ATOM     89  C   UNL A   1      44.168  25.036  35.928  1.00  0.00     0.200 A 
ATOM     90  F   UNL A   1      43.505  27.297  35.959  1.00  0.00    -0.200 F 
ATOM     91  F   UNL A   1      44.160  24.998  37.268  1.00  0.00    -0.200 F 
ENDBRANCH  57  81
BRANCH  69  92
ATOM     92  C   UNL A   1      45.682  28.391  27.870  1.00  0.00     0.064 A 
ATOM     93  C   UNL A   1      44.994  29.537  28.288  1.00  0.00     0.173 A 
ATOM     94  C   UNL A   1      45.051  27.667  26.831  1.00  0.00     0.173 A 
ATOM     95  F   UNL A   1      45.510  30.299  29.261  1.00  0.00    -0.203 F 
ATOM     96  C   UNL A   1      43.773  29.928  27.713  1.00  0.00     0.198 A 
ATOM     97  C   UNL A   1      43.824  28.044  26.264  1.00  0.00     0.198 A 
ATOM     98  F   UNL A   1      45.623  26.580  26.319  1.00  0.00    -0.203 F 
ATOM     99  F   UNL A   1      43.166  31.045  28.136  1.00  0.00    -0.200 F 
ATOM    100  C   UNL A   1      43.186  29.180  26.706  1.00  0.00     0.200 A 
ATOM    101  F   UNL A   1      43.277  27.304  25.284  1.00  0.00    -0.200 F 
ATOM    102  F   UNL A   1      42.026  29.565  26.152  1.00  0.00    -0.200 F 
ENDBRANCH  69  92
ENDBRANCH  43  44
ENDBRANCH  36  38
ENDBRANCH  35  36
ENDBRANCH  34  35
ENDBRANCH  33  34
ENDBRANCH  32  33
ENDBRANCH  31  32
ENDBRANCH   1  31
TORSDOF 20
ENDMDL
