MODEL 1
REMARK VINA RESULT:     -12.8      0.000      0.000
REMARK SMILES O=C(OCCOCCOC(=O)c1nn(Cc2ccc(F)cc2)c2c1CN(C(=O)[C@H]1CC1(F)F)CC2)c1ccc(-c2c3nc(c(-c4c(F)c(F)c(F)c(F)c4F)c4ccc([nH]4)c(-c4c(F)c(F)c(F)c(F)c4F)c4nc(c(-c5c(F)c(F)c(F)c(F)c5F)c5ccc2[nH]5)C=C4)C=C3)cc1
REMARK SMILES IDX 6 1 5 2 4 3 3 4 2 5 1 6 36 7 37 8 98 9 38 10 97 11 39 12
REMARK SMILES IDX 40 13 41 14 91 15 42 16 96 17 90 18 92 19 43 20 95 21 89 22
REMARK SMILES IDX 88 23 44 25 76 26 56 27 75 28 57 29 60 30 74 31 93 32 58 33
REMARK SMILES IDX 59 34 73 36 94 37 61 38 45 39 46 40 54 41 47 42 48 43 52 44
REMARK SMILES IDX 55 45 49 46 50 47 53 48 51 49 77 50 78 51 86 52 79 53 80 54
REMARK SMILES IDX 84 55 87 56 81 57 82 58 85 59 83 60 62 61 63 62 71 63 64 64
REMARK SMILES IDX 65 65 69 66 72 67 66 68 67 69 70 70 68 71 7 72 8 73 9 74
REMARK SMILES IDX 10 75 11 76 12 77 13 78 24 79 14 80 23 81 25 82 35 83 26 84
REMARK SMILES IDX 34 85 15 86 16 87 17 88 22 89 18 90 21 91 19 92 20 93 27 94
REMARK SMILES IDX 28 95 29 96 30 97 31 98 32 99 33 100
REMARK H PARENT 92 24 60 35
REMARK Flexibility Score: inf
ROOT
ATOM      1  O   UNL A   1      32.785  28.758  26.121  1.00  0.00    -0.374 OA
ENDROOT
BRANCH   1   2
ATOM      2  C   UNL A   1      32.503  29.589  27.239  1.00  0.00     0.202 C 
BRANCH   2   3
ATOM      3  C   UNL A   1      33.236  30.927  27.317  1.00  0.00     0.261 C 
BRANCH   3   4
ATOM      4  O   UNL A   1      34.626  30.806  27.665  1.00  0.00    -0.460 OA
BRANCH   4   5
ATOM      5  C   UNL A   1      35.218  31.522  28.650  1.00  0.00     0.338 C 
ATOM      6  O   UNL A   1      34.615  32.419  29.229  1.00  0.00    -0.246 OA
BRANCH   5   7
ATOM      7  C   UNL A   1      36.462  30.970  29.242  1.00  0.00     0.060 A 
ATOM      8  C   UNL A   1      37.684  31.639  29.292  1.00  0.00     0.016 A 
ATOM      9  C   UNL A   1      36.389  29.640  29.679  1.00  0.00     0.016 A 
ATOM     10  C   UNL A   1      38.850  30.928  29.499  1.00  0.00     0.010 A 
ATOM     11  C   UNL A   1      37.549  28.942  29.971  1.00  0.00     0.010 A 
ATOM     12  C   UNL A   1      38.778  29.564  29.770  1.00  0.00    -0.014 A 
BRANCH  12  13
ATOM     13  C   UNL A   1      40.035  28.837  29.857  1.00  0.00     0.031 A 
ATOM     14  C   UNL A   1      40.618  28.694  31.218  1.00  0.00     0.074 A 
ATOM     15  C   UNL A   1      40.588  28.254  28.778  1.00  0.00     0.049 A 
ATOM     16  N   UNL A   1      41.809  28.997  31.627  1.00  0.00    -0.248 NA
ATOM     17  C   UNL A   1      39.726  28.199  32.277  1.00  0.00     0.031 C 
ATOM     18  C   UNL A   1      40.008  28.078  27.444  1.00  0.00     0.029 A 
ATOM     19  N   UNL A   1      41.765  27.576  28.696  1.00  0.00    -0.354 N 
ATOM     20  C   UNL A   1      41.866  28.608  32.963  1.00  0.00     0.074 A 
ATOM     21  C   UNL A   1      40.532  28.211  33.337  1.00  0.00     0.031 C 
ATOM     22  C   UNL A   1      40.715  27.143  26.775  1.00  0.00     0.029 A 
ATOM     23  C   UNL A   1      41.862  26.761  27.581  1.00  0.00     0.049 A 
ATOM     24  H   UNL A   1      42.482  27.657  29.367  1.00  0.00     0.167 HD
ATOM     25  C   UNL A   1      43.037  28.474  33.641  1.00  0.00     0.037 A 
ATOM     26  C   UNL A   1      42.764  25.770  27.395  1.00  0.00     0.037 A 
ATOM     27  C   UNL A   1      44.112  29.197  33.026  1.00  0.00     0.049 A 
ATOM     28  C   UNL A   1      43.902  26.016  28.315  1.00  0.00     0.074 A 
ATOM     29  C   UNL A   1      44.362  30.532  32.777  1.00  0.00     0.029 A 
ATOM     30  N   UNL A   1      45.028  28.505  32.276  1.00  0.00    -0.354 N 
ATOM     31  N   UNL A   1      44.744  27.005  28.201  1.00  0.00    -0.248 NA
ATOM     32  C   UNL A   1      43.877  25.366  29.618  1.00  0.00     0.031 C 
ATOM     33  C   UNL A   1      45.074  30.554  31.542  1.00  0.00     0.029 A 
ATOM     34  C   UNL A   1      45.228  29.230  31.130  1.00  0.00     0.049 A 
ATOM     35  H   UNL A   1      45.459  27.653  32.514  1.00  0.00     0.167 HD
ATOM     36  C   UNL A   1      45.050  27.361  29.506  1.00  0.00     0.074 A 
ATOM     37  C   UNL A   1      44.579  26.252  30.327  1.00  0.00     0.031 C 
ATOM     38  C   UNL A   1      45.406  28.640  29.825  1.00  0.00     0.037 A 
BRANCH  25  39
ATOM     39  C   UNL A   1      43.260  27.455  34.723  1.00  0.00     0.064 A 
ATOM     40  C   UNL A   1      43.481  26.089  34.444  1.00  0.00     0.173 A 
ATOM     41  C   UNL A   1      43.533  27.866  36.040  1.00  0.00     0.173 A 
ATOM     42  F   UNL A   1      43.382  25.600  33.201  1.00  0.00    -0.203 F 
ATOM     43  C   UNL A   1      43.922  25.195  35.416  1.00  0.00     0.198 A 
ATOM     44  C   UNL A   1      44.027  26.976  36.999  1.00  0.00     0.198 A 
ATOM     45  F   UNL A   1      43.399  29.151  36.397  1.00  0.00    -0.203 F 
ATOM     46  F   UNL A   1      44.125  23.911  35.088  1.00  0.00    -0.200 F 
ATOM     47  C   UNL A   1      44.219  25.641  36.687  1.00  0.00     0.200 A 
ATOM     48  F   UNL A   1      44.373  27.429  38.212  1.00  0.00    -0.200 F 
ATOM     49  F   UNL A   1      44.735  24.799  37.590  1.00  0.00    -0.200 F 
ENDBRANCH  25  39
BRANCH  26  50
ATOM     50  C   UNL A   1      42.539  24.465  26.732  1.00  0.00     0.064 A 
ATOM     51  C   UNL A   1      41.648  23.509  27.262  1.00  0.00     0.173 A 
ATOM     52  C   UNL A   1      43.393  24.022  25.711  1.00  0.00     0.173 A 
ATOM     53  F   UNL A   1      40.851  23.803  28.300  1.00  0.00    -0.203 F 
ATOM     54  C   UNL A   1      41.621  22.192  26.805  1.00  0.00     0.198 A 
ATOM     55  C   UNL A   1      43.376  22.698  25.265  1.00  0.00     0.198 A 
ATOM     56  F   UNL A   1      44.302  24.856  25.185  1.00  0.00    -0.203 F 
ATOM     57  F   UNL A   1      40.786  21.309  27.373  1.00  0.00    -0.200 F 
ATOM     58  C   UNL A   1      42.495  21.782  25.817  1.00  0.00     0.200 A 
ATOM     59  F   UNL A   1      44.254  22.295  24.335  1.00  0.00    -0.200 F 
ATOM     60  F   UNL A   1      42.519  20.500  25.431  1.00  0.00    -0.200 F 
ENDBRANCH  26  50
BRANCH  38  61
ATOM     61  C   UNL A   1      45.725  29.582  28.700  1.00  0.00     0.064 A 
ATOM     62  C   UNL A   1      47.069  29.864  28.422  1.00  0.00     0.173 A 
ATOM     63  C   UNL A   1      44.751  30.330  28.016  1.00  0.00     0.173 A 
ATOM     64  F   UNL A   1      48.043  29.225  29.090  1.00  0.00    -0.203 F 
ATOM     65  C   UNL A   1      47.424  30.845  27.501  1.00  0.00     0.198 A 
ATOM     66  C   UNL A   1      45.109  31.287  27.068  1.00  0.00     0.198 A 
ATOM     67  F   UNL A   1      43.450  30.196  28.304  1.00  0.00    -0.203 F 
ATOM     68  F   UNL A   1      48.718  31.134  27.299  1.00  0.00    -0.200 F 
ATOM     69  C   UNL A   1      46.445  31.549  26.817  1.00  0.00     0.200 A 
ATOM     70  F   UNL A   1      44.161  31.985  26.426  1.00  0.00    -0.200 F 
ATOM     71  F   UNL A   1      46.791  32.504  25.941  1.00  0.00    -0.200 F 
ENDBRANCH  38  61
ENDBRANCH  12  13
ENDBRANCH   5   7
ENDBRANCH   4   5
ENDBRANCH   3   4
ENDBRANCH   2   3
ENDBRANCH   1   2
BRANCH   1  72
ATOM     72  C   UNL A   1      33.032  29.432  24.876  1.00  0.00     0.202 C 
BRANCH  72  73
ATOM     73  C   UNL A   1      34.047  28.827  23.889  1.00  0.00     0.261 C 
BRANCH  73  74
ATOM     74  O   UNL A   1      33.477  28.537  22.599  1.00  0.00    -0.458 OA
BRANCH  74  75
ATOM     75  C   UNL A   1      33.283  27.212  22.320  1.00  0.00     0.359 C 
ATOM     76  O   UNL A   1      33.920  26.591  21.473  1.00  0.00    -0.244 OA
BRANCH  75  77
ATOM     77  C   UNL A   1      32.396  26.539  23.280  1.00  0.00     0.175 A 
ATOM     78  N   UNL A   1      32.815  25.623  24.176  1.00  0.00    -0.165 NA
ATOM     79  C   UNL A   1      30.994  26.751  23.401  1.00  0.00     0.028 A 
ATOM     80  N   UNL A   1      31.709  25.310  24.899  1.00  0.00    -0.264 N 
ATOM     81  C   UNL A   1      30.594  25.955  24.450  1.00  0.00     0.046 A 
ATOM     82  C   UNL A   1      30.077  27.617  22.611  1.00  0.00     0.159 C 
ATOM     83  C   UNL A   1      29.212  25.920  24.996  1.00  0.00     0.078 C 
ATOM     84  N   UNL A   1      28.790  27.741  23.307  1.00  0.00    -0.337 N 
ATOM     85  C   UNL A   1      28.247  26.522  23.948  1.00  0.00     0.126 C 
BRANCH  80  86
ATOM     86  C   UNL A   1      31.848  24.534  26.128  1.00  0.00     0.180 C 
BRANCH  86  87
ATOM     87  C   UNL A   1      32.441  23.163  25.914  1.00  0.00    -0.026 A 
ATOM     88  C   UNL A   1      31.691  22.156  25.282  1.00  0.00     0.008 A 
ATOM     89  C   UNL A   1      33.770  22.890  26.280  1.00  0.00     0.008 A 
ATOM     90  C   UNL A   1      32.261  20.912  25.006  1.00  0.00     0.039 A 
ATOM     91  C   UNL A   1      34.338  21.644  26.003  1.00  0.00     0.039 A 
ATOM     92  C   UNL A   1      33.581  20.669  25.364  1.00  0.00     0.123 A 
ATOM     93  F   UNL A   1      34.134  19.483  25.082  1.00  0.00    -0.207 F 
ENDBRANCH  86  87
ENDBRANCH  80  86
BRANCH  84  94
ATOM     94  C   UNL A   1      28.092  28.926  23.125  1.00  0.00     0.232 C 
ATOM     95  O   UNL A   1      26.870  28.999  23.175  1.00  0.00    -0.274 OA
BRANCH  94  96
ATOM     96  C   UNL A   1      28.877  30.153  22.903  1.00  0.00     0.154 C 
ATOM     97  C   UNL A   1      28.414  31.198  21.901  1.00  0.00     0.097 C 
ATOM     98  C   UNL A   1      28.323  31.452  23.358  1.00  0.00     0.260 C 
ATOM     99  F   UNL A   1      27.080  31.588  23.928  1.00  0.00    -0.206 F 
ATOM    100  F   UNL A   1      29.141  32.406  23.921  1.00  0.00    -0.206 F 
ENDBRANCH  94  96
ENDBRANCH  84  94
ENDBRANCH  75  77
ENDBRANCH  74  75
ENDBRANCH  73  74
ENDBRANCH  72  73
ENDBRANCH   1  72
TORSDOF 18
ENDMDL
MODEL 2
REMARK VINA RESULT:     -12.8      2.998      4.578
REMARK SMILES O=C(OCCOCCOC(=O)c1nn(Cc2ccc(F)cc2)c2c1CN(C(=O)[C@H]1CC1(F)F)CC2)c1ccc(-c2c3nc(c(-c4c(F)c(F)c(F)c(F)c4F)c4ccc([nH]4)c(-c4c(F)c(F)c(F)c(F)c4F)c4nc(c(-c5c(F)c(F)c(F)c(F)c5F)c5ccc2[nH]5)C=C4)C=C3)cc1
REMARK SMILES IDX 6 1 5 2 4 3 3 4 2 5 1 6 36 7 37 8 98 9 38 10 97 11 39 12
REMARK SMILES IDX 40 13 41 14 91 15 42 16 96 17 90 18 92 19 43 20 95 21 89 22
REMARK SMILES IDX 88 23 44 25 76 26 56 27 75 28 57 29 60 30 74 31 93 32 58 33
REMARK SMILES IDX 59 34 73 36 94 37 61 38 45 39 46 40 54 41 47 42 48 43 52 44
REMARK SMILES IDX 55 45 49 46 50 47 53 48 51 49 77 50 78 51 86 52 79 53 80 54
REMARK SMILES IDX 84 55 87 56 81 57 82 58 85 59 83 60 62 61 63 62 71 63 64 64
REMARK SMILES IDX 65 65 69 66 72 67 66 68 67 69 70 70 68 71 7 72 8 73 9 74
REMARK SMILES IDX 10 75 11 76 12 77 13 78 24 79 14 80 23 81 25 82 35 83 26 84
REMARK SMILES IDX 34 85 15 86 16 87 17 88 22 89 18 90 21 91 19 92 20 93 27 94
REMARK SMILES IDX 28 95 29 96 30 97 31 98 32 99 33 100
REMARK H PARENT 92 24 60 35
REMARK Flexibility Score: inf
ROOT
ATOM      1  O   UNL A   1      31.595  28.494  27.372  1.00  0.00    -0.374 OA
ENDROOT
BRANCH   1   2
ATOM      2  C   UNL A   1      32.015  29.747  26.850  1.00  0.00     0.202 C 
BRANCH   2   3
ATOM      3  C   UNL A   1      33.520  30.004  26.778  1.00  0.00     0.261 C 
BRANCH   3   4
ATOM      4  O   UNL A   1      34.039  30.727  27.908  1.00  0.00    -0.460 OA
BRANCH   4   5
ATOM      5  C   UNL A   1      35.156  31.490  27.862  1.00  0.00     0.338 C 
ATOM      6  O   UNL A   1      35.103  32.670  27.531  1.00  0.00    -0.246 OA
BRANCH   5   7
ATOM      7  C   UNL A   1      36.365  30.972  28.550  1.00  0.00     0.060 A 
ATOM      8  C   UNL A   1      37.362  31.767  29.111  1.00  0.00     0.016 A 
ATOM      9  C   UNL A   1      36.532  29.580  28.521  1.00  0.00     0.016 A 
ATOM     10  C   UNL A   1      38.606  31.228  29.377  1.00  0.00     0.010 A 
ATOM     11  C   UNL A   1      37.750  29.021  28.868  1.00  0.00     0.010 A 
ATOM     12  C   UNL A   1      38.811  29.863  29.187  1.00  0.00    -0.014 A 
BRANCH  12  13
ATOM     13  C   UNL A   1      40.167  29.365  29.361  1.00  0.00     0.031 A 
ATOM     14  C   UNL A   1      40.688  29.352  30.754  1.00  0.00     0.074 A 
ATOM     15  C   UNL A   1      40.873  28.865  28.330  1.00  0.00     0.049 A 
ATOM     16  N   UNL A   1      41.784  29.865  31.216  1.00  0.00    -0.248 NA
ATOM     17  C   UNL A   1      39.835  28.732  31.779  1.00  0.00     0.031 C 
ATOM     18  C   UNL A   1      40.407  28.566  26.973  1.00  0.00     0.029 A 
ATOM     19  N   UNL A   1      42.151  28.399  28.330  1.00  0.00    -0.354 N 
ATOM     20  C   UNL A   1      41.831  29.518  32.564  1.00  0.00     0.074 A 
ATOM     21  C   UNL A   1      40.566  28.904  32.879  1.00  0.00     0.031 C 
ATOM     22  C   UNL A   1      41.301  27.753  26.370  1.00  0.00     0.029 A 
ATOM     23  C   UNL A   1      42.449  27.590  27.246  1.00  0.00     0.049 A 
ATOM     24  H   UNL A   1      42.803  28.615  29.034  1.00  0.00     0.167 HD
ATOM     25  C   UNL A   1      42.967  29.601  33.306  1.00  0.00     0.037 A 
ATOM     26  C   UNL A   1      43.516  26.766  27.136  1.00  0.00     0.037 A 
ATOM     27  C   UNL A   1      43.936  30.486  32.727  1.00  0.00     0.049 A 
ATOM     28  C   UNL A   1      44.541  27.223  28.108  1.00  0.00     0.074 A 
ATOM     29  C   UNL A   1      43.968  31.839  32.453  1.00  0.00     0.029 A 
ATOM     30  N   UNL A   1      44.998  29.948  32.047  1.00  0.00    -0.354 N 
ATOM     31  N   UNL A   1      45.206  28.340  28.009  1.00  0.00    -0.248 NA
ATOM     32  C   UNL A   1      44.554  26.605  29.426  1.00  0.00     0.031 C 
ATOM     33  C   UNL A   1      44.734  31.958  31.257  1.00  0.00     0.029 A 
ATOM     34  C   UNL A   1      45.136  30.673  30.892  1.00  0.00     0.049 A 
ATOM     35  H   UNL A   1      45.554  29.187  32.333  1.00  0.00     0.167 HD
ATOM     36  C   UNL A   1      45.373  28.770  29.317  1.00  0.00     0.074 A 
ATOM     37  C   UNL A   1      45.052  27.613  30.144  1.00  0.00     0.031 C 
ATOM     38  C   UNL A   1      45.485  30.097  29.616  1.00  0.00     0.037 A 
BRANCH  25  39
ATOM     39  C   UNL A   1      43.300  28.658  34.427  1.00  0.00     0.064 A 
ATOM     40  C   UNL A   1      43.586  27.293  34.211  1.00  0.00     0.173 A 
ATOM     41  C   UNL A   1      43.610  29.155  35.706  1.00  0.00     0.173 A 
ATOM     42  F   UNL A   1      43.457  26.731  33.002  1.00  0.00    -0.203 F 
ATOM     43  C   UNL A   1      44.123  26.479  35.205  1.00  0.00     0.198 A 
ATOM     44  C   UNL A   1      44.199  28.349  36.685  1.00  0.00     0.198 A 
ATOM     45  F   UNL A   1      43.419  30.449  36.000  1.00  0.00    -0.203 F 
ATOM     46  F   UNL A   1      44.384  25.192  34.935  1.00  0.00    -0.200 F 
ATOM     47  C   UNL A   1      44.453  27.012  36.434  1.00  0.00     0.200 A 
ATOM     48  F   UNL A   1      44.575  28.887  37.853  1.00  0.00    -0.200 F 
ATOM     49  F   UNL A   1      45.059  26.250  37.353  1.00  0.00    -0.200 F 
ENDBRANCH  25  39
BRANCH  26  50
ATOM     50  C   UNL A   1      43.555  25.429  26.501  1.00  0.00     0.064 A 
ATOM     51  C   UNL A   1      42.995  24.295  27.127  1.00  0.00     0.173 A 
ATOM     52  C   UNL A   1      44.376  25.186  25.391  1.00  0.00     0.173 A 
ATOM     53  F   UNL A   1      42.268  24.409  28.247  1.00  0.00    -0.203 F 
ATOM     54  C   UNL A   1      43.250  23.002  26.674  1.00  0.00     0.198 A 
ATOM     55  C   UNL A   1      44.645  23.888  24.948  1.00  0.00     0.198 A 
ATOM     56  F   UNL A   1      44.985  26.206  24.768  1.00  0.00    -0.203 F 
ATOM     57  F   UNL A   1      42.731  21.954  27.330  1.00  0.00    -0.200 F 
ATOM     58  C   UNL A   1      44.087  22.797  25.594  1.00  0.00     0.200 A 
ATOM     59  F   UNL A   1      45.489  23.692  23.926  1.00  0.00    -0.200 F 
ATOM     60  F   UNL A   1      44.390  21.551  25.206  1.00  0.00    -0.200 F 
ENDBRANCH  26  50
BRANCH  38  61
ATOM     61  C   UNL A   1      45.702  31.057  28.483  1.00  0.00     0.064 A 
ATOM     62  C   UNL A   1      46.987  31.576  28.280  1.00  0.00     0.173 A 
ATOM     63  C   UNL A   1      44.656  31.597  27.714  1.00  0.00     0.173 A 
ATOM     64  F   UNL A   1      48.014  31.143  29.028  1.00  0.00    -0.203 F 
ATOM     65  C   UNL A   1      47.219  32.586  27.350  1.00  0.00     0.198 A 
ATOM     66  C   UNL A   1      44.897  32.583  26.758  1.00  0.00     0.198 A 
ATOM     67  F   UNL A   1      43.386  31.231  27.925  1.00  0.00    -0.203 F 
ATOM     68  F   UNL A   1      48.449  33.105  27.220  1.00  0.00    -0.200 F 
ATOM     69  C   UNL A   1      46.176  33.082  26.583  1.00  0.00     0.200 A 
ATOM     70  F   UNL A   1      43.882  33.079  26.035  1.00  0.00    -0.200 F 
ATOM     71  F   UNL A   1      46.400  34.065  25.699  1.00  0.00    -0.200 F 
ENDBRANCH  38  61
ENDBRANCH  12  13
ENDBRANCH   5   7
ENDBRANCH   4   5
ENDBRANCH   3   4
ENDBRANCH   2   3
ENDBRANCH   1   2
BRANCH   1  72
ATOM     72  C   UNL A   1      31.420  27.435  26.416  1.00  0.00     0.202 C 
BRANCH  72  73
ATOM     73  C   UNL A   1      32.507  26.353  26.293  1.00  0.00     0.261 C 
BRANCH  73  74
ATOM     74  O   UNL A   1      32.063  25.183  25.581  1.00  0.00    -0.458 OA
BRANCH  74  75
ATOM     75  C   UNL A   1      31.839  24.072  26.345  1.00  0.00     0.359 C 
ATOM     76  O   UNL A   1      31.071  24.044  27.304  1.00  0.00    -0.244 OA
BRANCH  75  77
ATOM     77  C   UNL A   1      32.431  22.849  25.783  1.00  0.00     0.175 A 
ATOM     78  N   UNL A   1      31.719  21.884  25.167  1.00  0.00    -0.165 NA
ATOM     79  C   UNL A   1      33.813  22.512  25.806  1.00  0.00     0.028 A 
ATOM     80  N   UNL A   1      32.643  20.982  24.747  1.00  0.00    -0.264 N 
ATOM     81  C   UNL A   1      33.909  21.318  25.129  1.00  0.00     0.046 A 
ATOM     82  C   UNL A   1      34.971  23.226  26.411  1.00  0.00     0.159 C 
ATOM     83  C   UNL A   1      35.189  20.626  24.827  1.00  0.00     0.078 C 
ATOM     84  N   UNL A   1      36.225  22.654  25.905  1.00  0.00    -0.337 N 
ATOM     85  C   UNL A   1      36.288  21.182  25.763  1.00  0.00     0.126 C 
BRANCH  80  86
ATOM     86  C   UNL A   1      32.250  19.929  23.815  1.00  0.00     0.180 C 
BRANCH  86  87
ATOM     87  C   UNL A   1      32.725  18.555  24.221  1.00  0.00    -0.026 A 
ATOM     88  C   UNL A   1      32.503  18.086  25.528  1.00  0.00     0.008 A 
ATOM     89  C   UNL A   1      33.334  17.700  23.288  1.00  0.00     0.008 A 
ATOM     90  C   UNL A   1      32.865  16.786  25.887  1.00  0.00     0.039 A 
ATOM     91  C   UNL A   1      33.696  16.400  23.650  1.00  0.00     0.039 A 
ATOM     92  C   UNL A   1      33.453  15.953  24.944  1.00  0.00     0.123 A 
ATOM     93  F   UNL A   1      33.783  14.701  25.282  1.00  0.00    -0.207 F 
ENDBRANCH  86  87
ENDBRANCH  80  86
BRANCH  84  94
ATOM     94  C   UNL A   1      37.310  23.512  25.807  1.00  0.00     0.232 C 
ATOM     95  O   UNL A   1      37.630  24.073  24.766  1.00  0.00    -0.274 OA
BRANCH  94  96
ATOM     96  C   UNL A   1      38.079  23.784  27.035  1.00  0.00     0.154 C 
ATOM     97  C   UNL A   1      39.477  23.216  27.214  1.00  0.00     0.097 C 
ATOM     98  C   UNL A   1      39.272  24.661  26.956  1.00  0.00     0.260 C 
ATOM     99  F   UNL A   1      39.744  25.195  25.780  1.00  0.00    -0.206 F 
ATOM    100  F   UNL A   1      39.549  25.563  27.958  1.00  0.00    -0.206 F 
ENDBRANCH  94  96
ENDBRANCH  84  94
ENDBRANCH  75  77
ENDBRANCH  74  75
ENDBRANCH  73  74
ENDBRANCH  72  73
ENDBRANCH   1  72
TORSDOF 18
ENDMDL
MODEL 3
REMARK VINA RESULT:     -12.7      1.411      4.536
REMARK SMILES O=C(OCCOCCOC(=O)c1nn(Cc2ccc(F)cc2)c2c1CN(C(=O)[C@H]1CC1(F)F)CC2)c1ccc(-c2c3nc(c(-c4c(F)c(F)c(F)c(F)c4F)c4ccc([nH]4)c(-c4c(F)c(F)c(F)c(F)c4F)c4nc(c(-c5c(F)c(F)c(F)c(F)c5F)c5ccc2[nH]5)C=C4)C=C3)cc1
REMARK SMILES IDX 6 1 5 2 4 3 3 4 2 5 1 6 36 7 37 8 98 9 38 10 97 11 39 12
REMARK SMILES IDX 40 13 41 14 91 15 42 16 96 17 90 18 92 19 43 20 95 21 89 22
REMARK SMILES IDX 88 23 44 25 76 26 56 27 75 28 57 29 60 30 74 31 93 32 58 33
REMARK SMILES IDX 59 34 73 36 94 37 61 38 45 39 46 40 54 41 47 42 48 43 52 44
REMARK SMILES IDX 55 45 49 46 50 47 53 48 51 49 77 50 78 51 86 52 79 53 80 54
REMARK SMILES IDX 84 55 87 56 81 57 82 58 85 59 83 60 62 61 63 62 71 63 64 64
REMARK SMILES IDX 65 65 69 66 72 67 66 68 67 69 70 70 68 71 7 72 8 73 9 74
REMARK SMILES IDX 10 75 11 76 12 77 13 78 24 79 14 80 23 81 25 82 35 83 26 84
REMARK SMILES IDX 34 85 15 86 16 87 17 88 22 89 18 90 21 91 19 92 20 93 27 94
REMARK SMILES IDX 28 95 29 96 30 97 31 98 32 99 33 100
REMARK H PARENT 92 24 60 35
REMARK Flexibility Score: inf
ROOT
ATOM      1  O   UNL A   1      33.102  28.858  25.012  1.00  0.00    -0.374 OA
ENDROOT
BRANCH   1   2
ATOM      2  C   UNL A   1      32.293  29.842  25.641  1.00  0.00     0.202 C 
BRANCH   2   3
ATOM      3  C   UNL A   1      32.858  30.518  26.889  1.00  0.00     0.261 C 
BRANCH   3   4
ATOM      4  O   UNL A   1      34.296  30.537  26.937  1.00  0.00    -0.460 OA
BRANCH   4   5
ATOM      5  C   UNL A   1      35.009  31.386  27.713  1.00  0.00     0.338 C 
ATOM      6  O   UNL A   1      34.545  32.467  28.061  1.00  0.00    -0.246 OA
BRANCH   5   7
ATOM      7  C   UNL A   1      36.197  30.836  28.413  1.00  0.00     0.060 A 
ATOM      8  C   UNL A   1      37.244  31.600  28.925  1.00  0.00     0.016 A 
ATOM      9  C   UNL A   1      36.287  29.437  28.450  1.00  0.00     0.016 A 
ATOM     10  C   UNL A   1      38.459  31.007  29.204  1.00  0.00     0.010 A 
ATOM     11  C   UNL A   1      37.477  28.828  28.811  1.00  0.00     0.010 A 
ATOM     12  C   UNL A   1      38.587  29.625  29.078  1.00  0.00    -0.014 A 
BRANCH  12  13
ATOM     13  C   UNL A   1      39.916  29.062  29.261  1.00  0.00     0.031 A 
ATOM     14  C   UNL A   1      40.349  28.847  30.669  1.00  0.00     0.074 A 
ATOM     15  C   UNL A   1      40.670  28.678  28.215  1.00  0.00     0.049 A 
ATOM     16  N   UNL A   1      41.428  29.256  31.257  1.00  0.00    -0.248 NA
ATOM     17  C   UNL A   1      39.418  28.128  31.550  1.00  0.00     0.031 C 
ATOM     18  C   UNL A   1      40.282  28.577  26.806  1.00  0.00     0.029 A 
ATOM     19  N   UNL A   1      41.933  28.172  28.226  1.00  0.00    -0.354 N 
ATOM     20  C   UNL A   1      41.382  28.733  32.547  1.00  0.00     0.074 A 
ATOM     21  C   UNL A   1      40.084  28.127  32.703  1.00  0.00     0.031 C 
ATOM     22  C   UNL A   1      41.189  27.820  26.152  1.00  0.00     0.029 A 
ATOM     23  C   UNL A   1      42.276  27.504  27.063  1.00  0.00     0.049 A 
ATOM     24  H   UNL A   1      42.546  28.271  28.990  1.00  0.00     0.167 HD
ATOM     25  C   UNL A   1      42.473  28.679  33.358  1.00  0.00     0.037 A 
ATOM     26  C   UNL A   1      43.325  26.665  26.906  1.00  0.00     0.037 A 
ATOM     27  C   UNL A   1      43.498  29.598  32.959  1.00  0.00     0.049 A 
ATOM     28  C   UNL A   1      44.300  26.954  27.987  1.00  0.00     0.074 A 
ATOM     29  C   UNL A   1      43.583  30.973  32.870  1.00  0.00     0.029 A 
ATOM     30  N   UNL A   1      44.585  29.118  32.275  1.00  0.00    -0.354 N 
ATOM     31  N   UNL A   1      45.000  28.051  28.078  1.00  0.00    -0.248 NA
ATOM     32  C   UNL A   1      44.215  26.167  29.209  1.00  0.00     0.031 C 
ATOM     33  C   UNL A   1      44.425  31.223  31.748  1.00  0.00     0.029 A 
ATOM     34  C   UNL A   1      44.814  29.984  31.238  1.00  0.00     0.049 A 
ATOM     35  H   UNL A   1      45.102  28.307  32.489  1.00  0.00     0.167 HD
ATOM     36  C   UNL A   1      45.097  28.298  29.439  1.00  0.00     0.074 A 
ATOM     37  C   UNL A   1      44.695  27.054  30.084  1.00  0.00     0.031 C 
ATOM     38  C   UNL A   1      45.226  29.569  29.919  1.00  0.00     0.037 A 
BRANCH  25  39
ATOM     39  C   UNL A   1      42.709  27.585  34.360  1.00  0.00     0.064 A 
ATOM     40  C   UNL A   1      42.169  27.620  35.664  1.00  0.00     0.173 A 
ATOM     41  C   UNL A   1      43.248  26.351  33.951  1.00  0.00     0.173 A 
ATOM     42  F   UNL A   1      41.514  28.693  36.125  1.00  0.00    -0.203 F 
ATOM     43  C   UNL A   1      42.185  26.510  36.505  1.00  0.00     0.198 A 
ATOM     44  C   UNL A   1      43.214  25.224  34.779  1.00  0.00     0.198 A 
ATOM     45  F   UNL A   1      43.745  26.199  32.715  1.00  0.00    -0.203 F 
ATOM     46  F   UNL A   1      41.647  26.602  37.729  1.00  0.00    -0.200 F 
ATOM     47  C   UNL A   1      42.685  25.305  36.055  1.00  0.00     0.200 A 
ATOM     48  F   UNL A   1      43.642  24.043  34.313  1.00  0.00    -0.200 F 
ATOM     49  F   UNL A   1      42.609  24.217  36.831  1.00  0.00    -0.200 F 
ENDBRANCH  25  39
BRANCH  26  50
ATOM     50  C   UNL A   1      43.368  25.423  26.102  1.00  0.00     0.064 A 
ATOM     51  C   UNL A   1      42.506  24.339  26.366  1.00  0.00     0.173 A 
ATOM     52  C   UNL A   1      44.436  25.171  25.228  1.00  0.00     0.173 A 
ATOM     53  F   UNL A   1      41.507  24.447  27.254  1.00  0.00    -0.203 F 
ATOM     54  C   UNL A   1      42.706  23.081  25.799  1.00  0.00     0.198 A 
ATOM     55  C   UNL A   1      44.645  23.905  24.673  1.00  0.00     0.198 A 
ATOM     56  F   UNL A   1      45.328  26.135  24.960  1.00  0.00    -0.203 F 
ATOM     57  F   UNL A   1      41.884  22.070  26.118  1.00  0.00    -0.200 F 
ATOM     58  C   UNL A   1      43.785  22.859  24.964  1.00  0.00     0.200 A 
ATOM     59  F   UNL A   1      45.715  23.685  23.897  1.00  0.00    -0.200 F 
ATOM     60  F   UNL A   1      44.018  21.633  24.480  1.00  0.00    -0.200 F 
ENDBRANCH  26  50
BRANCH  38  61
ATOM     61  C   UNL A   1      45.538  30.663  28.938  1.00  0.00     0.064 A 
ATOM     62  C   UNL A   1      46.847  31.158  28.880  1.00  0.00     0.173 A 
ATOM     63  C   UNL A   1      44.556  31.336  28.191  1.00  0.00     0.173 A 
ATOM     64  F   UNL A   1      47.814  30.594  29.622  1.00  0.00    -0.203 F 
ATOM     65  C   UNL A   1      47.162  32.273  28.109  1.00  0.00     0.198 A 
ATOM     66  C   UNL A   1      44.881  32.430  27.391  1.00  0.00     0.198 A 
ATOM     67  F   UNL A   1      43.265  30.990  28.278  1.00  0.00    -0.203 F 
ATOM     68  F   UNL A   1      48.411  32.761  28.120  1.00  0.00    -0.200 F 
ATOM     69  C   UNL A   1      46.182  32.903  27.357  1.00  0.00     0.200 A 
ATOM     70  F   UNL A   1      43.927  33.053  26.684  1.00  0.00    -0.200 F 
ATOM     71  F   UNL A   1      46.486  33.985  26.627  1.00  0.00    -0.200 F 
ENDBRANCH  38  61
ENDBRANCH  12  13
ENDBRANCH   5   7
ENDBRANCH   4   5
ENDBRANCH   3   4
ENDBRANCH   2   3
ENDBRANCH   1   2
BRANCH   1  72
ATOM     72  C   UNL A   1      33.575  29.174  23.693  1.00  0.00     0.202 C 
BRANCH  72  73
ATOM     73  C   UNL A   1      34.388  28.120  22.920  1.00  0.00     0.261 C 
BRANCH  73  74
ATOM     74  O   UNL A   1      33.833  27.814  21.626  1.00  0.00    -0.458 OA
BRANCH  74  75
ATOM     75  C   UNL A   1      33.015  26.719  21.575  1.00  0.00     0.359 C 
ATOM     76  O   UNL A   1      33.353  25.634  21.109  1.00  0.00    -0.244 OA
BRANCH  75  77
ATOM     77  C   UNL A   1      31.767  26.889  22.333  1.00  0.00     0.175 A 
ATOM     78  N   UNL A   1      30.795  27.761  21.995  1.00  0.00    -0.165 NA
ATOM     79  C   UNL A   1      31.409  26.172  23.509  1.00  0.00     0.028 A 
ATOM     80  N   UNL A   1      29.808  27.553  22.904  1.00  0.00    -0.264 N 
ATOM     81  C   UNL A   1      30.149  26.618  23.838  1.00  0.00     0.046 A 
ATOM     82  C   UNL A   1      32.165  25.153  24.286  1.00  0.00     0.159 C 
ATOM     83  C   UNL A   1      29.334  26.077  24.958  1.00  0.00     0.078 C 
ATOM     84  N   UNL A   1      31.263  24.479  25.229  1.00  0.00    -0.337 N 
ATOM     85  C   UNL A   1      30.267  25.320  25.931  1.00  0.00     0.126 C 
BRANCH  80  86
ATOM     86  C   UNL A   1      28.493  28.148  22.688  1.00  0.00     0.180 C 
BRANCH  86  87
ATOM     87  C   UNL A   1      28.502  29.657  22.705  1.00  0.00    -0.026 A 
ATOM     88  C   UNL A   1      29.032  30.351  23.807  1.00  0.00     0.008 A 
ATOM     89  C   UNL A   1      28.046  30.391  21.597  1.00  0.00     0.008 A 
ATOM     90  C   UNL A   1      29.121  31.744  23.795  1.00  0.00     0.039 A 
ATOM     91  C   UNL A   1      28.135  31.785  21.588  1.00  0.00     0.039 A 
ATOM     92  C   UNL A   1      28.676  32.448  22.683  1.00  0.00     0.123 A 
ATOM     93  F   UNL A   1      28.778  33.783  22.663  1.00  0.00    -0.207 F 
ENDBRANCH  86  87
ENDBRANCH  80  86
BRANCH  84  94
ATOM     94  C   UNL A   1      31.556  23.160  25.541  1.00  0.00     0.232 C 
ATOM     95  O   UNL A   1      30.698  22.321  25.783  1.00  0.00    -0.274 OA
BRANCH  94  96
ATOM     96  C   UNL A   1      32.974  22.756  25.536  1.00  0.00     0.154 C 
ATOM     97  C   UNL A   1      33.381  21.353  25.953  1.00  0.00     0.097 C 
ATOM     98  C   UNL A   1      33.436  21.768  24.531  1.00  0.00     0.260 C 
ATOM     99  F   UNL A   1      32.599  21.154  23.631  1.00  0.00    -0.206 F 
ATOM    100  F   UNL A   1      34.664  21.906  23.924  1.00  0.00    -0.206 F 
ENDBRANCH  94  96
ENDBRANCH  84  94
ENDBRANCH  75  77
ENDBRANCH  74  75
ENDBRANCH  73  74
ENDBRANCH  72  73
ENDBRANCH   1  72
TORSDOF 18
ENDMDL
