MODEL 1
REMARK VINA RESULT:     -10.4      0.000      0.000
REMARK SMILES CC[NH+](CC)[C@](C)(C(=O)OCCOCCOC(=O)c1ccc(-c2c3nc(c(-c4c(F)c(F)c(F)c(F)c4F)c4ccc([nH]4)c(-c4c(F)c(F)c(F)c(F)c4F)c4nc(c(-c5c(F)c(F)c(F)c(F)c5F)c5ccc2[nH]5)C=C4)C=C3)cc1)c1cc(F)c(C)cc1F
REMARK SMILES IDX 13 1 12 2 11 3 10 4 8 5 9 6 6 7 7 8 3 9 2 11 1 12 4 13 5 14
REMARK SMILES IDX 82 15 83 16 89 17 84 18 88 19 90 20 85 21 86 22 87 23 14 24
REMARK SMILES IDX 15 25 16 26 17 27 18 28 19 29 20 30 81 31 21 32 80 33 22 34
REMARK SMILES IDX 23 35 24 36 74 37 25 38 79 39 73 40 75 41 26 42 78 43 72 44
REMARK SMILES IDX 71 45 27 47 59 48 39 49 58 50 40 51 43 52 57 53 76 54 41 55
REMARK SMILES IDX 42 56 56 58 77 59 44 60 28 61 29 62 37 63 30 64 31 65 35 66
REMARK SMILES IDX 38 67 32 68 33 69 36 70 34 71 60 72 61 73 69 74 62 75 63 76
REMARK SMILES IDX 67 77 70 78 64 79 65 80 68 81 66 82 45 83 46 84 54 85 47 86
REMARK SMILES IDX 48 87 52 88 55 89 49 90 50 91 53 92 51 93
REMARK H PARENT 3 10 75 46 43 57
REMARK Flexibility Score: inf
ROOT
ATOM      1  O   UNL A   1      32.253  29.305  24.395  1.00  0.00    -0.374 OA
ENDROOT
BRANCH   1   2
ATOM      2  C   UNL A   1      31.757  28.895  23.122  1.00  0.00     0.202 C 
BRANCH   2   3
ATOM      3  C   UNL A   1      32.506  27.740  22.459  1.00  0.00     0.261 C 
BRANCH   3   4
ATOM      4  O   UNL A   1      33.353  27.072  23.407  1.00  0.00    -0.458 OA
BRANCH   4   5
ATOM      5  C   UNL A   1      33.057  25.754  23.596  1.00  0.00     0.372 C 
ATOM      6  O   UNL A   1      32.632  25.033  22.695  1.00  0.00    -0.244 OA
BRANCH   5   7
ATOM      7  C   UNL A   1      33.374  25.254  25.073  1.00  0.00     0.221 C 
ATOM      8  C   UNL A   1      34.028  26.389  25.911  1.00  0.00     0.098 C 
BRANCH   7   9
ATOM      9  N   UNL A   1      32.009  24.866  25.631  1.00  0.00    -0.318 N 
ATOM     10  H   UNL A   1      32.268  24.492  26.545  1.00  0.00     0.349 HD
BRANCH   9  11
ATOM     11  C   UNL A   1      31.311  23.775  24.905  1.00  0.00     0.259 C 
ATOM     12  C   UNL A   1      31.244  22.387  25.544  1.00  0.00     0.071 C 
ENDBRANCH   9  11
BRANCH   9  13
ATOM     13  C   UNL A   1      31.090  25.996  25.867  1.00  0.00     0.259 C 
ATOM     14  C   UNL A   1      29.880  26.060  24.932  1.00  0.00     0.071 C 
ENDBRANCH   9  13
ENDBRANCH   7   9
BRANCH   7  15
ATOM     15  C   UNL A   1      34.420  24.080  24.969  1.00  0.00     0.062 A 
ATOM     16  C   UNL A   1      35.148  23.809  23.791  1.00  0.00     0.053 A 
ATOM     17  C   UNL A   1      34.734  23.261  26.073  1.00  0.00     0.133 A 
ATOM     18  C   UNL A   1      36.096  22.779  23.730  1.00  0.00     0.126 A 
ATOM     19  C   UNL A   1      35.658  22.209  26.003  1.00  0.00     0.046 A 
ATOM     20  F   UNL A   1      34.135  23.452  27.258  1.00  0.00    -0.206 F 
ATOM     21  F   UNL A   1      36.781  22.603  22.592  1.00  0.00    -0.207 F 
ATOM     22  C   UNL A   1      36.344  21.949  24.818  1.00  0.00    -0.012 A 
ATOM     23  C   UNL A   1      37.353  20.846  24.722  1.00  0.00     0.047 C 
ENDBRANCH   7  15
ENDBRANCH   5   7
ENDBRANCH   4   5
ENDBRANCH   3   4
ENDBRANCH   2   3
ENDBRANCH   1   2
BRANCH   1  24
ATOM     24  C   UNL A   1      31.322  29.850  25.331  1.00  0.00     0.202 C 
BRANCH  24  25
ATOM     25  C   UNL A   1      31.916  30.502  26.586  1.00  0.00     0.261 C 
BRANCH  25  26
ATOM     26  O   UNL A   1      33.283  30.935  26.421  1.00  0.00    -0.460 OA
BRANCH  26  27
ATOM     27  C   UNL A   1      33.800  31.562  27.504  1.00  0.00     0.338 C 
ATOM     28  O   UNL A   1      33.223  32.333  28.260  1.00  0.00    -0.246 OA
BRANCH  27  29
ATOM     29  C   UNL A   1      35.180  31.129  27.786  1.00  0.00     0.060 A 
ATOM     30  C   UNL A   1      35.382  29.769  28.052  1.00  0.00     0.016 A 
ATOM     31  C   UNL A   1      36.199  32.056  28.020  1.00  0.00     0.016 A 
ATOM     32  C   UNL A   1      36.572  29.341  28.637  1.00  0.00     0.010 A 
ATOM     33  C   UNL A   1      37.395  31.625  28.613  1.00  0.00     0.010 A 
ATOM     34  C   UNL A   1      37.559  30.276  28.982  1.00  0.00    -0.014 A 
BRANCH  34  35
ATOM     35  C   UNL A   1      38.633  29.857  29.919  1.00  0.00     0.031 A 
ATOM     36  C   UNL A   1      39.689  28.897  29.432  1.00  0.00     0.074 A 
ATOM     37  C   UNL A   1      38.728  30.384  31.152  1.00  0.00     0.049 A 
ATOM     38  N   UNL A   1      40.758  28.454  30.045  1.00  0.00    -0.248 NA
ATOM     39  C   UNL A   1      39.516  28.369  28.069  1.00  0.00     0.031 C 
ATOM     40  C   UNL A   1      37.795  31.348  31.733  1.00  0.00     0.029 A 
ATOM     41  N   UNL A   1      39.669  30.190  32.133  1.00  0.00    -0.354 N 
ATOM     42  C   UNL A   1      41.385  27.602  29.143  1.00  0.00     0.074 A 
ATOM     43  C   UNL A   1      40.559  27.561  27.955  1.00  0.00     0.031 C 
ATOM     44  C   UNL A   1      38.213  31.664  32.971  1.00  0.00     0.029 A 
ATOM     45  C   UNL A   1      39.435  30.919  33.272  1.00  0.00     0.049 A 
ATOM     46  H   UNL A   1      40.439  29.586  32.028  1.00  0.00     0.167 HD
ATOM     47  C   UNL A   1      42.551  26.927  29.282  1.00  0.00     0.037 A 
ATOM     48  C   UNL A   1      40.129  30.978  34.425  1.00  0.00     0.037 A 
ATOM     49  C   UNL A   1      43.383  26.966  30.455  1.00  0.00     0.049 A 
ATOM     50  C   UNL A   1      41.406  30.191  34.568  1.00  0.00     0.074 A 
ATOM     51  C   UNL A   1      44.580  26.314  30.688  1.00  0.00     0.029 A 
ATOM     52  N   UNL A   1      43.099  27.704  31.594  1.00  0.00    -0.354 N 
ATOM     53  N   UNL A   1      42.002  29.410  33.700  1.00  0.00    -0.248 NA
ATOM     54  C   UNL A   1      42.116  30.307  35.851  1.00  0.00     0.031 C 
ATOM     55  C   UNL A   1      45.007  26.633  31.983  1.00  0.00     0.029 A 
ATOM     56  C   UNL A   1      44.095  27.514  32.538  1.00  0.00     0.049 A 
ATOM     57  H   UNL A   1      42.308  28.277  31.714  1.00  0.00     0.167 HD
ATOM     58  C   UNL A   1      43.168  28.972  34.316  1.00  0.00     0.074 A 
ATOM     59  C   UNL A   1      43.201  29.579  35.629  1.00  0.00     0.031 C 
ATOM     60  C   UNL A   1      44.125  28.141  33.834  1.00  0.00     0.037 A 
BRANCH  47  61
ATOM     61  C   UNL A   1      42.991  26.069  28.132  1.00  0.00     0.064 A 
ATOM     62  C   UNL A   1      43.841  26.564  27.132  1.00  0.00     0.173 A 
ATOM     63  C   UNL A   1      42.581  24.731  28.045  1.00  0.00     0.173 A 
ATOM     64  F   UNL A   1      44.248  27.842  27.164  1.00  0.00    -0.203 F 
ATOM     65  C   UNL A   1      44.247  25.756  26.074  1.00  0.00     0.198 A 
ATOM     66  C   UNL A   1      43.008  23.919  26.999  1.00  0.00     0.198 A 
ATOM     67  F   UNL A   1      41.770  24.211  28.979  1.00  0.00    -0.203 F 
ATOM     68  F   UNL A   1      45.027  26.260  25.108  1.00  0.00    -0.200 F 
ATOM     69  C   UNL A   1      43.835  24.432  26.011  1.00  0.00     0.200 A 
ATOM     70  F   UNL A   1      42.616  22.638  26.944  1.00  0.00    -0.200 F 
ATOM     71  F   UNL A   1      44.230  23.653  24.994  1.00  0.00    -0.200 F 
ENDBRANCH  47  61
BRANCH  48  72
ATOM     72  C   UNL A   1      39.643  31.831  35.538  1.00  0.00     0.064 A 
ATOM     73  C   UNL A   1      38.668  31.368  36.433  1.00  0.00     0.173 A 
ATOM     74  C   UNL A   1      40.126  33.135  35.714  1.00  0.00     0.173 A 
ATOM     75  F   UNL A   1      38.155  30.137  36.288  1.00  0.00    -0.203 F 
ATOM     76  C   UNL A   1      38.184  32.185  37.453  1.00  0.00     0.198 A 
ATOM     77  C   UNL A   1      39.659  33.942  36.749  1.00  0.00     0.198 A 
ATOM     78  F   UNL A   1      41.058  33.624  34.881  1.00  0.00    -0.203 F 
ATOM     79  F   UNL A   1      37.219  31.735  38.268  1.00  0.00    -0.200 F 
ATOM     80  C   UNL A   1      38.683  33.469  37.613  1.00  0.00     0.200 A 
ATOM     81  F   UNL A   1      40.149  35.179  36.905  1.00  0.00    -0.200 F 
ATOM     82  F   UNL A   1      38.215  34.254  38.593  1.00  0.00    -0.200 F 
ENDBRANCH  48  72
BRANCH  60  83
ATOM     83  C   UNL A   1      45.314  27.878  34.710  1.00  0.00     0.064 A 
ATOM     84  C   UNL A   1      45.346  26.799  35.604  1.00  0.00     0.173 A 
ATOM     85  C   UNL A   1      46.451  28.697  34.626  1.00  0.00     0.173 A 
ATOM     86  F   UNL A   1      44.280  25.994  35.729  1.00  0.00    -0.203 F 
ATOM     87  C   UNL A   1      46.463  26.564  36.403  1.00  0.00     0.198 A 
ATOM     88  C   UNL A   1      47.574  28.446  35.409  1.00  0.00     0.198 A 
ATOM     89  F   UNL A   1      46.473  29.739  33.781  1.00  0.00    -0.203 F 
ATOM     90  F   UNL A   1      46.455  25.553  37.282  1.00  0.00    -0.200 F 
ATOM     91  C   UNL A   1      47.577  27.384  36.301  1.00  0.00     0.200 A 
ATOM     92  F   UNL A   1      48.655  29.232  35.301  1.00  0.00    -0.200 F 
ATOM     93  F   UNL A   1      48.651  27.155  37.069  1.00  0.00    -0.200 F 
ENDBRANCH  60  83
ENDBRANCH  34  35
ENDBRANCH  27  29
ENDBRANCH  26  27
ENDBRANCH  25  26
ENDBRANCH  24  25
ENDBRANCH   1  24
TORSDOF 18
ENDMDL
MODEL 2
REMARK VINA RESULT:     -10.4      4.532      7.487
REMARK SMILES CC[NH+](CC)[C@](C)(C(=O)OCCOCCOC(=O)c1ccc(-c2c3nc(c(-c4c(F)c(F)c(F)c(F)c4F)c4ccc([nH]4)c(-c4c(F)c(F)c(F)c(F)c4F)c4nc(c(-c5c(F)c(F)c(F)c(F)c5F)c5ccc2[nH]5)C=C4)C=C3)cc1)c1cc(F)c(C)cc1F
REMARK SMILES IDX 13 1 12 2 11 3 10 4 8 5 9 6 6 7 7 8 3 9 2 11 1 12 4 13 5 14
REMARK SMILES IDX 82 15 83 16 89 17 84 18 88 19 90 20 85 21 86 22 87 23 14 24
REMARK SMILES IDX 15 25 16 26 17 27 18 28 19 29 20 30 81 31 21 32 80 33 22 34
REMARK SMILES IDX 23 35 24 36 74 37 25 38 79 39 73 40 75 41 26 42 78 43 72 44
REMARK SMILES IDX 71 45 27 47 59 48 39 49 58 50 40 51 43 52 57 53 76 54 41 55
REMARK SMILES IDX 42 56 56 58 77 59 44 60 28 61 29 62 37 63 30 64 31 65 35 66
REMARK SMILES IDX 38 67 32 68 33 69 36 70 34 71 60 72 61 73 69 74 62 75 63 76
REMARK SMILES IDX 67 77 70 78 64 79 65 80 68 81 66 82 45 83 46 84 54 85 47 86
REMARK SMILES IDX 48 87 52 88 55 89 49 90 50 91 53 92 51 93
REMARK H PARENT 3 10 75 46 43 57
REMARK Flexibility Score: inf
ROOT
ATOM      1  O   UNL A   1      37.170  19.979  24.882  1.00  0.00    -0.374 OA
ENDROOT
BRANCH   1   2
ATOM      2  C   UNL A   1      36.005  20.801  24.935  1.00  0.00     0.202 C 
BRANCH   2   3
ATOM      3  C   UNL A   1      36.256  22.308  24.970  1.00  0.00     0.261 C 
BRANCH   3   4
ATOM      4  O   UNL A   1      35.041  23.020  25.252  1.00  0.00    -0.458 OA
BRANCH   4   5
ATOM      5  C   UNL A   1      34.416  23.527  24.152  1.00  0.00     0.372 C 
ATOM      6  O   UNL A   1      35.019  23.820  23.121  1.00  0.00    -0.244 OA
BRANCH   5   7
ATOM      7  C   UNL A   1      32.839  23.640  24.333  1.00  0.00     0.221 C 
ATOM      8  C   UNL A   1      32.100  23.142  23.059  1.00  0.00     0.098 C 
BRANCH   7   9
ATOM      9  N   UNL A   1      32.541  22.750  25.534  1.00  0.00    -0.318 N 
ATOM     10  H   UNL A   1      33.484  22.522  25.850  1.00  0.00     0.349 HD
BRANCH   9  11
ATOM     11  C   UNL A   1      31.872  21.462  25.221  1.00  0.00     0.259 C 
ATOM     12  C   UNL A   1      32.683  20.168  25.306  1.00  0.00     0.071 C 
ENDBRANCH   9  11
BRANCH   9  13
ATOM     13  C   UNL A   1      31.857  23.425  26.653  1.00  0.00     0.259 C 
ATOM     14  C   UNL A   1      30.376  23.075  26.821  1.00  0.00     0.071 C 
ENDBRANCH   9  13
ENDBRANCH   7   9
BRANCH   7  15
ATOM     15  C   UNL A   1      32.486  25.165  24.519  1.00  0.00     0.062 A 
ATOM     16  C   UNL A   1      31.348  25.760  23.934  1.00  0.00     0.053 A 
ATOM     17  C   UNL A   1      33.260  26.016  25.333  1.00  0.00     0.133 A 
ATOM     18  C   UNL A   1      31.035  27.110  24.138  1.00  0.00     0.126 A 
ATOM     19  C   UNL A   1      32.967  27.375  25.511  1.00  0.00     0.046 A 
ATOM     20  F   UNL A   1      34.342  25.551  25.974  1.00  0.00    -0.206 F 
ATOM     21  F   UNL A   1      29.917  27.602  23.587  1.00  0.00    -0.207 F 
ATOM     22  C   UNL A   1      31.849  27.942  24.900  1.00  0.00    -0.012 A 
ATOM     23  C   UNL A   1      31.500  29.386  25.091  1.00  0.00     0.047 C 
ENDBRANCH   7  15
ENDBRANCH   5   7
ENDBRANCH   4   5
ENDBRANCH   3   4
ENDBRANCH   2   3
ENDBRANCH   1   2
BRANCH   1  24
ATOM     24  C   UNL A   1      38.408  20.547  25.307  1.00  0.00     0.202 C 
BRANCH  24  25
ATOM     25  C   UNL A   1      39.536  19.561  25.639  1.00  0.00     0.261 C 
BRANCH  25  26
ATOM     26  O   UNL A   1      40.341  19.961  26.768  1.00  0.00    -0.460 OA
BRANCH  26  27
ATOM     27  C   UNL A   1      41.385  20.761  26.448  1.00  0.00     0.338 C 
ATOM     28  O   UNL A   1      42.261  20.542  25.620  1.00  0.00    -0.246 OA
BRANCH  27  29
ATOM     29  C   UNL A   1      41.320  22.059  27.142  1.00  0.00     0.060 A 
ATOM     30  C   UNL A   1      40.714  23.121  26.459  1.00  0.00     0.016 A 
ATOM     31  C   UNL A   1      42.037  22.290  28.319  1.00  0.00     0.016 A 
ATOM     32  C   UNL A   1      40.900  24.430  26.899  1.00  0.00     0.010 A 
ATOM     33  C   UNL A   1      42.226  23.609  28.758  1.00  0.00     0.010 A 
ATOM     34  C   UNL A   1      41.711  24.687  28.013  1.00  0.00    -0.014 A 
BRANCH  34  35
ATOM     35  C   UNL A   1      42.186  26.077  28.236  1.00  0.00     0.031 A 
ATOM     36  C   UNL A   1      43.510  26.495  27.650  1.00  0.00     0.074 A 
ATOM     37  C   UNL A   1      41.420  26.982  28.869  1.00  0.00     0.049 A 
ATOM     38  N   UNL A   1      44.088  27.671  27.650  1.00  0.00    -0.248 NA
ATOM     39  C   UNL A   1      44.286  25.447  26.968  1.00  0.00     0.031 C 
ATOM     40  C   UNL A   1      40.106  26.719  29.451  1.00  0.00     0.029 A 
ATOM     41  N   UNL A   1      41.637  28.317  29.113  1.00  0.00    -0.354 N 
ATOM     42  C   UNL A   1      45.287  27.503  26.968  1.00  0.00     0.074 A 
ATOM     43  C   UNL A   1      45.373  26.107  26.600  1.00  0.00     0.031 C 
ATOM     44  C   UNL A   1      39.631  27.858  29.984  1.00  0.00     0.029 A 
ATOM     45  C   UNL A   1      40.610  28.926  29.789  1.00  0.00     0.049 A 
ATOM     46  H   UNL A   1      42.452  28.790  28.829  1.00  0.00     0.167 HD
ATOM     47  C   UNL A   1      46.226  28.430  26.660  1.00  0.00     0.037 A 
ATOM     48  C   UNL A   1      40.477  30.202  30.201  1.00  0.00     0.037 A 
ATOM     49  C   UNL A   1      46.147  29.822  27.015  1.00  0.00     0.049 A 
ATOM     50  C   UNL A   1      41.551  31.208  29.875  1.00  0.00     0.074 A 
ATOM     51  C   UNL A   1      47.050  30.835  26.749  1.00  0.00     0.029 A 
ATOM     52  N   UNL A   1      45.097  30.395  27.716  1.00  0.00    -0.354 N 
ATOM     53  N   UNL A   1      42.667  31.044  29.208  1.00  0.00    -0.248 NA
ATOM     54  C   UNL A   1      41.337  32.583  30.350  1.00  0.00     0.031 C 
ATOM     55  C   UNL A   1      46.562  32.017  27.317  1.00  0.00     0.029 A 
ATOM     56  C   UNL A   1      45.335  31.747  27.901  1.00  0.00     0.049 A 
ATOM     57  H   UNL A   1      44.300  29.913  28.035  1.00  0.00     0.167 HD
ATOM     58  C   UNL A   1      43.268  32.295  29.153  1.00  0.00     0.074 A 
ATOM     59  C   UNL A   1      42.391  33.212  29.849  1.00  0.00     0.031 C 
ATOM     60  C   UNL A   1      44.442  32.651  28.577  1.00  0.00     0.037 A 
BRANCH  47  61
ATOM     61  C   UNL A   1      47.436  27.960  25.909  1.00  0.00     0.064 A 
ATOM     62  C   UNL A   1      48.631  27.641  26.571  1.00  0.00     0.173 A 
ATOM     63  C   UNL A   1      47.393  27.800  24.517  1.00  0.00     0.173 A 
ATOM     64  F   UNL A   1      48.726  27.792  27.901  1.00  0.00    -0.203 F 
ATOM     65  C   UNL A   1      49.746  27.199  25.863  1.00  0.00     0.198 A 
ATOM     66  C   UNL A   1      48.501  27.335  23.815  1.00  0.00     0.198 A 
ATOM     67  F   UNL A   1      46.272  28.089  23.838  1.00  0.00    -0.203 F 
ATOM     68  F   UNL A   1      50.890  26.938  26.511  1.00  0.00    -0.200 F 
ATOM     69  C   UNL A   1      49.678  27.041  24.487  1.00  0.00     0.200 A 
ATOM     70  F   UNL A   1      48.432  27.175  22.486  1.00  0.00    -0.200 F 
ATOM     71  F   UNL A   1      50.750  26.612  23.806  1.00  0.00    -0.200 F 
ENDBRANCH  47  61
BRANCH  48  72
ATOM     72  C   UNL A   1      39.266  30.613  30.954  1.00  0.00     0.064 A 
ATOM     73  C   UNL A   1      39.193  30.463  32.347  1.00  0.00     0.173 A 
ATOM     74  C   UNL A   1      38.148  31.141  30.294  1.00  0.00     0.173 A 
ATOM     75  F   UNL A   1      40.227  29.936  33.018  1.00  0.00    -0.203 F 
ATOM     76  C   UNL A   1      38.040  30.811  33.047  1.00  0.00     0.198 A 
ATOM     77  C   UNL A   1      37.005  31.512  30.998  1.00  0.00     0.198 A 
ATOM     78  F   UNL A   1      38.168  31.301  28.962  1.00  0.00    -0.203 F 
ATOM     79  F   UNL A   1      37.979  30.617  34.371  1.00  0.00    -0.200 F 
ATOM     80  C   UNL A   1      36.949  31.340  32.373  1.00  0.00     0.200 A 
ATOM     81  F   UNL A   1      35.955  32.029  30.345  1.00  0.00    -0.200 F 
ATOM     82  F   UNL A   1      35.840  31.673  33.048  1.00  0.00    -0.200 F 
ENDBRANCH  48  72
BRANCH  60  83
ATOM     83  C   UNL A   1      44.825  34.101  28.630  1.00  0.00     0.064 A 
ATOM     84  C   UNL A   1      44.373  35.017  27.670  1.00  0.00     0.173 A 
ATOM     85  C   UNL A   1      45.626  34.585  29.676  1.00  0.00     0.173 A 
ATOM     86  F   UNL A   1      43.614  34.602  26.644  1.00  0.00    -0.203 F 
ATOM     87  C   UNL A   1      44.731  36.362  27.740  1.00  0.00     0.198 A 
ATOM     88  C   UNL A   1      45.963  35.933  29.756  1.00  0.00     0.198 A 
ATOM     89  F   UNL A   1      46.079  33.750  30.623  1.00  0.00    -0.203 F 
ATOM     90  F   UNL A   1      44.324  37.213  26.787  1.00  0.00    -0.200 F 
ATOM     91  C   UNL A   1      45.520  36.819  28.785  1.00  0.00     0.200 A 
ATOM     92  F   UNL A   1      46.716  36.376  30.772  1.00  0.00    -0.200 F 
ATOM     93  F   UNL A   1      45.862  38.113  28.851  1.00  0.00    -0.200 F 
ENDBRANCH  60  83
ENDBRANCH  34  35
ENDBRANCH  27  29
ENDBRANCH  26  27
ENDBRANCH  25  26
ENDBRANCH  24  25
ENDBRANCH   1  24
TORSDOF 18
ENDMDL
MODEL 3
REMARK VINA RESULT:     -10.2      4.657      7.927
REMARK SMILES CC[NH+](CC)[C@](C)(C(=O)OCCOCCOC(=O)c1ccc(-c2c3nc(c(-c4c(F)c(F)c(F)c(F)c4F)c4ccc([nH]4)c(-c4c(F)c(F)c(F)c(F)c4F)c4nc(c(-c5c(F)c(F)c(F)c(F)c5F)c5ccc2[nH]5)C=C4)C=C3)cc1)c1cc(F)c(C)cc1F
REMARK SMILES IDX 13 1 12 2 11 3 10 4 8 5 9 6 6 7 7 8 3 9 2 11 1 12 4 13 5 14
REMARK SMILES IDX 82 15 83 16 89 17 84 18 88 19 90 20 85 21 86 22 87 23 14 24
REMARK SMILES IDX 15 25 16 26 17 27 18 28 19 29 20 30 81 31 21 32 80 33 22 34
REMARK SMILES IDX 23 35 24 36 74 37 25 38 79 39 73 40 75 41 26 42 78 43 72 44
REMARK SMILES IDX 71 45 27 47 59 48 39 49 58 50 40 51 43 52 57 53 76 54 41 55
REMARK SMILES IDX 42 56 56 58 77 59 44 60 28 61 29 62 37 63 30 64 31 65 35 66
REMARK SMILES IDX 38 67 32 68 33 69 36 70 34 71 60 72 61 73 69 74 62 75 63 76
REMARK SMILES IDX 67 77 70 78 64 79 65 80 68 81 66 82 45 83 46 84 54 85 47 86
REMARK SMILES IDX 48 87 52 88 55 89 49 90 50 91 53 92 51 93
REMARK H PARENT 3 10 75 46 43 57
REMARK Flexibility Score: inf
ROOT
ATOM      1  O   UNL A   1      38.025  22.849  26.105  1.00  0.00    -0.374 OA
ENDROOT
BRANCH   1   2
ATOM      2  C   UNL A   1      37.023  22.192  25.330  1.00  0.00     0.202 C 
BRANCH   2   3
ATOM      3  C   UNL A   1      36.556  22.937  24.081  1.00  0.00     0.261 C 
BRANCH   3   4
ATOM      4  O   UNL A   1      35.753  24.074  24.437  1.00  0.00    -0.458 OA
BRANCH   4   5
ATOM      5  C   UNL A   1      34.546  24.132  23.805  1.00  0.00     0.372 C 
ATOM      6  O   UNL A   1      34.430  24.433  22.619  1.00  0.00    -0.244 OA
BRANCH   5   7
ATOM      7  C   UNL A   1      33.334  23.719  24.749  1.00  0.00     0.221 C 
ATOM      8  C   UNL A   1      33.699  23.938  26.245  1.00  0.00     0.098 C 
BRANCH   7   9
ATOM      9  N   UNL A   1      32.197  24.638  24.313  1.00  0.00    -0.318 N 
ATOM     10  H   UNL A   1      32.187  24.476  23.306  1.00  0.00     0.349 HD
BRANCH   9  11
ATOM     11  C   UNL A   1      32.441  26.089  24.510  1.00  0.00     0.259 C 
ATOM     12  C   UNL A   1      32.216  27.043  23.336  1.00  0.00     0.071 C 
ENDBRANCH   9  11
BRANCH   9  13
ATOM     13  C   UNL A   1      30.866  24.266  24.828  1.00  0.00     0.259 C 
ATOM     14  C   UNL A   1      30.288  25.209  25.886  1.00  0.00     0.071 C 
ENDBRANCH   9  13
ENDBRANCH   7   9
BRANCH   7  15
ATOM     15  C   UNL A   1      33.071  22.179  24.547  1.00  0.00     0.062 A 
ATOM     16  C   UNL A   1      33.231  21.235  25.585  1.00  0.00     0.053 A 
ATOM     17  C   UNL A   1      32.600  21.656  23.325  1.00  0.00     0.133 A 
ATOM     18  C   UNL A   1      32.962  19.874  25.392  1.00  0.00     0.126 A 
ATOM     19  C   UNL A   1      32.363  20.290  23.122  1.00  0.00     0.046 A 
ATOM     20  F   UNL A   1      32.370  22.463  22.279  1.00  0.00    -0.206 F 
ATOM     21  F   UNL A   1      33.096  19.039  26.431  1.00  0.00    -0.207 F 
ATOM     22  C   UNL A   1      32.555  19.377  24.158  1.00  0.00    -0.012 A 
ATOM     23  C   UNL A   1      32.286  17.915  23.975  1.00  0.00     0.047 C 
ENDBRANCH   7  15
ENDBRANCH   5   7
ENDBRANCH   4   5
ENDBRANCH   3   4
ENDBRANCH   2   3
ENDBRANCH   1   2
BRANCH   1  24
ATOM     24  C   UNL A   1      39.376  22.412  25.959  1.00  0.00     0.202 C 
BRANCH  24  25
ATOM     25  C   UNL A   1      39.730  21.061  26.596  1.00  0.00     0.261 C 
BRANCH  25  26
ATOM     26  O   UNL A   1      40.295  20.114  25.665  1.00  0.00    -0.460 OA
BRANCH  26  27
ATOM     27  C   UNL A   1      41.518  19.653  26.018  1.00  0.00     0.338 C 
ATOM     28  O   UNL A   1      41.933  18.505  25.922  1.00  0.00    -0.246 OA
BRANCH  27  29
ATOM     29  C   UNL A   1      42.413  20.739  26.453  1.00  0.00     0.060 A 
ATOM     30  C   UNL A   1      42.439  21.038  27.822  1.00  0.00     0.016 A 
ATOM     31  C   UNL A   1      43.024  21.592  25.530  1.00  0.00     0.016 A 
ATOM     32  C   UNL A   1      42.995  22.236  28.264  1.00  0.00     0.010 A 
ATOM     33  C   UNL A   1      43.581  22.799  25.977  1.00  0.00     0.010 A 
ATOM     34  C   UNL A   1      43.510  23.154  27.338  1.00  0.00    -0.014 A 
BRANCH  34  35
ATOM     35  C   UNL A   1      43.752  24.549  27.786  1.00  0.00     0.031 A 
ATOM     36  C   UNL A   1      45.171  25.056  27.851  1.00  0.00     0.074 A 
ATOM     37  C   UNL A   1      42.732  25.386  28.044  1.00  0.00     0.049 A 
ATOM     38  N   UNL A   1      45.616  26.254  28.138  1.00  0.00    -0.248 NA
ATOM     39  C   UNL A   1      46.230  24.079  27.550  1.00  0.00     0.031 C 
ATOM     40  C   UNL A   1      41.316  25.035  27.983  1.00  0.00     0.029 A 
ATOM     41  N   UNL A   1      42.738  26.714  28.396  1.00  0.00    -0.354 N 
ATOM     42  C   UNL A   1      47.001  26.175  28.047  1.00  0.00     0.074 A 
ATOM     43  C   UNL A   1      47.326  24.804  27.714  1.00  0.00     0.031 C 
ATOM     44  C   UNL A   1      40.585  26.123  28.286  1.00  0.00     0.029 A 
ATOM     45  C   UNL A   1      41.483  27.242  28.570  1.00  0.00     0.049 A 
ATOM     46  H   UNL A   1      43.564  27.237  28.511  1.00  0.00     0.167 HD
ATOM     47  C   UNL A   1      47.920  27.156  28.208  1.00  0.00     0.037 A 
ATOM     48  C   UNL A   1      41.104  28.487  28.917  1.00  0.00     0.037 A 
ATOM     49  C   UNL A   1      47.607  28.523  28.531  1.00  0.00     0.049 A 
ATOM     50  C   UNL A   1      42.148  29.554  29.124  1.00  0.00     0.074 A 
ATOM     51  C   UNL A   1      48.471  29.587  28.717  1.00  0.00     0.029 A 
ATOM     52  N   UNL A   1      46.324  29.012  28.717  1.00  0.00    -0.354 N 
ATOM     53  N   UNL A   1      43.451  29.474  29.010  1.00  0.00    -0.248 NA
ATOM     54  C   UNL A   1      41.663  30.892  29.496  1.00  0.00     0.031 C 
ATOM     55  C   UNL A   1      47.711  30.715  29.046  1.00  0.00     0.029 A 
ATOM     56  C   UNL A   1      46.373  30.361  29.025  1.00  0.00     0.049 A 
ATOM     57  H   UNL A   1      45.499  28.479  28.640  1.00  0.00     0.167 HD
ATOM     58  C   UNL A   1      43.937  30.752  29.260  1.00  0.00     0.074 A 
ATOM     59  C   UNL A   1      42.789  31.592  29.525  1.00  0.00     0.031 C 
ATOM     60  C   UNL A   1      45.220  31.189  29.267  1.00  0.00     0.037 A 
BRANCH  47  61
ATOM     61  C   UNL A   1      49.363  26.780  28.051  1.00  0.00     0.064 A 
ATOM     62  C   UNL A   1      49.970  26.715  26.788  1.00  0.00     0.173 A 
ATOM     63  C   UNL A   1      50.155  26.509  29.175  1.00  0.00     0.173 A 
ATOM     64  F   UNL A   1      49.250  26.952  25.680  1.00  0.00    -0.203 F 
ATOM     65  C   UNL A   1      51.313  26.370  26.655  1.00  0.00     0.198 A 
ATOM     66  C   UNL A   1      51.503  26.189  29.041  1.00  0.00     0.198 A 
ATOM     67  F   UNL A   1      49.622  26.561  30.405  1.00  0.00    -0.203 F 
ATOM     68  F   UNL A   1      51.862  26.275  25.437  1.00  0.00    -0.200 F 
ATOM     69  C   UNL A   1      52.079  26.114  27.783  1.00  0.00     0.200 A 
ATOM     70  F   UNL A   1      52.244  25.949  30.132  1.00  0.00    -0.200 F 
ATOM     71  F   UNL A   1      53.373  25.786  27.655  1.00  0.00    -0.200 F 
ENDBRANCH  47  61
BRANCH  48  72
ATOM     72  C   UNL A   1      39.663  28.804  29.075  1.00  0.00     0.064 A 
ATOM     73  C   UNL A   1      38.896  29.252  27.989  1.00  0.00     0.173 A 
ATOM     74  C   UNL A   1      39.029  28.689  30.320  1.00  0.00     0.173 A 
ATOM     75  F   UNL A   1      39.466  29.404  26.785  1.00  0.00    -0.203 F 
ATOM     76  C   UNL A   1      37.553  29.587  28.149  1.00  0.00     0.198 A 
ATOM     77  C   UNL A   1      37.680  29.001  30.472  1.00  0.00     0.198 A 
ATOM     78  F   UNL A   1      39.721  28.269  31.389  1.00  0.00    -0.203 F 
ATOM     79  F   UNL A   1      36.854  30.055  27.105  1.00  0.00    -0.200 F 
ATOM     80  C   UNL A   1      36.945  29.457  29.389  1.00  0.00     0.200 A 
ATOM     81  F   UNL A   1      37.094  28.868  31.670  1.00  0.00    -0.200 F 
ATOM     82  F   UNL A   1      35.654  29.782  29.540  1.00  0.00    -0.200 F 
ENDBRANCH  48  72
BRANCH  60  83
ATOM     83  C   UNL A   1      45.450  32.650  29.523  1.00  0.00     0.064 A 
ATOM     84  C   UNL A   1      45.445  33.589  28.482  1.00  0.00     0.173 A 
ATOM     85  C   UNL A   1      45.643  33.117  30.832  1.00  0.00     0.173 A 
ATOM     86  F   UNL A   1      45.277  33.190  27.213  1.00  0.00    -0.203 F 
ATOM     87  C   UNL A   1      45.652  34.942  28.740  1.00  0.00     0.198 A 
ATOM     88  C   UNL A   1      45.825  34.474  31.088  1.00  0.00     0.198 A 
ATOM     89  F   UNL A   1      45.649  32.259  31.863  1.00  0.00    -0.203 F 
ATOM     90  F   UNL A   1      45.687  35.818  27.726  1.00  0.00    -0.200 F 
ATOM     91  C   UNL A   1      45.836  35.384  30.042  1.00  0.00     0.200 A 
ATOM     92  F   UNL A   1      45.992  34.900  32.348  1.00  0.00    -0.200 F 
ATOM     93  F   UNL A   1      46.033  36.686  30.288  1.00  0.00    -0.200 F 
ENDBRANCH  60  83
ENDBRANCH  34  35
ENDBRANCH  27  29
ENDBRANCH  26  27
ENDBRANCH  25  26
ENDBRANCH  24  25
ENDBRANCH   1  24
TORSDOF 18
ENDMDL
