MODEL 1
REMARK VINA RESULT:     -12.8      0.000      0.000
REMARK SMILES CC1=CC[C@@](C(=O)N/N=C/C2=C([O-])CC(C)(C)CC2=O)(C(=O)OCCOCCOC(=O)c2ccc(-c3c4nc(c(-c5c(F)c(F)c(F)c(F)c5F)c5ccc([nH]5)c(-c5c(F)c(F)c(F)c(F)c5F)c5nc(c(-c6c(F)c(F)c(F)c(F)c6F)c6ccc3[nH]6)C=C5)C=C4)cc2)C[C@@H]1c1ccccc1
REMARK SMILES IDX 25 1 24 2 23 3 21 4 22 5 5 6 1 7 2 8 3 9 96 10 4 11 95 12
REMARK SMILES IDX 97 13 98 14 102 15 99 16 101 17 100 18 6 19 7 20 8 21 9 23
REMARK SMILES IDX 10 24 11 25 12 26 19 27 13 28 14 29 18 30 20 31 15 32 16 33
REMARK SMILES IDX 17 34 26 35 27 36 28 37 29 38 30 39 31 40 32 41 33 42 94 43
REMARK SMILES IDX 34 44 93 45 35 46 36 47 37 48 87 49 38 50 92 51 86 52 88 53
REMARK SMILES IDX 39 54 91 55 85 56 84 57 40 59 72 60 52 61 71 62 53 63 56 64
REMARK SMILES IDX 70 65 89 66 54 67 55 68 69 70 90 71 57 72 41 73 42 74 50 75
REMARK SMILES IDX 43 76 44 77 48 78 51 79 45 80 46 81 49 82 47 83 73 84 74 85
REMARK SMILES IDX 82 86 75 87 76 88 80 89 83 90 77 91 78 92 81 93 79 94 58 95
REMARK SMILES IDX 59 96 67 97 60 98 61 99 65 100 68 101 62 102 63 103 66 104
REMARK SMILES IDX 64 105
REMARK H PARENT 8 22 88 58 56 69
REMARK Flexibility Score: inf
ROOT
ATOM      1  C   UNL A   1      39.750  21.404  26.503  1.00  0.00     0.202 C 
ENDROOT
BRANCH   1   2
ATOM      2  C   UNL A   1      38.703  21.808  25.463  1.00  0.00     0.261 C 
BRANCH   2   3
ATOM      3  O   UNL A   1      37.355  21.815  25.972  1.00  0.00    -0.462 OA
BRANCH   3   4
ATOM      4  C   UNL A   1      36.765  23.040  25.870  1.00  0.00     0.322 C 
ATOM      5  O   UNL A   1      37.422  24.076  25.932  1.00  0.00    -0.251 OA
BRANCH   4   6
ATOM      6  C   UNL A   1      35.265  23.005  25.510  1.00  0.00     0.152 C 
ATOM      7  C   UNL A   1      30.908  22.713  26.230  1.00  0.00     0.040 C 
ATOM      8  C   UNL A   1      32.406  22.833  26.175  1.00  0.00    -0.070 C 
ATOM      9  C   UNL A   1      33.000  24.040  26.114  1.00  0.00    -0.026 C 
ATOM     10  C   UNL A   1      33.224  21.570  26.335  1.00  0.00     0.046 C 
ATOM     11  C   UNL A   1      34.485  24.264  25.922  1.00  0.00     0.056 C 
ATOM     12  C   UNL A   1      34.738  21.865  26.435  1.00  0.00     0.042 C 
BRANCH  10  13
ATOM     13  C   UNL A   1      33.018  20.402  25.384  1.00  0.00    -0.041 A 
ATOM     14  C   UNL A   1      33.836  19.270  25.580  1.00  0.00     0.004 A 
ATOM     15  C   UNL A   1      32.196  20.437  24.255  1.00  0.00     0.004 A 
ATOM     16  C   UNL A   1      33.896  18.248  24.636  1.00  0.00     0.000 A 
ATOM     17  C   UNL A   1      32.258  19.411  23.306  1.00  0.00     0.000 A 
ATOM     18  C   UNL A   1      33.119  18.329  23.487  1.00  0.00     0.000 A 
ENDBRANCH  10  13
BRANCH   6  19
ATOM     19  C   UNL A   1      35.186  22.618  24.004  1.00  0.00     0.257 C 
ATOM     20  O   UNL A   1      35.415  21.463  23.623  1.00  0.00    -0.272 OA
ATOM     21  N   UNL A   1      34.830  23.498  23.006  1.00  0.00    -0.246 N 
ATOM     22  H   UNL A   1      34.869  23.170  22.079  1.00  0.00     0.193 HD
BRANCH  21  23
ATOM     23  N   UNL A   1      34.430  24.775  23.199  1.00  0.00    -0.181 NA
ATOM     24  C   UNL A   1      33.390  25.160  22.534  1.00  0.00     0.144 C 
BRANCH  24  25
ATOM     25  C   UNL A   1      32.650  26.426  22.814  1.00  0.00     0.026 C 
ATOM     26  C   UNL A   1      31.474  26.386  23.473  1.00  0.00    -0.119 C 
ATOM     27  C   UNL A   1      33.256  27.772  22.583  1.00  0.00     0.164 C 
ATOM     28  O   UNL A   1      30.805  25.216  23.785  1.00  0.00    -0.875 OA
ATOM     29  C   UNL A   1      30.780  27.597  24.062  1.00  0.00     0.026 C 
ATOM     30  C   UNL A   1      32.882  28.880  23.549  1.00  0.00     0.087 C 
ATOM     31  O   UNL A   1      34.044  27.977  21.663  1.00  0.00    -0.294 OA
ATOM     32  C   UNL A   1      31.360  28.979  23.689  1.00  0.00    -0.025 C 
ATOM     33  C   UNL A   1      30.754  29.493  22.370  1.00  0.00     0.012 C 
ATOM     34  C   UNL A   1      31.007  29.984  24.803  1.00  0.00     0.012 C 
ENDBRANCH  24  25
ENDBRANCH  21  23
ENDBRANCH   6  19
ENDBRANCH   4   6
ENDBRANCH   3   4
ENDBRANCH   2   3
ENDBRANCH   1   2
BRANCH   1  35
ATOM     35  O   UNL A   1      40.886  20.654  26.079  1.00  0.00    -0.374 OA
BRANCH  35  36
ATOM     36  C   UNL A   1      42.153  21.052  26.591  1.00  0.00     0.202 C 
BRANCH  36  37
ATOM     37  C   UNL A   1      43.181  21.645  25.603  1.00  0.00     0.261 C 
BRANCH  37  38
ATOM     38  O   UNL A   1      42.709  22.780  24.850  1.00  0.00    -0.460 OA
BRANCH  38  39
ATOM     39  C   UNL A   1      43.465  23.902  24.981  1.00  0.00     0.338 C 
ATOM     40  O   UNL A   1      44.486  24.182  24.380  1.00  0.00    -0.246 OA
BRANCH  39  41
ATOM     41  C   UNL A   1      42.794  24.888  25.851  1.00  0.00     0.060 A 
ATOM     42  C   UNL A   1      43.517  26.037  26.200  1.00  0.00     0.016 A 
ATOM     43  C   UNL A   1      41.552  24.633  26.434  1.00  0.00     0.016 A 
ATOM     44  C   UNL A   1      43.011  26.925  27.146  1.00  0.00     0.010 A 
ATOM     45  C   UNL A   1      41.052  25.519  27.402  1.00  0.00     0.010 A 
ATOM     46  C   UNL A   1      41.793  26.653  27.784  1.00  0.00    -0.014 A 
BRANCH  46  47
ATOM     47  C   UNL A   1      41.388  27.501  28.934  1.00  0.00     0.031 A 
ATOM     48  C   UNL A   1      42.215  27.485  30.191  1.00  0.00     0.074 A 
ATOM     49  C   UNL A   1      40.346  28.344  28.827  1.00  0.00     0.049 A 
ATOM     50  N   UNL A   1      42.078  28.192  31.286  1.00  0.00    -0.248 NA
ATOM     51  C   UNL A   1      43.353  26.554  30.217  1.00  0.00     0.031 C 
ATOM     52  C   UNL A   1      39.494  28.485  27.648  1.00  0.00     0.029 A 
ATOM     53  N   UNL A   1      39.833  29.248  29.724  1.00  0.00    -0.354 N 
ATOM     54  C   UNL A   1      43.107  27.791  32.127  1.00  0.00     0.074 A 
ATOM     55  C   UNL A   1      43.844  26.758  31.431  1.00  0.00     0.031 C 
ATOM     56  C   UNL A   1      38.567  29.427  27.890  1.00  0.00     0.029 A 
ATOM     57  C   UNL A   1      38.742  29.935  29.250  1.00  0.00     0.049 A 
ATOM     58  H   UNL A   1      40.211  29.392  30.621  1.00  0.00     0.167 HD
ATOM     59  C   UNL A   1      43.414  28.249  33.365  1.00  0.00     0.037 A 
ATOM     60  C   UNL A   1      37.968  30.860  29.849  1.00  0.00     0.037 A 
ATOM     61  C   UNL A   1      42.687  29.282  34.057  1.00  0.00     0.049 A 
ATOM     62  C   UNL A   1      38.293  31.300  31.254  1.00  0.00     0.074 A 
ATOM     63  C   UNL A   1      42.944  29.835  35.299  1.00  0.00     0.029 A 
ATOM     64  N   UNL A   1      41.551  29.911  33.568  1.00  0.00    -0.354 N 
ATOM     65  N   UNL A   1      39.290  30.943  32.026  1.00  0.00    -0.248 NA
ATOM     66  C   UNL A   1      37.382  32.277  31.868  1.00  0.00     0.031 C 
ATOM     67  C   UNL A   1      41.932  30.757  35.588  1.00  0.00     0.029 A 
ATOM     68  C   UNL A   1      41.076  30.820  34.500  1.00  0.00     0.049 A 
ATOM     69  H   UNL A   1      41.143  29.736  32.690  1.00  0.00     0.167 HD
ATOM     70  C   UNL A   1      39.143  31.667  33.202  1.00  0.00     0.074 A 
ATOM     71  C   UNL A   1      37.972  32.502  33.033  1.00  0.00     0.031 C 
ATOM     72  C   UNL A   1      39.907  31.644  34.322  1.00  0.00     0.037 A 
BRANCH  59  73
ATOM     73  C   UNL A   1      44.580  27.617  34.072  1.00  0.00     0.064 A 
ATOM     74  C   UNL A   1      44.444  26.435  34.812  1.00  0.00     0.173 A 
ATOM     75  C   UNL A   1      45.861  28.178  33.962  1.00  0.00     0.173 A 
ATOM     76  F   UNL A   1      43.238  25.863  34.957  1.00  0.00    -0.203 F 
ATOM     77  C   UNL A   1      45.543  25.848  35.434  1.00  0.00     0.198 A 
ATOM     78  C   UNL A   1      46.963  27.575  34.561  1.00  0.00     0.198 A 
ATOM     79  F   UNL A   1      46.047  29.307  33.259  1.00  0.00    -0.203 F 
ATOM     80  F   UNL A   1      45.384  24.738  36.168  1.00  0.00    -0.200 F 
ATOM     81  C   UNL A   1      46.803  26.413  35.301  1.00  0.00     0.200 A 
ATOM     82  F   UNL A   1      48.181  28.116  34.419  1.00  0.00    -0.200 F 
ATOM     83  F   UNL A   1      47.862  25.841  35.889  1.00  0.00    -0.200 F 
ENDBRANCH  59  73
BRANCH  60  84
ATOM     84  C   UNL A   1      36.798  31.434  29.132  1.00  0.00     0.064 A 
ATOM     85  C   UNL A   1      36.782  32.777  28.730  1.00  0.00     0.173 A 
ATOM     86  C   UNL A   1      35.659  30.659  28.868  1.00  0.00     0.173 A 
ATOM     87  F   UNL A   1      37.835  33.566  28.987  1.00  0.00    -0.203 F 
ATOM     88  C   UNL A   1      35.662  33.328  28.111  1.00  0.00     0.198 A 
ATOM     89  C   UNL A   1      34.552  31.204  28.222  1.00  0.00     0.198 A 
ATOM     90  F   UNL A   1      35.620  29.371  29.240  1.00  0.00    -0.203 F 
ATOM     91  F   UNL A   1      35.650  34.628  27.787  1.00  0.00    -0.200 F 
ATOM     92  C   UNL A   1      34.550  32.540  27.852  1.00  0.00     0.200 A 
ATOM     93  F   UNL A   1      33.483  30.437  27.967  1.00  0.00    -0.200 F 
ATOM     94  F   UNL A   1      33.472  33.072  27.260  1.00  0.00    -0.200 F 
ENDBRANCH  60  84
BRANCH  72  95
ATOM     95  C   UNL A   1      39.515  32.567  35.442  1.00  0.00     0.064 A 
ATOM     96  C   UNL A   1      39.983  33.888  35.506  1.00  0.00     0.173 A 
ATOM     97  C   UNL A   1      38.646  32.130  36.455  1.00  0.00     0.173 A 
ATOM     98  F   UNL A   1      40.827  34.351  34.572  1.00  0.00    -0.203 F 
ATOM     99  C   UNL A   1      39.626  34.725  36.561  1.00  0.00     0.198 A 
ATOM    100  C   UNL A   1      38.265  32.979  37.489  1.00  0.00     0.198 A 
ATOM    101  F   UNL A   1      38.162  30.879  36.437  1.00  0.00    -0.203 F 
ATOM    102  F   UNL A   1      40.133  35.962  36.632  1.00  0.00    -0.200 F 
ATOM    103  C   UNL A   1      38.763  34.272  37.548  1.00  0.00     0.200 A 
ATOM    104  F   UNL A   1      37.419  32.545  38.434  1.00  0.00    -0.200 F 
ATOM    105  F   UNL A   1      38.419  35.079  38.561  1.00  0.00    -0.200 F 
ENDBRANCH  72  95
ENDBRANCH  46  47
ENDBRANCH  39  41
ENDBRANCH  38  39
ENDBRANCH  37  38
ENDBRANCH  36  37
ENDBRANCH  35  36
ENDBRANCH   1  35
TORSDOF 18
ENDMDL
MODEL 2
REMARK VINA RESULT:     -12.7      0.461      6.827
REMARK SMILES CC1=CC[C@@](C(=O)N/N=C/C2=C([O-])CC(C)(C)CC2=O)(C(=O)OCCOCCOC(=O)c2ccc(-c3c4nc(c(-c5c(F)c(F)c(F)c(F)c5F)c5ccc([nH]5)c(-c5c(F)c(F)c(F)c(F)c5F)c5nc(c(-c6c(F)c(F)c(F)c(F)c6F)c6ccc3[nH]6)C=C5)C=C4)cc2)C[C@@H]1c1ccccc1
REMARK SMILES IDX 25 1 24 2 23 3 21 4 22 5 5 6 1 7 2 8 3 9 96 10 4 11 95 12
REMARK SMILES IDX 97 13 98 14 102 15 99 16 101 17 100 18 6 19 7 20 8 21 9 23
REMARK SMILES IDX 10 24 11 25 12 26 19 27 13 28 14 29 18 30 20 31 15 32 16 33
REMARK SMILES IDX 17 34 26 35 27 36 28 37 29 38 30 39 31 40 32 41 33 42 94 43
REMARK SMILES IDX 34 44 93 45 35 46 36 47 37 48 87 49 38 50 92 51 86 52 88 53
REMARK SMILES IDX 39 54 91 55 85 56 84 57 40 59 72 60 52 61 71 62 53 63 56 64
REMARK SMILES IDX 70 65 89 66 54 67 55 68 69 70 90 71 57 72 41 73 42 74 50 75
REMARK SMILES IDX 43 76 44 77 48 78 51 79 45 80 46 81 49 82 47 83 73 84 74 85
REMARK SMILES IDX 82 86 75 87 76 88 80 89 83 90 77 91 78 92 81 93 79 94 58 95
REMARK SMILES IDX 59 96 67 97 60 98 61 99 65 100 68 101 62 102 63 103 66 104
REMARK SMILES IDX 64 105
REMARK H PARENT 8 22 88 58 56 69
REMARK Flexibility Score: inf
ROOT
ATOM      1  C   UNL A   1      39.587  21.414  26.462  1.00  0.00     0.202 C 
ENDROOT
BRANCH   1   2
ATOM      2  C   UNL A   1      38.516  21.780  25.431  1.00  0.00     0.261 C 
BRANCH   2   3
ATOM      3  O   UNL A   1      37.181  21.817  25.971  1.00  0.00    -0.462 OA
BRANCH   3   4
ATOM      4  C   UNL A   1      36.638  23.067  25.934  1.00  0.00     0.322 C 
ATOM      5  O   UNL A   1      37.330  24.072  26.075  1.00  0.00    -0.251 OA
BRANCH   4   6
ATOM      6  C   UNL A   1      35.147  23.110  25.541  1.00  0.00     0.152 C 
ATOM      7  C   UNL A   1      30.766  23.106  26.170  1.00  0.00     0.040 C 
ATOM      8  C   UNL A   1      32.269  23.133  26.145  1.00  0.00    -0.070 C 
ATOM      9  C   UNL A   1      32.937  24.300  26.058  1.00  0.00    -0.026 C 
ATOM     10  C   UNL A   1      33.006  21.830  26.366  1.00  0.00     0.046 C 
ATOM     11  C   UNL A   1      34.436  24.427  25.893  1.00  0.00     0.056 C 
ATOM     12  C   UNL A   1      34.532  22.037  26.491  1.00  0.00     0.042 C 
BRANCH  10  13
ATOM     13  C   UNL A   1      32.748  20.645  25.450  1.00  0.00    -0.041 A 
ATOM     14  C   UNL A   1      33.258  19.396  25.865  1.00  0.00     0.004 A 
ATOM     15  C   UNL A   1      32.187  20.738  24.174  1.00  0.00     0.004 A 
ATOM     16  C   UNL A   1      33.285  18.302  25.005  1.00  0.00     0.000 A 
ATOM     17  C   UNL A   1      32.216  19.639  23.309  1.00  0.00     0.000 A 
ATOM     18  C   UNL A   1      32.780  18.431  23.717  1.00  0.00     0.000 A 
ENDBRANCH  10  13
BRANCH   6  19
ATOM     19  C   UNL A   1      35.076  22.677  24.048  1.00  0.00     0.257 C 
ATOM     20  O   UNL A   1      35.330  21.516  23.700  1.00  0.00    -0.272 OA
ATOM     21  N   UNL A   1      34.701  23.519  23.024  1.00  0.00    -0.246 N 
ATOM     22  H   UNL A   1      34.747  23.165  22.107  1.00  0.00     0.193 HD
BRANCH  21  23
ATOM     23  N   UNL A   1      34.274  24.792  23.179  1.00  0.00    -0.181 NA
ATOM     24  C   UNL A   1      33.281  25.162  22.437  1.00  0.00     0.144 C 
BRANCH  24  25
ATOM     25  C   UNL A   1      32.508  26.421  22.655  1.00  0.00     0.026 C 
ATOM     26  C   UNL A   1      31.278  26.369  23.204  1.00  0.00    -0.119 C 
ATOM     27  C   UNL A   1      33.122  27.772  22.486  1.00  0.00     0.164 C 
ATOM     28  O   UNL A   1      30.592  25.191  23.449  1.00  0.00    -0.875 OA
ATOM     29  C   UNL A   1      30.523  27.571  23.732  1.00  0.00     0.026 C 
ATOM     30  C   UNL A   1      32.652  28.872  23.419  1.00  0.00     0.087 C 
ATOM     31  O   UNL A   1      33.989  27.988  21.642  1.00  0.00    -0.294 OA
ATOM     32  C   UNL A   1      31.124  28.959  23.420  1.00  0.00    -0.025 C 
ATOM     33  C   UNL A   1      30.636  29.475  22.053  1.00  0.00     0.012 C 
ATOM     34  C   UNL A   1      30.662  29.956  24.501  1.00  0.00     0.012 C 
ENDBRANCH  24  25
ENDBRANCH  21  23
ENDBRANCH   6  19
ENDBRANCH   4   6
ENDBRANCH   3   4
ENDBRANCH   2   3
ENDBRANCH   1   2
BRANCH   1  35
ATOM     35  O   UNL A   1      40.587  20.463  26.107  1.00  0.00    -0.374 OA
BRANCH  35  36
ATOM     36  C   UNL A   1      41.895  20.674  26.625  1.00  0.00     0.202 C 
BRANCH  36  37
ATOM     37  C   UNL A   1      42.902  21.459  25.757  1.00  0.00     0.261 C 
BRANCH  37  38
ATOM     38  O   UNL A   1      42.364  22.640  25.129  1.00  0.00    -0.460 OA
BRANCH  38  39
ATOM     39  C   UNL A   1      43.138  23.750  25.252  1.00  0.00     0.338 C 
ATOM     40  O   UNL A   1      44.143  24.026  24.623  1.00  0.00    -0.246 OA
BRANCH  39  41
ATOM     41  C   UNL A   1      42.508  24.733  26.156  1.00  0.00     0.060 A 
ATOM     42  C   UNL A   1      43.068  26.017  26.205  1.00  0.00     0.016 A 
ATOM     43  C   UNL A   1      41.494  24.372  27.044  1.00  0.00     0.016 A 
ATOM     44  C   UNL A   1      42.630  26.938  27.153  1.00  0.00     0.010 A 
ATOM     45  C   UNL A   1      41.067  25.296  28.012  1.00  0.00     0.010 A 
ATOM     46  C   UNL A   1      41.654  26.572  28.089  1.00  0.00    -0.014 A 
BRANCH  46  47
ATOM     47  C   UNL A   1      41.366  27.499  29.214  1.00  0.00     0.031 A 
ATOM     48  C   UNL A   1      40.160  28.396  29.142  1.00  0.00     0.074 A 
ATOM     49  C   UNL A   1      42.118  27.475  30.329  1.00  0.00     0.049 A 
ATOM     50  N   UNL A   1      39.690  29.231  30.035  1.00  0.00    -0.248 NA
ATOM     51  C   UNL A   1      39.375  28.342  27.899  1.00  0.00     0.031 C 
ATOM     52  C   UNL A   1      43.285  26.620  30.540  1.00  0.00     0.029 A 
ATOM     53  N   UNL A   1      42.006  28.188  31.497  1.00  0.00    -0.354 N 
ATOM     54  C   UNL A   1      38.559  29.800  29.463  1.00  0.00     0.074 A 
ATOM     55  C   UNL A   1      38.429  29.239  28.136  1.00  0.00     0.031 C 
ATOM     56  C   UNL A   1      43.777  26.850  31.768  1.00  0.00     0.029 A 
ATOM     57  C   UNL A   1      42.980  27.889  32.418  1.00  0.00     0.049 A 
ATOM     58  H   UNL A   1      41.295  28.847  31.660  1.00  0.00     0.167 HD
ATOM     59  C   UNL A   1      37.702  30.702  30.002  1.00  0.00     0.037 A 
ATOM     60  C   UNL A   1      43.207  28.403  33.643  1.00  0.00     0.037 A 
ATOM     61  C   UNL A   1      37.826  31.255  31.325  1.00  0.00     0.049 A 
ATOM     62  C   UNL A   1      42.277  29.457  34.187  1.00  0.00     0.074 A 
ATOM     63  C   UNL A   1      36.988  32.149  31.969  1.00  0.00     0.029 A 
ATOM     64  N   UNL A   1      38.860  30.974  32.206  1.00  0.00    -0.354 N 
ATOM     65  N   UNL A   1      41.190  29.960  33.655  1.00  0.00    -0.248 NA
ATOM     66  C   UNL A   1      42.607  30.011  35.509  1.00  0.00     0.031 C 
ATOM     67  C   UNL A   1      37.544  32.454  33.216  1.00  0.00     0.029 A 
ATOM     68  C   UNL A   1      38.700  31.705  33.373  1.00  0.00     0.049 A 
ATOM     69  H   UNL A   1      39.599  30.349  32.028  1.00  0.00     0.167 HD
ATOM     70  C   UNL A   1      40.693  30.867  34.583  1.00  0.00     0.074 A 
ATOM     71  C   UNL A   1      41.586  30.828  35.723  1.00  0.00     0.031 C 
ATOM     72  C   UNL A   1      39.597  31.661  34.500  1.00  0.00     0.037 A 
BRANCH  59  73
ATOM     73  C   UNL A   1      36.560  31.173  29.147  1.00  0.00     0.064 A 
ATOM     74  C   UNL A   1      35.511  30.321  28.777  1.00  0.00     0.173 A 
ATOM     75  C   UNL A   1      36.493  32.514  28.736  1.00  0.00     0.173 A 
ATOM     76  F   UNL A   1      35.532  29.028  29.135  1.00  0.00    -0.203 F 
ATOM     77  C   UNL A   1      34.445  30.787  28.011  1.00  0.00     0.198 A 
ATOM     78  C   UNL A   1      35.413  32.984  27.994  1.00  0.00     0.198 A 
ATOM     79  F   UNL A   1      37.469  33.373  29.068  1.00  0.00    -0.203 F 
ATOM     80  F   UNL A   1      33.472  29.946  27.637  1.00  0.00    -0.200 F 
ATOM     81  C   UNL A   1      34.392  32.119  27.627  1.00  0.00     0.200 A 
ATOM     82  F   UNL A   1      35.358  34.274  27.636  1.00  0.00    -0.200 F 
ATOM     83  F   UNL A   1      33.362  32.569  26.900  1.00  0.00    -0.200 F 
ENDBRANCH  59  73
BRANCH  60  84
ATOM     84  C   UNL A   1      44.372  27.941  34.443  1.00  0.00     0.064 A 
ATOM     85  C   UNL A   1      44.259  26.859  35.329  1.00  0.00     0.173 A 
ATOM     86  C   UNL A   1      45.610  28.594  34.365  1.00  0.00     0.173 A 
ATOM     87  F   UNL A   1      43.088  26.222  35.461  1.00  0.00    -0.203 F 
ATOM     88  C   UNL A   1      45.335  26.465  36.121  1.00  0.00     0.198 A 
ATOM     89  C   UNL A   1      46.694  28.179  35.136  1.00  0.00     0.198 A 
ATOM     90  F   UNL A   1      45.769  29.640  33.540  1.00  0.00    -0.203 F 
ATOM     91  F   UNL A   1      45.185  25.464  37.001  1.00  0.00    -0.200 F 
ATOM     92  C   UNL A   1      46.553  27.121  36.020  1.00  0.00     0.200 A 
ATOM     93  F   UNL A   1      47.870  28.811  35.029  1.00  0.00    -0.200 F 
ATOM     94  F   UNL A   1      47.586  26.742  36.786  1.00  0.00    -0.200 F 
ENDBRANCH  60  84
BRANCH  72  95
ATOM     95  C   UNL A   1      39.289  32.534  35.684  1.00  0.00     0.064 A 
ATOM     96  C   UNL A   1      39.791  33.841  35.785  1.00  0.00     0.173 A 
ATOM     97  C   UNL A   1      38.468  32.066  36.721  1.00  0.00     0.173 A 
ATOM     98  F   UNL A   1      40.593  34.333  34.829  1.00  0.00    -0.203 F 
ATOM     99  C   UNL A   1      39.512  34.631  36.898  1.00  0.00     0.198 A 
ATOM    100  C   UNL A   1      38.164  32.870  37.816  1.00  0.00     0.198 A 
ATOM    101  F   UNL A   1      37.954  30.827  36.670  1.00  0.00    -0.203 F 
ATOM    102  F   UNL A   1      40.051  35.853  37.001  1.00  0.00    -0.200 F 
ATOM    103  C   UNL A   1      38.695  34.148  37.909  1.00  0.00     0.200 A 
ATOM    104  F   UNL A   1      37.362  32.407  38.785  1.00  0.00    -0.200 F 
ATOM    105  F   UNL A   1      38.426  34.910  38.978  1.00  0.00    -0.200 F 
ENDBRANCH  72  95
ENDBRANCH  46  47
ENDBRANCH  39  41
ENDBRANCH  38  39
ENDBRANCH  37  38
ENDBRANCH  36  37
ENDBRANCH  35  36
ENDBRANCH   1  35
TORSDOF 18
ENDMDL
MODEL 3
REMARK VINA RESULT:     -12.5      3.457      8.227
REMARK SMILES CC1=CC[C@@](C(=O)N/N=C/C2=C([O-])CC(C)(C)CC2=O)(C(=O)OCCOCCOC(=O)c2ccc(-c3c4nc(c(-c5c(F)c(F)c(F)c(F)c5F)c5ccc([nH]5)c(-c5c(F)c(F)c(F)c(F)c5F)c5nc(c(-c6c(F)c(F)c(F)c(F)c6F)c6ccc3[nH]6)C=C5)C=C4)cc2)C[C@@H]1c1ccccc1
REMARK SMILES IDX 25 1 24 2 23 3 21 4 22 5 5 6 1 7 2 8 3 9 96 10 4 11 95 12
REMARK SMILES IDX 97 13 98 14 102 15 99 16 101 17 100 18 6 19 7 20 8 21 9 23
REMARK SMILES IDX 10 24 11 25 12 26 19 27 13 28 14 29 18 30 20 31 15 32 16 33
REMARK SMILES IDX 17 34 26 35 27 36 28 37 29 38 30 39 31 40 32 41 33 42 94 43
REMARK SMILES IDX 34 44 93 45 35 46 36 47 37 48 87 49 38 50 92 51 86 52 88 53
REMARK SMILES IDX 39 54 91 55 85 56 84 57 40 59 72 60 52 61 71 62 53 63 56 64
REMARK SMILES IDX 70 65 89 66 54 67 55 68 69 70 90 71 57 72 41 73 42 74 50 75
REMARK SMILES IDX 43 76 44 77 48 78 51 79 45 80 46 81 49 82 47 83 73 84 74 85
REMARK SMILES IDX 82 86 75 87 76 88 80 89 83 90 77 91 78 92 81 93 79 94 58 95
REMARK SMILES IDX 59 96 67 97 60 98 61 99 65 100 68 101 62 102 63 103 66 104
REMARK SMILES IDX 64 105
REMARK H PARENT 8 22 88 58 56 69
REMARK Flexibility Score: inf
ROOT
ATOM      1  C   UNL A   1      32.948  29.455  27.272  1.00  0.00     0.202 C 
ENDROOT
BRANCH   1   2
ATOM      2  C   UNL A   1      31.903  28.339  27.344  1.00  0.00     0.261 C 
BRANCH   2   3
ATOM      3  O   UNL A   1      31.841  27.526  26.156  1.00  0.00    -0.462 OA
BRANCH   3   4
ATOM      4  C   UNL A   1      31.280  26.306  26.387  1.00  0.00     0.322 C 
ATOM      5  O   UNL A   1      30.151  26.197  26.859  1.00  0.00    -0.251 OA
BRANCH   4   6
ATOM      6  C   UNL A   1      32.101  25.110  25.860  1.00  0.00     0.152 C 
ATOM      7  C   UNL A   1      35.729  22.809  24.803  1.00  0.00     0.040 C 
ATOM      8  C   UNL A   1      34.615  23.710  25.254  1.00  0.00    -0.070 C 
ATOM      9  C   UNL A   1      34.042  23.548  26.462  1.00  0.00    -0.026 C 
ATOM     10  C   UNL A   1      34.256  24.889  24.375  1.00  0.00     0.046 C 
ATOM     11  C   UNL A   1      32.830  24.312  26.954  1.00  0.00     0.056 C 
ATOM     12  C   UNL A   1      33.222  25.822  25.044  1.00  0.00     0.042 C 
BRANCH  10  13
ATOM     13  C   UNL A   1      33.845  24.663  22.929  1.00  0.00    -0.041 A 
ATOM     14  C   UNL A   1      33.544  25.812  22.166  1.00  0.00     0.004 A 
ATOM     15  C   UNL A   1      33.600  23.411  22.362  1.00  0.00     0.004 A 
ATOM     16  C   UNL A   1      32.939  25.713  20.916  1.00  0.00     0.000 A 
ATOM     17  C   UNL A   1      32.989  23.311  21.107  1.00  0.00     0.000 A 
ATOM     18  C   UNL A   1      32.643  24.460  20.395  1.00  0.00     0.000 A 
ENDBRANCH  10  13
BRANCH   6  19
ATOM     19  C   UNL A   1      31.143  24.291  24.947  1.00  0.00     0.257 C 
ATOM     20  O   UNL A   1      30.924  23.090  25.154  1.00  0.00    -0.272 OA
ATOM     21  N   UNL A   1      30.453  24.830  23.883  1.00  0.00    -0.246 N 
ATOM     22  H   UNL A   1      29.919  24.215  23.331  1.00  0.00     0.193 HD
BRANCH  21  23
ATOM     23  N   UNL A   1      30.450  26.138  23.539  1.00  0.00    -0.181 NA
ATOM     24  C   UNL A   1      29.304  26.647  23.220  1.00  0.00     0.144 C 
BRANCH  24  25
ATOM     25  C   UNL A   1      29.061  28.113  23.077  1.00  0.00     0.026 C 
ATOM     26  C   UNL A   1      30.087  28.942  22.798  1.00  0.00    -0.119 C 
ATOM     27  C   UNL A   1      27.684  28.691  23.020  1.00  0.00     0.164 C 
ATOM     28  O   UNL A   1      31.414  28.547  22.784  1.00  0.00    -0.875 OA
ATOM     29  C   UNL A   1      29.931  30.380  22.352  1.00  0.00     0.026 C 
ATOM     30  C   UNL A   1      27.473  29.899  22.128  1.00  0.00     0.087 C 
ATOM     31  O   UNL A   1      26.750  28.200  23.650  1.00  0.00    -0.294 OA
ATOM     32  C   UNL A   1      28.510  30.982  22.435  1.00  0.00    -0.025 C 
ATOM     33  C   UNL A   1      28.243  31.571  23.832  1.00  0.00     0.012 C 
ATOM     34  C   UNL A   1      28.392  32.121  21.403  1.00  0.00     0.012 C 
ENDBRANCH  24  25
ENDBRANCH  21  23
ENDBRANCH   6  19
ENDBRANCH   4   6
ENDBRANCH   3   4
ENDBRANCH   2   3
ENDBRANCH   1   2
BRANCH   1  35
ATOM     35  O   UNL A   1      32.508  30.796  27.070  1.00  0.00    -0.374 OA
BRANCH  35  36
ATOM     36  C   UNL A   1      33.307  31.831  27.630  1.00  0.00     0.202 C 
BRANCH  36  37
ATOM     37  C   UNL A   1      32.968  33.291  27.259  1.00  0.00     0.261 C 
BRANCH  37  38
ATOM     38  O   UNL A   1      32.268  34.026  28.283  1.00  0.00    -0.460 OA
BRANCH  38  39
ATOM     39  C   UNL A   1      32.943  35.099  28.773  1.00  0.00     0.338 C 
ATOM     40  O   UNL A   1      32.605  36.268  28.734  1.00  0.00    -0.246 OA
BRANCH  39  41
ATOM     41  C   UNL A   1      34.115  34.667  29.561  1.00  0.00     0.060 A 
ATOM     42  C   UNL A   1      35.368  34.721  28.935  1.00  0.00     0.016 A 
ATOM     43  C   UNL A   1      33.981  34.083  30.821  1.00  0.00     0.016 A 
ATOM     44  C   UNL A   1      36.488  34.176  29.558  1.00  0.00     0.010 A 
ATOM     45  C   UNL A   1      35.108  33.516  31.439  1.00  0.00     0.010 A 
ATOM     46  C   UNL A   1      36.360  33.534  30.797  1.00  0.00    -0.014 A 
BRANCH  46  47
ATOM     47  C   UNL A   1      37.523  32.780  31.330  1.00  0.00     0.031 A 
ATOM     48  C   UNL A   1      38.046  33.102  32.704  1.00  0.00     0.074 A 
ATOM     49  C   UNL A   1      38.050  31.757  30.635  1.00  0.00     0.049 A 
ATOM     50  N   UNL A   1      39.006  32.527  33.385  1.00  0.00    -0.248 NA
ATOM     51  C   UNL A   1      37.397  34.219  33.408  1.00  0.00     0.031 C 
ATOM     52  C   UNL A   1      37.604  31.316  29.315  1.00  0.00     0.029 A 
ATOM     53  N   UNL A   1      39.073  30.895  30.950  1.00  0.00    -0.354 N 
ATOM     54  C   UNL A   1      39.076  33.210  34.592  1.00  0.00     0.074 A 
ATOM     55  C   UNL A   1      38.083  34.261  34.541  1.00  0.00     0.031 C 
ATOM     56  C   UNL A   1      38.343  30.261  28.934  1.00  0.00     0.029 A 
ATOM     57  C   UNL A   1      39.333  29.970  29.970  1.00  0.00     0.049 A 
ATOM     58  H   UNL A   1      39.570  30.937  31.798  1.00  0.00     0.167 HD
ATOM     59  C   UNL A   1      39.889  32.974  35.651  1.00  0.00     0.037 A 
ATOM     60  C   UNL A   1      40.270  29.003  29.912  1.00  0.00     0.037 A 
ATOM     61  C   UNL A   1      40.872  31.924  35.707  1.00  0.00     0.049 A 
ATOM     62  C   UNL A   1      41.208  28.811  31.077  1.00  0.00     0.074 A 
ATOM     63  C   UNL A   1      41.718  31.587  36.749  1.00  0.00     0.029 A 
ATOM     64  N   UNL A   1      41.148  31.044  34.670  1.00  0.00    -0.354 N 
ATOM     65  N   UNL A   1      41.241  29.435  32.229  1.00  0.00    -0.248 NA
ATOM     66  C   UNL A   1      42.237  27.771  30.932  1.00  0.00     0.031 C 
ATOM     67  C   UNL A   1      42.546  30.542  36.324  1.00  0.00     0.029 A 
ATOM     68  C   UNL A   1      42.176  30.189  35.036  1.00  0.00     0.049 A 
ATOM     69  H   UNL A   1      40.683  31.029  33.803  1.00  0.00     0.167 HD
ATOM     70  C   UNL A   1      42.272  28.851  32.953  1.00  0.00     0.074 A 
ATOM     71  C   UNL A   1      42.825  27.804  32.119  1.00  0.00     0.031 C 
ATOM     72  C   UNL A   1      42.721  29.153  34.196  1.00  0.00     0.037 A 
BRANCH  59  73
ATOM     73  C   UNL A   1      39.771  33.890  36.836  1.00  0.00     0.064 A 
ATOM     74  C   UNL A   1      40.424  35.129  36.882  1.00  0.00     0.173 A 
ATOM     75  C   UNL A   1      38.950  33.540  37.919  1.00  0.00     0.173 A 
ATOM     76  F   UNL A   1      41.229  35.506  35.877  1.00  0.00    -0.203 F 
ATOM     77  C   UNL A   1      40.276  35.977  37.977  1.00  0.00     0.198 A 
ATOM     78  C   UNL A   1      38.782  34.401  39.000  1.00  0.00     0.198 A 
ATOM     79  F   UNL A   1      38.297  32.367  37.923  1.00  0.00    -0.203 F 
ATOM     80  F   UNL A   1      40.939  37.140  38.017  1.00  0.00    -0.200 F 
ATOM     81  C   UNL A   1      39.449  35.617  39.031  1.00  0.00     0.200 A 
ATOM     82  F   UNL A   1      37.972  34.056  40.010  1.00  0.00    -0.200 F 
ATOM     83  F   UNL A   1      39.298  36.438  40.078  1.00  0.00    -0.200 F 
ENDBRANCH  59  73
BRANCH  60  84
ATOM     84  C   UNL A   1      40.383  28.143  28.705  1.00  0.00     0.064 A 
ATOM     85  C   UNL A   1      39.737  26.900  28.637  1.00  0.00     0.173 A 
ATOM     86  C   UNL A   1      41.168  28.531  27.609  1.00  0.00     0.173 A 
ATOM     87  F   UNL A   1      39.000  26.471  29.672  1.00  0.00    -0.203 F 
ATOM     88  C   UNL A   1      39.891  26.069  27.529  1.00  0.00     0.198 A 
ATOM     89  C   UNL A   1      41.297  27.712  26.489  1.00  0.00     0.198 A 
ATOM     90  F   UNL A   1      41.813  29.706  27.627  1.00  0.00    -0.203 F 
ATOM     91  F   UNL A   1      39.309  24.862  27.514  1.00  0.00    -0.200 F 
ATOM     92  C   UNL A   1      40.666  26.478  26.454  1.00  0.00     0.200 A 
ATOM     93  F   UNL A   1      42.040  28.114  25.450  1.00  0.00    -0.200 F 
ATOM     94  F   UNL A   1      40.816  25.676  25.391  1.00  0.00    -0.200 F 
ENDBRANCH  60  84
BRANCH  72  95
ATOM     95  C   UNL A   1      43.852  28.324  34.739  1.00  0.00     0.064 A 
ATOM     96  C   UNL A   1      45.191  28.708  34.575  1.00  0.00     0.173 A 
ATOM     97  C   UNL A   1      43.592  27.140  35.446  1.00  0.00     0.173 A 
ATOM     98  F   UNL A   1      45.496  29.824  33.894  1.00  0.00    -0.203 F 
ATOM     99  C   UNL A   1      46.229  27.920  35.067  1.00  0.00     0.198 A 
ATOM    100  C   UNL A   1      44.630  26.371  35.965  1.00  0.00     0.198 A 
ATOM    101  F   UNL A   1      42.329  26.731  35.639  1.00  0.00    -0.203 F 
ATOM    102  F   UNL A   1      47.501  28.277  34.847  1.00  0.00    -0.200 F 
ATOM    103  C   UNL A   1      45.947  26.756  35.767  1.00  0.00     0.200 A 
ATOM    104  F   UNL A   1      44.356  25.254  36.654  1.00  0.00    -0.200 F 
ATOM    105  F   UNL A   1      46.946  25.999  36.241  1.00  0.00    -0.200 F 
ENDBRANCH  72  95
ENDBRANCH  46  47
ENDBRANCH  39  41
ENDBRANCH  38  39
ENDBRANCH  37  38
ENDBRANCH  36  37
ENDBRANCH  35  36
ENDBRANCH   1  35
TORSDOF 18
ENDMDL
