MODEL 1
REMARK VINA RESULT:     -12.3      0.000      0.000
REMARK SMILES O=C(OCCOCCOC(=O)c1ccc(-n2[nH]c(=O)[nH]c2=O)cc1)c1ccc(-c2c3nc(c(-c4c(F)c(F)c(F)c(F)c4F)c4ccc([nH]4)c(-c4c(F)c(F)c(F)c(F)c4F)c4nc(c(-c5c(F)c(F)c(F)c(F)c5F)c5ccc2[nH]5)C=C4)C=C3)cc1
REMARK SMILES IDX 5 1 4 2 3 3 2 4 1 5 25 6 26 7 87 8 27 9 86 10 28 11 29 12
REMARK SMILES IDX 30 13 80 14 31 15 85 16 79 17 81 18 32 19 84 20 78 21 77 22
REMARK SMILES IDX 33 24 65 25 45 26 64 27 46 28 49 29 63 30 82 31 47 32 48 33
REMARK SMILES IDX 62 35 83 36 50 37 34 38 35 39 43 40 36 41 37 42 41 43 44 44
REMARK SMILES IDX 38 45 39 46 42 47 40 48 66 49 67 50 75 51 68 52 69 53 73 54
REMARK SMILES IDX 76 55 70 56 71 57 74 58 72 59 51 60 52 61 60 62 53 63 54 64
REMARK SMILES IDX 58 65 61 66 55 67 56 68 59 69 57 70 6 71 7 72 8 73 9 74
REMARK SMILES IDX 10 75 11 76 12 77 13 78 24 79 14 80 23 81 15 82 16 83 17 84
REMARK SMILES IDX 21 85 18 86 20 88 22 89 19 90
REMARK H PARENT 81 23 49 34 17 87 20 91
REMARK Flexibility Score: inf
ROOT
ATOM      1  C   UNL A   1      42.144  19.312  26.706  1.00  0.00     0.202 C 
ENDROOT
BRANCH   1   2
ATOM      2  C   UNL A   1      43.171  18.731  25.741  1.00  0.00     0.261 C 
BRANCH   2   3
ATOM      3  O   UNL A   1      44.386  19.491  25.616  1.00  0.00    -0.460 OA
BRANCH   3   4
ATOM      4  C   UNL A   1      44.617  20.456  24.699  1.00  0.00     0.338 C 
ATOM      5  O   UNL A   1      44.573  20.200  23.499  1.00  0.00    -0.246 OA
BRANCH   4   6
ATOM      6  C   UNL A   1      44.600  21.876  25.136  1.00  0.00     0.060 A 
ATOM      7  C   UNL A   1      45.409  22.409  26.133  1.00  0.00     0.016 A 
ATOM      8  C   UNL A   1      43.587  22.676  24.578  1.00  0.00     0.016 A 
ATOM      9  C   UNL A   1      45.055  23.597  26.740  1.00  0.00     0.010 A 
ATOM     10  C   UNL A   1      43.259  23.897  25.144  1.00  0.00     0.010 A 
ATOM     11  C   UNL A   1      43.939  24.302  26.281  1.00  0.00    -0.014 A 
BRANCH  11  12
ATOM     12  C   UNL A   1      43.636  25.554  26.950  1.00  0.00     0.031 A 
ATOM     13  C   UNL A   1      44.630  26.612  26.642  1.00  0.00     0.074 A 
ATOM     14  C   UNL A   1      42.568  25.744  27.749  1.00  0.00     0.049 A 
ATOM     15  N   UNL A   1      45.507  27.109  27.449  1.00  0.00    -0.248 NA
ATOM     16  C   UNL A   1      44.809  27.014  25.239  1.00  0.00     0.031 C 
ATOM     17  C   UNL A   1      41.413  24.870  27.952  1.00  0.00     0.029 A 
ATOM     18  N   UNL A   1      42.265  26.827  28.518  1.00  0.00    -0.354 N 
ATOM     19  C   UNL A   1      46.225  28.037  26.704  1.00  0.00     0.074 A 
ATOM     20  C   UNL A   1      45.871  27.816  25.327  1.00  0.00     0.031 C 
ATOM     21  C   UNL A   1      40.438  25.557  28.594  1.00  0.00     0.029 A 
ATOM     22  C   UNL A   1      40.952  26.861  28.977  1.00  0.00     0.049 A 
ATOM     23  H   UNL A   1      42.922  27.528  28.731  1.00  0.00     0.167 HD
ATOM     24  C   UNL A   1      46.847  29.074  27.328  1.00  0.00     0.037 A 
ATOM     25  C   UNL A   1      40.339  27.915  29.578  1.00  0.00     0.037 A 
ATOM     26  C   UNL A   1      47.064  28.772  28.724  1.00  0.00     0.049 A 
ATOM     27  C   UNL A   1      41.403  28.808  30.107  1.00  0.00     0.074 A 
ATOM     28  C   UNL A   1      47.761  27.793  29.407  1.00  0.00     0.029 A 
ATOM     29  N   UNL A   1      46.190  29.311  29.635  1.00  0.00    -0.354 N 
ATOM     30  N   UNL A   1      42.173  28.493  31.109  1.00  0.00    -0.248 NA
ATOM     31  C   UNL A   1      41.922  29.833  29.215  1.00  0.00     0.031 C 
ATOM     32  C   UNL A   1      46.940  27.469  30.528  1.00  0.00     0.029 A 
ATOM     33  C   UNL A   1      45.837  28.323  30.515  1.00  0.00     0.049 A 
ATOM     34  H   UNL A   1      45.874  30.243  29.654  1.00  0.00     0.167 HD
ATOM     35  C   UNL A   1      43.435  28.914  30.720  1.00  0.00     0.074 A 
ATOM     36  C   UNL A   1      43.207  29.799  29.578  1.00  0.00     0.031 C 
ATOM     37  C   UNL A   1      44.553  28.275  31.170  1.00  0.00     0.037 A 
BRANCH  24  38
ATOM     38  C   UNL A   1      46.829  30.493  26.805  1.00  0.00     0.064 A 
ATOM     39  C   UNL A   1      48.021  31.246  26.860  1.00  0.00     0.173 A 
ATOM     40  C   UNL A   1      45.653  31.242  26.578  1.00  0.00     0.173 A 
ATOM     41  F   UNL A   1      49.201  30.643  27.071  1.00  0.00    -0.203 F 
ATOM     42  C   UNL A   1      48.016  32.642  26.816  1.00  0.00     0.198 A 
ATOM     43  C   UNL A   1      45.658  32.631  26.487  1.00  0.00     0.198 A 
ATOM     44  F   UNL A   1      44.438  30.685  26.549  1.00  0.00    -0.203 F 
ATOM     45  F   UNL A   1      49.154  33.316  27.024  1.00  0.00    -0.200 F 
ATOM     46  C   UNL A   1      46.833  33.334  26.644  1.00  0.00     0.200 A 
ATOM     47  F   UNL A   1      44.497  33.283  26.336  1.00  0.00    -0.200 F 
ATOM     48  F   UNL A   1      46.813  34.672  26.678  1.00  0.00    -0.200 F 
ENDBRANCH  24  38
BRANCH  25  49
ATOM     49  C   UNL A   1      38.938  28.384  29.435  1.00  0.00     0.064 A 
ATOM     50  C   UNL A   1      38.127  28.604  30.564  1.00  0.00     0.173 A 
ATOM     51  C   UNL A   1      38.472  28.922  28.220  1.00  0.00     0.173 A 
ATOM     52  F   UNL A   1      38.518  28.168  31.770  1.00  0.00    -0.203 F 
ATOM     53  C   UNL A   1      36.942  29.345  30.487  1.00  0.00     0.198 A 
ATOM     54  C   UNL A   1      37.287  29.658  28.144  1.00  0.00     0.198 A 
ATOM     55  F   UNL A   1      39.208  28.834  27.103  1.00  0.00    -0.203 F 
ATOM     56  F   UNL A   1      36.234  29.592  31.598  1.00  0.00    -0.200 F 
ATOM     57  C   UNL A   1      36.530  29.883  29.280  1.00  0.00     0.200 A 
ATOM     58  F   UNL A   1      36.922  30.209  26.978  1.00  0.00    -0.200 F 
ATOM     59  F   UNL A   1      35.435  30.651  29.217  1.00  0.00    -0.200 F 
ENDBRANCH  25  49
BRANCH  37  60
ATOM     60  C   UNL A   1      44.399  27.308  32.309  1.00  0.00     0.064 A 
ATOM     61  C   UNL A   1      44.171  25.928  32.163  1.00  0.00     0.173 A 
ATOM     62  C   UNL A   1      44.604  27.793  33.607  1.00  0.00     0.173 A 
ATOM     63  F   UNL A   1      44.069  25.367  30.951  1.00  0.00    -0.203 F 
ATOM     64  C   UNL A   1      44.096  25.089  33.275  1.00  0.00     0.198 A 
ATOM     65  C   UNL A   1      44.571  26.947  34.710  1.00  0.00     0.198 A 
ATOM     66  F   UNL A   1      44.880  29.093  33.803  1.00  0.00    -0.203 F 
ATOM     67  F   UNL A   1      43.853  23.779  33.115  1.00  0.00    -0.200 F 
ATOM     68  C   UNL A   1      44.301  25.599  34.546  1.00  0.00     0.200 A 
ATOM     69  F   UNL A   1      44.822  27.438  35.932  1.00  0.00    -0.200 F 
ATOM     70  F   UNL A   1      44.264  24.788  35.613  1.00  0.00    -0.200 F 
ENDBRANCH  37  60
ENDBRANCH  11  12
ENDBRANCH   4   6
ENDBRANCH   3   4
ENDBRANCH   2   3
ENDBRANCH   1   2
BRANCH   1  71
ATOM     71  O   UNL A   1      41.139  20.155  26.156  1.00  0.00    -0.374 OA
BRANCH  71  72
ATOM     72  C   UNL A   1      40.711  21.248  26.978  1.00  0.00     0.202 C 
BRANCH  72  73
ATOM     73  C   UNL A   1      39.570  22.161  26.498  1.00  0.00     0.261 C 
BRANCH  73  74
ATOM     74  O   UNL A   1      38.812  21.608  25.406  1.00  0.00    -0.460 OA
BRANCH  74  75
ATOM     75  C   UNL A   1      37.515  22.005  25.356  1.00  0.00     0.338 C 
ATOM     76  O   UNL A   1      37.090  23.140  25.369  1.00  0.00    -0.246 OA
BRANCH  75  77
ATOM     77  C   UNL A   1      36.658  20.834  25.073  1.00  0.00     0.060 A 
ATOM     78  C   UNL A   1      35.268  21.011  25.068  1.00  0.00     0.018 A 
ATOM     79  C   UNL A   1      37.210  19.571  24.883  1.00  0.00     0.018 A 
ATOM     80  C   UNL A   1      34.422  19.920  24.868  1.00  0.00     0.029 A 
ATOM     81  C   UNL A   1      36.358  18.469  24.777  1.00  0.00     0.029 A 
ATOM     82  C   UNL A   1      34.963  18.637  24.776  1.00  0.00     0.068 A 
BRANCH  82  83
ATOM     83  N   UNL A   1      34.133  17.512  24.758  1.00  0.00    -0.201 N 
ATOM     84  N   UNL A   1      33.647  16.919  25.913  1.00  0.00    -0.240 N 
ATOM     85  C   UNL A   1      33.529  16.874  23.660  1.00  0.00     0.349 A 
ATOM     86  C   UNL A   1      32.726  15.953  25.543  1.00  0.00     0.342 A 
ATOM     87  H   UNL A   1      33.910  17.145  26.835  1.00  0.00     0.194 HD
ATOM     88  N   UNL A   1      32.727  15.883  24.178  1.00  0.00    -0.256 N 
ATOM     89  O   UNL A   1      33.667  17.106  22.469  1.00  0.00    -0.246 OA
ATOM     90  O   UNL A   1      31.998  15.333  26.298  1.00  0.00    -0.246 OA
ATOM     91  H   UNL A   1      32.229  15.221  23.645  1.00  0.00     0.176 HD
ENDBRANCH  82  83
ENDBRANCH  75  77
ENDBRANCH  74  75
ENDBRANCH  73  74
ENDBRANCH  72  73
ENDBRANCH  71  72
ENDBRANCH   1  71
TORSDOF 15
ENDMDL
MODEL 2
REMARK VINA RESULT:     -12.0      1.945      2.449
REMARK SMILES O=C(OCCOCCOC(=O)c1ccc(-n2[nH]c(=O)[nH]c2=O)cc1)c1ccc(-c2c3nc(c(-c4c(F)c(F)c(F)c(F)c4F)c4ccc([nH]4)c(-c4c(F)c(F)c(F)c(F)c4F)c4nc(c(-c5c(F)c(F)c(F)c(F)c5F)c5ccc2[nH]5)C=C4)C=C3)cc1
REMARK SMILES IDX 5 1 4 2 3 3 2 4 1 5 25 6 26 7 87 8 27 9 86 10 28 11 29 12
REMARK SMILES IDX 30 13 80 14 31 15 85 16 79 17 81 18 32 19 84 20 78 21 77 22
REMARK SMILES IDX 33 24 65 25 45 26 64 27 46 28 49 29 63 30 82 31 47 32 48 33
REMARK SMILES IDX 62 35 83 36 50 37 34 38 35 39 43 40 36 41 37 42 41 43 44 44
REMARK SMILES IDX 38 45 39 46 42 47 40 48 66 49 67 50 75 51 68 52 69 53 73 54
REMARK SMILES IDX 76 55 70 56 71 57 74 58 72 59 51 60 52 61 60 62 53 63 54 64
REMARK SMILES IDX 58 65 61 66 55 67 56 68 59 69 57 70 6 71 7 72 8 73 9 74
REMARK SMILES IDX 10 75 11 76 12 77 13 78 24 79 14 80 23 81 15 82 16 83 17 84
REMARK SMILES IDX 21 85 18 86 20 88 22 89 19 90
REMARK H PARENT 81 23 49 34 17 87 20 91
REMARK Flexibility Score: inf
ROOT
ATOM      1  C   UNL A   1      41.688  19.298  26.201  1.00  0.00     0.202 C 
ENDROOT
BRANCH   1   2
ATOM      2  C   UNL A   1      43.141  18.996  25.855  1.00  0.00     0.261 C 
BRANCH   2   3
ATOM      3  O   UNL A   1      43.666  19.735  24.737  1.00  0.00    -0.460 OA
BRANCH   3   4
ATOM      4  C   UNL A   1      44.819  20.440  24.735  1.00  0.00     0.338 C 
ATOM      5  O   UNL A   1      45.809  20.017  24.143  1.00  0.00    -0.246 OA
BRANCH   4   6
ATOM      6  C   UNL A   1      44.787  21.862  25.164  1.00  0.00     0.060 A 
ATOM      7  C   UNL A   1      45.599  22.412  26.149  1.00  0.00     0.016 A 
ATOM      8  C   UNL A   1      43.758  22.645  24.611  1.00  0.00     0.016 A 
ATOM      9  C   UNL A   1      45.235  23.599  26.753  1.00  0.00     0.010 A 
ATOM     10  C   UNL A   1      43.420  23.866  25.174  1.00  0.00     0.010 A 
ATOM     11  C   UNL A   1      44.105  24.286  26.302  1.00  0.00    -0.014 A 
BRANCH  11  12
ATOM     12  C   UNL A   1      43.793  25.538  26.967  1.00  0.00     0.031 A 
ATOM     13  C   UNL A   1      44.785  26.599  26.665  1.00  0.00     0.074 A 
ATOM     14  C   UNL A   1      42.718  25.724  27.758  1.00  0.00     0.049 A 
ATOM     15  N   UNL A   1      45.654  27.100  27.478  1.00  0.00    -0.248 NA
ATOM     16  C   UNL A   1      44.973  27.000  25.263  1.00  0.00     0.031 C 
ATOM     17  C   UNL A   1      41.565  24.847  27.954  1.00  0.00     0.029 A 
ATOM     18  N   UNL A   1      42.406  26.807  28.523  1.00  0.00    -0.354 N 
ATOM     19  C   UNL A   1      46.374  28.030  26.737  1.00  0.00     0.074 A 
ATOM     20  C   UNL A   1      46.031  27.806  25.358  1.00  0.00     0.031 C 
ATOM     21  C   UNL A   1      40.583  25.530  28.588  1.00  0.00     0.029 A 
ATOM     22  C   UNL A   1      41.089  26.837  28.973  1.00  0.00     0.049 A 
ATOM     23  H   UNL A   1      43.059  27.511  28.741  1.00  0.00     0.167 HD
ATOM     24  C   UNL A   1      46.987  29.070  27.365  1.00  0.00     0.037 A 
ATOM     25  C   UNL A   1      40.468  27.889  29.568  1.00  0.00     0.037 A 
ATOM     26  C   UNL A   1      47.195  28.771  28.762  1.00  0.00     0.049 A 
ATOM     27  C   UNL A   1      41.524  28.787  30.103  1.00  0.00     0.074 A 
ATOM     28  C   UNL A   1      47.891  27.796  29.452  1.00  0.00     0.029 A 
ATOM     29  N   UNL A   1      46.313  29.308  29.666  1.00  0.00    -0.354 N 
ATOM     30  N   UNL A   1      42.288  28.476  31.112  1.00  0.00    -0.248 NA
ATOM     31  C   UNL A   1      42.046  29.813  29.214  1.00  0.00     0.031 C 
ATOM     32  C   UNL A   1      47.063  27.470  30.567  1.00  0.00     0.029 A 
ATOM     33  C   UNL A   1      45.958  28.319  30.545  1.00  0.00     0.049 A 
ATOM     34  H   UNL A   1      45.993  30.239  29.682  1.00  0.00     0.167 HD
ATOM     35  C   UNL A   1      43.551  28.902  30.731  1.00  0.00     0.074 A 
ATOM     36  C   UNL A   1      43.329  29.785  29.587  1.00  0.00     0.031 C 
ATOM     37  C   UNL A   1      44.669  28.268  31.190  1.00  0.00     0.037 A 
BRANCH  24  38
ATOM     38  C   UNL A   1      46.968  30.488  26.839  1.00  0.00     0.064 A 
ATOM     39  C   UNL A   1      48.162  31.239  26.885  1.00  0.00     0.173 A 
ATOM     40  C   UNL A   1      45.791  31.239  26.620  1.00  0.00     0.173 A 
ATOM     41  F   UNL A   1      49.342  30.635  27.087  1.00  0.00    -0.203 F 
ATOM     42  C   UNL A   1      48.159  32.636  26.838  1.00  0.00     0.198 A 
ATOM     43  C   UNL A   1      45.799  32.628  26.527  1.00  0.00     0.198 A 
ATOM     44  F   UNL A   1      44.576  30.685  26.601  1.00  0.00    -0.203 F 
ATOM     45  F   UNL A   1      49.300  33.308  27.037  1.00  0.00    -0.200 F 
ATOM     46  C   UNL A   1      46.975  33.329  26.674  1.00  0.00     0.200 A 
ATOM     47  F   UNL A   1      44.637  33.282  26.384  1.00  0.00    -0.200 F 
ATOM     48  F   UNL A   1      46.958  34.668  26.706  1.00  0.00    -0.200 F 
ENDBRANCH  24  38
BRANCH  25  49
ATOM     49  C   UNL A   1      39.066  28.353  29.414  1.00  0.00     0.064 A 
ATOM     50  C   UNL A   1      38.239  28.548  30.535  1.00  0.00     0.173 A 
ATOM     51  C   UNL A   1      38.613  28.910  28.203  1.00  0.00     0.173 A 
ATOM     52  F   UNL A   1      38.615  28.092  31.739  1.00  0.00    -0.203 F 
ATOM     53  C   UNL A   1      37.050  29.283  30.456  1.00  0.00     0.198 A 
ATOM     54  C   UNL A   1      37.426  29.641  28.124  1.00  0.00     0.198 A 
ATOM     55  F   UNL A   1      39.365  28.846  27.095  1.00  0.00    -0.203 F 
ATOM     56  F   UNL A   1      36.325  29.505  31.560  1.00  0.00    -0.200 F 
ATOM     57  C   UNL A   1      36.652  29.840  29.252  1.00  0.00     0.200 A 
ATOM     58  F   UNL A   1      37.073  30.210  26.963  1.00  0.00    -0.200 F 
ATOM     59  F   UNL A   1      35.553  30.603  29.188  1.00  0.00    -0.200 F 
ENDBRANCH  25  49
BRANCH  37  60
ATOM     60  C   UNL A   1      44.509  27.301  32.329  1.00  0.00     0.064 A 
ATOM     61  C   UNL A   1      44.464  27.663  33.688  1.00  0.00     0.173 A 
ATOM     62  C   UNL A   1      44.280  25.955  32.014  1.00  0.00     0.173 A 
ATOM     63  F   UNL A   1      44.568  28.944  34.067  1.00  0.00    -0.203 F 
ATOM     64  C   UNL A   1      44.255  26.707  34.681  1.00  0.00     0.198 A 
ATOM     65  C   UNL A   1      44.031  25.011  33.004  1.00  0.00     0.198 A 
ATOM     66  F   UNL A   1      44.258  25.561  30.730  1.00  0.00    -0.203 F 
ATOM     67  F   UNL A   1      44.240  27.070  35.973  1.00  0.00    -0.200 F 
ATOM     68  C   UNL A   1      44.034  25.384  34.338  1.00  0.00     0.200 A 
ATOM     69  F   UNL A   1      43.766  23.743  32.661  1.00  0.00    -0.200 F 
ATOM     70  F   UNL A   1      43.799  24.469  35.289  1.00  0.00    -0.200 F 
ENDBRANCH  37  60
ENDBRANCH  11  12
ENDBRANCH   4   6
ENDBRANCH   3   4
ENDBRANCH   2   3
ENDBRANCH   1   2
BRANCH   1  71
ATOM     71  O   UNL A   1      41.435  19.946  27.442  1.00  0.00    -0.374 OA
BRANCH  71  72
ATOM     72  C   UNL A   1      40.807  21.232  27.367  1.00  0.00     0.202 C 
BRANCH  72  73
ATOM     73  C   UNL A   1      40.149  21.682  26.052  1.00  0.00     0.261 C 
BRANCH  73  74
ATOM     74  O   UNL A   1      38.713  21.744  26.119  1.00  0.00    -0.460 OA
BRANCH  74  75
ATOM     75  C   UNL A   1      38.194  22.996  26.033  1.00  0.00     0.338 C 
ATOM     76  O   UNL A   1      38.800  24.040  25.932  1.00  0.00    -0.246 OA
BRANCH  75  77
ATOM     77  C   UNL A   1      36.727  22.904  25.874  1.00  0.00     0.060 A 
ATOM     78  C   UNL A   1      35.976  24.087  25.920  1.00  0.00     0.018 A 
ATOM     79  C   UNL A   1      36.095  21.670  25.748  1.00  0.00     0.018 A 
ATOM     80  C   UNL A   1      34.584  24.038  25.837  1.00  0.00     0.029 A 
ATOM     81  C   UNL A   1      34.699  21.621  25.761  1.00  0.00     0.029 A 
ATOM     82  C   UNL A   1      33.938  22.801  25.812  1.00  0.00     0.068 A 
BRANCH  82  83
ATOM     83  N   UNL A   1      32.546  22.721  25.912  1.00  0.00    -0.201 N 
ATOM     84  N   UNL A   1      31.879  22.747  27.127  1.00  0.00    -0.240 N 
ATOM     85  C   UNL A   1      31.581  22.749  24.889  1.00  0.00     0.349 A 
ATOM     86  C   UNL A   1      30.520  22.829  26.866  1.00  0.00     0.342 A 
ATOM     87  H   UNL A   1      32.296  22.714  28.018  1.00  0.00     0.194 HD
ATOM     88  N   UNL A   1      30.354  22.747  25.511  1.00  0.00    -0.256 N 
ATOM     89  O   UNL A   1      31.748  22.758  23.679  1.00  0.00    -0.246 OA
ATOM     90  O   UNL A   1      29.644  23.014  27.692  1.00  0.00    -0.246 OA
ATOM     91  H   UNL A   1      29.485  22.693  25.051  1.00  0.00     0.176 HD
ENDBRANCH  82  83
ENDBRANCH  75  77
ENDBRANCH  74  75
ENDBRANCH  73  74
ENDBRANCH  72  73
ENDBRANCH  71  72
ENDBRANCH   1  71
TORSDOF 15
ENDMDL
MODEL 3
REMARK VINA RESULT:     -11.9      2.141      2.784
REMARK SMILES O=C(OCCOCCOC(=O)c1ccc(-n2[nH]c(=O)[nH]c2=O)cc1)c1ccc(-c2c3nc(c(-c4c(F)c(F)c(F)c(F)c4F)c4ccc([nH]4)c(-c4c(F)c(F)c(F)c(F)c4F)c4nc(c(-c5c(F)c(F)c(F)c(F)c5F)c5ccc2[nH]5)C=C4)C=C3)cc1
REMARK SMILES IDX 5 1 4 2 3 3 2 4 1 5 25 6 26 7 87 8 27 9 86 10 28 11 29 12
REMARK SMILES IDX 30 13 80 14 31 15 85 16 79 17 81 18 32 19 84 20 78 21 77 22
REMARK SMILES IDX 33 24 65 25 45 26 64 27 46 28 49 29 63 30 82 31 47 32 48 33
REMARK SMILES IDX 62 35 83 36 50 37 34 38 35 39 43 40 36 41 37 42 41 43 44 44
REMARK SMILES IDX 38 45 39 46 42 47 40 48 66 49 67 50 75 51 68 52 69 53 73 54
REMARK SMILES IDX 76 55 70 56 71 57 74 58 72 59 51 60 52 61 60 62 53 63 54 64
REMARK SMILES IDX 58 65 61 66 55 67 56 68 59 69 57 70 6 71 7 72 8 73 9 74
REMARK SMILES IDX 10 75 11 76 12 77 13 78 24 79 14 80 23 81 15 82 16 83 17 84
REMARK SMILES IDX 21 85 18 86 20 88 22 89 19 90
REMARK H PARENT 81 23 49 34 17 87 20 91
REMARK Flexibility Score: inf
ROOT
ATOM      1  C   UNL A   1      41.913  19.212  26.197  1.00  0.00     0.202 C 
ENDROOT
BRANCH   1   2
ATOM      2  C   UNL A   1      43.296  18.746  25.758  1.00  0.00     0.261 C 
BRANCH   2   3
ATOM      3  O   UNL A   1      43.762  19.309  24.518  1.00  0.00    -0.460 OA
BRANCH   3   4
ATOM      4  C   UNL A   1      44.895  20.027  24.358  1.00  0.00     0.338 C 
ATOM      5  O   UNL A   1      45.770  19.649  23.583  1.00  0.00    -0.246 OA
BRANCH   4   6
ATOM      6  C   UNL A   1      44.935  21.422  24.868  1.00  0.00     0.060 A 
ATOM      7  C   UNL A   1      45.698  21.850  25.949  1.00  0.00     0.016 A 
ATOM      8  C   UNL A   1      44.020  22.314  24.281  1.00  0.00     0.016 A 
ATOM      9  C   UNL A   1      45.375  23.029  26.591  1.00  0.00     0.010 A 
ATOM     10  C   UNL A   1      43.729  23.526  24.887  1.00  0.00     0.010 A 
ATOM     11  C   UNL A   1      44.344  23.829  26.090  1.00  0.00    -0.014 A 
BRANCH  11  12
ATOM     12  C   UNL A   1      44.072  25.064  26.801  1.00  0.00     0.031 A 
ATOM     13  C   UNL A   1      45.114  26.093  26.561  1.00  0.00     0.074 A 
ATOM     14  C   UNL A   1      42.991  25.264  27.580  1.00  0.00     0.049 A 
ATOM     15  N   UNL A   1      45.987  26.524  27.409  1.00  0.00    -0.248 NA
ATOM     16  C   UNL A   1      45.345  26.543  25.180  1.00  0.00     0.031 C 
ATOM     17  C   UNL A   1      41.798  24.429  27.719  1.00  0.00     0.029 A 
ATOM     18  N   UNL A   1      42.709  26.327  28.385  1.00  0.00    -0.354 N 
ATOM     19  C   UNL A   1      46.760  27.451  26.721  1.00  0.00     0.074 A 
ATOM     20  C   UNL A   1      46.434  27.299  25.328  1.00  0.00     0.031 C 
ATOM     21  C   UNL A   1      40.833  25.128  28.364  1.00  0.00     0.029 A 
ATOM     22  C   UNL A   1      41.387  26.394  28.812  1.00  0.00     0.049 A 
ATOM     23  H   UNL A   1      43.387  26.993  28.643  1.00  0.00     0.167 HD
ATOM     24  C   UNL A   1      47.403  28.438  27.402  1.00  0.00     0.037 A 
ATOM     25  C   UNL A   1      40.799  27.447  29.440  1.00  0.00     0.037 A 
ATOM     26  C   UNL A   1      47.571  28.073  28.789  1.00  0.00     0.049 A 
ATOM     27  C   UNL A   1      41.881  28.276  30.030  1.00  0.00     0.074 A 
ATOM     28  C   UNL A   1      48.212  27.042  29.449  1.00  0.00     0.029 A 
ATOM     29  N   UNL A   1      46.696  28.609  29.700  1.00  0.00    -0.354 N 
ATOM     30  N   UNL A   1      42.612  27.892  31.038  1.00  0.00    -0.248 NA
ATOM     31  C   UNL A   1      42.463  29.315  29.193  1.00  0.00     0.031 C 
ATOM     32  C   UNL A   1      47.350  26.706  30.536  1.00  0.00     0.029 A 
ATOM     33  C   UNL A   1      46.282  27.602  30.529  1.00  0.00     0.049 A 
ATOM     34  H   UNL A   1      46.415  29.552  29.748  1.00  0.00     0.167 HD
ATOM     35  C   UNL A   1      43.899  28.278  30.698  1.00  0.00     0.074 A 
ATOM     36  C   UNL A   1      43.736  29.216  29.587  1.00  0.00     0.031 C 
ATOM     37  C   UNL A   1      44.980  27.579  31.149  1.00  0.00     0.037 A 
BRANCH  24  38
ATOM     38  C   UNL A   1      47.454  29.876  26.936  1.00  0.00     0.064 A 
ATOM     39  C   UNL A   1      48.659  30.593  27.094  1.00  0.00     0.173 A 
ATOM     40  C   UNL A   1      46.313  30.665  26.668  1.00  0.00     0.173 A 
ATOM     41  F   UNL A   1      49.808  29.951  27.352  1.00  0.00    -0.203 F 
ATOM     42  C   UNL A   1      48.691  31.990  27.106  1.00  0.00     0.198 A 
ATOM     43  C   UNL A   1      46.359  32.056  26.634  1.00  0.00     0.198 A 
ATOM     44  F   UNL A   1      45.089  30.144  26.543  1.00  0.00    -0.203 F 
ATOM     45  F   UNL A   1      49.831  32.624  27.410  1.00  0.00    -0.200 F 
ATOM     46  C   UNL A   1      47.539  32.720  26.890  1.00  0.00     0.200 A 
ATOM     47  F   UNL A   1      45.226  32.745  26.439  1.00  0.00    -0.200 F 
ATOM     48  F   UNL A   1      47.551  34.056  26.977  1.00  0.00    -0.200 F 
ENDBRANCH  24  38
BRANCH  25  49
ATOM     49  C   UNL A   1      39.421  27.976  29.280  1.00  0.00     0.064 A 
ATOM     50  C   UNL A   1      38.574  28.142  30.392  1.00  0.00     0.173 A 
ATOM     51  C   UNL A   1      39.021  28.619  28.093  1.00  0.00     0.173 A 
ATOM     52  F   UNL A   1      38.902  27.603  31.576  1.00  0.00    -0.203 F 
ATOM     53  C   UNL A   1      37.419  28.929  30.328  1.00  0.00     0.198 A 
ATOM     54  C   UNL A   1      37.866  29.401  28.029  1.00  0.00     0.198 A 
ATOM     55  F   UNL A   1      39.798  28.587  27.001  1.00  0.00    -0.203 F 
ATOM     56  F   UNL A   1      36.675  29.118  31.426  1.00  0.00    -0.200 F 
ATOM     57  C   UNL A   1      37.073  29.569  29.149  1.00  0.00     0.200 A 
ATOM     58  F   UNL A   1      37.566  30.049  26.895  1.00  0.00    -0.200 F 
ATOM     59  F   UNL A   1      36.007  30.378  29.104  1.00  0.00    -0.200 F 
ENDBRANCH  25  49
BRANCH  37  60
ATOM     60  C   UNL A   1      44.758  26.574  32.244  1.00  0.00     0.064 A 
ATOM     61  C   UNL A   1      44.461  25.215  32.037  1.00  0.00     0.173 A 
ATOM     62  C   UNL A   1      44.969  26.993  33.565  1.00  0.00     0.173 A 
ATOM     63  F   UNL A   1      44.348  24.712  30.801  1.00  0.00    -0.203 F 
ATOM     64  C   UNL A   1      44.327  24.336  33.112  1.00  0.00     0.198 A 
ATOM     65  C   UNL A   1      44.876  26.105  34.630  1.00  0.00     0.198 A 
ATOM     66  F   UNL A   1      45.310  28.267  33.819  1.00  0.00    -0.203 F 
ATOM     67  F   UNL A   1      44.018  23.048  32.893  1.00  0.00    -0.200 F 
ATOM     68  C   UNL A   1      44.539  24.781  34.406  1.00  0.00     0.200 A 
ATOM     69  F   UNL A   1      45.134  26.531  35.874  1.00  0.00    -0.200 F 
ATOM     70  F   UNL A   1      44.444  23.929  35.437  1.00  0.00    -0.200 F 
ENDBRANCH  37  60
ENDBRANCH  11  12
ENDBRANCH   4   6
ENDBRANCH   3   4
ENDBRANCH   2   3
ENDBRANCH   1   2
BRANCH   1  71
ATOM     71  O   UNL A   1      41.804  20.534  26.713  1.00  0.00    -0.374 OA
BRANCH  71  72
ATOM     72  C   UNL A   1      40.916  21.415  26.014  1.00  0.00     0.202 C 
BRANCH  72  73
ATOM     73  C   UNL A   1      39.493  21.642  26.550  1.00  0.00     0.261 C 
BRANCH  73  74
ATOM     74  O   UNL A   1      38.619  22.286  25.604  1.00  0.00    -0.460 OA
BRANCH  74  75
ATOM     75  C   UNL A   1      37.667  21.478  25.070  1.00  0.00     0.338 C 
ATOM     76  O   UNL A   1      37.788  20.321  24.731  1.00  0.00    -0.246 OA
BRANCH  75  77
ATOM     77  C   UNL A   1      36.356  22.157  25.141  1.00  0.00     0.060 A 
ATOM     78  C   UNL A   1      36.331  23.533  25.410  1.00  0.00     0.018 A 
ATOM     79  C   UNL A   1      35.170  21.441  25.014  1.00  0.00     0.018 A 
ATOM     80  C   UNL A   1      35.114  24.200  25.548  1.00  0.00     0.029 A 
ATOM     81  C   UNL A   1      33.956  22.095  25.246  1.00  0.00     0.029 A 
ATOM     82  C   UNL A   1      33.923  23.472  25.521  1.00  0.00     0.068 A 
BRANCH  82  83
ATOM     83  N   UNL A   1      32.706  24.083  25.836  1.00  0.00    -0.201 N 
ATOM     84  N   UNL A   1      32.107  25.028  25.019  1.00  0.00    -0.240 N 
ATOM     85  C   UNL A   1      31.813  23.791  26.884  1.00  0.00     0.349 A 
ATOM     86  C   UNL A   1      30.845  25.294  25.526  1.00  0.00     0.342 A 
ATOM     87  H   UNL A   1      32.507  25.439  24.218  1.00  0.00     0.194 HD
ATOM     88  N   UNL A   1      30.716  24.600  26.696  1.00  0.00    -0.256 N 
ATOM     89  O   UNL A   1      31.945  23.000  27.804  1.00  0.00    -0.246 OA
ATOM     90  O   UNL A   1      29.986  25.968  24.985  1.00  0.00    -0.246 OA
ATOM     91  H   UNL A   1      29.952  24.671  27.314  1.00  0.00     0.176 HD
ENDBRANCH  82  83
ENDBRANCH  75  77
ENDBRANCH  74  75
ENDBRANCH  73  74
ENDBRANCH  72  73
ENDBRANCH  71  72
ENDBRANCH   1  71
TORSDOF 15
ENDMDL
