MODEL 1
REMARK VINA RESULT:     -12.6      0.000      0.000
REMARK SMILES O=C(CC1(C(=O)OCCOCCOC(=O)c2ccc(-c3c4nc(c(-c5c(F)c(F)c(F)c(F)c5F)c5ccc([nH]5)c(-c5c(F)c(F)c(F)c(F)c5F)c5nc(c(-c6c(F)c(F)c(F)c(F)c6F)c6ccc3[nH]6)C=C5)C=C4)cc2)CCCCC1)Nc1ccc(N2CCOC2=O)cc1
REMARK SMILES IDX 9 1 8 2 7 3 5 4 6 5 4 6 79 7 83 8 80 9 82 10 81 11 3 12 2 13
REMARK SMILES IDX 1 14 84 15 85 17 86 18 96 19 87 20 95 21 88 22 89 23 90 24
REMARK SMILES IDX 93 25 91 26 92 27 94 28 10 29 11 30 12 31 13 32 14 33 15 34
REMARK SMILES IDX 16 35 17 36 78 37 18 38 77 39 19 40 20 41 21 42 71 43 22 44
REMARK SMILES IDX 76 45 70 46 72 47 23 48 75 49 69 50 68 51 24 53 56 54 36 55
REMARK SMILES IDX 55 56 37 57 40 58 54 59 73 60 38 61 39 62 53 64 74 65 41 66
REMARK SMILES IDX 25 67 26 68 34 69 27 70 28 71 32 72 35 73 29 74 30 75 33 76
REMARK SMILES IDX 31 77 57 78 58 79 66 80 59 81 60 82 64 83 67 84 61 85 62 86
REMARK SMILES IDX 65 87 63 88 42 89 43 90 51 91 44 92 45 93 49 94 52 95 46 96
REMARK SMILES IDX 47 97 50 98 48 99
REMARK H PARENT 84 16 72 52 40 63
REMARK Flexibility Score: inf
ROOT
ATOM      1  C   UNL A   1      33.131  28.807  25.474  1.00  0.00     0.202 C 
ENDROOT
BRANCH   1   2
ATOM      2  C   UNL A   1      34.207  28.132  24.624  1.00  0.00     0.261 C 
BRANCH   2   3
ATOM      3  O   UNL A   1      33.757  26.861  24.129  1.00  0.00    -0.463 OA
BRANCH   3   4
ATOM      4  C   UNL A   1      33.381  26.843  22.827  1.00  0.00     0.312 C 
ATOM      5  O   UNL A   1      33.958  27.455  21.935  1.00  0.00    -0.252 OA
BRANCH   4   6
ATOM      6  C   UNL A   1      32.154  25.950  22.556  1.00  0.00     0.077 C 
ATOM      7  C   UNL A   1      31.145  26.866  21.823  1.00  0.00     0.019 C 
ATOM      8  C   UNL A   1      31.468  25.356  23.814  1.00  0.00     0.019 C 
ATOM      9  C   UNL A   1      30.522  27.910  22.759  1.00  0.00     0.001 C 
ATOM     10  C   UNL A   1      30.709  26.334  24.711  1.00  0.00     0.001 C 
ATOM     11  C   UNL A   1      29.792  27.252  23.922  1.00  0.00     0.000 C 
BRANCH   6  12
ATOM     12  C   UNL A   1      32.724  24.842  21.599  1.00  0.00     0.119 C 
BRANCH  12  13
ATOM     13  C   UNL A   1      33.209  23.510  22.161  1.00  0.00     0.225 C 
ATOM     14  O   UNL A   1      34.399  23.316  22.386  1.00  0.00    -0.275 OA
ATOM     15  N   UNL A   1      32.198  22.589  22.376  1.00  0.00    -0.326 N 
ATOM     16  H   UNL A   1      31.286  22.848  22.112  1.00  0.00     0.169 HD
BRANCH  15  17
ATOM     17  C   UNL A   1      32.370  21.316  22.945  1.00  0.00     0.041 A 
ATOM     18  C   UNL A   1      32.050  20.201  22.165  1.00  0.00     0.028 A 
ATOM     19  C   UNL A   1      32.809  21.137  24.254  1.00  0.00     0.028 A 
ATOM     20  C   UNL A   1      32.265  18.910  22.660  1.00  0.00     0.028 A 
ATOM     21  C   UNL A   1      32.913  19.847  24.786  1.00  0.00     0.028 A 
ATOM     22  C   UNL A   1      32.681  18.727  23.981  1.00  0.00     0.047 A 
BRANCH  22  23
ATOM     23  N   UNL A   1      32.911  17.440  24.487  1.00  0.00    -0.274 N 
ATOM     24  C   UNL A   1      32.459  17.001  25.766  1.00  0.00     0.171 C 
ATOM     25  C   UNL A   1      33.580  16.421  23.842  1.00  0.00     0.414 C 
ATOM     26  C   UNL A   1      32.551  15.501  25.629  1.00  0.00     0.257 C 
ATOM     27  O   UNL A   1      33.527  15.284  24.605  1.00  0.00    -0.447 OA
ATOM     28  O   UNL A   1      34.187  16.476  22.780  1.00  0.00    -0.224 OA
ENDBRANCH  22  23
ENDBRANCH  15  17
ENDBRANCH  12  13
ENDBRANCH   6  12
ENDBRANCH   4   6
ENDBRANCH   3   4
ENDBRANCH   2   3
ENDBRANCH   1   2
BRANCH   1  29
ATOM     29  O   UNL A   1      32.420  29.899  24.897  1.00  0.00    -0.374 OA
BRANCH  29  30
ATOM     30  C   UNL A   1      31.345  30.478  25.628  1.00  0.00     0.202 C 
BRANCH  30  31
ATOM     31  C   UNL A   1      31.618  31.753  26.436  1.00  0.00     0.261 C 
BRANCH  31  32
ATOM     32  O   UNL A   1      32.558  31.554  27.507  1.00  0.00    -0.460 OA
BRANCH  32  33
ATOM     33  C   UNL A   1      33.462  32.556  27.633  1.00  0.00     0.338 C 
ATOM     34  O   UNL A   1      33.242  33.755  27.605  1.00  0.00    -0.246 OA
BRANCH  33  35
ATOM     35  C   UNL A   1      34.786  32.026  28.001  1.00  0.00     0.060 A 
ATOM     36  C   UNL A   1      34.854  30.666  28.335  1.00  0.00     0.016 A 
ATOM     37  C   UNL A   1      35.899  32.854  28.152  1.00  0.00     0.016 A 
ATOM     38  C   UNL A   1      36.013  30.145  28.897  1.00  0.00     0.010 A 
ATOM     39  C   UNL A   1      37.064  32.328  28.721  1.00  0.00     0.010 A 
ATOM     40  C   UNL A   1      37.106  30.986  29.143  1.00  0.00    -0.014 A 
BRANCH  40  41
ATOM     41  C   UNL A   1      38.213  30.489  29.998  1.00  0.00     0.031 A 
ATOM     42  C   UNL A   1      39.199  29.510  29.420  1.00  0.00     0.074 A 
ATOM     43  C   UNL A   1      38.375  30.959  31.247  1.00  0.00     0.049 A 
ATOM     44  N   UNL A   1      40.241  28.950  29.980  1.00  0.00    -0.248 NA
ATOM     45  C   UNL A   1      38.980  29.108  28.022  1.00  0.00     0.031 C 
ATOM     46  C   UNL A   1      37.515  31.948  31.893  1.00  0.00     0.029 A 
ATOM     47  N   UNL A   1      39.327  30.669  32.192  1.00  0.00    -0.354 N 
ATOM     48  C   UNL A   1      40.794  28.125  29.007  1.00  0.00     0.074 A 
ATOM     49  C   UNL A   1      39.952  28.227  27.837  1.00  0.00     0.031 C 
ATOM     50  C   UNL A   1      37.979  32.185  33.131  1.00  0.00     0.029 A 
ATOM     51  C   UNL A   1      39.145  31.339  33.375  1.00  0.00     0.049 A 
ATOM     52  H   UNL A   1      40.068  30.040  32.035  1.00  0.00     0.167 HD
ATOM     53  C   UNL A   1      41.912  27.363  29.081  1.00  0.00     0.037 A 
ATOM     54  C   UNL A   1      39.834  31.261  34.530  1.00  0.00     0.037 A 
ATOM     55  C   UNL A   1      42.748  27.270  30.251  1.00  0.00     0.049 A 
ATOM     56  C   UNL A   1      41.026  30.342  34.612  1.00  0.00     0.074 A 
ATOM     57  C   UNL A   1      43.909  26.537  30.427  1.00  0.00     0.029 A 
ATOM     58  N   UNL A   1      42.505  27.926  31.450  1.00  0.00    -0.354 N 
ATOM     59  N   UNL A   1      41.555  29.582  33.684  1.00  0.00    -0.248 NA
ATOM     60  C   UNL A   1      41.721  30.277  35.906  1.00  0.00     0.031 C 
ATOM     61  C   UNL A   1      44.332  26.699  31.750  1.00  0.00     0.029 A 
ATOM     62  C   UNL A   1      43.477  27.590  32.379  1.00  0.00     0.049 A 
ATOM     63  H   UNL A   1      41.753  28.539  31.615  1.00  0.00     0.167 HD
ATOM     64  C   UNL A   1      42.663  28.979  34.267  1.00  0.00     0.074 A 
ATOM     65  C   UNL A   1      42.736  29.474  35.626  1.00  0.00     0.031 C 
ATOM     66  C   UNL A   1      43.542  28.098  33.727  1.00  0.00     0.037 A 
BRANCH  53  67
ATOM     67  C   UNL A   1      42.275  26.542  27.875  1.00  0.00     0.064 A 
ATOM     68  C   UNL A   1      43.185  27.000  26.910  1.00  0.00     0.173 A 
ATOM     69  C   UNL A   1      41.722  25.264  27.695  1.00  0.00     0.173 A 
ATOM     70  F   UNL A   1      43.735  28.220  27.025  1.00  0.00    -0.203 F 
ATOM     71  C   UNL A   1      43.499  26.227  25.794  1.00  0.00     0.198 A 
ATOM     72  C   UNL A   1      42.066  24.479  26.597  1.00  0.00     0.198 A 
ATOM     73  F   UNL A   1      40.851  24.772  28.589  1.00  0.00    -0.203 F 
ATOM     74  F   UNL A   1      44.324  26.712  24.856  1.00  0.00    -0.200 F 
ATOM     75  C   UNL A   1      42.946  24.965  25.643  1.00  0.00     0.200 A 
ATOM     76  F   UNL A   1      41.540  23.254  26.462  1.00  0.00    -0.200 F 
ATOM     77  F   UNL A   1      43.252  24.221  24.572  1.00  0.00    -0.200 F 
ENDBRANCH  53  67
BRANCH  54  78
ATOM     78  C   UNL A   1      39.414  32.072  35.703  1.00  0.00     0.064 A 
ATOM     79  C   UNL A   1      39.978  33.332  35.951  1.00  0.00     0.173 A 
ATOM     80  C   UNL A   1      38.457  31.596  36.612  1.00  0.00     0.173 A 
ATOM     81  F   UNL A   1      40.913  33.821  35.125  1.00  0.00    -0.203 F 
ATOM     82  C   UNL A   1      39.616  34.073  37.074  1.00  0.00     0.198 A 
ATOM     83  C   UNL A   1      38.073  32.353  37.716  1.00  0.00     0.198 A 
ATOM     84  F   UNL A   1      37.886  30.397  36.421  1.00  0.00    -0.203 F 
ATOM     85  F   UNL A   1      40.210  35.251  37.315  1.00  0.00    -0.200 F 
ATOM     86  C   UNL A   1      38.660  33.587  37.952  1.00  0.00     0.200 A 
ATOM     87  F   UNL A   1      37.136  31.886  38.552  1.00  0.00    -0.200 F 
ATOM     88  F   UNL A   1      38.311  34.302  39.029  1.00  0.00    -0.200 F 
ENDBRANCH  54  78
BRANCH  66  89
ATOM     89  C   UNL A   1      44.690  27.652  34.589  1.00  0.00     0.064 A 
ATOM     90  C   UNL A   1      44.606  26.517  35.410  1.00  0.00     0.173 A 
ATOM     91  C   UNL A   1      45.904  28.358  34.571  1.00  0.00     0.173 A 
ATOM     92  F   UNL A   1      43.466  25.813  35.474  1.00  0.00    -0.203 F 
ATOM     93  C   UNL A   1      45.680  26.129  36.208  1.00  0.00     0.198 A 
ATOM     94  C   UNL A   1      46.988  27.944  35.340  1.00  0.00     0.198 A 
ATOM     95  F   UNL A   1      46.043  29.444  33.797  1.00  0.00    -0.203 F 
ATOM     96  F   UNL A   1      45.555  25.078  37.030  1.00  0.00    -0.200 F 
ATOM     97  C   UNL A   1      46.872  26.837  36.167  1.00  0.00     0.200 A 
ATOM     98  F   UNL A   1      48.144  28.620  35.284  1.00  0.00    -0.200 F 
ATOM     99  F   UNL A   1      47.905  26.458  36.929  1.00  0.00    -0.200 F 
ENDBRANCH  66  89
ENDBRANCH  40  41
ENDBRANCH  33  35
ENDBRANCH  32  33
ENDBRANCH  31  32
ENDBRANCH  30  31
ENDBRANCH  29  30
ENDBRANCH   1  29
TORSDOF 18
ENDMDL
MODEL 2
REMARK VINA RESULT:     -12.5      4.048      6.660
REMARK SMILES O=C(CC1(C(=O)OCCOCCOC(=O)c2ccc(-c3c4nc(c(-c5c(F)c(F)c(F)c(F)c5F)c5ccc([nH]5)c(-c5c(F)c(F)c(F)c(F)c5F)c5nc(c(-c6c(F)c(F)c(F)c(F)c6F)c6ccc3[nH]6)C=C5)C=C4)cc2)CCCCC1)Nc1ccc(N2CCOC2=O)cc1
REMARK SMILES IDX 9 1 8 2 7 3 5 4 6 5 4 6 79 7 83 8 80 9 82 10 81 11 3 12 2 13
REMARK SMILES IDX 1 14 84 15 85 17 86 18 96 19 87 20 95 21 88 22 89 23 90 24
REMARK SMILES IDX 93 25 91 26 92 27 94 28 10 29 11 30 12 31 13 32 14 33 15 34
REMARK SMILES IDX 16 35 17 36 78 37 18 38 77 39 19 40 20 41 21 42 71 43 22 44
REMARK SMILES IDX 76 45 70 46 72 47 23 48 75 49 69 50 68 51 24 53 56 54 36 55
REMARK SMILES IDX 55 56 37 57 40 58 54 59 73 60 38 61 39 62 53 64 74 65 41 66
REMARK SMILES IDX 25 67 26 68 34 69 27 70 28 71 32 72 35 73 29 74 30 75 33 76
REMARK SMILES IDX 31 77 57 78 58 79 66 80 59 81 60 82 64 83 67 84 61 85 62 86
REMARK SMILES IDX 65 87 63 88 42 89 43 90 51 91 44 92 45 93 49 94 52 95 46 96
REMARK SMILES IDX 47 97 50 98 48 99
REMARK H PARENT 84 16 72 52 40 63
REMARK Flexibility Score: inf
ROOT
ATOM      1  C   UNL A   1      35.521  23.985  24.924  1.00  0.00     0.202 C 
ENDROOT
BRANCH   1   2
ATOM      2  C   UNL A   1      34.782  24.458  23.672  1.00  0.00     0.261 C 
BRANCH   2   3
ATOM      3  O   UNL A   1      33.941  25.586  23.960  1.00  0.00    -0.463 OA
BRANCH   3   4
ATOM      4  C   UNL A   1      33.215  26.052  22.915  1.00  0.00     0.312 C 
ATOM      5  O   UNL A   1      33.666  26.234  21.790  1.00  0.00    -0.252 OA
BRANCH   4   6
ATOM      6  C   UNL A   1      31.737  26.317  23.265  1.00  0.00     0.077 C 
ATOM      7  C   UNL A   1      31.351  27.576  22.453  1.00  0.00     0.019 C 
ATOM      8  C   UNL A   1      31.441  26.578  24.765  1.00  0.00     0.019 C 
ATOM      9  C   UNL A   1      31.997  28.850  23.015  1.00  0.00     0.001 C 
ATOM     10  C   UNL A   1      31.941  27.901  25.344  1.00  0.00     0.001 C 
ATOM     11  C   UNL A   1      31.593  29.088  24.463  1.00  0.00     0.000 C 
BRANCH   6  12
ATOM     12  C   UNL A   1      31.007  25.037  22.719  1.00  0.00     0.119 C 
BRANCH  12  13
ATOM     13  C   UNL A   1      31.197  23.688  23.404  1.00  0.00     0.225 C 
ATOM     14  O   UNL A   1      30.676  23.451  24.489  1.00  0.00    -0.275 OA
ATOM     15  N   UNL A   1      31.990  22.803  22.693  1.00  0.00    -0.326 N 
ATOM     16  H   UNL A   1      32.390  23.127  21.854  1.00  0.00     0.169 HD
BRANCH  15  17
ATOM     17  C   UNL A   1      32.266  21.478  23.073  1.00  0.00     0.041 A 
ATOM     18  C   UNL A   1      32.994  21.272  24.248  1.00  0.00     0.028 A 
ATOM     19  C   UNL A   1      31.874  20.385  22.304  1.00  0.00     0.028 A 
ATOM     20  C   UNL A   1      33.240  19.972  24.705  1.00  0.00     0.028 A 
ATOM     21  C   UNL A   1      32.223  19.090  22.703  1.00  0.00     0.028 A 
ATOM     22  C   UNL A   1      32.870  18.874  23.924  1.00  0.00     0.047 A 
BRANCH  22  23
ATOM     23  N   UNL A   1      33.101  17.566  24.375  1.00  0.00    -0.274 N 
ATOM     24  C   UNL A   1      32.658  17.078  25.640  1.00  0.00     0.171 C 
ATOM     25  C   UNL A   1      33.759  16.572  23.682  1.00  0.00     0.414 C 
ATOM     26  C   UNL A   1      32.744  15.583  25.439  1.00  0.00     0.257 C 
ATOM     27  O   UNL A   1      33.709  15.406  24.399  1.00  0.00    -0.447 OA
ATOM     28  O   UNL A   1      34.356  16.669  22.618  1.00  0.00    -0.224 OA
ENDBRANCH  22  23
ENDBRANCH  15  17
ENDBRANCH  12  13
ENDBRANCH   6  12
ENDBRANCH   4   6
ENDBRANCH   3   4
ENDBRANCH   2   3
ENDBRANCH   1   2
BRANCH   1  29
ATOM     29  O   UNL A   1      36.554  23.018  24.756  1.00  0.00    -0.374 OA
BRANCH  29  30
ATOM     30  C   UNL A   1      36.437  21.768  25.427  1.00  0.00     0.202 C 
BRANCH  30  31
ATOM     31  C   UNL A   1      37.619  20.793  25.359  1.00  0.00     0.261 C 
BRANCH  31  32
ATOM     32  O   UNL A   1      38.893  21.454  25.263  1.00  0.00    -0.460 OA
BRANCH  32  33
ATOM     33  C   UNL A   1      39.718  21.204  26.310  1.00  0.00     0.338 C 
ATOM     34  O   UNL A   1      40.262  20.147  26.584  1.00  0.00    -0.246 OA
BRANCH  33  35
ATOM     35  C   UNL A   1      40.050  22.447  27.027  1.00  0.00     0.060 A 
ATOM     36  C   UNL A   1      39.333  23.596  26.668  1.00  0.00     0.016 A 
ATOM     37  C   UNL A   1      41.121  22.523  27.918  1.00  0.00     0.016 A 
ATOM     38  C   UNL A   1      39.733  24.841  27.138  1.00  0.00     0.010 A 
ATOM     39  C   UNL A   1      41.524  23.779  28.388  1.00  0.00     0.010 A 
ATOM     40  C   UNL A   1      40.864  24.945  27.958  1.00  0.00    -0.014 A 
BRANCH  40  41
ATOM     41  C   UNL A   1      41.444  26.287  28.211  1.00  0.00     0.031 A 
ATOM     42  C   UNL A   1      42.819  26.599  27.687  1.00  0.00     0.074 A 
ATOM     43  C   UNL A   1      40.725  27.234  28.838  1.00  0.00     0.049 A 
ATOM     44  N   UNL A   1      43.518  27.701  27.787  1.00  0.00    -0.248 NA
ATOM     45  C   UNL A   1      43.500  25.522  26.953  1.00  0.00     0.031 C 
ATOM     46  C   UNL A   1      39.363  27.063  29.341  1.00  0.00     0.029 A 
ATOM     47  N   UNL A   1      41.041  28.532  29.150  1.00  0.00    -0.354 N 
ATOM     48  C   UNL A   1      44.720  27.447  27.136  1.00  0.00     0.074 A 
ATOM     49  C   UNL A   1      44.672  26.076  26.682  1.00  0.00     0.031 C 
ATOM     50  C   UNL A   1      38.959  28.216  29.900  1.00  0.00     0.029 A 
ATOM     51  C   UNL A   1      40.045  29.191  29.825  1.00  0.00     0.049 A 
ATOM     52  H   UNL A   1      41.901  28.950  28.914  1.00  0.00     0.167 HD
ATOM     53  C   UNL A   1      45.762  28.288  26.926  1.00  0.00     0.037 A 
ATOM     54  C   UNL A   1      40.022  30.436  30.339  1.00  0.00     0.037 A 
ATOM     55  C   UNL A   1      45.799  29.655  27.380  1.00  0.00     0.049 A 
ATOM     56  C   UNL A   1      41.228  31.324  30.164  1.00  0.00     0.074 A 
ATOM     57  C   UNL A   1      46.800  30.594  27.209  1.00  0.00     0.029 A 
ATOM     58  N   UNL A   1      44.790  30.274  28.104  1.00  0.00    -0.354 N 
ATOM     59  N   UNL A   1      42.351  31.085  29.530  1.00  0.00    -0.248 NA
ATOM     60  C   UNL A   1      41.157  32.661  30.770  1.00  0.00     0.031 C 
ATOM     61  C   UNL A   1      46.425  31.761  27.884  1.00  0.00     0.029 A 
ATOM     62  C   UNL A   1      45.158  31.574  28.414  1.00  0.00     0.049 A 
ATOM     63  H   UNL A   1      43.937  29.852  28.359  1.00  0.00     0.167 HD
ATOM     64  C   UNL A   1      43.103  32.249  29.630  1.00  0.00     0.074 A 
ATOM     65  C   UNL A   1      42.301  33.198  30.373  1.00  0.00     0.031 C 
ATOM     66  C   UNL A   1      44.344  32.511  29.148  1.00  0.00     0.037 A 
BRANCH  53  67
ATOM     67  C   UNL A   1      46.962  27.741  26.204  1.00  0.00     0.064 A 
ATOM     68  C   UNL A   1      47.049  27.737  24.804  1.00  0.00     0.173 A 
ATOM     69  C   UNL A   1      48.053  27.234  26.927  1.00  0.00     0.173 A 
ATOM     70  F   UNL A   1      46.029  28.198  24.062  1.00  0.00    -0.203 F 
ATOM     71  C   UNL A   1      48.166  27.216  24.154  1.00  0.00     0.198 A 
ATOM     72  C   UNL A   1      49.184  26.747  26.275  1.00  0.00     0.198 A 
ATOM     73  F   UNL A   1      48.028  27.217  28.268  1.00  0.00    -0.203 F 
ATOM     74  F   UNL A   1      48.199  27.169  22.816  1.00  0.00    -0.200 F 
ATOM     75  C   UNL A   1      49.235  26.729  24.891  1.00  0.00     0.200 A 
ATOM     76  F   UNL A   1      50.221  26.290  26.991  1.00  0.00    -0.200 F 
ATOM     77  F   UNL A   1      50.311  26.231  24.265  1.00  0.00    -0.200 F 
ENDBRANCH  53  67
BRANCH  54  78
ATOM     78  C   UNL A   1      38.821  30.918  31.071  1.00  0.00     0.064 A 
ATOM     79  C   UNL A   1      37.763  31.542  30.396  1.00  0.00     0.173 A 
ATOM     80  C   UNL A   1      38.716  30.784  32.464  1.00  0.00     0.173 A 
ATOM     81  F   UNL A   1      37.827  31.714  29.068  1.00  0.00    -0.203 F 
ATOM     82  C   UNL A   1      36.658  32.032  31.087  1.00  0.00     0.198 A 
ATOM     83  C   UNL A   1      37.595  31.244  33.149  1.00  0.00     0.198 A 
ATOM     84  F   UNL A   1      39.700  30.194  33.159  1.00  0.00    -0.203 F 
ATOM     85  F   UNL A   1      35.685  32.671  30.421  1.00  0.00    -0.200 F 
ATOM     86  C   UNL A   1      36.570  31.878  32.461  1.00  0.00     0.200 A 
ATOM     87  F   UNL A   1      37.508  31.078  34.476  1.00  0.00    -0.200 F 
ATOM     88  F   UNL A   1      35.505  32.346  33.125  1.00  0.00    -0.200 F 
ENDBRANCH  54  78
BRANCH  66  89
ATOM     89  C   UNL A   1      44.890  33.894  29.363  1.00  0.00     0.064 A 
ATOM     90  C   UNL A   1      44.670  34.933  28.445  1.00  0.00     0.173 A 
ATOM     91  C   UNL A   1      45.624  34.192  30.523  1.00  0.00     0.173 A 
ATOM     92  F   UNL A   1      43.985  34.699  27.315  1.00  0.00    -0.203 F 
ATOM     93  C   UNL A   1      45.195  36.204  28.661  1.00  0.00     0.198 A 
ATOM     94  C   UNL A   1      46.114  35.475  30.754  1.00  0.00     0.198 A 
ATOM     95  F   UNL A   1      45.857  33.241  31.439  1.00  0.00    -0.203 F 
ATOM     96  F   UNL A   1      45.023  37.163  27.740  1.00  0.00    -0.200 F 
ATOM     97  C   UNL A   1      45.909  36.477  29.818  1.00  0.00     0.200 A 
ATOM     98  F   UNL A   1      46.789  35.739  31.881  1.00  0.00    -0.200 F 
ATOM     99  F   UNL A   1      46.408  37.702  30.027  1.00  0.00    -0.200 F 
ENDBRANCH  66  89
ENDBRANCH  40  41
ENDBRANCH  33  35
ENDBRANCH  32  33
ENDBRANCH  31  32
ENDBRANCH  30  31
ENDBRANCH  29  30
ENDBRANCH   1  29
TORSDOF 18
ENDMDL
MODEL 3
REMARK VINA RESULT:     -12.2      2.142      5.385
REMARK SMILES O=C(CC1(C(=O)OCCOCCOC(=O)c2ccc(-c3c4nc(c(-c5c(F)c(F)c(F)c(F)c5F)c5ccc([nH]5)c(-c5c(F)c(F)c(F)c(F)c5F)c5nc(c(-c6c(F)c(F)c(F)c(F)c6F)c6ccc3[nH]6)C=C5)C=C4)cc2)CCCCC1)Nc1ccc(N2CCOC2=O)cc1
REMARK SMILES IDX 9 1 8 2 7 3 5 4 6 5 4 6 79 7 83 8 80 9 82 10 81 11 3 12 2 13
REMARK SMILES IDX 1 14 84 15 85 17 86 18 96 19 87 20 95 21 88 22 89 23 90 24
REMARK SMILES IDX 93 25 91 26 92 27 94 28 10 29 11 30 12 31 13 32 14 33 15 34
REMARK SMILES IDX 16 35 17 36 78 37 18 38 77 39 19 40 20 41 21 42 71 43 22 44
REMARK SMILES IDX 76 45 70 46 72 47 23 48 75 49 69 50 68 51 24 53 56 54 36 55
REMARK SMILES IDX 55 56 37 57 40 58 54 59 73 60 38 61 39 62 53 64 74 65 41 66
REMARK SMILES IDX 25 67 26 68 34 69 27 70 28 71 32 72 35 73 29 74 30 75 33 76
REMARK SMILES IDX 31 77 57 78 58 79 66 80 59 81 60 82 64 83 67 84 61 85 62 86
REMARK SMILES IDX 65 87 63 88 42 89 43 90 51 91 44 92 45 93 49 94 52 95 46 96
REMARK SMILES IDX 47 97 50 98 48 99
REMARK H PARENT 84 16 72 52 40 63
REMARK Flexibility Score: inf
ROOT
ATOM      1  C   UNL A   1      33.055  27.137  25.695  1.00  0.00     0.202 C 
ENDROOT
BRANCH   1   2
ATOM      2  C   UNL A   1      33.925  25.882  25.640  1.00  0.00     0.261 C 
BRANCH   2   3
ATOM      3  O   UNL A   1      33.246  24.808  24.970  1.00  0.00    -0.463 OA
BRANCH   3   4
ATOM      4  C   UNL A   1      32.677  23.884  25.782  1.00  0.00     0.312 C 
ATOM      5  O   UNL A   1      32.986  23.715  26.956  1.00  0.00    -0.252 OA
BRANCH   4   6
ATOM      6  C   UNL A   1      31.569  23.063  25.094  1.00  0.00     0.077 C 
ATOM      7  C   UNL A   1      31.786  21.609  25.577  1.00  0.00     0.019 C 
ATOM      8  C   UNL A   1      31.586  23.083  23.543  1.00  0.00     0.019 C 
ATOM      9  C   UNL A   1      33.031  20.969  24.948  1.00  0.00     0.001 C 
ATOM     10  C   UNL A   1      32.731  22.337  22.858  1.00  0.00     0.001 C 
ATOM     11  C   UNL A   1      32.939  20.945  23.428  1.00  0.00     0.000 C 
BRANCH   6  12
ATOM     12  C   UNL A   1      30.250  23.674  25.691  1.00  0.00     0.119 C 
BRANCH  12  13
ATOM     13  C   UNL A   1      29.921  25.149  25.489  1.00  0.00     0.225 C 
ATOM     14  O   UNL A   1      29.918  25.930  26.435  1.00  0.00    -0.275 OA
ATOM     15  N   UNL A   1      29.639  25.489  24.177  1.00  0.00    -0.326 N 
ATOM     16  H   UNL A   1      29.628  24.762  23.513  1.00  0.00     0.169 HD
BRANCH  15  17
ATOM     17  C   UNL A   1      29.370  26.789  23.717  1.00  0.00     0.041 A 
ATOM     18  C   UNL A   1      30.455  27.626  23.442  1.00  0.00     0.028 A 
ATOM     19  C   UNL A   1      28.072  27.271  23.564  1.00  0.00     0.028 A 
ATOM     20  C   UNL A   1      30.242  28.906  22.921  1.00  0.00     0.028 A 
ATOM     21  C   UNL A   1      27.862  28.592  23.153  1.00  0.00     0.028 A 
ATOM     22  C   UNL A   1      28.943  29.402  22.790  1.00  0.00     0.047 A 
BRANCH  22  23
ATOM     23  N   UNL A   1      28.714  30.680  22.259  1.00  0.00    -0.274 N 
ATOM     24  C   UNL A   1      28.403  30.920  20.887  1.00  0.00     0.171 C 
ATOM     25  C   UNL A   1      28.741  31.868  22.958  1.00  0.00     0.414 C 
ATOM     26  C   UNL A   1      27.827  32.315  20.942  1.00  0.00     0.257 C 
ATOM     27  O   UNL A   1      28.380  32.895  22.126  1.00  0.00    -0.447 OA
ATOM     28  O   UNL A   1      29.074  32.045  24.122  1.00  0.00    -0.224 OA
ENDBRANCH  22  23
ENDBRANCH  15  17
ENDBRANCH  12  13
ENDBRANCH   6  12
ENDBRANCH   4   6
ENDBRANCH   3   4
ENDBRANCH   2   3
ENDBRANCH   1   2
BRANCH   1  29
ATOM     29  O   UNL A   1      32.907  27.784  26.956  1.00  0.00    -0.374 OA
BRANCH  29  30
ATOM     30  C   UNL A   1      31.773  28.617  27.169  1.00  0.00     0.202 C 
BRANCH  30  31
ATOM     31  C   UNL A   1      31.906  30.117  26.874  1.00  0.00     0.261 C 
BRANCH  31  32
ATOM     32  O   UNL A   1      33.233  30.498  26.469  1.00  0.00    -0.460 OA
BRANCH  32  33
ATOM     33  C   UNL A   1      33.771  31.487  27.225  1.00  0.00     0.338 C 
ATOM     34  O   UNL A   1      33.214  32.496  27.623  1.00  0.00    -0.246 OA
BRANCH  33  35
ATOM     35  C   UNL A   1      35.120  31.119  27.688  1.00  0.00     0.060 A 
ATOM     36  C   UNL A   1      35.365  29.757  27.909  1.00  0.00     0.016 A 
ATOM     37  C   UNL A   1      36.072  32.080  28.030  1.00  0.00     0.016 A 
ATOM     38  C   UNL A   1      36.532  29.355  28.548  1.00  0.00     0.010 A 
ATOM     39  C   UNL A   1      37.245  31.673  28.677  1.00  0.00     0.010 A 
ATOM     40  C   UNL A   1      37.453  30.315  28.983  1.00  0.00    -0.014 A 
BRANCH  40  41
ATOM     41  C   UNL A   1      38.537  29.900  29.908  1.00  0.00     0.031 A 
ATOM     42  C   UNL A   1      39.582  28.933  29.421  1.00  0.00     0.074 A 
ATOM     43  C   UNL A   1      38.625  30.431  31.140  1.00  0.00     0.049 A 
ATOM     44  N   UNL A   1      40.617  28.438  30.051  1.00  0.00    -0.248 NA
ATOM     45  C   UNL A   1      39.441  28.460  28.036  1.00  0.00     0.031 C 
ATOM     46  C   UNL A   1      37.702  31.416  31.700  1.00  0.00     0.029 A 
ATOM     47  N   UNL A   1      39.542  30.221  32.138  1.00  0.00    -0.354 N 
ATOM     48  C   UNL A   1      41.243  27.591  29.144  1.00  0.00     0.074 A 
ATOM     49  C   UNL A   1      40.451  27.609  27.935  1.00  0.00     0.031 C 
ATOM     50  C   UNL A   1      38.101  31.726  32.945  1.00  0.00     0.029 A 
ATOM     51  C   UNL A   1      39.284  30.936  33.279  1.00  0.00     0.049 A 
ATOM     52  H   UNL A   1      40.312  29.613  32.044  1.00  0.00     0.167 HD
ATOM     53  C   UNL A   1      42.382  26.875  29.303  1.00  0.00     0.037 A 
ATOM     54  C   UNL A   1      39.921  30.937  34.466  1.00  0.00     0.037 A 
ATOM     55  C   UNL A   1      43.167  26.867  30.511  1.00  0.00     0.049 A 
ATOM     56  C   UNL A   1      41.141  30.067  34.644  1.00  0.00     0.074 A 
ATOM     57  C   UNL A   1      44.343  26.187  30.772  1.00  0.00     0.029 A 
ATOM     58  N   UNL A   1      42.846  27.567  31.666  1.00  0.00    -0.354 N 
ATOM     59  N   UNL A   1      41.738  29.287  33.776  1.00  0.00    -0.248 NA
ATOM     60  C   UNL A   1      41.778  30.088  35.968  1.00  0.00     0.031 C 
ATOM     61  C   UNL A   1      44.700  26.424  32.103  1.00  0.00     0.029 A 
ATOM     62  C   UNL A   1      43.787  27.311  32.652  1.00  0.00     0.049 A 
ATOM     63  H   UNL A   1      42.066  28.159  31.769  1.00  0.00     0.167 HD
ATOM     64  C   UNL A   1      42.839  28.753  34.434  1.00  0.00     0.074 A 
ATOM     65  C   UNL A   1      42.833  29.311  35.771  1.00  0.00     0.031 C 
ATOM     66  C   UNL A   1      43.772  27.882  33.976  1.00  0.00     0.037 A 
BRANCH  53  67
ATOM     67  C   UNL A   1      42.829  26.015  28.154  1.00  0.00     0.064 A 
ATOM     68  C   UNL A   1      42.496  24.654  28.071  1.00  0.00     0.173 A 
ATOM     69  C   UNL A   1      43.583  26.567  27.107  1.00  0.00     0.173 A 
ATOM     70  F   UNL A   1      41.788  24.070  29.050  1.00  0.00    -0.203 F 
ATOM     71  C   UNL A   1      42.930  23.872  27.002  1.00  0.00     0.198 A 
ATOM     72  C   UNL A   1      43.984  25.791  26.022  1.00  0.00     0.198 A 
ATOM     73  F   UNL A   1      43.926  27.864  27.130  1.00  0.00    -0.203 F 
ATOM     74  F   UNL A   1      42.649  22.562  26.975  1.00  0.00    -0.200 F 
ATOM     75  C   UNL A   1      43.666  24.443  25.975  1.00  0.00     0.200 A 
ATOM     76  F   UNL A   1      44.684  26.350  25.024  1.00  0.00    -0.200 F 
ATOM     77  F   UNL A   1      44.079  23.691  24.946  1.00  0.00    -0.200 F 
ENDBRANCH  53  67
BRANCH  54  78
ATOM     78  C   UNL A   1      39.421  31.784  35.580  1.00  0.00     0.064 A 
ATOM     79  C   UNL A   1      39.940  33.067  35.804  1.00  0.00     0.173 A 
ATOM     80  C   UNL A   1      38.428  31.321  36.456  1.00  0.00     0.173 A 
ATOM     81  F   UNL A   1      40.907  33.545  35.008  1.00  0.00    -0.203 F 
ATOM     82  C   UNL A   1      39.502  33.844  36.874  1.00  0.00     0.198 A 
ATOM     83  C   UNL A   1      37.967  32.112  37.506  1.00  0.00     0.198 A 
ATOM     84  F   UNL A   1      37.896  30.101  36.287  1.00  0.00    -0.203 F 
ATOM     85  F   UNL A   1      40.053  35.045  37.096  1.00  0.00    -0.200 F 
ATOM     86  C   UNL A   1      38.511  33.370  37.720  1.00  0.00     0.200 A 
ATOM     87  F   UNL A   1      36.998  31.656  38.311  1.00  0.00    -0.200 F 
ATOM     88  F   UNL A   1      38.088  34.119  38.747  1.00  0.00    -0.200 F 
ENDBRANCH  54  78
BRANCH  66  89
ATOM     89  C   UNL A   1      44.894  27.518  34.907  1.00  0.00     0.064 A 
ATOM     90  C   UNL A   1      46.046  28.311  35.029  1.00  0.00     0.173 A 
ATOM     91  C   UNL A   1      44.802  26.371  35.712  1.00  0.00     0.173 A 
ATOM     92  F   UNL A   1      46.191  29.411  34.274  1.00  0.00    -0.203 F 
ATOM     93  C   UNL A   1      47.078  27.948  35.891  1.00  0.00     0.198 A 
ATOM     94  C   UNL A   1      45.818  26.033  36.602  1.00  0.00     0.198 A 
ATOM     95  F   UNL A   1      43.719  25.583  35.645  1.00  0.00    -0.203 F 
ATOM     96  F   UNL A   1      48.195  28.687  35.944  1.00  0.00    -0.200 F 
ATOM     97  C   UNL A   1      46.960  26.815  36.682  1.00  0.00     0.200 A 
ATOM     98  F   UNL A   1      45.693  24.948  37.378  1.00  0.00    -0.200 F 
ATOM     99  F   UNL A   1      47.950  26.472  37.516  1.00  0.00    -0.200 F 
ENDBRANCH  66  89
ENDBRANCH  40  41
ENDBRANCH  33  35
ENDBRANCH  32  33
ENDBRANCH  31  32
ENDBRANCH  30  31
ENDBRANCH  29  30
ENDBRANCH   1  29
TORSDOF 18
ENDMDL
