MODEL 1
REMARK VINA RESULT:     -10.4      0.000      0.000
REMARK SMILES C[C@H]([C@H](C)C(=O)OCCOCCOC(=O)c1ccc(-c2c3nc(c(-c4c(F)c(F)c(F)c(F)c4F)c4ccc([nH]4)c(-c4c(F)c(F)c(F)c(F)c4F)c4nc(c(-c5c(F)c(F)c(F)c(F)c5F)c5ccc2[nH]5)C=C4)C=C3)cc1)[C@H](O)c1cncn1C1CC1
REMARK SMILES IDX 9 1 8 2 7 3 5 4 6 5 3 6 4 7 2 8 1 9 79 10 81 11 82 12 85 13
REMARK SMILES IDX 83 14 84 15 86 16 87 17 88 18 80 19 10 21 11 22 12 23 13 24
REMARK SMILES IDX 14 25 15 26 16 27 17 28 78 29 18 30 77 31 19 32 20 33 21 34
REMARK SMILES IDX 71 35 22 36 76 37 70 38 72 39 23 40 75 41 69 42 68 43 24 45
REMARK SMILES IDX 56 46 36 47 55 48 37 49 40 50 54 51 73 52 38 53 39 54 53 56
REMARK SMILES IDX 74 57 41 58 25 59 26 60 34 61 27 62 28 63 32 64 35 65 29 66
REMARK SMILES IDX 30 67 33 68 31 69 57 70 58 71 66 72 59 73 60 74 64 75 67 76
REMARK SMILES IDX 61 77 62 78 65 79 63 80 42 81 43 82 51 83 44 84 45 85 49 86
REMARK SMILES IDX 52 87 46 88 47 89 50 90 48 91
REMARK H PARENT 80 20 72 44 40 55
REMARK Flexibility Score: inf
ROOT
ATOM      1  C   UNL A   1      32.157  29.441  26.186  1.00  0.00     0.202 C 
ENDROOT
BRANCH   1   2
ATOM      2  C   UNL A   1      31.545  29.528  24.788  1.00  0.00     0.261 C 
BRANCH   2   3
ATOM      3  O   UNL A   1      32.123  28.554  23.895  1.00  0.00    -0.463 OA
BRANCH   3   4
ATOM      4  C   UNL A   1      31.625  27.293  23.989  1.00  0.00     0.309 C 
ATOM      5  O   UNL A   1      30.462  27.015  24.252  1.00  0.00    -0.252 OA
BRANCH   4   6
ATOM      6  C   UNL A   1      32.675  26.224  23.709  1.00  0.00     0.102 C 
ATOM      7  C   UNL A   1      33.544  25.966  24.929  1.00  0.00     0.020 C 
BRANCH   6   8
ATOM      8  C   UNL A   1      32.091  25.030  22.896  1.00  0.00     0.035 C 
ATOM      9  C   UNL A   1      33.259  24.418  22.080  1.00  0.00     0.012 C 
BRANCH   8  10
ATOM     10  C   UNL A   1      31.304  23.848  23.534  1.00  0.00     0.166 C 
BRANCH  10  11
ATOM     11  C   UNL A   1      31.410  23.556  24.981  1.00  0.00     0.067 A 
ATOM     12  C   UNL A   1      30.649  24.049  26.033  1.00  0.00     0.137 A 
ATOM     13  N   UNL A   1      32.237  22.633  25.598  1.00  0.00    -0.329 N 
ATOM     14  N   UNL A   1      31.070  23.567  27.244  1.00  0.00    -0.245 NA
ATOM     15  C   UNL A   1      32.030  22.723  26.950  1.00  0.00     0.199 A 
BRANCH  13  16
ATOM     16  C   UNL A   1      33.166  21.648  25.067  1.00  0.00     0.088 C 
ATOM     17  C   UNL A   1      34.478  22.026  24.404  1.00  0.00     0.027 C 
ATOM     18  C   UNL A   1      34.491  21.269  25.690  1.00  0.00     0.027 C 
ENDBRANCH  13  16
ENDBRANCH  10  11
BRANCH  10  19
ATOM     19  O   UNL A   1      29.904  24.083  23.325  1.00  0.00    -0.387 OA
ATOM     20  H   UNL A   1      29.479  23.261  23.032  1.00  0.00     0.211 HD
ENDBRANCH  10  19
ENDBRANCH   8  10
ENDBRANCH   6   8
ENDBRANCH   4   6
ENDBRANCH   3   4
ENDBRANCH   2   3
ENDBRANCH   1   2
BRANCH   1  21
ATOM     21  O   UNL A   1      31.922  30.579  27.017  1.00  0.00    -0.374 OA
BRANCH  21  22
ATOM     22  C   UNL A   1      31.404  31.731  26.349  1.00  0.00     0.202 C 
BRANCH  22  23
ATOM     23  C   UNL A   1      31.933  33.068  26.870  1.00  0.00     0.261 C 
BRANCH  23  24
ATOM     24  O   UNL A   1      32.855  32.860  27.953  1.00  0.00    -0.460 OA
BRANCH  24  25
ATOM     25  C   UNL A   1      33.880  33.738  28.010  1.00  0.00     0.338 C 
ATOM     26  O   UNL A   1      33.818  34.954  27.953  1.00  0.00    -0.246 OA
BRANCH  25  27
ATOM     27  C   UNL A   1      35.132  33.025  28.338  1.00  0.00     0.060 A 
ATOM     28  C   UNL A   1      35.027  31.659  28.624  1.00  0.00     0.016 A 
ATOM     29  C   UNL A   1      36.368  33.672  28.422  1.00  0.00     0.016 A 
ATOM     30  C   UNL A   1      36.139  30.949  29.068  1.00  0.00     0.010 A 
ATOM     31  C   UNL A   1      37.484  32.960  28.877  1.00  0.00     0.010 A 
ATOM     32  C   UNL A   1      37.363  31.608  29.244  1.00  0.00    -0.014 A 
BRANCH  32  33
ATOM     33  C   UNL A   1      38.453  30.910  29.969  1.00  0.00     0.031 A 
ATOM     34  C   UNL A   1      38.671  31.217  31.425  1.00  0.00     0.074 A 
ATOM     35  C   UNL A   1      39.193  29.964  29.362  1.00  0.00     0.049 A 
ATOM     36  N   UNL A   1      39.537  30.707  32.264  1.00  0.00    -0.248 NA
ATOM     37  C   UNL A   1      37.788  32.234  32.018  1.00  0.00     0.031 C 
ATOM     38  C   UNL A   1      39.050  29.546  27.970  1.00  0.00     0.029 A 
ATOM     39  N   UNL A   1      40.211  29.182  29.849  1.00  0.00    -0.354 N 
ATOM     40  C   UNL A   1      39.305  31.340  33.478  1.00  0.00     0.074 A 
ATOM     41  C   UNL A   1      38.240  32.294  33.262  1.00  0.00     0.031 C 
ATOM     42  C   UNL A   1      39.951  28.582  27.711  1.00  0.00     0.029 A 
ATOM     43  C   UNL A   1      40.750  28.336  28.912  1.00  0.00     0.049 A 
ATOM     44  H   UNL A   1      40.523  29.223  30.781  1.00  0.00     0.167 HD
ATOM     45  C   UNL A   1      39.917  31.136  34.668  1.00  0.00     0.037 A 
ATOM     46  C   UNL A   1      41.780  27.475  29.010  1.00  0.00     0.037 A 
ATOM     47  C   UNL A   1      40.976  30.186  34.885  1.00  0.00     0.049 A 
ATOM     48  C   UNL A   1      42.494  27.319  30.329  1.00  0.00     0.074 A 
ATOM     49  C   UNL A   1      41.644  29.891  36.061  1.00  0.00     0.029 A 
ATOM     50  N   UNL A   1      41.528  29.380  33.899  1.00  0.00    -0.354 N 
ATOM     51  N   UNL A   1      42.247  27.897  31.479  1.00  0.00    -0.248 NA
ATOM     52  C   UNL A   1      43.630  26.387  30.362  1.00  0.00     0.031 C 
ATOM     53  C   UNL A   1      42.635  28.945  35.775  1.00  0.00     0.029 A 
ATOM     54  C   UNL A   1      42.548  28.611  34.434  1.00  0.00     0.049 A 
ATOM     55  H   UNL A   1      41.237  29.359  32.959  1.00  0.00     0.167 HD
ATOM     56  C   UNL A   1      43.173  27.378  32.376  1.00  0.00     0.074 A 
ATOM     57  C   UNL A   1      43.980  26.429  31.639  1.00  0.00     0.031 C 
ATOM     58  C   UNL A   1      43.339  27.663  33.691  1.00  0.00     0.037 A 
BRANCH  45  59
ATOM     59  C   UNL A   1      39.472  31.977  35.829  1.00  0.00     0.064 A 
ATOM     60  C   UNL A   1      38.438  31.569  36.682  1.00  0.00     0.173 A 
ATOM     61  C   UNL A   1      40.117  33.191  36.111  1.00  0.00     0.173 A 
ATOM     62  F   UNL A   1      37.782  30.422  36.448  1.00  0.00    -0.203 F 
ATOM     63  C   UNL A   1      38.048  32.357  37.762  1.00  0.00     0.198 A 
ATOM     64  C   UNL A   1      39.744  33.963  37.207  1.00  0.00     0.198 A 
ATOM     65  F   UNL A   1      41.117  33.625  35.328  1.00  0.00    -0.203 F 
ATOM     66  F   UNL A   1      37.028  31.968  38.540  1.00  0.00    -0.200 F 
ATOM     67  C   UNL A   1      38.705  33.548  38.028  1.00  0.00     0.200 A 
ATOM     68  F   UNL A   1      40.388  35.107  37.470  1.00  0.00    -0.200 F 
ATOM     69  F   UNL A   1      38.335  34.301  39.073  1.00  0.00    -0.200 F 
ENDBRANCH  45  59
BRANCH  46  70
ATOM     70  C   UNL A   1      42.210  26.693  27.822  1.00  0.00     0.064 A 
ATOM     71  C   UNL A   1      41.620  25.461  27.511  1.00  0.00     0.173 A 
ATOM     72  C   UNL A   1      43.239  27.153  26.985  1.00  0.00     0.173 A 
ATOM     73  F   UNL A   1      40.652  24.965  28.297  1.00  0.00    -0.203 F 
ATOM     74  C   UNL A   1      42.053  24.710  26.420  1.00  0.00     0.198 A 
ATOM     75  C   UNL A   1      43.650  26.416  25.878  1.00  0.00     0.198 A 
ATOM     76  F   UNL A   1      43.841  28.324  27.242  1.00  0.00    -0.203 F 
ATOM     77  F   UNL A   1      41.505  23.513  26.173  1.00  0.00    -0.200 F 
ATOM     78  C   UNL A   1      43.064  25.191  25.601  1.00  0.00     0.200 A 
ATOM     79  F   UNL A   1      44.621  26.889  25.083  1.00  0.00    -0.200 F 
ATOM     80  F   UNL A   1      43.479  24.470  24.550  1.00  0.00    -0.200 F 
ENDBRANCH  46  70
BRANCH  58  81
ATOM     81  C   UNL A   1      44.409  26.914  34.432  1.00  0.00     0.064 A 
ATOM     82  C   UNL A   1      45.702  27.436  34.586  1.00  0.00     0.173 A 
ATOM     83  C   UNL A   1      44.125  25.678  35.034  1.00  0.00     0.173 A 
ATOM     84  F   UNL A   1      46.029  28.607  34.019  1.00  0.00    -0.203 F 
ATOM     85  C   UNL A   1      46.677  26.737  35.293  1.00  0.00     0.198 A 
ATOM     86  C   UNL A   1      45.093  24.996  35.765  1.00  0.00     0.198 A 
ATOM     87  F   UNL A   1      42.902  25.138  34.924  1.00  0.00    -0.203 F 
ATOM     88  F   UNL A   1      47.919  27.232  35.388  1.00  0.00    -0.200 F 
ATOM     89  C   UNL A   1      46.370  25.522  35.888  1.00  0.00     0.200 A 
ATOM     90  F   UNL A   1      44.790  23.830  36.351  1.00  0.00    -0.200 F 
ATOM     91  F   UNL A   1      47.308  24.854  36.575  1.00  0.00    -0.200 F 
ENDBRANCH  58  81
ENDBRANCH  32  33
ENDBRANCH  25  27
ENDBRANCH  24  25
ENDBRANCH  23  24
ENDBRANCH  22  23
ENDBRANCH  21  22
ENDBRANCH   1  21
TORSDOF 19
ENDMDL
MODEL 2
REMARK VINA RESULT:     -10.3      1.159      7.506
REMARK SMILES C[C@H]([C@H](C)C(=O)OCCOCCOC(=O)c1ccc(-c2c3nc(c(-c4c(F)c(F)c(F)c(F)c4F)c4ccc([nH]4)c(-c4c(F)c(F)c(F)c(F)c4F)c4nc(c(-c5c(F)c(F)c(F)c(F)c5F)c5ccc2[nH]5)C=C4)C=C3)cc1)[C@H](O)c1cncn1C1CC1
REMARK SMILES IDX 9 1 8 2 7 3 5 4 6 5 3 6 4 7 2 8 1 9 79 10 81 11 82 12 85 13
REMARK SMILES IDX 83 14 84 15 86 16 87 17 88 18 80 19 10 21 11 22 12 23 13 24
REMARK SMILES IDX 14 25 15 26 16 27 17 28 78 29 18 30 77 31 19 32 20 33 21 34
REMARK SMILES IDX 71 35 22 36 76 37 70 38 72 39 23 40 75 41 69 42 68 43 24 45
REMARK SMILES IDX 56 46 36 47 55 48 37 49 40 50 54 51 73 52 38 53 39 54 53 56
REMARK SMILES IDX 74 57 41 58 25 59 26 60 34 61 27 62 28 63 32 64 35 65 29 66
REMARK SMILES IDX 30 67 33 68 31 69 57 70 58 71 66 72 59 73 60 74 64 75 67 76
REMARK SMILES IDX 61 77 62 78 65 79 63 80 42 81 43 82 51 83 44 84 45 85 49 86
REMARK SMILES IDX 52 87 46 88 47 89 50 90 48 91
REMARK H PARENT 80 20 72 44 40 55
REMARK Flexibility Score: inf
ROOT
ATOM      1  C   UNL A   1      31.114  28.851  22.869  1.00  0.00     0.202 C 
ENDROOT
BRANCH   1   2
ATOM      2  C   UNL A   1      31.388  27.413  22.431  1.00  0.00     0.261 C 
BRANCH   2   3
ATOM      3  O   UNL A   1      32.802  27.151  22.329  1.00  0.00    -0.463 OA
BRANCH   3   4
ATOM      4  C   UNL A   1      33.148  25.893  21.948  1.00  0.00     0.309 C 
ATOM      5  O   UNL A   1      32.784  25.348  20.913  1.00  0.00    -0.252 OA
BRANCH   4   6
ATOM      6  C   UNL A   1      34.076  25.210  22.946  1.00  0.00     0.102 C 
ATOM      7  C   UNL A   1      34.041  25.902  24.299  1.00  0.00     0.020 C 
BRANCH   6   8
ATOM      8  C   UNL A   1      33.987  23.657  22.858  1.00  0.00     0.035 C 
ATOM      9  C   UNL A   1      35.277  23.089  23.503  1.00  0.00     0.012 C 
BRANCH   8  10
ATOM     10  C   UNL A   1      32.791  22.823  23.404  1.00  0.00     0.166 C 
BRANCH  10  11
ATOM     11  C   UNL A   1      31.981  23.310  24.544  1.00  0.00     0.067 A 
ATOM     12  C   UNL A   1      30.826  24.081  24.531  1.00  0.00     0.137 A 
ATOM     13  N   UNL A   1      32.144  23.010  25.884  1.00  0.00    -0.329 N 
ATOM     14  N   UNL A   1      30.378  24.359  25.796  1.00  0.00    -0.245 NA
ATOM     15  C   UNL A   1      31.195  23.706  26.587  1.00  0.00     0.199 A 
BRANCH  13  16
ATOM     16  C   UNL A   1      33.056  22.115  26.580  1.00  0.00     0.088 C 
ATOM     17  C   UNL A   1      34.479  22.503  26.938  1.00  0.00     0.027 C 
ATOM     18  C   UNL A   1      33.486  22.253  28.024  1.00  0.00     0.027 C 
ENDBRANCH  13  16
ENDBRANCH  10  11
BRANCH  10  19
ATOM     19  O   UNL A   1      31.842  22.661  22.342  1.00  0.00    -0.387 OA
ATOM     20  H   UNL A   1      32.300  22.353  21.543  1.00  0.00     0.211 HD
ENDBRANCH  10  19
ENDBRANCH   8  10
ENDBRANCH   6   8
ENDBRANCH   4   6
ENDBRANCH   3   4
ENDBRANCH   2   3
ENDBRANCH   1   2
BRANCH   1  21
ATOM     21  O   UNL A   1      30.515  28.982  24.160  1.00  0.00    -0.374 OA
BRANCH  21  22
ATOM     22  C   UNL A   1      31.428  29.045  25.258  1.00  0.00     0.202 C 
BRANCH  22  23
ATOM     23  C   UNL A   1      31.745  30.458  25.750  1.00  0.00     0.261 C 
BRANCH  23  24
ATOM     24  O   UNL A   1      32.527  30.412  26.954  1.00  0.00    -0.460 OA
BRANCH  24  25
ATOM     25  C   UNL A   1      33.193  31.549  27.250  1.00  0.00     0.338 C 
ATOM     26  O   UNL A   1      32.752  32.685  27.259  1.00  0.00    -0.246 OA
BRANCH  25  27
ATOM     27  C   UNL A   1      34.543  31.221  27.753  1.00  0.00     0.060 A 
ATOM     28  C   UNL A   1      34.810  29.873  28.020  1.00  0.00     0.016 A 
ATOM     29  C   UNL A   1      35.508  32.198  28.013  1.00  0.00     0.016 A 
ATOM     30  C   UNL A   1      36.011  29.502  28.617  1.00  0.00     0.010 A 
ATOM     31  C   UNL A   1      36.712  31.826  28.622  1.00  0.00     0.010 A 
ATOM     32  C   UNL A   1      36.949  30.483  28.967  1.00  0.00    -0.014 A 
BRANCH  32  33
ATOM     33  C   UNL A   1      38.088  30.105  29.840  1.00  0.00     0.031 A 
ATOM     34  C   UNL A   1      39.132  29.164  29.306  1.00  0.00     0.074 A 
ATOM     35  C   UNL A   1      38.230  30.645  31.063  1.00  0.00     0.049 A 
ATOM     36  N   UNL A   1      40.225  28.722  29.876  1.00  0.00    -0.248 NA
ATOM     37  C   UNL A   1      38.918  28.655  27.942  1.00  0.00     0.031 C 
ATOM     38  C   UNL A   1      37.311  31.600  31.676  1.00  0.00     0.029 A 
ATOM     39  N   UNL A   1      39.211  30.466  32.007  1.00  0.00    -0.354 N 
ATOM     40  C   UNL A   1      40.825  27.886  28.943  1.00  0.00     0.074 A 
ATOM     41  C   UNL A   1      39.962  27.855  27.784  1.00  0.00     0.031 C 
ATOM     42  C   UNL A   1      37.769  31.923  32.897  1.00  0.00     0.029 A 
ATOM     43  C   UNL A   1      39.000  31.177  33.162  1.00  0.00     0.049 A 
ATOM     44  H   UNL A   1      39.992  29.883  31.868  1.00  0.00     0.167 HD
ATOM     45  C   UNL A   1      41.998  27.215  29.041  1.00  0.00     0.037 A 
ATOM     46  C   UNL A   1      39.711  31.208  34.305  1.00  0.00     0.037 A 
ATOM     47  C   UNL A   1      42.859  27.246  30.193  1.00  0.00     0.049 A 
ATOM     48  C   UNL A   1      40.974  30.393  34.416  1.00  0.00     0.074 A 
ATOM     49  C   UNL A   1      44.077  26.617  30.378  1.00  0.00     0.029 A 
ATOM     50  N   UNL A   1      42.587  27.942  31.363  1.00  0.00    -0.354 N 
ATOM     51  N   UNL A   1      41.551  29.631  33.518  1.00  0.00    -0.248 NA
ATOM     52  C   UNL A   1      41.686  30.446  35.701  1.00  0.00     0.031 C 
ATOM     53  C   UNL A   1      44.517  26.889  31.678  1.00  0.00     0.029 A 
ATOM     54  C   UNL A   1      43.600  27.732  32.283  1.00  0.00     0.049 A 
ATOM     55  H   UNL A   1      41.791  28.502  31.515  1.00  0.00     0.167 HD
ATOM     56  C   UNL A   1      42.705  29.140  34.117  1.00  0.00     0.074 A 
ATOM     57  C   UNL A   1      42.753  29.700  35.451  1.00  0.00     0.031 C 
ATOM     58  C   UNL A   1      43.640  28.302  33.606  1.00  0.00     0.037 A 
BRANCH  45  59
ATOM     59  C   UNL A   1      42.407  26.364  27.875  1.00  0.00     0.064 A 
ATOM     60  C   UNL A   1      41.910  25.064  27.700  1.00  0.00     0.173 A 
ATOM     61  C   UNL A   1      43.278  26.871  26.899  1.00  0.00     0.173 A 
ATOM     62  F   UNL A   1      41.084  24.528  28.611  1.00  0.00    -0.203 F 
ATOM     63  C   UNL A   1      42.291  24.294  26.604  1.00  0.00     0.198 A 
ATOM     64  C   UNL A   1      43.634  26.109  25.790  1.00  0.00     0.198 A 
ATOM     65  F   UNL A   1      43.777  28.112  27.016  1.00  0.00    -0.203 F 
ATOM     66  F   UNL A   1      41.837  23.039  26.478  1.00  0.00    -0.200 F 
ATOM     67  C   UNL A   1      43.145  24.819  25.646  1.00  0.00     0.200 A 
ATOM     68  F   UNL A   1      44.450  26.623  24.860  1.00  0.00    -0.200 F 
ATOM     69  F   UNL A   1      43.503  24.080  24.588  1.00  0.00    -0.200 F 
ENDBRANCH  45  59
BRANCH  46  70
ATOM     70  C   UNL A   1      39.243  32.035  35.447  1.00  0.00     0.064 A 
ATOM     71  C   UNL A   1      39.616  33.380  35.571  1.00  0.00     0.173 A 
ATOM     72  C   UNL A   1      38.430  31.489  36.453  1.00  0.00     0.173 A 
ATOM     73  F   UNL A   1      40.416  33.940  34.650  1.00  0.00    -0.203 F 
ATOM     74  C   UNL A   1      39.211  34.142  36.665  1.00  0.00     0.198 A 
ATOM     75  C   UNL A   1      38.001  32.260  37.530  1.00  0.00     0.198 A 
ATOM     76  F   UNL A   1      38.049  30.205  36.385  1.00  0.00    -0.203 F 
ATOM     77  F   UNL A   1      39.621  35.412  36.784  1.00  0.00    -0.200 F 
ATOM     78  C   UNL A   1      38.399  33.584  37.640  1.00  0.00     0.200 A 
ATOM     79  F   UNL A   1      37.208  31.718  38.466  1.00  0.00    -0.200 F 
ATOM     80  F   UNL A   1      38.006  34.317  38.691  1.00  0.00    -0.200 F 
ENDBRANCH  46  70
BRANCH  58  81
ATOM     81  C   UNL A   1      44.817  27.965  34.476  1.00  0.00     0.064 A 
ATOM     82  C   UNL A   1      45.968  28.766  34.504  1.00  0.00     0.173 A 
ATOM     83  C   UNL A   1      44.774  26.848  35.326  1.00  0.00     0.173 A 
ATOM     84  F   UNL A   1      46.065  29.836  33.701  1.00  0.00    -0.203 F 
ATOM     85  C   UNL A   1      47.041  28.448  35.332  1.00  0.00     0.198 A 
ATOM     86  C   UNL A   1      45.837  26.550  36.174  1.00  0.00     0.198 A 
ATOM     87  F   UNL A   1      43.693  26.053  35.344  1.00  0.00    -0.203 F 
ATOM     88  F   UNL A   1      48.150  29.201  35.308  1.00  0.00    -0.200 F 
ATOM     89  C   UNL A   1      46.972  27.346  36.171  1.00  0.00     0.200 A 
ATOM     90  F   UNL A   1      45.762  25.493  36.994  1.00  0.00    -0.200 F 
ATOM     91  F   UNL A   1      48.004  27.046  36.973  1.00  0.00    -0.200 F 
ENDBRANCH  58  81
ENDBRANCH  32  33
ENDBRANCH  25  27
ENDBRANCH  24  25
ENDBRANCH  23  24
ENDBRANCH  22  23
ENDBRANCH  21  22
ENDBRANCH   1  21
TORSDOF 19
ENDMDL
MODEL 3
REMARK VINA RESULT:     -10.3      1.120      2.207
REMARK SMILES C[C@H]([C@H](C)C(=O)OCCOCCOC(=O)c1ccc(-c2c3nc(c(-c4c(F)c(F)c(F)c(F)c4F)c4ccc([nH]4)c(-c4c(F)c(F)c(F)c(F)c4F)c4nc(c(-c5c(F)c(F)c(F)c(F)c5F)c5ccc2[nH]5)C=C4)C=C3)cc1)[C@H](O)c1cncn1C1CC1
REMARK SMILES IDX 9 1 8 2 7 3 5 4 6 5 3 6 4 7 2 8 1 9 79 10 81 11 82 12 85 13
REMARK SMILES IDX 83 14 84 15 86 16 87 17 88 18 80 19 10 21 11 22 12 23 13 24
REMARK SMILES IDX 14 25 15 26 16 27 17 28 78 29 18 30 77 31 19 32 20 33 21 34
REMARK SMILES IDX 71 35 22 36 76 37 70 38 72 39 23 40 75 41 69 42 68 43 24 45
REMARK SMILES IDX 56 46 36 47 55 48 37 49 40 50 54 51 73 52 38 53 39 54 53 56
REMARK SMILES IDX 74 57 41 58 25 59 26 60 34 61 27 62 28 63 32 64 35 65 29 66
REMARK SMILES IDX 30 67 33 68 31 69 57 70 58 71 66 72 59 73 60 74 64 75 67 76
REMARK SMILES IDX 61 77 62 78 65 79 63 80 42 81 43 82 51 83 44 84 45 85 49 86
REMARK SMILES IDX 52 87 46 88 47 89 50 90 48 91
REMARK H PARENT 80 20 72 44 40 55
REMARK Flexibility Score: inf
ROOT
ATOM      1  C   UNL A   1      32.616  28.956  24.039  1.00  0.00     0.202 C 
ENDROOT
BRANCH   1   2
ATOM      2  C   UNL A   1      32.247  27.474  23.962  1.00  0.00     0.261 C 
BRANCH   2   3
ATOM      3  O   UNL A   1      31.184  27.145  24.878  1.00  0.00    -0.463 OA
BRANCH   3   4
ATOM      4  C   UNL A   1      31.319  25.971  25.549  1.00  0.00     0.309 C 
ATOM      5  O   UNL A   1      30.644  25.631  26.512  1.00  0.00    -0.252 OA
BRANCH   4   6
ATOM      6  C   UNL A   1      32.408  25.080  24.961  1.00  0.00     0.102 C 
ATOM      7  C   UNL A   1      33.608  24.984  25.890  1.00  0.00     0.020 C 
BRANCH   6   8
ATOM      8  C   UNL A   1      31.820  23.795  24.305  1.00  0.00     0.035 C 
ATOM      9  C   UNL A   1      30.589  24.231  23.469  1.00  0.00     0.012 C 
BRANCH   8  10
ATOM     10  C   UNL A   1      32.649  22.811  23.428  1.00  0.00     0.166 C 
BRANCH  10  11
ATOM     11  C   UNL A   1      33.220  21.573  24.004  1.00  0.00     0.067 A 
ATOM     12  C   UNL A   1      32.679  20.294  24.043  1.00  0.00     0.137 A 
ATOM     13  N   UNL A   1      34.481  21.397  24.546  1.00  0.00    -0.329 N 
ATOM     14  N   UNL A   1      33.496  19.409  24.694  1.00  0.00    -0.245 NA
ATOM     15  C   UNL A   1      34.569  20.103  24.990  1.00  0.00     0.199 A 
BRANCH  13  16
ATOM     16  C   UNL A   1      35.627  22.286  24.657  1.00  0.00     0.088 C 
ATOM     17  C   UNL A   1      37.028  21.880  24.235  1.00  0.00     0.027 C 
ATOM     18  C   UNL A   1      36.320  22.969  23.500  1.00  0.00     0.027 C 
ENDBRANCH  13  16
ENDBRANCH  10  11
BRANCH  10  19
ATOM     19  O   UNL A   1      31.805  22.347  22.364  1.00  0.00    -0.387 OA
ATOM     20  H   UNL A   1      32.353  22.096  21.604  1.00  0.00     0.211 HD
ENDBRANCH  10  19
ENDBRANCH   8  10
ENDBRANCH   6   8
ENDBRANCH   4   6
ENDBRANCH   3   4
ENDBRANCH   2   3
ENDBRANCH   1   2
BRANCH   1  21
ATOM     21  O   UNL A   1      32.541  29.526  25.348  1.00  0.00    -0.374 OA
BRANCH  21  22
ATOM     22  C   UNL A   1      31.419  30.378  25.583  1.00  0.00     0.202 C 
BRANCH  22  23
ATOM     23  C   UNL A   1      31.698  31.570  26.500  1.00  0.00     0.261 C 
BRANCH  23  24
ATOM     24  O   UNL A   1      32.803  31.288  27.374  1.00  0.00    -0.460 OA
BRANCH  24  25
ATOM     25  C   UNL A   1      33.619  32.335  27.623  1.00  0.00     0.338 C 
ATOM     26  O   UNL A   1      33.314  33.514  27.686  1.00  0.00    -0.246 OA
BRANCH  25  27
ATOM     27  C   UNL A   1      34.961  31.845  28.000  1.00  0.00     0.060 A 
ATOM     28  C   UNL A   1      35.108  30.462  28.164  1.00  0.00     0.016 A 
ATOM     29  C   UNL A   1      36.037  32.704  28.242  1.00  0.00     0.016 A 
ATOM     30  C   UNL A   1      36.305  29.938  28.643  1.00  0.00     0.010 A 
ATOM     31  C   UNL A   1      37.237  32.177  28.733  1.00  0.00     0.010 A 
ATOM     32  C   UNL A   1      37.360  30.798  28.977  1.00  0.00    -0.014 A 
BRANCH  32  33
ATOM     33  C   UNL A   1      38.514  30.253  29.735  1.00  0.00     0.031 A 
ATOM     34  C   UNL A   1      38.713  30.680  31.163  1.00  0.00     0.074 A 
ATOM     35  C   UNL A   1      39.331  29.337  29.186  1.00  0.00     0.049 A 
ATOM     36  N   UNL A   1      39.627  30.311  32.023  1.00  0.00    -0.248 NA
ATOM     37  C   UNL A   1      37.746  31.653  31.695  1.00  0.00     0.031 C 
ATOM     38  C   UNL A   1      39.218  28.810  27.828  1.00  0.00     0.029 A 
ATOM     39  N   UNL A   1      40.419  28.685  29.712  1.00  0.00    -0.354 N 
ATOM     40  C   UNL A   1      39.348  31.005  33.193  1.00  0.00     0.074 A 
ATOM     41  C   UNL A   1      38.199  31.841  32.925  1.00  0.00     0.031 C 
ATOM     42  C   UNL A   1      40.200  27.915  27.625  1.00  0.00     0.029 A 
ATOM     43  C   UNL A   1      41.026  27.827  28.830  1.00  0.00     0.049 A 
ATOM     44  H   UNL A   1      40.733  28.820  30.635  1.00  0.00     0.167 HD
ATOM     45  C   UNL A   1      39.984  30.940  34.387  1.00  0.00     0.037 A 
ATOM     46  C   UNL A   1      42.131  27.071  28.974  1.00  0.00     0.037 A 
ATOM     47  C   UNL A   1      41.125  30.107  34.655  1.00  0.00     0.049 A 
ATOM     48  C   UNL A   1      42.865  27.073  30.291  1.00  0.00     0.074 A 
ATOM     49  C   UNL A   1      41.825  29.957  35.840  1.00  0.00     0.029 A 
ATOM     50  N   UNL A   1      41.741  29.286  33.721  1.00  0.00    -0.354 N 
ATOM     51  N   UNL A   1      42.574  27.707  31.401  1.00  0.00    -0.248 NA
ATOM     52  C   UNL A   1      44.080  26.251  30.373  1.00  0.00     0.031 C 
ATOM     53  C   UNL A   1      42.896  29.086  35.608  1.00  0.00     0.029 A 
ATOM     54  C   UNL A   1      42.830  28.651  34.295  1.00  0.00     0.049 A 
ATOM     55  H   UNL A   1      41.446  29.173  32.788  1.00  0.00     0.167 HD
ATOM     56  C   UNL A   1      43.550  27.337  32.319  1.00  0.00     0.074 A 
ATOM     57  C   UNL A   1      44.434  26.415  31.640  1.00  0.00     0.031 C 
ATOM     58  C   UNL A   1      43.698  27.728  33.609  1.00  0.00     0.037 A 
BRANCH  45  59
ATOM     59  C   UNL A   1      39.472  31.818  35.491  1.00  0.00     0.064 A 
ATOM     60  C   UNL A   1      39.917  33.139  35.650  1.00  0.00     0.173 A 
ATOM     61  C   UNL A   1      38.496  31.342  36.380  1.00  0.00     0.173 A 
ATOM     62  F   UNL A   1      40.858  33.637  34.834  1.00  0.00    -0.203 F 
ATOM     63  C   UNL A   1      39.421  33.943  36.672  1.00  0.00     0.198 A 
ATOM     64  C   UNL A   1      37.982  32.158  37.383  1.00  0.00     0.198 A 
ATOM     65  F   UNL A   1      38.033  30.088  36.268  1.00  0.00    -0.203 F 
ATOM     66  F   UNL A   1      39.891  35.188  36.832  1.00  0.00    -0.200 F 
ATOM     67  C   UNL A   1      38.449  33.456  37.533  1.00  0.00     0.200 A 
ATOM     68  F   UNL A   1      37.034  31.690  38.206  1.00  0.00    -0.200 F 
ATOM     69  F   UNL A   1      37.966  34.234  38.511  1.00  0.00    -0.200 F 
ENDBRANCH  45  59
BRANCH  46  70
ATOM     70  C   UNL A   1      42.621  26.249  27.837  1.00  0.00     0.064 A 
ATOM     71  C   UNL A   1      43.511  26.775  26.891  1.00  0.00     0.173 A 
ATOM     72  C   UNL A   1      42.190  24.925  27.661  1.00  0.00     0.173 A 
ATOM     73  F   UNL A   1      43.929  28.045  27.000  1.00  0.00    -0.203 F 
ATOM     74  C   UNL A   1      43.937  26.016  25.803  1.00  0.00     0.198 A 
ATOM     75  C   UNL A   1      42.640  24.158  26.590  1.00  0.00     0.198 A 
ATOM     76  F   UNL A   1      41.335  24.374  28.535  1.00  0.00    -0.203 F 
ATOM     77  F   UNL A   1      44.749  26.559  24.887  1.00  0.00    -0.200 F 
ATOM     78  C   UNL A   1      43.506  24.706  25.656  1.00  0.00     0.200 A 
ATOM     79  F   UNL A   1      42.228  22.888  26.457  1.00  0.00    -0.200 F 
ATOM     80  F   UNL A   1      43.917  23.975  24.611  1.00  0.00    -0.200 F 
ENDBRANCH  46  70
BRANCH  58  81
ATOM     81  C   UNL A   1      44.837  27.133  34.386  1.00  0.00     0.064 A 
ATOM     82  C   UNL A   1      46.085  27.768  34.469  1.00  0.00     0.173 A 
ATOM     83  C   UNL A   1      44.663  25.932  35.094  1.00  0.00     0.173 A 
ATOM     84  F   UNL A   1      46.307  28.909  33.801  1.00  0.00    -0.203 F 
ATOM     85  C   UNL A   1      47.123  27.211  35.210  1.00  0.00     0.198 A 
ATOM     86  C   UNL A   1      45.694  25.394  35.858  1.00  0.00     0.198 A 
ATOM     87  F   UNL A   1      43.487  25.288  35.055  1.00  0.00    -0.203 F 
ATOM     88  F   UNL A   1      48.322  27.810  35.238  1.00  0.00    -0.200 F 
ATOM     89  C   UNL A   1      46.925  26.029  35.910  1.00  0.00     0.200 A 
ATOM     90  F   UNL A   1      45.496  24.260  36.544  1.00  0.00    -0.200 F 
ATOM     91  F   UNL A   1      47.924  25.499  36.629  1.00  0.00    -0.200 F 
ENDBRANCH  58  81
ENDBRANCH  32  33
ENDBRANCH  25  27
ENDBRANCH  24  25
ENDBRANCH  23  24
ENDBRANCH  22  23
ENDBRANCH  21  22
ENDBRANCH   1  21
TORSDOF 19
ENDMDL
