MODEL 1
REMARK VINA RESULT:      -8.5      0.000      0.000
REMARK SMILES O=C(CCOc1cccc(/C=C2/SC(=S)N(c3ccc(Cl)c(Cl)c3)C2=O)c1)OCCOCCOC(=O)c1ccc(-c2c3nc(c(-c4c(F)c(F)c(F)c(F)c4F)c4ccc([nH]4)c(-c4c(F)c(F)c(F)c(F)c4F)c4nc(c(-c5c(F)c(F)c(F)c(F)c5F)c5ccc2[nH]5)C=C4)C=C3)cc1
REMARK SMILES IDX 29 1 28 2 2 3 1 4 3 5 4 6 5 7 6 8 7 9 27 10 8 11 10 12 9 13
REMARK SMILES IDX 11 14 12 15 13 16 25 17 14 18 16 19 26 20 15 21 17 22 18 23
REMARK SMILES IDX 24 24 19 25 22 26 20 27 23 28 21 29 30 30 31 31 32 32 33 33
REMARK SMILES IDX 34 34 35 35 36 36 37 37 38 38 99 39 39 40 98 41 40 42 41 43
REMARK SMILES IDX 42 44 92 45 43 46 97 47 91 48 93 49 44 50 96 51 90 52 89 53
REMARK SMILES IDX 45 55 77 56 57 57 76 58 58 59 61 60 75 61 94 62 59 63 60 64
REMARK SMILES IDX 74 66 95 67 62 68 46 69 47 70 55 71 48 72 49 73 53 74 56 75
REMARK SMILES IDX 50 76 51 77 54 78 52 79 78 80 79 81 87 82 80 83 81 84 85 85
REMARK SMILES IDX 88 86 82 87 83 88 86 89 84 90 63 91 64 92 72 93 65 94 66 95
REMARK SMILES IDX 70 96 73 97 67 98 68 99 71 100 69 101
REMARK H PARENT 93 54 61 65
REMARK Flexibility Score: inf
ROOT
ATOM      1  C   UNL A   1      35.444  34.370  32.511  1.00  0.00     0.261 C 
ENDROOT
BRANCH   1   2
ATOM      2  O   UNL A   1      36.817  34.528  32.131  1.00  0.00    -0.463 OA
BRANCH   2   3
ATOM      3  C   UNL A   1      37.877  34.620  32.954  1.00  0.00     0.309 C 
ATOM      4  O   UNL A   1      37.706  34.833  34.156  1.00  0.00    -0.252 OA
BRANCH   3   5
ATOM      5  C   UNL A   1      39.256  34.484  32.386  1.00  0.00     0.164 C 
BRANCH   5   6
ATOM      6  C   UNL A   1      39.422  34.734  30.886  1.00  0.00     0.241 C 
BRANCH   6   7
ATOM      7  O   UNL A   1      40.383  33.906  30.213  1.00  0.00    -0.493 OA
BRANCH   7   8
ATOM      8  C   UNL A   1      41.252  34.580  29.392  1.00  0.00     0.119 A 
ATOM      9  C   UNL A   1      40.829  35.393  28.345  1.00  0.00     0.046 A 
ATOM     10  C   UNL A   1      42.622  34.453  29.674  1.00  0.00     0.054 A 
ATOM     11  C   UNL A   1      41.793  36.034  27.557  1.00  0.00     0.004 A 
ATOM     12  C   UNL A   1      43.604  34.996  28.829  1.00  0.00    -0.021 A 
ATOM     13  C   UNL A   1      43.169  35.824  27.786  1.00  0.00     0.008 A 
BRANCH  12  14
ATOM     14  C   UNL A   1      45.039  34.716  29.122  1.00  0.00     0.029 C 
ATOM     15  C   UNL A   1      45.786  33.610  28.903  1.00  0.00     0.081 C 
ATOM     16  S   UNL A   1      47.441  33.448  29.367  1.00  0.00    -0.054 SA
ATOM     17  C   UNL A   1      45.358  32.325  28.282  1.00  0.00     0.270 C 
ATOM     18  C   UNL A   1      47.609  31.821  28.684  1.00  0.00     0.152 C 
ATOM     19  N   UNL A   1      46.423  31.420  28.110  1.00  0.00    -0.261 N 
ATOM     20  O   UNL A   1      44.194  32.168  28.012  1.00  0.00    -0.268 OA
ATOM     21  S   UNL A   1      49.060  30.993  28.728  1.00  0.00    -0.051 S 
BRANCH  19  22
ATOM     22  C   UNL A   1      46.250  30.111  27.497  1.00  0.00     0.052 A 
ATOM     23  C   UNL A   1      45.975  28.956  28.249  1.00  0.00     0.028 A 
ATOM     24  C   UNL A   1      46.384  29.939  26.113  1.00  0.00     0.048 A 
ATOM     25  C   UNL A   1      46.110  27.665  27.701  1.00  0.00     0.024 A 
ATOM     26  C   UNL A   1      46.470  28.647  25.543  1.00  0.00     0.061 A 
ATOM     27  C   UNL A   1      46.403  27.508  26.349  1.00  0.00     0.059 A 
ATOM     28  Cl  UNL A   1      46.786  28.538  23.846  1.00  0.00    -0.083 Cl
ATOM     29  Cl  UNL A   1      46.700  25.912  25.757  1.00  0.00    -0.083 Cl
ENDBRANCH  19  22
ENDBRANCH  12  14
ENDBRANCH   7   8
ENDBRANCH   6   7
ENDBRANCH   5   6
ENDBRANCH   3   5
ENDBRANCH   2   3
ENDBRANCH   1   2
BRANCH   1  30
ATOM     30  C   UNL A   1      34.426  34.876  31.487  1.00  0.00     0.202 C 
BRANCH  30  31
ATOM     31  O   UNL A   1      33.732  33.894  30.739  1.00  0.00    -0.374 OA
BRANCH  31  32
ATOM     32  C   UNL A   1      34.541  32.931  30.076  1.00  0.00     0.202 C 
BRANCH  32  33
ATOM     33  C   UNL A   1      35.253  33.324  28.770  1.00  0.00     0.261 C 
BRANCH  33  34
ATOM     34  O   UNL A   1      35.132  32.444  27.623  1.00  0.00    -0.460 OA
BRANCH  34  35
ATOM     35  C   UNL A   1      34.856  31.127  27.766  1.00  0.00     0.338 C 
ATOM     36  O   UNL A   1      33.753  30.623  27.615  1.00  0.00    -0.246 OA
BRANCH  35  37
ATOM     37  C   UNL A   1      36.049  30.290  28.160  1.00  0.00     0.060 A 
ATOM     38  C   UNL A   1      36.096  29.603  29.370  1.00  0.00     0.016 A 
ATOM     39  C   UNL A   1      37.234  30.337  27.432  1.00  0.00     0.016 A 
ATOM     40  C   UNL A   1      37.319  29.068  29.849  1.00  0.00     0.010 A 
ATOM     41  C   UNL A   1      38.446  29.822  27.875  1.00  0.00     0.010 A 
ATOM     42  C   UNL A   1      38.512  29.234  29.128  1.00  0.00    -0.014 A 
BRANCH  42  43
ATOM     43  C   UNL A   1      39.869  28.881  29.615  1.00  0.00     0.031 A 
ATOM     44  C   UNL A   1      40.526  27.604  29.146  1.00  0.00     0.074 A 
ATOM     45  C   UNL A   1      40.384  29.547  30.664  1.00  0.00     0.049 A 
ATOM     46  N   UNL A   1      41.692  27.098  29.462  1.00  0.00    -0.248 NA
ATOM     47  C   UNL A   1      39.734  26.747  28.247  1.00  0.00     0.031 C 
ATOM     48  C   UNL A   1      39.720  30.648  31.358  1.00  0.00     0.029 A 
ATOM     49  N   UNL A   1      41.545  29.357  31.368  1.00  0.00    -0.354 N 
ATOM     50  C   UNL A   1      41.780  25.884  28.788  1.00  0.00     0.074 A 
ATOM     51  C   UNL A   1      40.514  25.683  28.121  1.00  0.00     0.031 C 
ATOM     52  C   UNL A   1      40.480  31.032  32.397  1.00  0.00     0.029 A 
ATOM     53  C   UNL A   1      41.693  30.220  32.425  1.00  0.00     0.049 A 
ATOM     54  H   UNL A   1      42.209  28.666  31.138  1.00  0.00     0.167 HD
ATOM     55  C   UNL A   1      42.836  25.035  28.710  1.00  0.00     0.037 A 
ATOM     56  C   UNL A   1      42.709  30.351  33.300  1.00  0.00     0.037 A 
ATOM     57  C   UNL A   1      44.076  25.257  29.409  1.00  0.00     0.049 A 
ATOM     58  C   UNL A   1      43.925  29.481  33.128  1.00  0.00     0.074 A 
ATOM     59  C   UNL A   1      45.271  24.568  29.305  1.00  0.00     0.029 A 
ATOM     60  N   UNL A   1      44.262  26.238  30.374  1.00  0.00    -0.354 N 
ATOM     61  N   UNL A   1      44.107  28.473  32.310  1.00  0.00    -0.248 NA
ATOM     62  C   UNL A   1      45.090  29.789  33.969  1.00  0.00     0.031 C 
ATOM     63  C   UNL A   1      46.160  25.096  30.250  1.00  0.00     0.029 A 
ATOM     64  C   UNL A   1      45.541  26.156  30.895  1.00  0.00     0.049 A 
ATOM     65  H   UNL A   1      43.583  26.897  30.648  1.00  0.00     0.167 HD
ATOM     66  C   UNL A   1      45.411  28.043  32.512  1.00  0.00     0.074 A 
ATOM     67  C   UNL A   1      45.979  28.909  33.527  1.00  0.00     0.031 C 
ATOM     68  C   UNL A   1      46.081  27.030  31.907  1.00  0.00     0.037 A 
BRANCH  55  69
ATOM     69  C   UNL A   1      42.713  23.824  27.820  1.00  0.00     0.064 A 
ATOM     70  C   UNL A   1      42.261  22.589  28.318  1.00  0.00     0.173 A 
ATOM     71  C   UNL A   1      42.998  23.898  26.446  1.00  0.00     0.173 A 
ATOM     72  F   UNL A   1      41.962  22.455  29.620  1.00  0.00    -0.203 F 
ATOM     73  C   UNL A   1      42.149  21.472  27.494  1.00  0.00     0.198 A 
ATOM     74  C   UNL A   1      42.848  22.786  25.616  1.00  0.00     0.198 A 
ATOM     75  F   UNL A   1      43.416  25.050  25.902  1.00  0.00    -0.203 F 
ATOM     76  F   UNL A   1      41.774  20.294  28.013  1.00  0.00    -0.200 F 
ATOM     77  C   UNL A   1      42.437  21.571  26.143  1.00  0.00     0.200 A 
ATOM     78  F   UNL A   1      43.108  22.890  24.305  1.00  0.00    -0.200 F 
ATOM     79  F   UNL A   1      42.323  20.497  25.349  1.00  0.00    -0.200 F 
ENDBRANCH  55  69
BRANCH  56  80
ATOM     80  C   UNL A   1      42.647  31.422  34.328  1.00  0.00     0.064 A 
ATOM     81  C   UNL A   1      43.009  32.740  34.013  1.00  0.00     0.173 A 
ATOM     82  C   UNL A   1      42.156  31.172  35.617  1.00  0.00     0.173 A 
ATOM     83  F   UNL A   1      43.489  33.027  32.794  1.00  0.00    -0.203 F 
ATOM     84  C   UNL A   1      42.892  33.764  34.950  1.00  0.00     0.198 A 
ATOM     85  C   UNL A   1      42.017  32.203  36.547  1.00  0.00     0.198 A 
ATOM     86  F   UNL A   1      41.775  29.933  35.962  1.00  0.00    -0.203 F 
ATOM     87  F   UNL A   1      43.266  35.010  34.627  1.00  0.00    -0.200 F 
ATOM     88  C   UNL A   1      42.389  33.496  36.214  1.00  0.00     0.200 A 
ATOM     89  F   UNL A   1      41.509  31.945  37.759  1.00  0.00    -0.200 F 
ATOM     90  F   UNL A   1      42.257  34.487  37.108  1.00  0.00    -0.200 F 
ENDBRANCH  56  80
BRANCH  68  91
ATOM     91  C   UNL A   1      47.511  26.812  32.306  1.00  0.00     0.064 A 
ATOM     92  C   UNL A   1      48.560  27.514  31.697  1.00  0.00     0.173 A 
ATOM     93  C   UNL A   1      47.824  25.945  33.364  1.00  0.00     0.173 A 
ATOM     94  F   UNL A   1      48.313  28.344  30.673  1.00  0.00    -0.203 F 
ATOM     95  C   UNL A   1      49.875  27.346  32.126  1.00  0.00     0.198 A 
ATOM     96  C   UNL A   1      49.134  25.803  33.811  1.00  0.00     0.198 A 
ATOM     97  F   UNL A   1      46.853  25.256  33.984  1.00  0.00    -0.203 F 
ATOM     98  F   UNL A   1      50.868  28.000  31.507  1.00  0.00    -0.200 F 
ATOM     99  C   UNL A   1      50.159  26.501  33.188  1.00  0.00     0.200 A 
ATOM    100  F   UNL A   1      49.404  25.000  34.848  1.00  0.00    -0.200 F 
ATOM    101  F   UNL A   1      51.422  26.356  33.612  1.00  0.00    -0.200 F 
ENDBRANCH  68  91
ENDBRANCH  42  43
ENDBRANCH  35  37
ENDBRANCH  34  35
ENDBRANCH  33  34
ENDBRANCH  32  33
ENDBRANCH  31  32
ENDBRANCH  30  31
ENDBRANCH   1  30
TORSDOF 19
ENDMDL
MODEL 2
REMARK VINA RESULT:      -8.1      4.515     10.291
REMARK SMILES O=C(CCOc1cccc(/C=C2/SC(=S)N(c3ccc(Cl)c(Cl)c3)C2=O)c1)OCCOCCOC(=O)c1ccc(-c2c3nc(c(-c4c(F)c(F)c(F)c(F)c4F)c4ccc([nH]4)c(-c4c(F)c(F)c(F)c(F)c4F)c4nc(c(-c5c(F)c(F)c(F)c(F)c5F)c5ccc2[nH]5)C=C4)C=C3)cc1
REMARK SMILES IDX 29 1 28 2 2 3 1 4 3 5 4 6 5 7 6 8 7 9 27 10 8 11 10 12 9 13
REMARK SMILES IDX 11 14 12 15 13 16 25 17 14 18 16 19 26 20 15 21 17 22 18 23
REMARK SMILES IDX 24 24 19 25 22 26 20 27 23 28 21 29 30 30 31 31 32 32 33 33
REMARK SMILES IDX 34 34 35 35 36 36 37 37 38 38 99 39 39 40 98 41 40 42 41 43
REMARK SMILES IDX 42 44 92 45 43 46 97 47 91 48 93 49 44 50 96 51 90 52 89 53
REMARK SMILES IDX 45 55 77 56 57 57 76 58 58 59 61 60 75 61 94 62 59 63 60 64
REMARK SMILES IDX 74 66 95 67 62 68 46 69 47 70 55 71 48 72 49 73 53 74 56 75
REMARK SMILES IDX 50 76 51 77 54 78 52 79 78 80 79 81 87 82 80 83 81 84 85 85
REMARK SMILES IDX 88 86 82 87 83 88 86 89 84 90 63 91 64 92 72 93 65 94 66 95
REMARK SMILES IDX 70 96 73 97 67 98 68 99 71 100 69 101
REMARK H PARENT 93 54 61 65
REMARK Flexibility Score: inf
ROOT
ATOM      1  C   UNL A   1      42.445  20.906  26.640  1.00  0.00     0.261 C 
ENDROOT
BRANCH   1   2
ATOM      2  O   UNL A   1      41.179  21.284  27.199  1.00  0.00    -0.463 OA
BRANCH   2   3
ATOM      3  C   UNL A   1      40.064  21.613  26.522  1.00  0.00     0.309 C 
ATOM      4  O   UNL A   1      39.507  20.775  25.810  1.00  0.00    -0.252 OA
BRANCH   3   5
ATOM      5  C   UNL A   1      39.531  23.008  26.628  1.00  0.00     0.164 C 
BRANCH   5   6
ATOM      6  C   UNL A   1      40.052  23.870  27.779  1.00  0.00     0.241 C 
BRANCH   6   7
ATOM      7  O   UNL A   1      39.252  25.012  28.122  1.00  0.00    -0.493 OA
BRANCH   7   8
ATOM      8  C   UNL A   1      39.874  26.224  27.957  1.00  0.00     0.119 A 
ATOM      9  C   UNL A   1      40.352  26.669  26.729  1.00  0.00     0.046 A 
ATOM     10  C   UNL A   1      39.980  27.045  29.091  1.00  0.00     0.054 A 
ATOM     11  C   UNL A   1      40.979  27.920  26.662  1.00  0.00     0.004 A 
ATOM     12  C   UNL A   1      40.703  28.249  29.069  1.00  0.00    -0.021 A 
ATOM     13  C   UNL A   1      41.169  28.695  27.825  1.00  0.00     0.008 A 
BRANCH  12  14
ATOM     14  C   UNL A   1      40.879  29.006  30.341  1.00  0.00     0.029 C 
ATOM     15  C   UNL A   1      40.124  29.978  30.902  1.00  0.00     0.081 C 
ATOM     16  S   UNL A   1      40.522  30.789  32.373  1.00  0.00    -0.054 SA
ATOM     17  C   UNL A   1      38.862  30.574  30.379  1.00  0.00     0.270 C 
ATOM     18  C   UNL A   1      39.055  31.785  32.375  1.00  0.00     0.152 C 
ATOM     19  N   UNL A   1      38.280  31.492  31.274  1.00  0.00    -0.261 N 
ATOM     20  O   UNL A   1      38.477  30.252  29.284  1.00  0.00    -0.268 OA
ATOM     21  S   UNL A   1      38.718  32.856  33.612  1.00  0.00    -0.051 S 
BRANCH  19  22
ATOM     22  C   UNL A   1      37.027  32.177  30.991  1.00  0.00     0.052 A 
ATOM     23  C   UNL A   1      36.798  32.863  29.785  1.00  0.00     0.028 A 
ATOM     24  C   UNL A   1      35.993  32.210  31.936  1.00  0.00     0.048 A 
ATOM     25  C   UNL A   1      35.727  33.766  29.638  1.00  0.00     0.024 A 
ATOM     26  C   UNL A   1      34.886  33.077  31.775  1.00  0.00     0.061 A 
ATOM     27  C   UNL A   1      34.789  33.908  30.657  1.00  0.00     0.059 A 
ATOM     28  Cl  UNL A   1      33.737  33.158  33.067  1.00  0.00    -0.083 Cl
ATOM     29  Cl  UNL A   1      33.579  35.130  30.490  1.00  0.00    -0.083 Cl
ENDBRANCH  19  22
ENDBRANCH  12  14
ENDBRANCH   7   8
ENDBRANCH   6   7
ENDBRANCH   5   6
ENDBRANCH   3   5
ENDBRANCH   2   3
ENDBRANCH   1   2
BRANCH   1  30
ATOM     30  C   UNL A   1      43.446  22.051  26.471  1.00  0.00     0.202 C 
BRANCH  30  31
ATOM     31  O   UNL A   1      44.115  22.134  25.225  1.00  0.00    -0.374 OA
BRANCH  31  32
ATOM     32  C   UNL A   1      43.840  23.291  24.447  1.00  0.00     0.202 C 
BRANCH  32  33
ATOM     33  C   UNL A   1      44.137  24.678  25.040  1.00  0.00     0.261 C 
BRANCH  33  34
ATOM     34  O   UNL A   1      45.475  24.950  25.531  1.00  0.00    -0.460 OA
BRANCH  34  35
ATOM     35  C   UNL A   1      46.196  26.002  25.077  1.00  0.00     0.338 C 
ATOM     36  O   UNL A   1      46.909  25.984  24.086  1.00  0.00    -0.246 OA
BRANCH  35  37
ATOM     37  C   UNL A   1      46.068  27.244  25.925  1.00  0.00     0.060 A 
ATOM     38  C   UNL A   1      47.125  27.716  26.700  1.00  0.00     0.016 A 
ATOM     39  C   UNL A   1      44.832  27.849  26.135  1.00  0.00     0.016 A 
ATOM     40  C   UNL A   1      46.904  28.697  27.699  1.00  0.00     0.010 A 
ATOM     41  C   UNL A   1      44.587  28.813  27.105  1.00  0.00     0.010 A 
ATOM     42  C   UNL A   1      45.617  29.202  27.946  1.00  0.00    -0.014 A 
BRANCH  42  43
ATOM     43  C   UNL A   1      45.241  30.086  29.077  1.00  0.00     0.031 A 
ATOM     44  C   UNL A   1      44.813  29.481  30.394  1.00  0.00     0.074 A 
ATOM     45  C   UNL A   1      45.023  31.393  28.845  1.00  0.00     0.049 A 
ATOM     46  N   UNL A   1      44.427  30.069  31.498  1.00  0.00    -0.248 NA
ATOM     47  C   UNL A   1      44.751  28.011  30.454  1.00  0.00     0.031 C 
ATOM     48  C   UNL A   1      45.169  32.041  27.543  1.00  0.00     0.029 A 
ATOM     49  N   UNL A   1      44.573  32.390  29.670  1.00  0.00    -0.354 N 
ATOM     50  C   UNL A   1      44.100  29.047  32.384  1.00  0.00     0.074 A 
ATOM     51  C   UNL A   1      44.242  27.804  31.660  1.00  0.00     0.031 C 
ATOM     52  C   UNL A   1      44.805  33.330  27.654  1.00  0.00     0.029 A 
ATOM     53  C   UNL A   1      44.424  33.600  29.038  1.00  0.00     0.049 A 
ATOM     54  H   UNL A   1      44.373  32.252  30.624  1.00  0.00     0.167 HD
ATOM     55  C   UNL A   1      43.745  29.141  33.690  1.00  0.00     0.037 A 
ATOM     56  C   UNL A   1      44.046  34.794  29.532  1.00  0.00     0.037 A 
ATOM     57  C   UNL A   1      43.590  30.400  34.373  1.00  0.00     0.049 A 
ATOM     58  C   UNL A   1      43.770  34.910  31.007  1.00  0.00     0.074 A 
ATOM     59  C   UNL A   1      43.384  30.642  35.720  1.00  0.00     0.029 A 
ATOM     60  N   UNL A   1      43.594  31.636  33.740  1.00  0.00    -0.354 N 
ATOM     61  N   UNL A   1      43.700  33.959  31.908  1.00  0.00    -0.248 NA
ATOM     62  C   UNL A   1      43.559  36.261  31.543  1.00  0.00     0.031 C 
ATOM     63  C   UNL A   1      43.206  32.021  35.890  1.00  0.00     0.029 A 
ATOM     64  C   UNL A   1      43.366  32.643  34.661  1.00  0.00     0.049 A 
ATOM     65  H   UNL A   1      43.738  31.776  32.776  1.00  0.00     0.167 HD
ATOM     66  C   UNL A   1      43.469  34.594  33.120  1.00  0.00     0.074 A 
ATOM     67  C   UNL A   1      43.419  36.016  32.839  1.00  0.00     0.031 C 
ATOM     68  C   UNL A   1      43.320  34.051  34.355  1.00  0.00     0.037 A 
BRANCH  55  69
ATOM     69  C   UNL A   1      43.541  27.866  34.468  1.00  0.00     0.064 A 
ATOM     70  C   UNL A   1      44.578  27.296  35.229  1.00  0.00     0.173 A 
ATOM     71  C   UNL A   1      42.291  27.225  34.503  1.00  0.00     0.173 A 
ATOM     72  F   UNL A   1      45.794  27.865  35.247  1.00  0.00    -0.203 F 
ATOM     73  C   UNL A   1      44.387  26.118  35.947  1.00  0.00     0.198 A 
ATOM     74  C   UNL A   1      42.094  26.066  35.254  1.00  0.00     0.198 A 
ATOM     75  F   UNL A   1      41.255  27.726  33.815  1.00  0.00    -0.203 F 
ATOM     76  F   UNL A   1      45.413  25.567  36.612  1.00  0.00    -0.200 F 
ATOM     77  C   UNL A   1      43.145  25.506  35.965  1.00  0.00     0.200 A 
ATOM     78  F   UNL A   1      40.885  25.488  35.286  1.00  0.00    -0.200 F 
ATOM     79  F   UNL A   1      42.961  24.375  36.661  1.00  0.00    -0.200 F 
ENDBRANCH  55  69
BRANCH  56  80
ATOM     80  C   UNL A   1      44.027  35.978  28.633  1.00  0.00     0.064 A 
ATOM     81  C   UNL A   1      42.838  36.385  28.010  1.00  0.00     0.173 A 
ATOM     82  C   UNL A   1      45.168  36.769  28.438  1.00  0.00     0.173 A 
ATOM     83  F   UNL A   1      41.721  35.658  28.164  1.00  0.00    -0.203 F 
ATOM     84  C   UNL A   1      42.793  37.531  27.219  1.00  0.00     0.198 A 
ATOM     85  C   UNL A   1      45.116  37.928  27.665  1.00  0.00     0.198 A 
ATOM     86  F   UNL A   1      46.324  36.435  29.029  1.00  0.00    -0.203 F 
ATOM     87  F   UNL A   1      41.648  37.884  26.620  1.00  0.00    -0.200 F 
ATOM     88  C   UNL A   1      43.930  38.306  27.053  1.00  0.00     0.200 A 
ATOM     89  F   UNL A   1      46.211  38.687  27.525  1.00  0.00    -0.200 F 
ATOM     90  F   UNL A   1      43.881  39.420  26.309  1.00  0.00    -0.200 F 
ENDBRANCH  56  80
BRANCH  68  91
ATOM     91  C   UNL A   1      43.111  34.994  35.504  1.00  0.00     0.064 A 
ATOM     92  C   UNL A   1      44.189  35.541  36.212  1.00  0.00     0.173 A 
ATOM     93  C   UNL A   1      41.816  35.413  35.845  1.00  0.00     0.173 A 
ATOM     94  F   UNL A   1      45.445  35.162  35.931  1.00  0.00    -0.203 F 
ATOM     95  C   UNL A   1      43.977  36.465  37.233  1.00  0.00     0.198 A 
ATOM     96  C   UNL A   1      41.610  36.360  36.844  1.00  0.00     0.198 A 
ATOM     97  F   UNL A   1      40.751  34.924  35.191  1.00  0.00    -0.203 F 
ATOM     98  F   UNL A   1      45.020  36.949  37.922  1.00  0.00    -0.200 F 
ATOM     99  C   UNL A   1      42.691  36.882  37.540  1.00  0.00     0.200 A 
ATOM    100  F   UNL A   1      40.368  36.774  37.127  1.00  0.00    -0.200 F 
ATOM    101  F   UNL A   1      42.491  37.785  38.509  1.00  0.00    -0.200 F 
ENDBRANCH  68  91
ENDBRANCH  42  43
ENDBRANCH  35  37
ENDBRANCH  34  35
ENDBRANCH  33  34
ENDBRANCH  32  33
ENDBRANCH  31  32
ENDBRANCH  30  31
ENDBRANCH   1  30
TORSDOF 19
ENDMDL
MODEL 3
REMARK VINA RESULT:      -8.0      5.577     11.262
REMARK SMILES O=C(CCOc1cccc(/C=C2/SC(=S)N(c3ccc(Cl)c(Cl)c3)C2=O)c1)OCCOCCOC(=O)c1ccc(-c2c3nc(c(-c4c(F)c(F)c(F)c(F)c4F)c4ccc([nH]4)c(-c4c(F)c(F)c(F)c(F)c4F)c4nc(c(-c5c(F)c(F)c(F)c(F)c5F)c5ccc2[nH]5)C=C4)C=C3)cc1
REMARK SMILES IDX 29 1 28 2 2 3 1 4 3 5 4 6 5 7 6 8 7 9 27 10 8 11 10 12 9 13
REMARK SMILES IDX 11 14 12 15 13 16 25 17 14 18 16 19 26 20 15 21 17 22 18 23
REMARK SMILES IDX 24 24 19 25 22 26 20 27 23 28 21 29 30 30 31 31 32 32 33 33
REMARK SMILES IDX 34 34 35 35 36 36 37 37 38 38 99 39 39 40 98 41 40 42 41 43
REMARK SMILES IDX 42 44 92 45 43 46 97 47 91 48 93 49 44 50 96 51 90 52 89 53
REMARK SMILES IDX 45 55 77 56 57 57 76 58 58 59 61 60 75 61 94 62 59 63 60 64
REMARK SMILES IDX 74 66 95 67 62 68 46 69 47 70 55 71 48 72 49 73 53 74 56 75
REMARK SMILES IDX 50 76 51 77 54 78 52 79 78 80 79 81 87 82 80 83 81 84 85 85
REMARK SMILES IDX 88 86 82 87 83 88 86 89 84 90 63 91 64 92 72 93 65 94 66 95
REMARK SMILES IDX 70 96 73 97 67 98 68 99 71 100 69 101
REMARK H PARENT 93 54 61 65
REMARK Flexibility Score: inf
ROOT
ATOM      1  C   UNL A   1      36.302  33.982  34.621  1.00  0.00     0.261 C 
ENDROOT
BRANCH   1   2
ATOM      2  O   UNL A   1      35.007  33.406  34.403  1.00  0.00    -0.463 OA
BRANCH   2   3
ATOM      3  C   UNL A   1      34.296  33.426  33.261  1.00  0.00     0.309 C 
ATOM      4  O   UNL A   1      33.141  32.997  33.248  1.00  0.00    -0.252 OA
BRANCH   3   5
ATOM      5  C   UNL A   1      34.936  33.951  32.013  1.00  0.00     0.164 C 
BRANCH   5   6
ATOM      6  C   UNL A   1      35.502  32.924  31.033  1.00  0.00     0.241 C 
BRANCH   6   7
ATOM      7  O   UNL A   1      35.032  33.021  29.679  1.00  0.00    -0.493 OA
BRANCH   7   8
ATOM      8  C   UNL A   1      35.161  31.873  28.938  1.00  0.00     0.119 A 
ATOM      9  C   UNL A   1      36.264  31.031  29.030  1.00  0.00     0.046 A 
ATOM     10  C   UNL A   1      34.093  31.541  28.088  1.00  0.00     0.054 A 
ATOM     11  C   UNL A   1      36.308  29.885  28.227  1.00  0.00     0.004 A 
ATOM     12  C   UNL A   1      34.168  30.460  27.195  1.00  0.00    -0.021 A 
ATOM     13  C   UNL A   1      35.276  29.611  27.304  1.00  0.00     0.008 A 
BRANCH  12  14
ATOM     14  C   UNL A   1      33.048  30.242  26.235  1.00  0.00     0.029 C 
ATOM     15  C   UNL A   1      32.522  29.100  25.735  1.00  0.00     0.081 C 
ATOM     16  S   UNL A   1      31.246  29.046  24.573  1.00  0.00    -0.054 SA
ATOM     17  C   UNL A   1      32.936  27.698  26.025  1.00  0.00     0.270 C 
ATOM     18  C   UNL A   1      31.171  27.274  24.544  1.00  0.00     0.152 C 
ATOM     19  N   UNL A   1      32.101  26.745  25.412  1.00  0.00    -0.261 N 
ATOM     20  O   UNL A   1      33.912  27.509  26.705  1.00  0.00    -0.268 OA
ATOM     21  S   UNL A   1      30.056  26.455  23.609  1.00  0.00    -0.051 S 
BRANCH  19  22
ATOM     22  C   UNL A   1      32.293  25.311  25.577  1.00  0.00     0.052 A 
ATOM     23  C   UNL A   1      31.657  24.577  26.594  1.00  0.00     0.028 A 
ATOM     24  C   UNL A   1      33.157  24.597  24.737  1.00  0.00     0.048 A 
ATOM     25  C   UNL A   1      32.072  23.276  26.938  1.00  0.00     0.024 A 
ATOM     26  C   UNL A   1      33.543  23.271  25.045  1.00  0.00     0.061 A 
ATOM     27  C   UNL A   1      33.053  22.634  26.187  1.00  0.00     0.059 A 
ATOM     28  Cl  UNL A   1      34.730  22.526  24.031  1.00  0.00    -0.083 Cl
ATOM     29  Cl  UNL A   1      33.629  21.100  26.735  1.00  0.00    -0.083 Cl
ENDBRANCH  19  22
ENDBRANCH  12  14
ENDBRANCH   7   8
ENDBRANCH   6   7
ENDBRANCH   5   6
ENDBRANCH   3   5
ENDBRANCH   2   3
ENDBRANCH   1   2
BRANCH   1  30
ATOM     30  C   UNL A   1      36.988  33.563  35.923  1.00  0.00     0.202 C 
BRANCH  30  31
ATOM     31  O   UNL A   1      37.480  32.237  35.986  1.00  0.00    -0.374 OA
BRANCH  31  32
ATOM     32  C   UNL A   1      37.941  31.685  34.760  1.00  0.00     0.202 C 
BRANCH  32  33
ATOM     33  C   UNL A   1      38.351  30.203  34.716  1.00  0.00     0.261 C 
BRANCH  33  34
ATOM     34  O   UNL A   1      38.040  29.433  33.526  1.00  0.00    -0.460 OA
BRANCH  34  35
ATOM     35  C   UNL A   1      39.010  28.835  32.795  1.00  0.00     0.338 C 
ATOM     36  O   UNL A   1      39.198  27.629  32.738  1.00  0.00    -0.246 OA
BRANCH  35  37
ATOM     37  C   UNL A   1      39.891  29.800  32.039  1.00  0.00     0.060 A 
ATOM     38  C   UNL A   1      39.901  29.847  30.648  1.00  0.00     0.016 A 
ATOM     39  C   UNL A   1      40.879  30.533  32.688  1.00  0.00     0.016 A 
ATOM     40  C   UNL A   1      40.928  30.541  29.958  1.00  0.00     0.010 A 
ATOM     41  C   UNL A   1      41.896  31.223  32.039  1.00  0.00     0.010 A 
ATOM     42  C   UNL A   1      41.966  31.178  30.656  1.00  0.00    -0.014 A 
BRANCH  42  43
ATOM     43  C   UNL A   1      43.180  31.771  30.042  1.00  0.00     0.031 A 
ATOM     44  C   UNL A   1      43.166  33.214  29.594  1.00  0.00     0.074 A 
ATOM     45  C   UNL A   1      44.177  30.961  29.643  1.00  0.00     0.049 A 
ATOM     46  N   UNL A   1      44.107  33.920  29.018  1.00  0.00    -0.248 NA
ATOM     47  C   UNL A   1      41.897  33.943  29.759  1.00  0.00     0.031 C 
ATOM     48  C   UNL A   1      44.184  29.509  29.805  1.00  0.00     0.029 A 
ATOM     49  N   UNL A   1      45.338  31.231  28.966  1.00  0.00    -0.354 N 
ATOM     50  C   UNL A   1      43.552  35.173  28.775  1.00  0.00     0.074 A 
ATOM     51  C   UNL A   1      42.166  35.103  29.179  1.00  0.00     0.031 C 
ATOM     52  C   UNL A   1      45.294  29.011  29.234  1.00  0.00     0.029 A 
ATOM     53  C   UNL A   1      46.083  30.112  28.688  1.00  0.00     0.049 A 
ATOM     54  H   UNL A   1      45.611  32.139  28.702  1.00  0.00     0.167 HD
ATOM     55  C   UNL A   1      44.158  36.286  28.290  1.00  0.00     0.037 A 
ATOM     56  C   UNL A   1      47.280  29.997  28.082  1.00  0.00     0.037 A 
ATOM     57  C   UNL A   1      45.538  36.312  27.875  1.00  0.00     0.049 A 
ATOM     58  C   UNL A   1      47.995  31.251  27.654  1.00  0.00     0.074 A 
ATOM     59  C   UNL A   1      46.318  37.394  27.509  1.00  0.00     0.029 A 
ATOM     60  N   UNL A   1      46.333  35.181  27.743  1.00  0.00    -0.354 N 
ATOM     61  N   UNL A   1      47.558  32.487  27.652  1.00  0.00    -0.248 NA
ATOM     62  C   UNL A   1      49.379  31.103  27.184  1.00  0.00     0.031 C 
ATOM     63  C   UNL A   1      47.567  36.910  27.101  1.00  0.00     0.029 A 
ATOM     64  C   UNL A   1      47.587  35.534  27.274  1.00  0.00     0.049 A 
ATOM     65  H   UNL A   1      46.048  34.262  27.953  1.00  0.00     0.167 HD
ATOM     66  C   UNL A   1      48.616  33.269  27.211  1.00  0.00     0.074 A 
ATOM     67  C   UNL A   1      49.723  32.365  26.964  1.00  0.00     0.031 C 
ATOM     68  C   UNL A   1      48.671  34.614  27.035  1.00  0.00     0.037 A 
BRANCH  55  69
ATOM     69  C   UNL A   1      43.357  37.561  28.218  1.00  0.00     0.064 A 
ATOM     70  C   UNL A   1      42.495  37.827  27.140  1.00  0.00     0.173 A 
ATOM     71  C   UNL A   1      43.404  38.511  29.253  1.00  0.00     0.173 A 
ATOM     72  F   UNL A   1      42.396  36.955  26.124  1.00  0.00    -0.203 F 
ATOM     73  C   UNL A   1      41.755  39.006  27.076  1.00  0.00     0.198 A 
ATOM     74  C   UNL A   1      42.633  39.673  29.203  1.00  0.00     0.198 A 
ATOM     75  F   UNL A   1      44.192  38.310  30.320  1.00  0.00    -0.203 F 
ATOM     76  F   UNL A   1      40.990  39.257  26.004  1.00  0.00    -0.200 F 
ATOM     77  C   UNL A   1      41.820  39.925  28.109  1.00  0.00     0.200 A 
ATOM     78  F   UNL A   1      42.682  40.551  30.214  1.00  0.00    -0.200 F 
ATOM     79  F   UNL A   1      41.104  41.057  28.049  1.00  0.00    -0.200 F 
ENDBRANCH  55  69
BRANCH  56  80
ATOM     80  C   UNL A   1      47.906  28.655  27.960  1.00  0.00     0.064 A 
ATOM     81  C   UNL A   1      48.632  28.103  29.025  1.00  0.00     0.173 A 
ATOM     82  C   UNL A   1      47.731  27.866  26.814  1.00  0.00     0.173 A 
ATOM     83  F   UNL A   1      48.830  28.821  30.141  1.00  0.00    -0.203 F 
ATOM     84  C   UNL A   1      49.167  26.819  28.946  1.00  0.00     0.198 A 
ATOM     85  C   UNL A   1      48.247  26.572  26.745  1.00  0.00     0.198 A 
ATOM     86  F   UNL A   1      47.027  28.339  25.775  1.00  0.00    -0.203 F 
ATOM     87  F   UNL A   1      49.874  26.326  29.972  1.00  0.00    -0.200 F 
ATOM     88  C   UNL A   1      48.968  26.052  27.809  1.00  0.00     0.200 A 
ATOM     89  F   UNL A   1      48.033  25.825  25.654  1.00  0.00    -0.200 F 
ATOM     90  F   UNL A   1      49.465  24.808  27.742  1.00  0.00    -0.200 F 
ENDBRANCH  56  80
BRANCH  68  91
ATOM     91  C   UNL A   1      49.974  35.198  26.574  1.00  0.00     0.064 A 
ATOM     92  C   UNL A   1      50.190  35.551  25.235  1.00  0.00     0.173 A 
ATOM     93  C   UNL A   1      50.989  35.478  27.502  1.00  0.00     0.173 A 
ATOM     94  F   UNL A   1      49.254  35.292  24.309  1.00  0.00    -0.203 F 
ATOM     95  C   UNL A   1      51.382  36.152  24.838  1.00  0.00     0.198 A 
ATOM     96  C   UNL A   1      52.165  36.107  27.108  1.00  0.00     0.198 A 
ATOM     97  F   UNL A   1      50.826  35.165  28.797  1.00  0.00    -0.203 F 
ATOM     98  F   UNL A   1      51.582  36.449  23.547  1.00  0.00    -0.200 F 
ATOM     99  C   UNL A   1      52.362  36.440  25.776  1.00  0.00     0.200 A 
ATOM    100  F   UNL A   1      53.104  36.400  28.018  1.00  0.00    -0.200 F 
ATOM    101  F   UNL A   1      53.501  37.036  25.395  1.00  0.00    -0.200 F 
ENDBRANCH  68  91
ENDBRANCH  42  43
ENDBRANCH  35  37
ENDBRANCH  34  35
ENDBRANCH  33  34
ENDBRANCH  32  33
ENDBRANCH  31  32
ENDBRANCH  30  31
ENDBRANCH   1  30
TORSDOF 19
ENDMDL
