MODEL 1
REMARK VINA RESULT:     -10.7      0.000      0.000
REMARK SMILES C[C@](O)(C(=O)OCCOCCOC(=O)c1ccc(-c2c3nc(c(-c4c(F)c(F)c(F)c(F)c4F)c4ccc([nH]4)c(-c4c(F)c(F)c(F)c(F)c4F)c4nc(c(-c5c(F)c(F)c(F)c(F)c5F)c5ccc2[nH]5)C=C4)C=C3)cc1)c1ccc(O)cc1
REMARK SMILES IDX 9 1 8 2 7 3 6 4 4 5 5 6 2 7 1 8 78 9 79 10 84 11 80 12 83 13
REMARK SMILES IDX 81 14 82 15 3 17 10 19 11 20 12 21 13 22 14 23 15 24 16 25
REMARK SMILES IDX 77 26 17 27 76 28 18 29 19 30 20 31 70 32 21 33 75 34 69 35
REMARK SMILES IDX 71 36 22 37 74 38 68 39 67 40 23 42 55 43 35 44 54 45 36 46
REMARK SMILES IDX 39 47 53 48 72 49 37 50 38 51 52 53 73 54 40 55 24 56 25 57
REMARK SMILES IDX 33 58 26 59 27 60 31 61 34 62 28 63 29 64 32 65 30 66 56 67
REMARK SMILES IDX 57 68 65 69 58 70 59 71 63 72 66 73 60 74 61 75 64 76 62 77
REMARK SMILES IDX 41 78 42 79 50 80 43 81 44 82 48 83 51 84 45 85 46 86 49 87
REMARK SMILES IDX 47 88
REMARK H PARENT 82 16 3 18 71 41 39 52
REMARK Flexibility Score: inf
ROOT
ATOM      1  O   UNL A   1      31.766  30.214  27.248  1.00  0.00    -0.374 OA
ENDROOT
BRANCH   1   2
ATOM      2  C   UNL A   1      32.689  29.208  26.827  1.00  0.00     0.202 C 
BRANCH   2   3
ATOM      3  C   UNL A   1      33.141  29.290  25.368  1.00  0.00     0.261 C 
BRANCH   3   4
ATOM      4  O   UNL A   1      32.479  28.293  24.577  1.00  0.00    -0.461 OA
BRANCH   4   5
ATOM      5  C   UNL A   1      32.266  28.623  23.269  1.00  0.00     0.342 C 
ATOM      6  O   UNL A   1      33.149  29.001  22.506  1.00  0.00    -0.248 OA
BRANCH   5   7
ATOM      7  C   UNL A   1      30.782  28.383  22.848  1.00  0.00     0.184 C 
ATOM      8  C   UNL A   1      30.171  27.513  23.953  1.00  0.00     0.060 C 
BRANCH   7   9
ATOM      9  C   UNL A   1      30.002  29.696  22.642  1.00  0.00    -0.005 A 
ATOM     10  C   UNL A   1      29.556  30.420  23.767  1.00  0.00     0.011 A 
ATOM     11  C   UNL A   1      29.667  30.204  21.372  1.00  0.00     0.011 A 
ATOM     12  C   UNL A   1      28.837  31.610  23.628  1.00  0.00     0.046 A 
ATOM     13  C   UNL A   1      28.945  31.396  21.232  1.00  0.00     0.046 A 
ATOM     14  C   UNL A   1      28.543  32.093  22.363  1.00  0.00     0.115 A 
BRANCH  14  15
ATOM     15  O   UNL A   1      27.851  33.264  22.272  1.00  0.00    -0.508 OA
ATOM     16  H   UNL A   1      26.938  33.285  22.480  1.00  0.00     0.293 HD
ENDBRANCH  14  15
ENDBRANCH   7   9
BRANCH   7  17
ATOM     17  O   UNL A   1      30.655  27.622  21.637  1.00  0.00    -0.374 OA
ATOM     18  H   UNL A   1      29.747  27.291  21.557  1.00  0.00     0.212 HD
ENDBRANCH   7  17
ENDBRANCH   5   7
ENDBRANCH   4   5
ENDBRANCH   3   4
ENDBRANCH   2   3
ENDBRANCH   1   2
BRANCH   1  19
ATOM     19  C   UNL A   1      31.637  31.376  26.428  1.00  0.00     0.202 C 
BRANCH  19  20
ATOM     20  C   UNL A   1      31.779  32.734  27.127  1.00  0.00     0.261 C 
BRANCH  20  21
ATOM     21  O   UNL A   1      33.100  33.284  26.979  1.00  0.00    -0.460 OA
BRANCH  21  22
ATOM     22  C   UNL A   1      33.655  33.750  28.124  1.00  0.00     0.338 C 
ATOM     23  O   UNL A   1      33.176  34.568  28.899  1.00  0.00    -0.246 OA
BRANCH  22  24
ATOM     24  C   UNL A   1      34.881  32.999  28.444  1.00  0.00     0.060 A 
ATOM     25  C   UNL A   1      34.729  31.676  28.879  1.00  0.00     0.016 A 
ATOM     26  C   UNL A   1      36.141  33.598  28.418  1.00  0.00     0.016 A 
ATOM     27  C   UNL A   1      35.834  30.962  29.338  1.00  0.00     0.010 A 
ATOM     28  C   UNL A   1      37.247  32.883  28.890  1.00  0.00     0.010 A 
ATOM     29  C   UNL A   1      37.092  31.576  29.386  1.00  0.00    -0.014 A 
BRANCH  29  30
ATOM     30  C   UNL A   1      38.203  30.897  30.097  1.00  0.00     0.031 A 
ATOM     31  C   UNL A   1      38.459  31.233  31.540  1.00  0.00     0.074 A 
ATOM     32  C   UNL A   1      38.946  29.963  29.479  1.00  0.00     0.049 A 
ATOM     33  N   UNL A   1      39.373  30.767  32.353  1.00  0.00    -0.248 NA
ATOM     34  C   UNL A   1      37.562  32.228  32.148  1.00  0.00     0.031 C 
ATOM     35  C   UNL A   1      38.769  29.523  28.098  1.00  0.00     0.029 A 
ATOM     36  N   UNL A   1      40.003  29.217  29.940  1.00  0.00    -0.354 N 
ATOM     37  C   UNL A   1      39.161  31.410  33.566  1.00  0.00     0.074 A 
ATOM     38  C   UNL A   1      38.052  32.320  33.375  1.00  0.00     0.031 C 
ATOM     39  C   UNL A   1      39.693  28.588  27.817  1.00  0.00     0.029 A 
ATOM     40  C   UNL A   1      40.541  28.385  28.991  1.00  0.00     0.049 A 
ATOM     41  H   UNL A   1      40.341  29.275  30.862  1.00  0.00     0.167 HD
ATOM     42  C   UNL A   1      39.826  31.248  34.734  1.00  0.00     0.037 A 
ATOM     43  C   UNL A   1      41.608  27.566  29.061  1.00  0.00     0.037 A 
ATOM     44  C   UNL A   1      40.928  30.344  34.924  1.00  0.00     0.049 A 
ATOM     45  C   UNL A   1      42.376  27.457  30.352  1.00  0.00     0.074 A 
ATOM     46  C   UNL A   1      41.652  30.093  36.076  1.00  0.00     0.029 A 
ATOM     47  N   UNL A   1      41.472  29.546  33.928  1.00  0.00    -0.354 N 
ATOM     48  N   UNL A   1      42.152  28.046  31.502  1.00  0.00    -0.248 NA
ATOM     49  C   UNL A   1      43.546  26.567  30.355  1.00  0.00     0.031 C 
ATOM     50  C   UNL A   1      42.664  29.178  35.766  1.00  0.00     0.029 A 
ATOM     51  C   UNL A   1      42.541  28.823  34.432  1.00  0.00     0.049 A 
ATOM     52  H   UNL A   1      41.147  29.500  32.999  1.00  0.00     0.167 HD
ATOM     53  C   UNL A   1      43.133  27.583  32.369  1.00  0.00     0.074 A 
ATOM     54  C   UNL A   1      43.948  26.651  31.616  1.00  0.00     0.031 C 
ATOM     55  C   UNL A   1      43.340  27.899  33.670  1.00  0.00     0.037 A 
BRANCH  42  56
ATOM     56  C   UNL A   1      39.390  32.089  35.898  1.00  0.00     0.064 A 
ATOM     57  C   UNL A   1      39.961  33.344  36.154  1.00  0.00     0.173 A 
ATOM     58  C   UNL A   1      38.367  31.646  36.750  1.00  0.00     0.173 A 
ATOM     59  F   UNL A   1      40.952  33.807  35.377  1.00  0.00    -0.203 F 
ATOM     60  C   UNL A   1      39.540  34.115  37.235  1.00  0.00     0.198 A 
ATOM     61  C   UNL A   1      37.931  32.431  37.814  1.00  0.00     0.198 A 
ATOM     62  F   UNL A   1      37.786  30.454  36.547  1.00  0.00    -0.203 F 
ATOM     63  F   UNL A   1      40.129  35.292  37.487  1.00  0.00    -0.200 F 
ATOM     64  C   UNL A   1      38.522  33.661  38.060  1.00  0.00     0.200 A 
ATOM     65  F   UNL A   1      36.941  31.994  38.605  1.00  0.00    -0.200 F 
ATOM     66  F   UNL A   1      38.115  34.405  39.097  1.00  0.00    -0.200 F 
ENDBRANCH  42  56
BRANCH  43  67
ATOM     67  C   UNL A   1      42.025  26.790  27.864  1.00  0.00     0.064 A 
ATOM     68  C   UNL A   1      42.928  27.323  26.934  1.00  0.00     0.173 A 
ATOM     69  C   UNL A   1      41.517  25.507  27.619  1.00  0.00     0.173 A 
ATOM     70  F   UNL A   1      43.419  28.559  27.111  1.00  0.00    -0.203 F 
ATOM     71  C   UNL A   1      43.295  26.607  25.797  1.00  0.00     0.198 A 
ATOM     72  C   UNL A   1      41.905  24.781  26.495  1.00  0.00     0.198 A 
ATOM     73  F   UNL A   1      40.647  24.954  28.477  1.00  0.00    -0.203 F 
ATOM     74  F   UNL A   1      44.127  27.157  24.902  1.00  0.00    -0.200 F 
ATOM     75  C   UNL A   1      42.788  25.334  25.582  1.00  0.00     0.200 A 
ATOM     76  F   UNL A   1      41.419  23.548  26.295  1.00  0.00    -0.200 F 
ATOM     77  F   UNL A   1      43.145  24.645  24.488  1.00  0.00    -0.200 F 
ENDBRANCH  43  67
BRANCH  55  78
ATOM     78  C   UNL A   1      44.476  27.214  34.373  1.00  0.00     0.064 A 
ATOM     79  C   UNL A   1      44.312  25.965  34.990  1.00  0.00     0.173 A 
ATOM     80  C   UNL A   1      45.754  27.794  34.392  1.00  0.00     0.173 A 
ATOM     81  F   UNL A   1      43.107  25.376  35.011  1.00  0.00    -0.203 F 
ATOM     82  C   UNL A   1      45.381  25.332  35.619  1.00  0.00     0.198 A 
ATOM     83  C   UNL A   1      46.826  27.146  34.998  1.00  0.00     0.198 A 
ATOM     84  F   UNL A   1      45.965  28.984  33.811  1.00  0.00    -0.203 F 
ATOM     85  F   UNL A   1      45.191  24.159  36.239  1.00  0.00    -0.200 F 
ATOM     86  C   UNL A   1      46.637  25.919  35.616  1.00  0.00     0.200 A 
ATOM     87  F   UNL A   1      48.042  27.708  34.985  1.00  0.00    -0.200 F 
ATOM     88  F   UNL A   1      47.666  25.305  36.217  1.00  0.00    -0.200 F 
ENDBRANCH  55  78
ENDBRANCH  29  30
ENDBRANCH  22  24
ENDBRANCH  21  22
ENDBRANCH  20  21
ENDBRANCH  19  20
ENDBRANCH   1  19
TORSDOF 17
ENDMDL
MODEL 2
REMARK VINA RESULT:     -10.5      3.235      9.336
REMARK SMILES C[C@](O)(C(=O)OCCOCCOC(=O)c1ccc(-c2c3nc(c(-c4c(F)c(F)c(F)c(F)c4F)c4ccc([nH]4)c(-c4c(F)c(F)c(F)c(F)c4F)c4nc(c(-c5c(F)c(F)c(F)c(F)c5F)c5ccc2[nH]5)C=C4)C=C3)cc1)c1ccc(O)cc1
REMARK SMILES IDX 9 1 8 2 7 3 6 4 4 5 5 6 2 7 1 8 78 9 79 10 84 11 80 12 83 13
REMARK SMILES IDX 81 14 82 15 3 17 10 19 11 20 12 21 13 22 14 23 15 24 16 25
REMARK SMILES IDX 77 26 17 27 76 28 18 29 19 30 20 31 70 32 21 33 75 34 69 35
REMARK SMILES IDX 71 36 22 37 74 38 68 39 67 40 23 42 55 43 35 44 54 45 36 46
REMARK SMILES IDX 39 47 53 48 72 49 37 50 38 51 52 53 73 54 40 55 24 56 25 57
REMARK SMILES IDX 33 58 26 59 27 60 31 61 34 62 28 63 29 64 32 65 30 66 56 67
REMARK SMILES IDX 57 68 65 69 58 70 59 71 63 72 66 73 60 74 61 75 64 76 62 77
REMARK SMILES IDX 41 78 42 79 50 80 43 81 44 82 48 83 51 84 45 85 46 86 49 87
REMARK SMILES IDX 47 88
REMARK H PARENT 82 16 3 18 71 41 39 52
REMARK Flexibility Score: inf
ROOT
ATOM      1  O   UNL A   1      32.719  34.806  29.627  1.00  0.00    -0.374 OA
ENDROOT
BRANCH   1   2
ATOM      2  C   UNL A   1      32.894  36.011  30.376  1.00  0.00     0.202 C 
BRANCH   2   3
ATOM      3  C   UNL A   1      32.939  35.848  31.897  1.00  0.00     0.261 C 
BRANCH   3   4
ATOM      4  O   UNL A   1      33.550  34.600  32.254  1.00  0.00    -0.461 OA
BRANCH   4   5
ATOM      5  C   UNL A   1      34.768  34.692  32.863  1.00  0.00     0.342 C 
ATOM      6  O   UNL A   1      35.079  35.591  33.638  1.00  0.00    -0.248 OA
BRANCH   5   7
ATOM      7  C   UNL A   1      35.681  33.475  32.516  1.00  0.00     0.184 C 
ATOM      8  C   UNL A   1      34.749  32.412  31.921  1.00  0.00     0.060 C 
BRANCH   7   9
ATOM      9  C   UNL A   1      36.829  33.845  31.558  1.00  0.00    -0.005 A 
ATOM     10  C   UNL A   1      36.771  33.423  30.213  1.00  0.00     0.011 A 
ATOM     11  C   UNL A   1      37.972  34.560  31.962  1.00  0.00     0.011 A 
ATOM     12  C   UNL A   1      37.794  33.728  29.310  1.00  0.00     0.046 A 
ATOM     13  C   UNL A   1      38.999  34.865  31.059  1.00  0.00     0.046 A 
ATOM     14  C   UNL A   1      38.895  34.452  29.737  1.00  0.00     0.115 A 
BRANCH  14  15
ATOM     15  O   UNL A   1      39.864  34.739  28.822  1.00  0.00    -0.508 OA
ATOM     16  H   UNL A   1      40.314  35.560  28.857  1.00  0.00     0.293 HD
ENDBRANCH  14  15
ENDBRANCH   7   9
BRANCH   7  17
ATOM     17  O   UNL A   1      36.275  32.867  33.672  1.00  0.00    -0.374 OA
ATOM     18  H   UNL A   1      36.258  33.494  34.413  1.00  0.00     0.212 HD
ENDBRANCH   7  17
ENDBRANCH   5   7
ENDBRANCH   4   5
ENDBRANCH   3   4
ENDBRANCH   2   3
ENDBRANCH   1   2
BRANCH   1  19
ATOM     19  C   UNL A   1      33.695  34.502  28.629  1.00  0.00     0.202 C 
BRANCH  19  20
ATOM     20  C   UNL A   1      33.547  33.158  27.906  1.00  0.00     0.261 C 
BRANCH  20  21
ATOM     21  O   UNL A   1      34.211  32.090  28.605  1.00  0.00    -0.460 OA
BRANCH  21  22
ATOM     22  C   UNL A   1      34.459  30.988  27.858  1.00  0.00     0.338 C 
ATOM     23  O   UNL A   1      33.837  30.603  26.876  1.00  0.00    -0.246 OA
BRANCH  22  24
ATOM     24  C   UNL A   1      35.729  30.363  28.268  1.00  0.00     0.060 A 
ATOM     25  C   UNL A   1      35.758  29.727  29.517  1.00  0.00     0.016 A 
ATOM     26  C   UNL A   1      36.890  30.480  27.503  1.00  0.00     0.016 A 
ATOM     27  C   UNL A   1      36.963  29.248  30.027  1.00  0.00     0.010 A 
ATOM     28  C   UNL A   1      38.100  30.009  28.022  1.00  0.00     0.010 A 
ATOM     29  C   UNL A   1      38.148  29.425  29.300  1.00  0.00    -0.014 A 
BRANCH  29  30
ATOM     30  C   UNL A   1      39.447  29.133  29.955  1.00  0.00     0.031 A 
ATOM     31  C   UNL A   1      40.289  28.000  29.433  1.00  0.00     0.074 A 
ATOM     32  C   UNL A   1      39.892  29.892  30.971  1.00  0.00     0.049 A 
ATOM     33  N   UNL A   1      41.451  27.566  29.851  1.00  0.00    -0.248 NA
ATOM     34  C   UNL A   1      39.746  27.258  28.285  1.00  0.00     0.031 C 
ATOM     35  C   UNL A   1      39.187  31.039  31.536  1.00  0.00     0.029 A 
ATOM     36  N   UNL A   1      41.047  29.806  31.707  1.00  0.00    -0.354 N 
ATOM     37  C   UNL A   1      41.777  26.504  29.019  1.00  0.00     0.074 A 
ATOM     38  C   UNL A   1      40.679  26.338  28.091  1.00  0.00     0.031 C 
ATOM     39  C   UNL A   1      39.921  31.548  32.541  1.00  0.00     0.029 A 
ATOM     40  C   UNL A   1      41.133  30.746  32.704  1.00  0.00     0.049 A 
ATOM     41  H   UNL A   1      41.747  29.135  31.537  1.00  0.00     0.167 HD
ATOM     42  C   UNL A   1      42.896  25.742  29.024  1.00  0.00     0.037 A 
ATOM     43  C   UNL A   1      42.076  30.923  33.649  1.00  0.00     0.037 A 
ATOM     44  C   UNL A   1      43.988  25.905  29.946  1.00  0.00     0.049 A 
ATOM     45  C   UNL A   1      43.278  30.017  33.678  1.00  0.00     0.074 A 
ATOM     46  C   UNL A   1      45.174  25.197  30.016  1.00  0.00     0.029 A 
ATOM     47  N   UNL A   1      44.020  26.842  30.969  1.00  0.00    -0.354 N 
ATOM     48  N   UNL A   1      43.593  29.032  32.870  1.00  0.00    -0.248 NA
ATOM     49  C   UNL A   1      44.256  30.246  34.751  1.00  0.00     0.031 C 
ATOM     50  C   UNL A   1      45.905  25.674  31.110  1.00  0.00     0.029 A 
ATOM     51  C   UNL A   1      45.195  26.711  31.692  1.00  0.00     0.049 A 
ATOM     52  H   UNL A   1      43.314  27.503  31.153  1.00  0.00     0.167 HD
ATOM     53  C   UNL A   1      44.813  28.543  33.319  1.00  0.00     0.074 A 
ATOM     54  C   UNL A   1      45.188  29.346  34.465  1.00  0.00     0.031 C 
ATOM     55  C   UNL A   1      45.554  27.521  32.828  1.00  0.00     0.037 A 
BRANCH  42  56
ATOM     56  C   UNL A   1      42.985  24.640  28.008  1.00  0.00     0.064 A 
ATOM     57  C   UNL A   1      42.602  23.326  28.313  1.00  0.00     0.173 A 
ATOM     58  C   UNL A   1      43.430  24.911  26.706  1.00  0.00     0.173 A 
ATOM     59  F   UNL A   1      42.183  23.013  29.548  1.00  0.00    -0.203 F 
ATOM     60  C   UNL A   1      42.685  22.317  27.356  1.00  0.00     0.198 A 
ATOM     61  C   UNL A   1      43.487  23.905  25.745  1.00  0.00     0.198 A 
ATOM     62  F   UNL A   1      43.805  26.153  26.363  1.00  0.00    -0.203 F 
ATOM     63  F   UNL A   1      42.355  21.059  27.680  1.00  0.00    -0.200 F 
ATOM     64  C   UNL A   1      43.121  22.608  26.072  1.00  0.00     0.200 A 
ATOM     65  F   UNL A   1      43.900  24.191  24.502  1.00  0.00    -0.200 F 
ATOM     66  F   UNL A   1      43.196  21.638  25.151  1.00  0.00    -0.200 F 
ENDBRANCH  42  56
BRANCH  43  67
ATOM     67  C   UNL A   1      41.915  32.001  34.660  1.00  0.00     0.064 A 
ATOM     68  C   UNL A   1      42.478  33.269  34.462  1.00  0.00     0.173 A 
ATOM     69  C   UNL A   1      41.210  31.779  35.852  1.00  0.00     0.173 A 
ATOM     70  F   UNL A   1      43.186  33.521  33.350  1.00  0.00    -0.203 F 
ATOM     71  C   UNL A   1      42.353  34.270  35.423  1.00  0.00     0.198 A 
ATOM     72  C   UNL A   1      41.063  32.788  36.800  1.00  0.00     0.198 A 
ATOM     73  F   UNL A   1      40.657  30.581  36.091  1.00  0.00    -0.203 F 
ATOM     74  F   UNL A   1      42.936  35.460  35.227  1.00  0.00    -0.200 F 
ATOM     75  C   UNL A   1      41.640  34.030  36.588  1.00  0.00     0.200 A 
ATOM     76  F   UNL A   1      40.367  32.555  37.921  1.00  0.00    -0.200 F 
ATOM     77  F   UNL A   1      41.518  34.995  37.511  1.00  0.00    -0.200 F 
ENDBRANCH  43  67
BRANCH  55  78
ATOM     78  C   UNL A   1      46.861  27.228  33.508  1.00  0.00     0.064 A 
ATOM     79  C   UNL A   1      48.039  27.901  33.155  1.00  0.00     0.173 A 
ATOM     80  C   UNL A   1      46.923  26.295  34.555  1.00  0.00     0.173 A 
ATOM     81  F   UNL A   1      48.033  28.791  32.152  1.00  0.00    -0.203 F 
ATOM     82  C   UNL A   1      49.238  27.634  33.811  1.00  0.00     0.198 A 
ATOM     83  C   UNL A   1      48.118  26.051  35.226  1.00  0.00     0.198 A 
ATOM     84  F   UNL A   1      45.823  25.629  34.935  1.00  0.00    -0.203 F 
ATOM     85  F   UNL A   1      50.361  28.258  33.428  1.00  0.00    -0.200 F 
ATOM     86  C   UNL A   1      49.275  26.716  34.849  1.00  0.00     0.200 A 
ATOM     87  F   UNL A   1      48.151  25.172  36.236  1.00  0.00    -0.200 F 
ATOM     88  F   UNL A   1      50.430  26.465  35.483  1.00  0.00    -0.200 F 
ENDBRANCH  55  78
ENDBRANCH  29  30
ENDBRANCH  22  24
ENDBRANCH  21  22
ENDBRANCH  20  21
ENDBRANCH  19  20
ENDBRANCH   1  19
TORSDOF 17
ENDMDL
MODEL 3
REMARK VINA RESULT:     -10.5      2.858      8.582
REMARK SMILES C[C@](O)(C(=O)OCCOCCOC(=O)c1ccc(-c2c3nc(c(-c4c(F)c(F)c(F)c(F)c4F)c4ccc([nH]4)c(-c4c(F)c(F)c(F)c(F)c4F)c4nc(c(-c5c(F)c(F)c(F)c(F)c5F)c5ccc2[nH]5)C=C4)C=C3)cc1)c1ccc(O)cc1
REMARK SMILES IDX 9 1 8 2 7 3 6 4 4 5 5 6 2 7 1 8 78 9 79 10 84 11 80 12 83 13
REMARK SMILES IDX 81 14 82 15 3 17 10 19 11 20 12 21 13 22 14 23 15 24 16 25
REMARK SMILES IDX 77 26 17 27 76 28 18 29 19 30 20 31 70 32 21 33 75 34 69 35
REMARK SMILES IDX 71 36 22 37 74 38 68 39 67 40 23 42 55 43 35 44 54 45 36 46
REMARK SMILES IDX 39 47 53 48 72 49 37 50 38 51 52 53 73 54 40 55 24 56 25 57
REMARK SMILES IDX 33 58 26 59 27 60 31 61 34 62 28 63 29 64 32 65 30 66 56 67
REMARK SMILES IDX 57 68 65 69 58 70 59 71 63 72 66 73 60 74 61 75 64 76 62 77
REMARK SMILES IDX 41 78 42 79 50 80 43 81 44 82 48 83 51 84 45 85 46 86 49 87
REMARK SMILES IDX 47 88
REMARK H PARENT 82 16 3 18 71 41 39 52
REMARK Flexibility Score: inf
ROOT
ATOM      1  O   UNL A   1      31.987  27.910  25.877  1.00  0.00    -0.374 OA
ENDROOT
BRANCH   1   2
ATOM      2  C   UNL A   1      32.405  26.791  25.092  1.00  0.00     0.202 C 
BRANCH   2   3
ATOM      3  C   UNL A   1      33.726  26.142  25.511  1.00  0.00     0.261 C 
BRANCH   3   4
ATOM      4  O   UNL A   1      34.327  25.458  24.403  1.00  0.00    -0.461 OA
BRANCH   4   5
ATOM      5  C   UNL A   1      35.144  24.413  24.728  1.00  0.00     0.342 C 
ATOM      6  O   UNL A   1      35.819  24.363  25.751  1.00  0.00    -0.248 OA
BRANCH   5   7
ATOM      7  C   UNL A   1      35.051  23.260  23.679  1.00  0.00     0.184 C 
ATOM      8  C   UNL A   1      36.498  22.938  23.286  1.00  0.00     0.060 C 
BRANCH   7   9
ATOM      9  C   UNL A   1      34.304  22.024  24.217  1.00  0.00    -0.005 A 
ATOM     10  C   UNL A   1      32.901  22.068  24.354  1.00  0.00     0.011 A 
ATOM     11  C   UNL A   1      34.956  20.845  24.626  1.00  0.00     0.011 A 
ATOM     12  C   UNL A   1      32.183  20.975  24.846  1.00  0.00     0.046 A 
ATOM     13  C   UNL A   1      34.238  19.749  25.121  1.00  0.00     0.046 A 
ATOM     14  C   UNL A   1      32.855  19.822  25.219  1.00  0.00     0.115 A 
BRANCH  14  15
ATOM     15  O   UNL A   1      32.117  18.774  25.682  1.00  0.00    -0.508 OA
ATOM     16  H   UNL A   1      32.509  17.929  25.774  1.00  0.00     0.293 HD
ENDBRANCH  14  15
ENDBRANCH   7   9
BRANCH   7  17
ATOM     17  O   UNL A   1      34.395  23.654  22.465  1.00  0.00    -0.374 OA
ATOM     18  H   UNL A   1      33.644  24.232  22.675  1.00  0.00     0.212 HD
ENDBRANCH   7  17
ENDBRANCH   5   7
ENDBRANCH   4   5
ENDBRANCH   3   4
ENDBRANCH   2   3
ENDBRANCH   1   2
BRANCH   1  19
ATOM     19  C   UNL A   1      31.386  29.009  25.190  1.00  0.00     0.202 C 
BRANCH  19  20
ATOM     20  C   UNL A   1      31.825  30.415  25.618  1.00  0.00     0.261 C 
BRANCH  20  21
ATOM     21  O   UNL A   1      32.449  30.416  26.915  1.00  0.00    -0.460 OA
BRANCH  21  22
ATOM     22  C   UNL A   1      33.143  31.541  27.211  1.00  0.00     0.338 C 
ATOM     23  O   UNL A   1      32.719  32.689  27.233  1.00  0.00    -0.246 OA
BRANCH  22  24
ATOM     24  C   UNL A   1      34.490  31.199  27.700  1.00  0.00     0.060 A 
ATOM     25  C   UNL A   1      34.739  29.856  28.013  1.00  0.00     0.016 A 
ATOM     26  C   UNL A   1      35.457  32.177  27.943  1.00  0.00     0.016 A 
ATOM     27  C   UNL A   1      35.941  29.493  28.618  1.00  0.00     0.010 A 
ATOM     28  C   UNL A   1      36.657  31.811  28.562  1.00  0.00     0.010 A 
ATOM     29  C   UNL A   1      36.889  30.475  28.934  1.00  0.00    -0.014 A 
BRANCH  29  30
ATOM     30  C   UNL A   1      38.046  30.114  29.790  1.00  0.00     0.031 A 
ATOM     31  C   UNL A   1      39.082  29.165  29.254  1.00  0.00     0.074 A 
ATOM     32  C   UNL A   1      38.195  30.656  31.011  1.00  0.00     0.049 A 
ATOM     33  N   UNL A   1      40.168  28.710  29.825  1.00  0.00    -0.248 NA
ATOM     34  C   UNL A   1      38.864  28.663  27.888  1.00  0.00     0.031 C 
ATOM     35  C   UNL A   1      37.281  31.617  31.623  1.00  0.00     0.029 A 
ATOM     36  N   UNL A   1      39.174  30.471  31.954  1.00  0.00    -0.354 N 
ATOM     37  C   UNL A   1      40.761  27.871  28.891  1.00  0.00     0.074 A 
ATOM     38  C   UNL A   1      39.901  27.856  27.727  1.00  0.00     0.031 C 
ATOM     39  C   UNL A   1      37.737  31.932  32.847  1.00  0.00     0.029 A 
ATOM     40  C   UNL A   1      38.960  31.176  33.112  1.00  0.00     0.049 A 
ATOM     41  H   UNL A   1      39.956  29.890  31.813  1.00  0.00     0.167 HD
ATOM     42  C   UNL A   1      41.924  27.183  28.992  1.00  0.00     0.037 A 
ATOM     43  C   UNL A   1      39.665  31.192  34.260  1.00  0.00     0.037 A 
ATOM     44  C   UNL A   1      42.779  27.198  30.149  1.00  0.00     0.049 A 
ATOM     45  C   UNL A   1      40.916  30.362  34.374  1.00  0.00     0.074 A 
ATOM     46  C   UNL A   1      43.987  26.552  30.339  1.00  0.00     0.029 A 
ATOM     47  N   UNL A   1      42.508  27.891  31.319  1.00  0.00    -0.354 N 
ATOM     48  N   UNL A   1      41.486  29.594  33.477  1.00  0.00    -0.248 NA
ATOM     49  C   UNL A   1      41.624  30.402  35.662  1.00  0.00     0.031 C 
ATOM     50  C   UNL A   1      44.426  26.817  31.641  1.00  0.00     0.029 A 
ATOM     51  C   UNL A   1      43.513  27.666  32.245  1.00  0.00     0.049 A 
ATOM     52  H   UNL A   1      41.718  28.460  31.470  1.00  0.00     0.167 HD
ATOM     53  C   UNL A   1      42.627  29.080  34.080  1.00  0.00     0.074 A 
ATOM     54  C   UNL A   1      42.677  29.634  35.417  1.00  0.00     0.031 C 
ATOM     55  C   UNL A   1      43.550  28.228  33.572  1.00  0.00     0.037 A 
BRANCH  42  56
ATOM     56  C   UNL A   1      42.327  26.334  27.822  1.00  0.00     0.064 A 
ATOM     57  C   UNL A   1      41.800  25.049  27.630  1.00  0.00     0.173 A 
ATOM     58  C   UNL A   1      43.229  26.825  26.868  1.00  0.00     0.173 A 
ATOM     59  F   UNL A   1      40.944  24.529  28.522  1.00  0.00    -0.203 F 
ATOM     60  C   UNL A   1      42.180  24.277  26.535  1.00  0.00     0.198 A 
ATOM     61  C   UNL A   1      43.587  26.060  25.760  1.00  0.00     0.198 A 
ATOM     62  F   UNL A   1      43.760  28.050  27.004  1.00  0.00    -0.203 F 
ATOM     63  F   UNL A   1      41.697  23.035  26.392  1.00  0.00    -0.200 F 
ATOM     64  C   UNL A   1      43.068  24.785  25.598  1.00  0.00     0.200 A 
ATOM     65  F   UNL A   1      44.438  26.557  24.852  1.00  0.00    -0.200 F 
ATOM     66  F   UNL A   1      43.430  24.043  24.543  1.00  0.00    -0.200 F 
ENDBRANCH  42  56
BRANCH  43  67
ATOM     67  C   UNL A   1      39.195  32.015  35.405  1.00  0.00     0.064 A 
ATOM     68  C   UNL A   1      39.550  33.366  35.519  1.00  0.00     0.173 A 
ATOM     69  C   UNL A   1      38.394  31.463  36.415  1.00  0.00     0.173 A 
ATOM     70  F   UNL A   1      40.339  33.931  34.591  1.00  0.00    -0.203 F 
ATOM     71  C   UNL A   1      39.135  34.129  36.607  1.00  0.00     0.198 A 
ATOM     72  C   UNL A   1      37.957  32.234  37.489  1.00  0.00     0.198 A 
ATOM     73  F   UNL A   1      38.030  30.174  36.354  1.00  0.00    -0.203 F 
ATOM     74  F   UNL A   1      39.524  35.407  36.714  1.00  0.00    -0.200 F 
ATOM     75  C   UNL A   1      38.333  33.565  37.588  1.00  0.00     0.200 A 
ATOM     76  F   UNL A   1      37.176  31.688  38.431  1.00  0.00    -0.200 F 
ATOM     77  F   UNL A   1      37.931  34.302  38.633  1.00  0.00    -0.200 F 
ENDBRANCH  43  67
BRANCH  55  78
ATOM     78  C   UNL A   1      44.708  27.861  34.453  1.00  0.00     0.064 A 
ATOM     79  C   UNL A   1      45.875  28.637  34.493  1.00  0.00     0.173 A 
ATOM     80  C   UNL A   1      44.631  26.744  35.300  1.00  0.00     0.173 A 
ATOM     81  F   UNL A   1      46.003  29.706  33.692  1.00  0.00    -0.203 F 
ATOM     82  C   UNL A   1      46.932  28.296  35.333  1.00  0.00     0.198 A 
ATOM     83  C   UNL A   1      45.679  26.422  36.158  1.00  0.00     0.198 A 
ATOM     84  F   UNL A   1      43.534  25.973  35.304  1.00  0.00    -0.203 F 
ATOM     85  F   UNL A   1      48.055  29.027  35.323  1.00  0.00    -0.200 F 
ATOM     86  C   UNL A   1      46.831  27.194  36.169  1.00  0.00     0.200 A 
ATOM     87  F   UNL A   1      45.575  25.364  36.974  1.00  0.00    -0.200 F 
ATOM     88  F   UNL A   1      47.847  26.872  36.981  1.00  0.00    -0.200 F 
ENDBRANCH  55  78
ENDBRANCH  29  30
ENDBRANCH  22  24
ENDBRANCH  21  22
ENDBRANCH  20  21
ENDBRANCH  19  20
ENDBRANCH   1  19
TORSDOF 17
ENDMDL
