MODEL 1
REMARK VINA RESULT:     -12.4      0.000      0.000
REMARK SMILES O=C(OCCOCCOC(=O)c1ccc(NS(=O)(=O)c2ccc3c(c2)CCC3)cc1Cl)c1ccc(-c2c3nc(c(-c4c(F)c(F)c(F)c(F)c4F)c4ccc([nH]4)c(-c4c(F)c(F)c(F)c(F)c4F)c4nc(c(-c5c(F)c(F)c(F)c(F)c5F)c5ccc2[nH]5)C=C4)C=C3)cc1
REMARK SMILES IDX 7 1 6 2 5 3 4 4 3 5 2 6 1 7 32 8 33 9 94 10 34 11 93 12
REMARK SMILES IDX 35 13 36 14 37 15 87 16 38 17 92 18 86 19 88 20 39 21 91 22
REMARK SMILES IDX 85 23 84 24 40 26 72 27 52 28 71 29 53 30 56 31 70 32 89 33
REMARK SMILES IDX 54 34 55 35 69 37 90 38 57 39 41 40 42 41 50 42 43 43 44 44
REMARK SMILES IDX 48 45 51 46 45 47 46 48 49 49 47 50 73 51 74 52 82 53 75 54
REMARK SMILES IDX 76 55 80 56 83 57 77 58 78 59 81 60 79 61 58 62 59 63 67 64
REMARK SMILES IDX 60 65 61 66 65 67 68 68 62 69 63 70 66 71 64 72 8 73 9 74
REMARK SMILES IDX 10 75 11 76 12 77 13 78 30 79 14 80 29 81 31 82 15 83 16 84
REMARK SMILES IDX 17 86 18 87 19 88 20 89 21 90 25 91 22 92 24 93 23 94 26 95
REMARK SMILES IDX 28 96 27 97
REMARK H PARENT 88 25 56 36 16 85
REMARK Flexibility Score: inf
ROOT
ATOM      1  C   UNL A   1      39.404  21.488  26.411  1.00  0.00     0.202 C 
ENDROOT
BRANCH   1   2
ATOM      2  O   UNL A   1      40.691  21.927  25.951  1.00  0.00    -0.374 OA
BRANCH   2   3
ATOM      3  C   UNL A   1      41.739  20.970  26.110  1.00  0.00     0.202 C 
BRANCH   3   4
ATOM      4  C   UNL A   1      43.097  21.449  25.578  1.00  0.00     0.261 C 
BRANCH   4   5
ATOM      5  O   UNL A   1      42.956  22.690  24.866  1.00  0.00    -0.460 OA
BRANCH   5   6
ATOM      6  C   UNL A   1      43.586  23.866  25.079  1.00  0.00     0.338 C 
ATOM      7  O   UNL A   1      44.551  24.147  24.370  1.00  0.00    -0.246 OA
BRANCH   6   8
ATOM      8  C   UNL A   1      43.184  24.856  26.127  1.00  0.00     0.060 A 
ATOM      9  C   UNL A   1      43.512  26.215  26.129  1.00  0.00     0.016 A 
ATOM     10  C   UNL A   1      42.329  24.387  27.139  1.00  0.00     0.016 A 
ATOM     11  C   UNL A   1      43.054  27.073  27.120  1.00  0.00     0.010 A 
ATOM     12  C   UNL A   1      41.835  25.249  28.121  1.00  0.00     0.010 A 
ATOM     13  C   UNL A   1      42.212  26.595  28.118  1.00  0.00    -0.014 A 
BRANCH  13  14
ATOM     14  C   UNL A   1      41.816  27.503  29.205  1.00  0.00     0.031 A 
ATOM     15  C   UNL A   1      42.662  27.545  30.435  1.00  0.00     0.074 A 
ATOM     16  C   UNL A   1      40.764  28.322  29.039  1.00  0.00     0.049 A 
ATOM     17  N   UNL A   1      42.469  28.187  31.555  1.00  0.00    -0.248 NA
ATOM     18  C   UNL A   1      43.906  26.759  30.393  1.00  0.00     0.031 C 
ATOM     19  C   UNL A   1      39.958  28.421  27.821  1.00  0.00     0.029 A 
ATOM     20  N   UNL A   1      40.199  29.233  29.891  1.00  0.00    -0.354 N 
ATOM     21  C   UNL A   1      43.548  27.858  32.362  1.00  0.00     0.074 A 
ATOM     22  C   UNL A   1      44.394  26.962  31.606  1.00  0.00     0.031 C 
ATOM     23  C   UNL A   1      39.001  29.344  28.005  1.00  0.00     0.029 A 
ATOM     24  C   UNL A   1      39.090  29.850  29.371  1.00  0.00     0.049 A 
ATOM     25  H   UNL A   1      40.555  29.425  30.789  1.00  0.00     0.167 HD
ATOM     26  C   UNL A   1      43.791  28.263  33.630  1.00  0.00     0.037 A 
ATOM     27  C   UNL A   1      38.225  30.696  29.958  1.00  0.00     0.037 A 
ATOM     28  C   UNL A   1      42.916  29.145  34.352  1.00  0.00     0.049 A 
ATOM     29  C   UNL A   1      38.470  31.072  31.396  1.00  0.00     0.074 A 
ATOM     30  C   UNL A   1      43.008  29.581  35.660  1.00  0.00     0.029 A 
ATOM     31  N   UNL A   1      41.774  29.726  33.812  1.00  0.00    -0.354 N 
ATOM     32  N   UNL A   1      39.454  30.709  32.186  1.00  0.00    -0.248 NA
ATOM     33  C   UNL A   1      37.486  31.958  32.028  1.00  0.00     0.031 C 
ATOM     34  C   UNL A   1      41.898  30.394  35.923  1.00  0.00     0.029 A 
ATOM     35  C   UNL A   1      41.144  30.506  34.763  1.00  0.00     0.049 A 
ATOM     36  H   UNL A   1      41.461  29.600  32.888  1.00  0.00     0.167 HD
ATOM     37  C   UNL A   1      39.221  31.334  33.402  1.00  0.00     0.074 A 
ATOM     38  C   UNL A   1      38.006  32.110  33.240  1.00  0.00     0.031 C 
ATOM     39  C   UNL A   1      39.940  31.273  34.550  1.00  0.00     0.037 A 
BRANCH  26  40
ATOM     40  C   UNL A   1      44.994  27.680  34.308  1.00  0.00     0.064 A 
ATOM     41  C   UNL A   1      46.258  28.285  34.233  1.00  0.00     0.173 A 
ATOM     42  C   UNL A   1      44.892  26.459  34.991  1.00  0.00     0.173 A 
ATOM     43  F   UNL A   1      46.416  29.438  33.565  1.00  0.00    -0.203 F 
ATOM     44  C   UNL A   1      47.381  27.669  34.780  1.00  0.00     0.198 A 
ATOM     45  C   UNL A   1      46.012  25.859  35.562  1.00  0.00     0.198 A 
ATOM     46  F   UNL A   1      43.710  25.832  35.084  1.00  0.00    -0.203 F 
ATOM     47  F   UNL A   1      48.590  28.229  34.632  1.00  0.00    -0.200 F 
ATOM     48  C   UNL A   1      47.258  26.457  35.444  1.00  0.00     0.200 A 
ATOM     49  F   UNL A   1      45.890  24.688  36.203  1.00  0.00    -0.200 F 
ATOM     50  F   UNL A   1      48.342  25.856  35.954  1.00  0.00    -0.200 F 
ENDBRANCH  26  40
BRANCH  27  51
ATOM     51  C   UNL A   1      37.047  31.199  29.204  1.00  0.00     0.064 A 
ATOM     52  C   UNL A   1      35.960  30.366  28.910  1.00  0.00     0.173 A 
ATOM     53  C   UNL A   1      36.973  32.537  28.780  1.00  0.00     0.173 A 
ATOM     54  F   UNL A   1      35.989  29.075  29.273  1.00  0.00    -0.203 F 
ATOM     55  C   UNL A   1      34.848  30.847  28.218  1.00  0.00     0.198 A 
ATOM     56  C   UNL A   1      35.850  33.024  28.114  1.00  0.00     0.198 A 
ATOM     57  F   UNL A   1      37.986  33.379  29.033  1.00  0.00    -0.203 F 
ATOM     58  F   UNL A   1      33.838  30.020  27.921  1.00  0.00    -0.200 F 
ATOM     59  C   UNL A   1      34.791  32.177  27.829  1.00  0.00     0.200 A 
ATOM     60  F   UNL A   1      35.794  34.314  27.754  1.00  0.00    -0.200 F 
ATOM     61  F   UNL A   1      33.717  32.641  27.174  1.00  0.00    -0.200 F 
ENDBRANCH  27  51
BRANCH  39  62
ATOM     62  C   UNL A   1      39.452  32.099  35.701  1.00  0.00     0.064 A 
ATOM     63  C   UNL A   1      39.875  33.422  35.887  1.00  0.00     0.173 A 
ATOM     64  C   UNL A   1      38.493  31.578  36.583  1.00  0.00     0.173 A 
ATOM     65  F   UNL A   1      40.801  33.955  35.075  1.00  0.00    -0.203 F 
ATOM     66  C   UNL A   1      39.366  34.192  36.928  1.00  0.00     0.198 A 
ATOM     67  C   UNL A   1      37.967  32.360  37.606  1.00  0.00     0.198 A 
ATOM     68  F   UNL A   1      38.055  30.319  36.438  1.00  0.00    -0.203 F 
ATOM     69  F   UNL A   1      39.806  35.444  37.110  1.00  0.00    -0.200 F 
ATOM     70  C   UNL A   1      38.406  33.664  37.779  1.00  0.00     0.200 A 
ATOM     71  F   UNL A   1      37.030  31.853  38.419  1.00  0.00    -0.200 F 
ATOM     72  F   UNL A   1      37.904  34.413  38.770  1.00  0.00    -0.200 F 
ENDBRANCH  39  62
ENDBRANCH  13  14
ENDBRANCH   6   8
ENDBRANCH   5   6
ENDBRANCH   4   5
ENDBRANCH   3   4
ENDBRANCH   2   3
ENDBRANCH   1   2
BRANCH   1  73
ATOM     73  C   UNL A   1      38.353  21.807  25.353  1.00  0.00     0.261 C 
BRANCH  73  74
ATOM     74  O   UNL A   1      37.083  21.368  25.861  1.00  0.00    -0.460 OA
BRANCH  74  75
ATOM     75  C   UNL A   1      36.385  20.507  25.084  1.00  0.00     0.339 C 
ATOM     76  O   UNL A   1      36.711  19.375  24.764  1.00  0.00    -0.246 OA
BRANCH  75  77
ATOM     77  C   UNL A   1      35.016  21.043  24.906  1.00  0.00     0.078 A 
ATOM     78  C   UNL A   1      33.996  20.380  25.605  1.00  0.00     0.019 A 
ATOM     79  C   UNL A   1      34.710  22.210  24.203  1.00  0.00     0.057 A 
ATOM     80  C   UNL A   1      32.708  20.922  25.667  1.00  0.00     0.028 A 
ATOM     81  C   UNL A   1      33.427  22.767  24.304  1.00  0.00     0.048 A 
ATOM     82  Cl  UNL A   1      35.838  23.032  23.183  1.00  0.00    -0.083 Cl
ATOM     83  C   UNL A   1      32.426  22.143  25.057  1.00  0.00     0.050 A 
BRANCH  83  84
ATOM     84  N   UNL A   1      31.250  22.906  25.314  1.00  0.00    -0.280 N 
ATOM     85  H   UNL A   1      30.536  22.870  24.637  1.00  0.00     0.180 HD
BRANCH  84  86
ATOM     86  S   UNL A   1      30.975  23.861  26.663  1.00  0.00     0.261 S 
ATOM     87  O   UNL A   1      29.664  23.487  27.149  1.00  0.00    -0.201 OA
ATOM     88  O   UNL A   1      32.149  23.785  27.506  1.00  0.00    -0.201 OA
BRANCH  86  89
ATOM     89  C   UNL A   1      30.841  25.531  26.066  1.00  0.00     0.088 A 
ATOM     90  C   UNL A   1      31.761  26.474  26.565  1.00  0.00     0.022 A 
ATOM     91  C   UNL A   1      29.983  25.847  25.007  1.00  0.00     0.026 A 
ATOM     92  C   UNL A   1      31.879  27.731  25.971  1.00  0.00     0.005 A 
ATOM     93  C   UNL A   1      30.156  27.076  24.393  1.00  0.00    -0.043 A 
ATOM     94  C   UNL A   1      31.101  28.000  24.860  1.00  0.00    -0.045 A 
ATOM     95  C   UNL A   1      29.468  27.604  23.176  1.00  0.00     0.036 C 
ATOM     96  C   UNL A   1      31.123  29.220  23.990  1.00  0.00     0.036 C 
ATOM     97  C   UNL A   1      30.476  28.665  22.712  1.00  0.00     0.010 C 
ENDBRANCH  86  89
ENDBRANCH  84  86
ENDBRANCH  83  84
ENDBRANCH  75  77
ENDBRANCH  74  75
ENDBRANCH  73  74
ENDBRANCH   1  73
TORSDOF 17
ENDMDL
MODEL 2
REMARK VINA RESULT:     -12.3      5.143      7.806
REMARK SMILES O=C(OCCOCCOC(=O)c1ccc(NS(=O)(=O)c2ccc3c(c2)CCC3)cc1Cl)c1ccc(-c2c3nc(c(-c4c(F)c(F)c(F)c(F)c4F)c4ccc([nH]4)c(-c4c(F)c(F)c(F)c(F)c4F)c4nc(c(-c5c(F)c(F)c(F)c(F)c5F)c5ccc2[nH]5)C=C4)C=C3)cc1
REMARK SMILES IDX 7 1 6 2 5 3 4 4 3 5 2 6 1 7 32 8 33 9 94 10 34 11 93 12
REMARK SMILES IDX 35 13 36 14 37 15 87 16 38 17 92 18 86 19 88 20 39 21 91 22
REMARK SMILES IDX 85 23 84 24 40 26 72 27 52 28 71 29 53 30 56 31 70 32 89 33
REMARK SMILES IDX 54 34 55 35 69 37 90 38 57 39 41 40 42 41 50 42 43 43 44 44
REMARK SMILES IDX 48 45 51 46 45 47 46 48 49 49 47 50 73 51 74 52 82 53 75 54
REMARK SMILES IDX 76 55 80 56 83 57 77 58 78 59 81 60 79 61 58 62 59 63 67 64
REMARK SMILES IDX 60 65 61 66 65 67 68 68 62 69 63 70 66 71 64 72 8 73 9 74
REMARK SMILES IDX 10 75 11 76 12 77 13 78 30 79 14 80 29 81 31 82 15 83 16 84
REMARK SMILES IDX 17 86 18 87 19 88 20 89 21 90 25 91 22 92 24 93 23 94 26 95
REMARK SMILES IDX 28 96 27 97
REMARK H PARENT 88 25 56 36 16 85
REMARK Flexibility Score: inf
ROOT
ATOM      1  C   UNL A   1      41.484  21.563  26.372  1.00  0.00     0.202 C 
ENDROOT
BRANCH   1   2
ATOM      2  O   UNL A   1      42.369  20.493  26.737  1.00  0.00    -0.374 OA
BRANCH   2   3
ATOM      3  C   UNL A   1      42.111  19.254  26.076  1.00  0.00     0.202 C 
BRANCH   3   4
ATOM      4  C   UNL A   1      43.360  18.383  25.891  1.00  0.00     0.261 C 
BRANCH   4   5
ATOM      5  O   UNL A   1      43.922  18.569  24.581  1.00  0.00    -0.460 OA
BRANCH   5   6
ATOM      6  C   UNL A   1      44.922  19.392  24.195  1.00  0.00     0.338 C 
ATOM      7  O   UNL A   1      45.822  18.927  23.497  1.00  0.00    -0.246 OA
BRANCH   6   8
ATOM      8  C   UNL A   1      45.007  20.840  24.563  1.00  0.00     0.060 A 
ATOM      9  C   UNL A   1      44.498  21.901  23.810  1.00  0.00     0.016 A 
ATOM     10  C   UNL A   1      45.566  21.137  25.818  1.00  0.00     0.016 A 
ATOM     11  C   UNL A   1      44.580  23.215  24.253  1.00  0.00     0.010 A 
ATOM     12  C   UNL A   1      45.623  22.451  26.289  1.00  0.00     0.010 A 
ATOM     13  C   UNL A   1      45.140  23.495  25.495  1.00  0.00    -0.014 A 
BRANCH  13  14
ATOM     14  C   UNL A   1      45.295  24.900  25.900  1.00  0.00     0.031 A 
ATOM     15  C   UNL A   1      46.619  25.556  25.679  1.00  0.00     0.074 A 
ATOM     16  C   UNL A   1      44.239  25.577  26.377  1.00  0.00     0.049 A 
ATOM     17  N   UNL A   1      47.028  26.743  26.035  1.00  0.00    -0.248 NA
ATOM     18  C   UNL A   1      47.622  24.764  24.947  1.00  0.00     0.031 C 
ATOM     19  C   UNL A   1      42.885  25.038  26.512  1.00  0.00     0.029 A 
ATOM     20  N   UNL A   1      44.134  26.867  26.825  1.00  0.00    -0.354 N 
ATOM     21  C   UNL A   1      48.342  26.829  25.601  1.00  0.00     0.074 A 
ATOM     22  C   UNL A   1      48.665  25.578  24.952  1.00  0.00     0.031 C 
ATOM     23  C   UNL A   1      42.083  25.992  27.011  1.00  0.00     0.029 A 
ATOM     24  C   UNL A   1      42.881  27.182  27.287  1.00  0.00     0.049 A 
ATOM     25  H   UNL A   1      44.884  27.503  26.817  1.00  0.00     0.167 HD
ATOM     26  C   UNL A   1      49.200  27.865  25.750  1.00  0.00     0.037 A 
ATOM     27  C   UNL A   1      42.450  28.298  27.903  1.00  0.00     0.037 A 
ATOM     28  C   UNL A   1      48.844  29.089  26.414  1.00  0.00     0.049 A 
ATOM     29  C   UNL A   1      43.442  29.408  28.130  1.00  0.00     0.074 A 
ATOM     30  C   UNL A   1      49.633  30.189  26.692  1.00  0.00     0.029 A 
ATOM     31  N   UNL A   1      47.574  29.368  26.909  1.00  0.00    -0.354 N 
ATOM     32  N   UNL A   1      44.707  29.467  27.780  1.00  0.00    -0.248 NA
ATOM     33  C   UNL A   1      42.960  30.594  28.847  1.00  0.00     0.031 C 
ATOM     34  C   UNL A   1      48.851  31.115  27.392  1.00  0.00     0.029 A 
ATOM     35  C   UNL A   1      47.560  30.615  27.503  1.00  0.00     0.049 A 
ATOM     36  H   UNL A   1      46.800  28.764  26.845  1.00  0.00     0.167 HD
ATOM     37  C   UNL A   1      45.168  30.701  28.215  1.00  0.00     0.074 A 
ATOM     38  C   UNL A   1      44.042  31.363  28.845  1.00  0.00     0.031 C 
ATOM     39  C   UNL A   1      46.408  31.239  28.107  1.00  0.00     0.037 A 
BRANCH  26  40
ATOM     40  C   UNL A   1      50.602  27.659  25.261  1.00  0.00     0.064 A 
ATOM     41  C   UNL A   1      50.952  27.822  23.912  1.00  0.00     0.173 A 
ATOM     42  C   UNL A   1      51.599  27.226  26.148  1.00  0.00     0.173 A 
ATOM     43  F   UNL A   1      50.028  28.203  23.016  1.00  0.00    -0.203 F 
ATOM     44  C   UNL A   1      52.236  27.520  23.463  1.00  0.00     0.198 A 
ATOM     45  C   UNL A   1      52.889  26.952  25.702  1.00  0.00     0.198 A 
ATOM     46  F   UNL A   1      51.316  27.045  27.447  1.00  0.00    -0.203 F 
ATOM     47  F   UNL A   1      52.527  27.612  22.158  1.00  0.00    -0.200 F 
ATOM     48  C   UNL A   1      53.203  27.086  24.357  1.00  0.00     0.200 A 
ATOM     49  F   UNL A   1      53.822  26.534  26.568  1.00  0.00    -0.200 F 
ATOM     50  F   UNL A   1      54.432  26.778  23.922  1.00  0.00    -0.200 F 
ENDBRANCH  26  40
BRANCH  27  51
ATOM     51  C   UNL A   1      41.043  28.393  28.372  1.00  0.00     0.064 A 
ATOM     52  C   UNL A   1      40.675  27.983  29.660  1.00  0.00     0.173 A 
ATOM     53  C   UNL A   1      40.036  28.921  27.547  1.00  0.00     0.173 A 
ATOM     54  F   UNL A   1      41.593  27.453  30.481  1.00  0.00    -0.203 F 
ATOM     55  C   UNL A   1      39.356  28.092  30.103  1.00  0.00     0.198 A 
ATOM     56  C   UNL A   1      38.725  29.055  28.000  1.00  0.00     0.198 A 
ATOM     57  F   UNL A   1      40.331  29.328  26.303  1.00  0.00    -0.203 F 
ATOM     58  F   UNL A   1      39.026  27.661  31.328  1.00  0.00    -0.200 F 
ATOM     59  C   UNL A   1      38.385  28.636  29.276  1.00  0.00     0.200 A 
ATOM     60  F   UNL A   1      37.794  29.596  27.201  1.00  0.00    -0.200 F 
ATOM     61  F   UNL A   1      37.122  28.750  29.706  1.00  0.00    -0.200 F 
ENDBRANCH  27  51
BRANCH  39  62
ATOM     62  C   UNL A   1      46.595  32.625  28.646  1.00  0.00     0.064 A 
ATOM     63  C   UNL A   1      47.016  32.850  29.963  1.00  0.00     0.173 A 
ATOM     64  C   UNL A   1      46.418  33.735  27.806  1.00  0.00     0.173 A 
ATOM     65  F   UNL A   1      47.184  31.819  30.805  1.00  0.00    -0.203 F 
ATOM     66  C   UNL A   1      47.240  34.143  30.427  1.00  0.00     0.198 A 
ATOM     67  C   UNL A   1      46.668  35.023  28.266  1.00  0.00     0.198 A 
ATOM     68  F   UNL A   1      46.021  33.565  26.536  1.00  0.00    -0.203 F 
ATOM     69  F   UNL A   1      47.612  34.341  31.699  1.00  0.00    -0.200 F 
ATOM     70  C   UNL A   1      47.075  35.226  29.575  1.00  0.00     0.200 A 
ATOM     71  F   UNL A   1      46.522  36.067  27.438  1.00  0.00    -0.200 F 
ATOM     72  F   UNL A   1      47.308  36.469  30.020  1.00  0.00    -0.200 F 
ENDBRANCH  39  62
ENDBRANCH  13  14
ENDBRANCH   6   8
ENDBRANCH   5   6
ENDBRANCH   4   5
ENDBRANCH   3   4
ENDBRANCH   2   3
ENDBRANCH   1   2
BRANCH   1  73
ATOM     73  C   UNL A   1      40.040  21.105  26.544  1.00  0.00     0.261 C 
BRANCH  73  74
ATOM     74  O   UNL A   1      39.215  21.971  25.748  1.00  0.00    -0.460 OA
BRANCH  74  75
ATOM     75  C   UNL A   1      38.162  21.396  25.121  1.00  0.00     0.339 C 
ATOM     76  O   UNL A   1      37.931  20.202  25.016  1.00  0.00    -0.246 OA
BRANCH  75  77
ATOM     77  C   UNL A   1      37.166  22.449  24.818  1.00  0.00     0.078 A 
ATOM     78  C   UNL A   1      36.316  22.203  23.730  1.00  0.00     0.019 A 
ATOM     79  C   UNL A   1      36.951  23.582  25.606  1.00  0.00     0.057 A 
ATOM     80  C   UNL A   1      35.217  23.032  23.484  1.00  0.00     0.028 A 
ATOM     81  C   UNL A   1      35.823  24.383  25.377  1.00  0.00     0.048 A 
ATOM     82  Cl  UNL A   1      38.014  24.077  26.876  1.00  0.00    -0.083 Cl
ATOM     83  C   UNL A   1      34.935  24.100  24.333  1.00  0.00     0.050 A 
BRANCH  83  84
ATOM     84  N   UNL A   1      33.696  24.803  24.340  1.00  0.00    -0.280 N 
ATOM     85  H   UNL A   1      33.682  25.692  23.916  1.00  0.00     0.180 HD
BRANCH  84  86
ATOM     86  S   UNL A   1      32.260  24.255  25.006  1.00  0.00     0.261 S 
ATOM     87  O   UNL A   1      32.486  24.197  26.434  1.00  0.00    -0.201 OA
ATOM     88  O   UNL A   1      31.182  25.036  24.438  1.00  0.00    -0.201 OA
BRANCH  86  89
ATOM     89  C   UNL A   1      32.067  22.577  24.451  1.00  0.00     0.088 A 
ATOM     90  C   UNL A   1      31.806  22.373  23.081  1.00  0.00     0.022 A 
ATOM     91  C   UNL A   1      32.351  21.503  25.301  1.00  0.00     0.026 A 
ATOM     92  C   UNL A   1      31.885  21.094  22.529  1.00  0.00     0.005 A 
ATOM     93  C   UNL A   1      32.483  20.251  24.723  1.00  0.00    -0.043 A 
ATOM     94  C   UNL A   1      32.267  20.052  23.353  1.00  0.00    -0.045 A 
ATOM     95  C   UNL A   1      32.903  18.974  25.376  1.00  0.00     0.036 C 
ATOM     96  C   UNL A   1      32.528  18.625  22.978  1.00  0.00     0.036 C 
ATOM     97  C   UNL A   1      33.401  18.179  24.161  1.00  0.00     0.010 C 
ENDBRANCH  86  89
ENDBRANCH  84  86
ENDBRANCH  83  84
ENDBRANCH  75  77
ENDBRANCH  74  75
ENDBRANCH  73  74
ENDBRANCH   1  73
TORSDOF 17
ENDMDL
MODEL 3
REMARK VINA RESULT:     -12.2      4.087      9.240
REMARK SMILES O=C(OCCOCCOC(=O)c1ccc(NS(=O)(=O)c2ccc3c(c2)CCC3)cc1Cl)c1ccc(-c2c3nc(c(-c4c(F)c(F)c(F)c(F)c4F)c4ccc([nH]4)c(-c4c(F)c(F)c(F)c(F)c4F)c4nc(c(-c5c(F)c(F)c(F)c(F)c5F)c5ccc2[nH]5)C=C4)C=C3)cc1
REMARK SMILES IDX 7 1 6 2 5 3 4 4 3 5 2 6 1 7 32 8 33 9 94 10 34 11 93 12
REMARK SMILES IDX 35 13 36 14 37 15 87 16 38 17 92 18 86 19 88 20 39 21 91 22
REMARK SMILES IDX 85 23 84 24 40 26 72 27 52 28 71 29 53 30 56 31 70 32 89 33
REMARK SMILES IDX 54 34 55 35 69 37 90 38 57 39 41 40 42 41 50 42 43 43 44 44
REMARK SMILES IDX 48 45 51 46 45 47 46 48 49 49 47 50 73 51 74 52 82 53 75 54
REMARK SMILES IDX 76 55 80 56 83 57 77 58 78 59 81 60 79 61 58 62 59 63 67 64
REMARK SMILES IDX 60 65 61 66 65 67 68 68 62 69 63 70 66 71 64 72 8 73 9 74
REMARK SMILES IDX 10 75 11 76 12 77 13 78 30 79 14 80 29 81 31 82 15 83 16 84
REMARK SMILES IDX 17 86 18 87 19 88 20 89 21 90 25 91 22 92 24 93 23 94 26 95
REMARK SMILES IDX 28 96 27 97
REMARK H PARENT 88 25 56 36 16 85
REMARK Flexibility Score: inf
ROOT
ATOM      1  C   UNL A   1      33.286  34.179  28.306  1.00  0.00     0.202 C 
ENDROOT
BRANCH   1   2
ATOM      2  O   UNL A   1      32.644  35.355  28.820  1.00  0.00    -0.374 OA
BRANCH   2   3
ATOM      3  C   UNL A   1      33.512  36.252  29.515  1.00  0.00     0.202 C 
BRANCH   3   4
ATOM      4  C   UNL A   1      32.770  37.318  30.332  1.00  0.00     0.261 C 
BRANCH   4   5
ATOM      5  O   UNL A   1      32.721  36.953  31.721  1.00  0.00    -0.460 OA
BRANCH   5   6
ATOM      6  C   UNL A   1      32.776  35.723  32.278  1.00  0.00     0.338 C 
ATOM      7  O   UNL A   1      31.718  35.145  32.519  1.00  0.00    -0.246 OA
BRANCH   6   8
ATOM      8  C   UNL A   1      34.048  35.014  32.625  1.00  0.00     0.060 A 
ATOM      9  C   UNL A   1      35.330  35.565  32.554  1.00  0.00     0.016 A 
ATOM     10  C   UNL A   1      33.920  33.718  33.153  1.00  0.00     0.016 A 
ATOM     11  C   UNL A   1      36.454  34.848  32.943  1.00  0.00     0.010 A 
ATOM     12  C   UNL A   1      35.040  33.000  33.578  1.00  0.00     0.010 A 
ATOM     13  C   UNL A   1      36.314  33.564  33.459  1.00  0.00    -0.014 A 
BRANCH  13  14
ATOM     14  C   UNL A   1      37.526  32.794  33.779  1.00  0.00     0.031 A 
ATOM     15  C   UNL A   1      38.177  33.020  35.104  1.00  0.00     0.074 A 
ATOM     16  C   UNL A   1      37.968  31.861  32.920  1.00  0.00     0.049 A 
ATOM     17  N   UNL A   1      39.295  32.538  35.573  1.00  0.00    -0.248 NA
ATOM     18  C   UNL A   1      37.463  33.910  36.035  1.00  0.00     0.031 C 
ATOM     19  C   UNL A   1      37.319  31.503  31.659  1.00  0.00     0.029 A 
ATOM     20  N   UNL A   1      39.060  31.038  32.983  1.00  0.00    -0.354 N 
ATOM     21  C   UNL A   1      39.436  33.088  36.838  1.00  0.00     0.074 A 
ATOM     22  C   UNL A   1      38.289  33.939  37.067  1.00  0.00     0.031 C 
ATOM     23  C   UNL A   1      38.026  30.528  31.065  1.00  0.00     0.029 A 
ATOM     24  C   UNL A   1      39.207  30.243  31.874  1.00  0.00     0.049 A 
ATOM     25  H   UNL A   1      39.678  31.018  33.749  1.00  0.00     0.167 HD
ATOM     26  C   UNL A   1      40.448  32.903  37.717  1.00  0.00     0.037 A 
ATOM     27  C   UNL A   1      40.212  29.414  31.540  1.00  0.00     0.037 A 
ATOM     28  C   UNL A   1      41.578  32.058  37.445  1.00  0.00     0.049 A 
ATOM     29  C   UNL A   1      41.368  29.284  32.497  1.00  0.00     0.074 A 
ATOM     30  C   UNL A   1      42.702  31.834  38.217  1.00  0.00     0.029 A 
ATOM     31  N   UNL A   1      41.721  31.294  36.292  1.00  0.00    -0.354 N 
ATOM     32  N   UNL A   1      41.537  29.856  33.667  1.00  0.00    -0.248 NA
ATOM     33  C   UNL A   1      42.474  28.411  32.088  1.00  0.00     0.031 C 
ATOM     34  C   UNL A   1      43.543  30.965  37.512  1.00  0.00     0.029 A 
ATOM     35  C   UNL A   1      42.920  30.607  36.324  1.00  0.00     0.049 A 
ATOM     36  H   UNL A   1      41.064  31.249  35.560  1.00  0.00     0.167 HD
ATOM     37  C   UNL A   1      42.757  29.401  34.144  1.00  0.00     0.074 A 
ATOM     38  C   UNL A   1      43.280  28.494  33.139  1.00  0.00     0.031 C 
ATOM     39  C   UNL A   1      43.392  29.703  35.304  1.00  0.00     0.037 A 
BRANCH  26  40
ATOM     40  C   UNL A   1      40.394  33.696  38.988  1.00  0.00     0.064 A 
ATOM     41  C   UNL A   1      41.083  34.910  39.138  1.00  0.00     0.173 A 
ATOM     42  C   UNL A   1      39.695  33.199  40.097  1.00  0.00     0.173 A 
ATOM     43  F   UNL A   1      41.793  35.414  38.117  1.00  0.00    -0.203 F 
ATOM     44  C   UNL A   1      41.105  35.574  40.363  1.00  0.00     0.198 A 
ATOM     45  C   UNL A   1      39.696  33.879  41.312  1.00  0.00     0.198 A 
ATOM     46  F   UNL A   1      39.028  32.038  40.011  1.00  0.00    -0.203 F 
ATOM     47  F   UNL A   1      41.830  36.693  40.503  1.00  0.00    -0.200 F 
ATOM     48  C   UNL A   1      40.413  35.059  41.448  1.00  0.00     0.200 A 
ATOM     49  F   UNL A   1      39.026  33.379  42.359  1.00  0.00    -0.200 F 
ATOM     50  F   UNL A   1      40.451  35.688  42.631  1.00  0.00    -0.200 F 
ENDBRANCH  26  40
BRANCH  27  51
ATOM     51  C   UNL A   1      40.181  28.691  30.242  1.00  0.00     0.064 A 
ATOM     52  C   UNL A   1      39.546  27.449  30.115  1.00  0.00     0.173 A 
ATOM     53  C   UNL A   1      40.766  29.241  29.089  1.00  0.00     0.173 A 
ATOM     54  F   UNL A   1      38.989  26.870  31.189  1.00  0.00    -0.203 F 
ATOM     55  C   UNL A   1      39.502  26.782  28.890  1.00  0.00     0.198 A 
ATOM     56  C   UNL A   1      40.697  28.588  27.860  1.00  0.00     0.198 A 
ATOM     57  F   UNL A   1      41.389  30.427  29.153  1.00  0.00    -0.203 F 
ATOM     58  F   UNL A   1      38.917  25.580  28.806  1.00  0.00    -0.200 F 
ATOM     59  C   UNL A   1      40.070  27.356  27.763  1.00  0.00     0.200 A 
ATOM     60  F   UNL A   1      41.235  29.155  26.772  1.00  0.00    -0.200 F 
ATOM     61  F   UNL A   1      40.017  26.721  26.585  1.00  0.00    -0.200 F 
ENDBRANCH  27  51
BRANCH  39  62
ATOM     62  C   UNL A   1      44.698  29.015  35.562  1.00  0.00     0.064 A 
ATOM     63  C   UNL A   1      45.915  29.568  35.142  1.00  0.00     0.173 A 
ATOM     64  C   UNL A   1      44.730  27.823  36.302  1.00  0.00     0.173 A 
ATOM     65  F   UNL A   1      45.930  30.698  34.419  1.00  0.00    -0.203 F 
ATOM     66  C   UNL A   1      47.121  28.942  35.443  1.00  0.00     0.198 A 
ATOM     67  C   UNL A   1      45.938  27.216  36.623  1.00  0.00     0.198 A 
ATOM     68  F   UNL A   1      43.588  27.263  36.730  1.00  0.00    -0.203 F 
ATOM     69  F   UNL A   1      48.274  29.468  35.005  1.00  0.00    -0.200 F 
ATOM     70  C   UNL A   1      47.132  27.774  36.190  1.00  0.00     0.200 A 
ATOM     71  F   UNL A   1      45.948  26.095  37.357  1.00  0.00    -0.200 F 
ATOM     72  F   UNL A   1      48.296  27.182  36.493  1.00  0.00    -0.200 F 
ENDBRANCH  39  62
ENDBRANCH  13  14
ENDBRANCH   6   8
ENDBRANCH   5   6
ENDBRANCH   4   5
ENDBRANCH   3   4
ENDBRANCH   2   3
ENDBRANCH   1   2
BRANCH   1  73
ATOM     73  C   UNL A   1      34.268  33.645  29.343  1.00  0.00     0.261 C 
BRANCH  73  74
ATOM     74  O   UNL A   1      34.394  32.229  29.129  1.00  0.00    -0.460 OA
BRANCH  74  75
ATOM     75  C   UNL A   1      35.038  31.843  28.003  1.00  0.00     0.339 C 
ATOM     76  O   UNL A   1      36.046  32.338  27.525  1.00  0.00    -0.246 OA
BRANCH  75  77
ATOM     77  C   UNL A   1      34.494  30.532  27.581  1.00  0.00     0.078 A 
ATOM     78  C   UNL A   1      33.140  30.511  27.214  1.00  0.00     0.019 A 
ATOM     79  C   UNL A   1      35.261  29.376  27.414  1.00  0.00     0.057 A 
ATOM     80  C   UNL A   1      32.582  29.378  26.613  1.00  0.00     0.028 A 
ATOM     81  C   UNL A   1      34.704  28.260  26.773  1.00  0.00     0.048 A 
ATOM     82  Cl  UNL A   1      36.892  29.226  27.965  1.00  0.00    -0.083 Cl
ATOM     83  C   UNL A   1      33.372  28.262  26.344  1.00  0.00     0.050 A 
BRANCH  83  84
ATOM     84  N   UNL A   1      32.976  27.199  25.481  1.00  0.00    -0.280 N 
ATOM     85  H   UNL A   1      32.686  26.360  25.907  1.00  0.00     0.180 HD
BRANCH  84  86
ATOM     86  S   UNL A   1      32.963  27.248  23.807  1.00  0.00     0.261 S 
ATOM     87  O   UNL A   1      33.798  28.370  23.439  1.00  0.00    -0.201 OA
ATOM     88  O   UNL A   1      33.230  25.910  23.324  1.00  0.00    -0.201 OA
BRANCH  86  89
ATOM     89  C   UNL A   1      31.300  27.673  23.339  1.00  0.00     0.088 A 
ATOM     90  C   UNL A   1      30.283  26.746  23.645  1.00  0.00     0.022 A 
ATOM     91  C   UNL A   1      30.995  28.951  22.860  1.00  0.00     0.026 A 
ATOM     92  C   UNL A   1      28.940  27.108  23.535  1.00  0.00     0.005 A 
ATOM     93  C   UNL A   1      29.658  29.311  22.814  1.00  0.00    -0.043 A 
ATOM     94  C   UNL A   1      28.645  28.406  23.160  1.00  0.00    -0.045 A 
ATOM     95  C   UNL A   1      29.072  30.642  22.470  1.00  0.00     0.036 C 
ATOM     96  C   UNL A   1      27.300  29.061  23.078  1.00  0.00     0.036 C 
ATOM     97  C   UNL A   1      27.703  30.541  23.155  1.00  0.00     0.010 C 
ENDBRANCH  86  89
ENDBRANCH  84  86
ENDBRANCH  83  84
ENDBRANCH  75  77
ENDBRANCH  74  75
ENDBRANCH  73  74
ENDBRANCH   1  73
TORSDOF 17
ENDMDL
