MODEL 1
REMARK VINA RESULT:     -12.2      0.000      0.000
REMARK SMILES CCc1ccc2[nH]c(C(=O)c3cc(C)ccn3)c(CC(=O)OCCOCCOC(=O)c3ccc(-c4c5nc(c(-c6c(F)c(F)c(F)c(F)c6F)c6ccc([nH]6)c(-c6c(F)c(F)c(F)c(F)c6F)c6nc(c(-c7c(F)c(F)c(F)c(F)c7F)c7ccc4[nH]7)C=C6)C=C5)cc3)c2c1
REMARK SMILES IDX 24 1 23 2 22 3 20 4 21 5 19 6 18 7 3 8 4 9 95 10 5 11 94 12
REMARK SMILES IDX 6 13 7 14 8 15 2 17 1 18 9 19 10 20 11 21 12 22 17 23 13 24
REMARK SMILES IDX 16 25 14 26 15 27 25 28 26 29 27 30 28 31 29 32 30 33 31 34
REMARK SMILES IDX 32 35 93 36 33 37 92 38 34 39 35 40 36 41 86 42 37 43 91 44
REMARK SMILES IDX 85 45 87 46 38 47 90 48 84 49 83 50 39 52 71 53 51 54 70 55
REMARK SMILES IDX 52 56 55 57 69 58 88 59 53 60 54 61 68 63 89 64 56 65 40 66
REMARK SMILES IDX 41 67 49 68 42 69 43 70 47 71 50 72 44 73 45 74 48 75 46 76
REMARK SMILES IDX 72 77 73 78 81 79 74 80 75 81 79 82 82 83 76 84 77 85 80 86
REMARK SMILES IDX 78 87 57 88 58 89 66 90 59 91 60 92 64 93 67 94 61 95 62 96
REMARK SMILES IDX 65 97 63 98
REMARK H PARENT 7 16 87 51 55 62
REMARK Flexibility Score: inf
ROOT
ATOM      1  C   UNL A   1      31.807  28.827  25.901  1.00  0.00     0.202 C 
ENDROOT
BRANCH   1   2
ATOM      2  C   UNL A   1      32.062  27.449  26.533  1.00  0.00     0.261 C 
BRANCH   2   3
ATOM      3  O   UNL A   1      33.167  26.730  25.945  1.00  0.00    -0.463 OA
BRANCH   3   4
ATOM      4  C   UNL A   1      33.048  25.373  25.973  1.00  0.00     0.310 C 
ATOM      5  O   UNL A   1      32.162  24.779  26.587  1.00  0.00    -0.252 OA
BRANCH   4   6
ATOM      6  C   UNL A   1      34.020  24.619  25.087  1.00  0.00     0.161 C 
BRANCH   6   7
ATOM      7  C   UNL A   1      33.471  23.881  23.895  1.00  0.00     0.000 A 
ATOM      8  C   UNL A   1      32.825  20.149  24.561  1.00  0.00    -0.048 A 
ATOM      9  C   UNL A   1      32.253  19.900  23.305  1.00  0.00     0.006 A 
ATOM     10  C   UNL A   1      33.324  21.435  24.834  1.00  0.00     0.014 A 
ATOM     11  C   UNL A   1      32.155  20.894  22.323  1.00  0.00     0.027 A 
ATOM     12  C   UNL A   1      33.195  22.471  23.879  1.00  0.00     0.004 A 
ATOM     13  C   UNL A   1      32.618  22.172  22.652  1.00  0.00     0.046 A 
ATOM     14  N   UNL A   1      32.599  23.336  21.923  1.00  0.00    -0.352 N 
ATOM     15  C   UNL A   1      32.962  24.417  22.703  1.00  0.00     0.093 A 
ATOM     16  H   UNL A   1      32.357  23.394  20.970  1.00  0.00     0.167 HD
BRANCH   8  17
ATOM     17  C   UNL A   1      32.824  19.024  25.576  1.00  0.00     0.032 C 
ATOM     18  C   UNL A   1      32.477  17.630  25.068  1.00  0.00     0.009 C 
ENDBRANCH   8  17
BRANCH  15  19
ATOM     19  C   UNL A   1      32.807  25.821  22.312  1.00  0.00     0.227 C 
ATOM     20  O   UNL A   1      33.658  26.441  21.679  1.00  0.00    -0.285 OA
BRANCH  19  21
ATOM     21  C   UNL A   1      31.539  26.545  22.638  1.00  0.00     0.113 A 
ATOM     22  C   UNL A   1      31.315  27.853  22.231  1.00  0.00     0.036 A 
ATOM     23  N   UNL A   1      30.643  25.829  23.366  1.00  0.00    -0.253 NA
ATOM     24  C   UNL A   1      30.116  28.465  22.619  1.00  0.00    -0.047 A 
ATOM     25  C   UNL A   1      29.505  26.439  23.738  1.00  0.00     0.112 A 
ATOM     26  C   UNL A   1      29.774  29.864  22.204  1.00  0.00     0.044 C 
ATOM     27  C   UNL A   1      29.203  27.743  23.396  1.00  0.00     0.023 A 
ENDBRANCH  19  21
ENDBRANCH  15  19
ENDBRANCH   6   7
ENDBRANCH   4   6
ENDBRANCH   3   4
ENDBRANCH   2   3
ENDBRANCH   1   2
BRANCH   1  28
ATOM     28  O   UNL A   1      31.972  29.976  26.730  1.00  0.00    -0.374 OA
BRANCH  28  29
ATOM     29  C   UNL A   1      31.408  31.199  26.267  1.00  0.00     0.202 C 
BRANCH  29  30
ATOM     30  C   UNL A   1      31.782  32.470  27.033  1.00  0.00     0.261 C 
BRANCH  30  31
ATOM     31  O   UNL A   1      33.143  32.877  26.903  1.00  0.00    -0.460 OA
BRANCH  31  32
ATOM     32  C   UNL A   1      33.663  33.448  28.005  1.00  0.00     0.338 C 
ATOM     33  O   UNL A   1      33.214  34.359  28.685  1.00  0.00    -0.246 OA
BRANCH  32  34
ATOM     34  C   UNL A   1      34.893  32.737  28.344  1.00  0.00     0.060 A 
ATOM     35  C   UNL A   1      34.799  31.396  28.726  1.00  0.00     0.016 A 
ATOM     36  C   UNL A   1      36.107  33.425  28.380  1.00  0.00     0.016 A 
ATOM     37  C   UNL A   1      35.930  30.746  29.204  1.00  0.00     0.010 A 
ATOM     38  C   UNL A   1      37.241  32.769  28.855  1.00  0.00     0.010 A 
ATOM     39  C   UNL A   1      37.143  31.443  29.308  1.00  0.00    -0.014 A 
BRANCH  39  40
ATOM     40  C   UNL A   1      38.273  30.816  30.024  1.00  0.00     0.031 A 
ATOM     41  C   UNL A   1      38.511  31.177  31.462  1.00  0.00     0.074 A 
ATOM     42  C   UNL A   1      39.046  29.912  29.398  1.00  0.00     0.049 A 
ATOM     43  N   UNL A   1      39.421  30.732  32.289  1.00  0.00    -0.248 NA
ATOM     44  C   UNL A   1      37.602  32.176  32.046  1.00  0.00     0.031 C 
ATOM     45  C   UNL A   1      38.885  29.490  28.009  1.00  0.00     0.029 A 
ATOM     46  N   UNL A   1      40.117  29.190  29.853  1.00  0.00    -0.354 N 
ATOM     47  C   UNL A   1      39.194  31.395  33.488  1.00  0.00     0.074 A 
ATOM     48  C   UNL A   1      38.086  32.300  33.273  1.00  0.00     0.031 C 
ATOM     49  C   UNL A   1      39.831  28.580  27.720  1.00  0.00     0.029 A 
ATOM     50  C   UNL A   1      40.671  28.376  28.898  1.00  0.00     0.049 A 
ATOM     51  H   UNL A   1      40.456  29.250  30.775  1.00  0.00     0.167 HD
ATOM     52  C   UNL A   1      39.846  31.248  34.665  1.00  0.00     0.037 A 
ATOM     53  C   UNL A   1      41.744  27.567  28.971  1.00  0.00     0.037 A 
ATOM     54  C   UNL A   1      40.948  30.345  34.862  1.00  0.00     0.049 A 
ATOM     55  C   UNL A   1      42.476  27.450  30.281  1.00  0.00     0.074 A 
ATOM     56  C   UNL A   1      41.667  30.095  36.017  1.00  0.00     0.029 A 
ATOM     57  N   UNL A   1      41.495  29.544  33.868  1.00  0.00    -0.354 N 
ATOM     58  N   UNL A   1      42.229  28.044  31.424  1.00  0.00    -0.248 NA
ATOM     59  C   UNL A   1      43.630  26.542  30.315  1.00  0.00     0.031 C 
ATOM     60  C   UNL A   1      42.680  29.179  35.709  1.00  0.00     0.029 A 
ATOM     61  C   UNL A   1      42.560  28.820  34.376  1.00  0.00     0.049 A 
ATOM     62  H   UNL A   1      41.173  29.499  32.939  1.00  0.00     0.167 HD
ATOM     63  C   UNL A   1      43.179  27.569  32.316  1.00  0.00     0.074 A 
ATOM     64  C   UNL A   1      43.998  26.624  31.586  1.00  0.00     0.031 C 
ATOM     65  C   UNL A   1      43.359  27.885  33.624  1.00  0.00     0.037 A 
BRANCH  52  66
ATOM     66  C   UNL A   1      39.399  32.102  35.816  1.00  0.00     0.064 A 
ATOM     67  C   UNL A   1      38.440  31.656  36.737  1.00  0.00     0.173 A 
ATOM     68  C   UNL A   1      39.948  33.378  36.009  1.00  0.00     0.173 A 
ATOM     69  F   UNL A   1      37.871  30.449  36.589  1.00  0.00    -0.203 F 
ATOM     70  C   UNL A   1      38.026  32.466  37.791  1.00  0.00     0.198 A 
ATOM     71  C   UNL A   1      39.553  34.175  37.079  1.00  0.00     0.198 A 
ATOM     72  F   UNL A   1      40.870  33.853  35.157  1.00  0.00    -0.203 F 
ATOM     73  F   UNL A   1      37.072  32.039  38.630  1.00  0.00    -0.200 F 
ATOM     74  C   UNL A   1      38.587  33.723  37.965  1.00  0.00     0.200 A 
ATOM     75  F   UNL A   1      40.102  35.386  37.251  1.00  0.00    -0.200 F 
ATOM     76  F   UNL A   1      38.189  34.502  38.981  1.00  0.00    -0.200 F 
ENDBRANCH  52  66
BRANCH  53  77
ATOM     77  C   UNL A   1      42.180  26.811  27.769  1.00  0.00     0.064 A 
ATOM     78  C   UNL A   1      43.144  27.330  26.895  1.00  0.00     0.173 A 
ATOM     79  C   UNL A   1      41.648  25.545  27.479  1.00  0.00     0.173 A 
ATOM     80  F   UNL A   1      43.667  28.545  27.119  1.00  0.00    -0.203 F 
ATOM     81  C   UNL A   1      43.551  26.617  25.768  1.00  0.00     0.198 A 
ATOM     82  C   UNL A   1      42.075  24.822  26.368  1.00  0.00     0.198 A 
ATOM     83  F   UNL A   1      40.724  25.005  28.286  1.00  0.00    -0.203 F 
ATOM     84  F   UNL A   1      44.447  27.151  24.928  1.00  0.00    -0.200 F 
ATOM     85  C   UNL A   1      43.021  25.362  25.510  1.00  0.00     0.200 A 
ATOM     86  F   UNL A   1      41.570  23.604  26.130  1.00  0.00    -0.200 F 
ATOM     87  F   UNL A   1      43.418  24.673  24.431  1.00  0.00    -0.200 F 
ENDBRANCH  53  77
BRANCH  65  88
ATOM     88  C   UNL A   1      44.472  27.187  34.347  1.00  0.00     0.064 A 
ATOM     89  C   UNL A   1      45.757  27.743  34.429  1.00  0.00     0.173 A 
ATOM     90  C   UNL A   1      44.239  25.967  35.000  1.00  0.00     0.173 A 
ATOM     91  F   UNL A   1      46.032  28.901  33.808  1.00  0.00    -0.203 F 
ATOM     92  C   UNL A   1      46.774  27.091  35.120  1.00  0.00     0.198 A 
ATOM     93  C   UNL A   1      45.251  25.333  35.715  1.00  0.00     0.198 A 
ATOM     94  F   UNL A   1      43.024  25.399  34.957  1.00  0.00    -0.203 F 
ATOM     95  F   UNL A   1      48.006  27.619  35.148  1.00  0.00    -0.200 F 
ATOM     96  C   UNL A   1      46.519  25.892  35.768  1.00  0.00     0.200 A 
ATOM     97  F   UNL A   1      44.999  24.182  36.351  1.00  0.00    -0.200 F 
ATOM     98  F   UNL A   1      47.498  25.270  36.438  1.00  0.00    -0.200 F 
ENDBRANCH  65  88
ENDBRANCH  39  40
ENDBRANCH  32  34
ENDBRANCH  31  32
ENDBRANCH  30  31
ENDBRANCH  29  30
ENDBRANCH  28  29
ENDBRANCH   1  28
TORSDOF 18
ENDMDL
MODEL 2
REMARK VINA RESULT:     -11.9      1.748      4.174
REMARK SMILES CCc1ccc2[nH]c(C(=O)c3cc(C)ccn3)c(CC(=O)OCCOCCOC(=O)c3ccc(-c4c5nc(c(-c6c(F)c(F)c(F)c(F)c6F)c6ccc([nH]6)c(-c6c(F)c(F)c(F)c(F)c6F)c6nc(c(-c7c(F)c(F)c(F)c(F)c7F)c7ccc4[nH]7)C=C6)C=C5)cc3)c2c1
REMARK SMILES IDX 24 1 23 2 22 3 20 4 21 5 19 6 18 7 3 8 4 9 95 10 5 11 94 12
REMARK SMILES IDX 6 13 7 14 8 15 2 17 1 18 9 19 10 20 11 21 12 22 17 23 13 24
REMARK SMILES IDX 16 25 14 26 15 27 25 28 26 29 27 30 28 31 29 32 30 33 31 34
REMARK SMILES IDX 32 35 93 36 33 37 92 38 34 39 35 40 36 41 86 42 37 43 91 44
REMARK SMILES IDX 85 45 87 46 38 47 90 48 84 49 83 50 39 52 71 53 51 54 70 55
REMARK SMILES IDX 52 56 55 57 69 58 88 59 53 60 54 61 68 63 89 64 56 65 40 66
REMARK SMILES IDX 41 67 49 68 42 69 43 70 47 71 50 72 44 73 45 74 48 75 46 76
REMARK SMILES IDX 72 77 73 78 81 79 74 80 75 81 79 82 82 83 76 84 77 85 80 86
REMARK SMILES IDX 78 87 57 88 58 89 66 90 59 91 60 92 64 93 67 94 61 95 62 96
REMARK SMILES IDX 65 97 63 98
REMARK H PARENT 7 16 87 51 55 62
REMARK Flexibility Score: inf
ROOT
ATOM      1  C   UNL A   1      33.324  27.662  25.628  1.00  0.00     0.202 C 
ENDROOT
BRANCH   1   2
ATOM      2  C   UNL A   1      33.206  26.511  24.617  1.00  0.00     0.261 C 
BRANCH   2   3
ATOM      3  O   UNL A   1      32.633  25.305  25.165  1.00  0.00    -0.463 OA
BRANCH   3   4
ATOM      4  C   UNL A   1      33.184  24.147  24.706  1.00  0.00     0.310 C 
ATOM      5  O   UNL A   1      33.501  23.962  23.531  1.00  0.00    -0.252 OA
BRANCH   4   6
ATOM      6  C   UNL A   1      33.504  23.115  25.769  1.00  0.00     0.161 C 
BRANCH   6   7
ATOM      7  C   UNL A   1      34.558  22.082  25.464  1.00  0.00     0.000 A 
ATOM      8  C   UNL A   1      38.147  23.320  26.081  1.00  0.00    -0.048 A 
ATOM      9  C   UNL A   1      38.750  22.087  25.796  1.00  0.00     0.006 A 
ATOM     10  C   UNL A   1      36.753  23.442  25.936  1.00  0.00     0.014 A 
ATOM     11  C   UNL A   1      38.005  20.974  25.384  1.00  0.00     0.027 A 
ATOM     12  C   UNL A   1      35.971  22.321  25.567  1.00  0.00     0.004 A 
ATOM     13  C   UNL A   1      36.618  21.122  25.299  1.00  0.00     0.046 A 
ATOM     14  N   UNL A   1      35.646  20.203  24.984  1.00  0.00    -0.352 N 
ATOM     15  C   UNL A   1      34.385  20.711  25.227  1.00  0.00     0.093 A 
ATOM     16  H   UNL A   1      35.825  19.301  24.631  1.00  0.00     0.167 HD
BRANCH   8  17
ATOM     17  C   UNL A   1      39.031  24.443  26.582  1.00  0.00     0.032 C 
ATOM     18  C   UNL A   1      38.908  24.820  28.053  1.00  0.00     0.009 C 
ENDBRANCH   8  17
BRANCH  15  19
ATOM     19  C   UNL A   1      33.151  19.919  25.236  1.00  0.00     0.227 C 
ATOM     20  O   UNL A   1      32.043  20.403  25.449  1.00  0.00    -0.285 OA
BRANCH  19  21
ATOM     21  C   UNL A   1      33.207  18.457  24.922  1.00  0.00     0.113 A 
ATOM     22  C   UNL A   1      32.611  17.507  25.740  1.00  0.00     0.036 A 
ATOM     23  N   UNL A   1      33.891  18.141  23.792  1.00  0.00    -0.253 NA
ATOM     24  C   UNL A   1      32.750  16.158  25.389  1.00  0.00    -0.047 A 
ATOM     25  C   UNL A   1      34.023  16.840  23.481  1.00  0.00     0.112 A 
ATOM     26  C   UNL A   1      32.118  15.064  26.195  1.00  0.00     0.044 C 
ATOM     27  C   UNL A   1      33.481  15.825  24.244  1.00  0.00     0.023 A 
ENDBRANCH  19  21
ENDBRANCH  15  19
ENDBRANCH   6   7
ENDBRANCH   4   6
ENDBRANCH   3   4
ENDBRANCH   2   3
ENDBRANCH   1   2
BRANCH   1  28
ATOM     28  O   UNL A   1      32.488  28.802  25.434  1.00  0.00    -0.374 OA
BRANCH  28  29
ATOM     29  C   UNL A   1      31.773  29.286  26.567  1.00  0.00     0.202 C 
BRANCH  29  30
ATOM     30  C   UNL A   1      32.004  30.746  26.962  1.00  0.00     0.261 C 
BRANCH  30  31
ATOM     31  O   UNL A   1      33.282  31.274  26.610  1.00  0.00    -0.460 OA
BRANCH  31  32
ATOM     32  C   UNL A   1      33.806  32.119  27.518  1.00  0.00     0.338 C 
ATOM     33  O   UNL A   1      33.317  33.129  28.001  1.00  0.00    -0.246 OA
BRANCH  32  34
ATOM     34  C   UNL A   1      35.106  31.592  27.927  1.00  0.00     0.060 A 
ATOM     35  C   UNL A   1      35.211  30.225  28.195  1.00  0.00     0.016 A 
ATOM     36  C   UNL A   1      36.174  32.465  28.138  1.00  0.00     0.016 A 
ATOM     37  C   UNL A   1      36.390  29.729  28.737  1.00  0.00     0.010 A 
ATOM     38  C   UNL A   1      37.358  31.964  28.677  1.00  0.00     0.010 A 
ATOM     39  C   UNL A   1      37.451  30.603  29.016  1.00  0.00    -0.014 A 
BRANCH  39  40
ATOM     40  C   UNL A   1      38.604  30.108  29.796  1.00  0.00     0.031 A 
ATOM     41  C   UNL A   1      38.770  30.565  31.216  1.00  0.00     0.074 A 
ATOM     42  C   UNL A   1      39.463  29.236  29.243  1.00  0.00     0.049 A 
ATOM     43  N   UNL A   1      39.687  30.240  32.090  1.00  0.00    -0.248 NA
ATOM     44  C   UNL A   1      37.770  31.520  31.718  1.00  0.00     0.031 C 
ATOM     45  C   UNL A   1      39.377  28.726  27.876  1.00  0.00     0.029 A 
ATOM     46  N   UNL A   1      40.573  28.627  29.765  1.00  0.00    -0.354 N 
ATOM     47  C   UNL A   1      39.374  30.949  33.243  1.00  0.00     0.074 A 
ATOM     48  C   UNL A   1      38.206  31.749  32.949  1.00  0.00     0.031 C 
ATOM     49  C   UNL A   1      40.399  27.879  27.664  1.00  0.00     0.029 A 
ATOM     50  C   UNL A   1      41.217  27.808  28.872  1.00  0.00     0.049 A 
ATOM     51  H   UNL A   1      40.878  28.764  30.690  1.00  0.00     0.167 HD
ATOM     52  C   UNL A   1      40.000  30.919  34.443  1.00  0.00     0.037 A 
ATOM     53  C   UNL A   1      42.347  27.092  29.019  1.00  0.00     0.037 A 
ATOM     54  C   UNL A   1      41.162  30.117  34.719  1.00  0.00     0.049 A 
ATOM     55  C   UNL A   1      43.046  27.105  30.352  1.00  0.00     0.074 A 
ATOM     56  C   UNL A   1      41.864  29.989  35.905  1.00  0.00     0.029 A 
ATOM     57  N   UNL A   1      41.799  29.310  33.787  1.00  0.00    -0.354 N 
ATOM     58  N   UNL A   1      42.719  27.740  31.452  1.00  0.00    -0.248 NA
ATOM     59  C   UNL A   1      44.266  26.294  30.467  1.00  0.00     0.031 C 
ATOM     60  C   UNL A   1      42.954  29.141  35.676  1.00  0.00     0.029 A 
ATOM     61  C   UNL A   1      42.902  28.701  34.362  1.00  0.00     0.049 A 
ATOM     62  H   UNL A   1      41.510  29.188  32.854  1.00  0.00     0.167 HD
ATOM     63  C   UNL A   1      43.676  27.392  32.394  1.00  0.00     0.074 A 
ATOM     64  C   UNL A   1      44.588  26.475  31.740  1.00  0.00     0.031 C 
ATOM     65  C   UNL A   1      43.793  27.793  33.685  1.00  0.00     0.037 A 
BRANCH  52  66
ATOM     66  C   UNL A   1      39.454  31.797  35.531  1.00  0.00     0.064 A 
ATOM     67  C   UNL A   1      38.489  31.334  36.438  1.00  0.00     0.173 A 
ATOM     68  C   UNL A   1      39.912  33.114  35.678  1.00  0.00     0.173 A 
ATOM     69  F   UNL A   1      38.005  30.086  36.333  1.00  0.00    -0.203 F 
ATOM     70  C   UNL A   1      37.983  32.166  37.434  1.00  0.00     0.198 A 
ATOM     71  C   UNL A   1      39.424  33.935  36.691  1.00  0.00     0.198 A 
ATOM     72  F   UNL A   1      40.834  33.607  34.837  1.00  0.00    -0.203 F 
ATOM     73  F   UNL A   1      37.025  31.718  38.259  1.00  0.00    -0.200 F 
ATOM     74  C   UNL A   1      38.455  33.464  37.563  1.00  0.00     0.200 A 
ATOM     75  F   UNL A   1      39.887  35.187  36.820  1.00  0.00    -0.200 F 
ATOM     76  F   UNL A   1      37.968  34.263  38.522  1.00  0.00    -0.200 F 
ENDBRANCH  52  66
BRANCH  53  77
ATOM     77  C   UNL A   1      42.875  26.308  27.874  1.00  0.00     0.064 A 
ATOM     78  C   UNL A   1      43.646  26.913  26.873  1.00  0.00     0.173 A 
ATOM     79  C   UNL A   1      42.631  24.930  27.766  1.00  0.00     0.173 A 
ATOM     80  F   UNL A   1      43.891  28.231  26.921  1.00  0.00    -0.203 F 
ATOM     81  C   UNL A   1      44.141  26.174  25.800  1.00  0.00     0.198 A 
ATOM     82  C   UNL A   1      43.149  24.187  26.708  1.00  0.00     0.198 A 
ATOM     83  F   UNL A   1      41.900  24.304  28.700  1.00  0.00    -0.203 F 
ATOM     84  F   UNL A   1      44.843  26.784  24.836  1.00  0.00    -0.200 F 
ATOM     85  C   UNL A   1      43.898  24.811  25.722  1.00  0.00     0.200 A 
ATOM     86  F   UNL A   1      42.921  22.868  26.645  1.00  0.00    -0.200 F 
ATOM     87  F   UNL A   1      44.380  24.099  24.695  1.00  0.00    -0.200 F 
ENDBRANCH  53  77
BRANCH  65  88
ATOM     88  C   UNL A   1      44.935  27.225  34.475  1.00  0.00     0.064 A 
ATOM     89  C   UNL A   1      44.817  26.012  35.169  1.00  0.00     0.173 A 
ATOM     90  C   UNL A   1      46.174  27.884  34.505  1.00  0.00     0.173 A 
ATOM     91  F   UNL A   1      43.648  25.353  35.182  1.00  0.00    -0.203 F 
ATOM     92  C   UNL A   1      45.892  25.490  35.882  1.00  0.00     0.198 A 
ATOM     93  C   UNL A   1      47.255  27.344  35.195  1.00  0.00     0.198 A 
ATOM     94  F   UNL A   1      46.338  29.044  33.851  1.00  0.00    -0.203 F 
ATOM     95  F   UNL A   1      45.744  24.352  36.573  1.00  0.00    -0.200 F 
ATOM     96  C   UNL A   1      47.111  26.151  35.888  1.00  0.00     0.200 A 
ATOM     97  F   UNL A   1      48.435  27.977  35.188  1.00  0.00    -0.200 F 
ATOM     98  F   UNL A   1      48.147  25.643  36.570  1.00  0.00    -0.200 F 
ENDBRANCH  65  88
ENDBRANCH  39  40
ENDBRANCH  32  34
ENDBRANCH  31  32
ENDBRANCH  30  31
ENDBRANCH  29  30
ENDBRANCH  28  29
ENDBRANCH   1  28
TORSDOF 18
ENDMDL
MODEL 3
REMARK VINA RESULT:     -11.8      4.334      9.676
REMARK SMILES CCc1ccc2[nH]c(C(=O)c3cc(C)ccn3)c(CC(=O)OCCOCCOC(=O)c3ccc(-c4c5nc(c(-c6c(F)c(F)c(F)c(F)c6F)c6ccc([nH]6)c(-c6c(F)c(F)c(F)c(F)c6F)c6nc(c(-c7c(F)c(F)c(F)c(F)c7F)c7ccc4[nH]7)C=C6)C=C5)cc3)c2c1
REMARK SMILES IDX 24 1 23 2 22 3 20 4 21 5 19 6 18 7 3 8 4 9 95 10 5 11 94 12
REMARK SMILES IDX 6 13 7 14 8 15 2 17 1 18 9 19 10 20 11 21 12 22 17 23 13 24
REMARK SMILES IDX 16 25 14 26 15 27 25 28 26 29 27 30 28 31 29 32 30 33 31 34
REMARK SMILES IDX 32 35 93 36 33 37 92 38 34 39 35 40 36 41 86 42 37 43 91 44
REMARK SMILES IDX 85 45 87 46 38 47 90 48 84 49 83 50 39 52 71 53 51 54 70 55
REMARK SMILES IDX 52 56 55 57 69 58 88 59 53 60 54 61 68 63 89 64 56 65 40 66
REMARK SMILES IDX 41 67 49 68 42 69 43 70 47 71 50 72 44 73 45 74 48 75 46 76
REMARK SMILES IDX 72 77 73 78 81 79 74 80 75 81 79 82 82 83 76 84 77 85 80 86
REMARK SMILES IDX 78 87 57 88 58 89 66 90 59 91 60 92 64 93 67 94 61 95 62 96
REMARK SMILES IDX 65 97 63 98
REMARK H PARENT 7 16 87 51 55 62
REMARK Flexibility Score: inf
ROOT
ATOM      1  C   UNL A   1      36.091  22.051  24.840  1.00  0.00     0.202 C 
ENDROOT
BRANCH   1   2
ATOM      2  C   UNL A   1      36.107  23.017  26.034  1.00  0.00     0.261 C 
BRANCH   2   3
ATOM      3  O   UNL A   1      34.800  23.492  26.421  1.00  0.00    -0.463 OA
BRANCH   3   4
ATOM      4  C   UNL A   1      33.985  22.547  26.969  1.00  0.00     0.310 C 
ATOM      5  O   UNL A   1      34.325  21.806  27.892  1.00  0.00    -0.252 OA
BRANCH   4   6
ATOM      6  C   UNL A   1      32.561  22.537  26.449  1.00  0.00     0.161 C 
BRANCH   6   7
ATOM      7  C   UNL A   1      32.347  22.382  24.966  1.00  0.00     0.000 A 
ATOM      8  C   UNL A   1      32.691  18.754  23.736  1.00  0.00    -0.048 A 
ATOM      9  C   UNL A   1      32.326  19.041  22.412  1.00  0.00     0.006 A 
ATOM     10  C   UNL A   1      32.791  19.814  24.655  1.00  0.00     0.014 A 
ATOM     11  C   UNL A   1      32.049  20.346  21.985  1.00  0.00     0.027 A 
ATOM     12  C   UNL A   1      32.470  21.135  24.262  1.00  0.00     0.004 A 
ATOM     13  C   UNL A   1      32.112  21.365  22.941  1.00  0.00     0.046 A 
ATOM     14  N   UNL A   1      31.840  22.706  22.825  1.00  0.00    -0.352 N 
ATOM     15  C   UNL A   1      31.821  23.318  24.063  1.00  0.00     0.093 A 
ATOM     16  H   UNL A   1      31.680  23.172  21.972  1.00  0.00     0.167 HD
BRANCH   8  17
ATOM     17  C   UNL A   1      32.906  17.303  24.114  1.00  0.00     0.032 C 
ATOM     18  C   UNL A   1      34.068  16.577  23.448  1.00  0.00     0.009 C 
ENDBRANCH   8  17
BRANCH  15  19
ATOM     19  C   UNL A   1      31.323  24.672  24.320  1.00  0.00     0.227 C 
ATOM     20  O   UNL A   1      30.263  24.901  24.899  1.00  0.00    -0.285 OA
BRANCH  19  21
ATOM     21  C   UNL A   1      32.148  25.854  23.918  1.00  0.00     0.113 A 
ATOM     22  C   UNL A   1      32.101  27.053  24.615  1.00  0.00     0.036 A 
ATOM     23  N   UNL A   1      32.926  25.660  22.822  1.00  0.00    -0.253 NA
ATOM     24  C   UNL A   1      32.877  28.118  24.140  1.00  0.00    -0.047 A 
ATOM     25  C   UNL A   1      33.653  26.698  22.376  1.00  0.00     0.112 A 
ATOM     26  C   UNL A   1      32.913  29.442  24.841  1.00  0.00     0.044 C 
ATOM     27  C   UNL A   1      33.656  27.934  22.992  1.00  0.00     0.023 A 
ENDBRANCH  19  21
ENDBRANCH  15  19
ENDBRANCH   6   7
ENDBRANCH   4   6
ENDBRANCH   3   4
ENDBRANCH   2   3
ENDBRANCH   1   2
BRANCH   1  28
ATOM     28  O   UNL A   1      37.319  21.418  24.485  1.00  0.00    -0.374 OA
BRANCH  28  29
ATOM     29  C   UNL A   1      37.505  20.072  24.912  1.00  0.00     0.202 C 
BRANCH  29  30
ATOM     30  C   UNL A   1      38.883  19.703  25.465  1.00  0.00     0.261 C 
BRANCH  30  31
ATOM     31  O   UNL A   1      39.748  20.808  25.723  1.00  0.00    -0.460 OA
BRANCH  31  32
ATOM     32  C   UNL A   1      40.402  20.743  26.898  1.00  0.00     0.338 C 
ATOM     33  O   UNL A   1      40.808  19.760  27.499  1.00  0.00    -0.246 OA
BRANCH  32  34
ATOM     34  C   UNL A   1      40.637  22.109  27.359  1.00  0.00     0.060 A 
ATOM     35  C   UNL A   1      39.994  23.153  26.689  1.00  0.00     0.016 A 
ATOM     36  C   UNL A   1      41.562  22.350  28.375  1.00  0.00     0.016 A 
ATOM     37  C   UNL A   1      40.324  24.465  27.004  1.00  0.00     0.010 A 
ATOM     38  C   UNL A   1      41.887  23.667  28.694  1.00  0.00     0.010 A 
ATOM     39  C   UNL A   1      41.300  24.724  27.978  1.00  0.00    -0.014 A 
BRANCH  39  40
ATOM     40  C   UNL A   1      41.803  26.104  28.143  1.00  0.00     0.031 A 
ATOM     41  C   UNL A   1      43.146  26.459  27.574  1.00  0.00     0.074 A 
ATOM     42  C   UNL A   1      41.046  27.024  28.763  1.00  0.00     0.049 A 
ATOM     43  N   UNL A   1      43.770  27.609  27.577  1.00  0.00    -0.248 NA
ATOM     44  C   UNL A   1      43.887  25.373  26.915  1.00  0.00     0.031 C 
ATOM     45  C   UNL A   1      39.725  26.775  29.338  1.00  0.00     0.029 A 
ATOM     46  N   UNL A   1      41.281  28.351  29.010  1.00  0.00    -0.354 N 
ATOM     47  C   UNL A   1      44.974  27.384  26.922  1.00  0.00     0.074 A 
ATOM     48  C   UNL A   1      45.011  25.982  26.567  1.00  0.00     0.031 C 
ATOM     49  C   UNL A   1      39.265  27.917  29.877  1.00  0.00     0.029 A 
ATOM     50  C   UNL A   1      40.268  28.965  29.702  1.00  0.00     0.049 A 
ATOM     51  H   UNL A   1      42.098  28.817  28.720  1.00  0.00     0.167 HD
ATOM     52  C   UNL A   1      45.951  28.274  26.632  1.00  0.00     0.037 A 
ATOM     53  C   UNL A   1      40.174  30.230  30.150  1.00  0.00     0.037 A 
ATOM     54  C   UNL A   1      45.899  29.666  26.993  1.00  0.00     0.049 A 
ATOM     55  C   UNL A   1      41.292  31.193  29.847  1.00  0.00     0.074 A 
ATOM     56  C   UNL A   1      46.819  30.664  26.729  1.00  0.00     0.029 A 
ATOM     57  N   UNL A   1      44.863  30.253  27.708  1.00  0.00    -0.354 N 
ATOM     58  N   UNL A   1      42.406  30.985  29.188  1.00  0.00    -0.248 NA
ATOM     59  C   UNL A   1      41.134  32.566  30.343  1.00  0.00     0.031 C 
ATOM     60  C   UNL A   1      46.363  31.846  27.326  1.00  0.00     0.029 A 
ATOM     61  C   UNL A   1      45.134  31.595  27.918  1.00  0.00     0.049 A 
ATOM     62  H   UNL A   1      44.056  29.785  28.020  1.00  0.00     0.167 HD
ATOM     63  C   UNL A   1      43.072  32.202  29.170  1.00  0.00     0.074 A 
ATOM     64  C   UNL A   1      42.229  33.148  29.871  1.00  0.00     0.031 C 
ATOM     65  C   UNL A   1      44.275  32.513  28.622  1.00  0.00     0.037 A 
BRANCH  52  66
ATOM     66  C   UNL A   1      47.164  27.761  25.913  1.00  0.00     0.064 A 
ATOM     67  C   UNL A   1      47.249  27.762  24.513  1.00  0.00     0.173 A 
ATOM     68  C   UNL A   1      48.264  27.274  26.635  1.00  0.00     0.173 A 
ATOM     69  F   UNL A   1      46.218  28.203  23.774  1.00  0.00    -0.203 F 
ATOM     70  C   UNL A   1      48.377  27.270  23.861  1.00  0.00     0.198 A 
ATOM     71  C   UNL A   1      49.402  26.808  25.982  1.00  0.00     0.198 A 
ATOM     72  F   UNL A   1      48.236  27.251  27.976  1.00  0.00    -0.203 F 
ATOM     73  F   UNL A   1      48.415  27.235  22.522  1.00  0.00    -0.200 F 
ATOM     74  C   UNL A   1      49.455  26.798  24.597  1.00  0.00     0.200 A 
ATOM     75  F   UNL A   1      50.446  26.360  26.693  1.00  0.00    -0.200 F 
ATOM     76  F   UNL A   1      50.540  26.325  23.969  1.00  0.00    -0.200 F 
ENDBRANCH  52  66
BRANCH  53  77
ATOM     77  C   UNL A   1      38.979  30.650  30.925  1.00  0.00     0.064 A 
ATOM     78  C   UNL A   1      38.945  30.546  32.322  1.00  0.00     0.173 A 
ATOM     79  C   UNL A   1      37.849  31.178  30.282  1.00  0.00     0.173 A 
ATOM     80  F   UNL A   1      39.993  30.029  32.980  1.00  0.00    -0.203 F 
ATOM     81  C   UNL A   1      37.822  30.941  33.045  1.00  0.00     0.198 A 
ATOM     82  C   UNL A   1      36.737  31.598  31.009  1.00  0.00     0.198 A 
ATOM     83  F   UNL A   1      37.832  31.300  28.947  1.00  0.00    -0.203 F 
ATOM     84  F   UNL A   1      37.800  30.796  34.377  1.00  0.00    -0.200 F 
ATOM     85  C   UNL A   1      36.722  31.473  32.389  1.00  0.00     0.200 A 
ATOM     86  F   UNL A   1      35.682  32.123  30.370  1.00  0.00    -0.200 F 
ATOM     87  F   UNL A   1      35.645  31.860  33.087  1.00  0.00    -0.200 F 
ENDBRANCH  53  77
BRANCH  65  88
ATOM     88  C   UNL A   1      44.734  33.935  28.746  1.00  0.00     0.064 A 
ATOM     89  C   UNL A   1      44.392  34.903  27.790  1.00  0.00     0.173 A 
ATOM     90  C   UNL A   1      45.490  34.343  29.855  1.00  0.00     0.173 A 
ATOM     91  F   UNL A   1      43.682  34.558  26.705  1.00  0.00    -0.203 F 
ATOM     92  C   UNL A   1      44.810  36.223  27.930  1.00  0.00     0.198 A 
ATOM     93  C   UNL A   1      45.882  35.669  30.006  1.00  0.00     0.198 A 
ATOM     94  F   UNL A   1      45.836  33.455  30.800  1.00  0.00    -0.203 F 
ATOM     95  F   UNL A   1      44.510  37.122  26.982  1.00  0.00    -0.200 F 
ATOM     96  C   UNL A   1      45.548  36.607  29.040  1.00  0.00     0.200 A 
ATOM     97  F   UNL A   1      46.583  36.041  31.086  1.00  0.00    -0.200 F 
ATOM     98  F   UNL A   1      45.944  37.879  29.175  1.00  0.00    -0.200 F 
ENDBRANCH  65  88
ENDBRANCH  39  40
ENDBRANCH  32  34
ENDBRANCH  31  32
ENDBRANCH  30  31
ENDBRANCH  29  30
ENDBRANCH  28  29
ENDBRANCH   1  28
TORSDOF 18
ENDMDL
