MODEL 1
REMARK VINA RESULT:     -10.1      0.000      0.000
REMARK SMILES CCOc1cc(CO)cc(Br)c1OCC(C)(C)C(=O)OCCOCCOC(=O)c1ccc(-c2c3nc(c(-c4c(F)c(F)c(F)c(F)c4F)c4ccc([nH]4)c(-c4c(F)c(F)c(F)c(F)c4F)c4nc(c(-c5c(F)c(F)c(F)c(F)c5F)c5ccc2[nH]5)C=C4)C=C3)cc1
REMARK SMILES IDX 21 1 20 2 18 3 19 4 15 5 16 6 17 7 14 8 13 9 12 10 4 11 5 12
REMARK SMILES IDX 6 13 10 14 9 15 11 16 3 17 2 18 1 19 7 20 8 21 22 23 23 24
REMARK SMILES IDX 24 25 25 26 26 27 27 28 28 29 29 30 30 31 91 32 31 33 90 34
REMARK SMILES IDX 32 35 33 36 34 37 84 38 35 39 89 40 83 41 85 42 36 43 88 44
REMARK SMILES IDX 82 45 81 46 37 48 69 49 49 50 68 51 50 52 53 53 67 54 86 55
REMARK SMILES IDX 51 56 52 57 66 59 87 60 54 61 38 62 39 63 47 64 40 65 41 66
REMARK SMILES IDX 45 67 48 68 42 69 43 70 46 71 44 72 70 73 71 74 79 75 72 76
REMARK SMILES IDX 73 77 77 78 80 79 74 80 75 81 78 82 76 83 55 84 56 85 64 86
REMARK SMILES IDX 57 87 58 88 62 89 65 90 59 91 60 92 63 93 61 94
REMARK H PARENT 8 22 85 47 53 58
REMARK Flexibility Score: inf
ROOT
ATOM      1  C   UNL A   1      35.517  20.961  25.215  1.00  0.00     0.261 C 
ENDROOT
BRANCH   1   2
ATOM      2  O   UNL A   1      34.841  22.171  25.594  1.00  0.00    -0.463 OA
BRANCH   2   3
ATOM      3  C   UNL A   1      33.785  22.527  24.807  1.00  0.00     0.315 C 
ATOM      4  O   UNL A   1      33.849  22.597  23.588  1.00  0.00    -0.251 OA
BRANCH   3   5
ATOM      5  C   UNL A   1      32.550  22.900  25.627  1.00  0.00     0.096 C 
ATOM      6  C   UNL A   1      32.995  22.901  27.094  1.00  0.00     0.027 C 
ATOM      7  C   UNL A   1      31.416  21.847  25.517  1.00  0.00     0.027 C 
BRANCH   5   8
ATOM      8  C   UNL A   1      31.946  24.231  25.074  1.00  0.00     0.248 C 
BRANCH   8   9
ATOM      9  O   UNL A   1      32.593  25.502  25.224  1.00  0.00    -0.487 OA
BRANCH   9  10
ATOM     10  C   UNL A   1      32.116  26.585  24.544  1.00  0.00     0.175 A 
ATOM     11  C   UNL A   1      31.454  27.555  25.323  1.00  0.00     0.162 A 
ATOM     12  C   UNL A   1      30.750  28.584  24.697  1.00  0.00     0.056 A 
ATOM     13  C   UNL A   1      30.718  28.682  23.301  1.00  0.00    -0.018 A 
ATOM     14  C   UNL A   1      32.251  26.800  23.169  1.00  0.00     0.064 A 
ATOM     15  C   UNL A   1      31.527  27.823  22.548  1.00  0.00     0.026 A 
ATOM     16  Br  UNL A   1      33.458  25.829  22.067  1.00  0.00    -0.047 Br
BRANCH  11  17
ATOM     17  O   UNL A   1      31.643  27.509  26.681  1.00  0.00    -0.490 OA
BRANCH  17  18
ATOM     18  C   UNL A   1      32.337  28.593  27.301  1.00  0.00     0.226 C 
ATOM     19  C   UNL A   1      33.827  28.586  26.987  1.00  0.00     0.049 C 
ENDBRANCH  17  18
ENDBRANCH  11  17
BRANCH  13  20
ATOM     20  C   UNL A   1      29.906  29.756  22.628  1.00  0.00     0.191 C 
BRANCH  20  21
ATOM     21  O   UNL A   1      30.440  30.073  21.347  1.00  0.00    -0.392 OA
ATOM     22  H   UNL A   1      31.189  30.681  21.450  1.00  0.00     0.211 HD
ENDBRANCH  20  21
ENDBRANCH  13  20
ENDBRANCH   9  10
ENDBRANCH   8   9
ENDBRANCH   5   8
ENDBRANCH   3   5
ENDBRANCH   2   3
ENDBRANCH   1   2
BRANCH   1  23
ATOM     23  C   UNL A   1      36.936  21.230  24.711  1.00  0.00     0.202 C 
BRANCH  23  24
ATOM     24  O   UNL A   1      37.739  22.119  25.484  1.00  0.00    -0.374 OA
BRANCH  24  25
ATOM     25  C   UNL A   1      38.911  21.591  26.102  1.00  0.00     0.202 C 
BRANCH  25  26
ATOM     26  C   UNL A   1      39.401  20.226  25.602  1.00  0.00     0.261 C 
BRANCH  26  27
ATOM     27  O   UNL A   1      40.304  19.592  26.529  1.00  0.00    -0.460 OA
BRANCH  27  28
ATOM     28  C   UNL A   1      41.593  19.547  26.113  1.00  0.00     0.338 C 
ATOM     29  O   UNL A   1      42.113  18.708  25.396  1.00  0.00    -0.246 OA
BRANCH  28  30
ATOM     30  C   UNL A   1      42.302  20.780  26.500  1.00  0.00     0.060 A 
ATOM     31  C   UNL A   1      42.311  21.111  27.861  1.00  0.00     0.016 A 
ATOM     32  C   UNL A   1      42.843  21.652  25.552  1.00  0.00     0.016 A 
ATOM     33  C   UNL A   1      42.813  22.341  28.275  1.00  0.00     0.010 A 
ATOM     34  C   UNL A   1      43.339  22.894  25.970  1.00  0.00     0.010 A 
ATOM     35  C   UNL A   1      43.287  23.259  27.329  1.00  0.00    -0.014 A 
BRANCH  35  36
ATOM     36  C   UNL A   1      43.579  24.644  27.769  1.00  0.00     0.031 A 
ATOM     37  C   UNL A   1      45.006  25.121  27.792  1.00  0.00     0.074 A 
ATOM     38  C   UNL A   1      42.582  25.496  28.060  1.00  0.00     0.049 A 
ATOM     39  N   UNL A   1      45.481  26.316  28.039  1.00  0.00    -0.248 NA
ATOM     40  C   UNL A   1      46.035  24.115  27.490  1.00  0.00     0.031 C 
ATOM     41  C   UNL A   1      41.159  25.164  28.039  1.00  0.00     0.029 A 
ATOM     42  N   UNL A   1      42.617  26.822  28.412  1.00  0.00    -0.354 N 
ATOM     43  C   UNL A   1      46.859  26.208  27.915  1.00  0.00     0.074 A 
ATOM     44  C   UNL A   1      47.148  24.822  27.610  1.00  0.00     0.031 C 
ATOM     45  C   UNL A   1      40.453  26.264  28.350  1.00  0.00     0.029 A 
ATOM     46  C   UNL A   1      41.375  27.370  28.606  1.00  0.00     0.049 A 
ATOM     47  H   UNL A   1      43.453  27.331  28.516  1.00  0.00     0.167 HD
ATOM     48  C   UNL A   1      47.799  27.177  28.027  1.00  0.00     0.037 A 
ATOM     49  C   UNL A   1      41.023  28.625  28.946  1.00  0.00     0.037 A 
ATOM     50  C   UNL A   1      47.514  28.554  28.338  1.00  0.00     0.049 A 
ATOM     51  C   UNL A   1      42.090  29.669  29.138  1.00  0.00     0.074 A 
ATOM     52  C   UNL A   1      48.394  29.616  28.450  1.00  0.00     0.029 A 
ATOM     53  N   UNL A   1      46.247  29.056  28.601  1.00  0.00    -0.354 N 
ATOM     54  N   UNL A   1      43.387  29.567  28.979  1.00  0.00    -0.248 NA
ATOM     55  C   UNL A   1      41.639  31.005  29.552  1.00  0.00     0.031 C 
ATOM     56  C   UNL A   1      47.666  30.751  28.829  1.00  0.00     0.029 A 
ATOM     57  C   UNL A   1      46.326  30.406  28.907  1.00  0.00     0.049 A 
ATOM     58  H   UNL A   1      45.415  28.531  28.573  1.00  0.00     0.167 HD
ATOM     59  C   UNL A   1      43.905  30.827  29.251  1.00  0.00     0.074 A 
ATOM     60  C   UNL A   1      42.779  31.680  29.571  1.00  0.00     0.031 C 
ATOM     61  C   UNL A   1      45.197  31.240  29.237  1.00  0.00     0.037 A 
BRANCH  48  62
ATOM     62  C   UNL A   1      49.230  26.765  27.839  1.00  0.00     0.064 A 
ATOM     63  C   UNL A   1      49.790  26.611  26.561  1.00  0.00     0.173 A 
ATOM     64  C   UNL A   1      50.050  26.519  28.950  1.00  0.00     0.173 A 
ATOM     65  F   UNL A   1      49.044  26.820  25.467  1.00  0.00    -0.203 F 
ATOM     66  C   UNL A   1      51.109  26.191  26.404  1.00  0.00     0.198 A 
ATOM     67  C   UNL A   1      51.375  26.125  28.789  1.00  0.00     0.198 A 
ATOM     68  F   UNL A   1      49.564  26.655  30.193  1.00  0.00    -0.203 F 
ATOM     69  F   UNL A   1      51.606  25.995  25.175  1.00  0.00    -0.200 F 
ATOM     70  C   UNL A   1      51.901  25.951  27.517  1.00  0.00     0.200 A 
ATOM     71  F   UNL A   1      52.142  25.902  29.865  1.00  0.00    -0.200 F 
ATOM     72  F   UNL A   1      53.167  25.541  27.364  1.00  0.00    -0.200 F 
ENDBRANCH  48  62
BRANCH  49  73
ATOM     73  C   UNL A   1      39.587  28.969  29.103  1.00  0.00     0.064 A 
ATOM     74  C   UNL A   1      38.823  29.389  28.007  1.00  0.00     0.173 A 
ATOM     75  C   UNL A   1      38.949  28.876  30.349  1.00  0.00     0.173 A 
ATOM     76  F   UNL A   1      39.396  29.517  26.802  1.00  0.00    -0.203 F 
ATOM     77  C   UNL A   1      37.475  29.710  28.152  1.00  0.00     0.198 A 
ATOM     78  C   UNL A   1      37.597  29.175  30.487  1.00  0.00     0.198 A 
ATOM     79  F   UNL A   1      39.640  28.481  31.429  1.00  0.00    -0.203 F 
ATOM     80  F   UNL A   1      36.774  30.139  27.093  1.00  0.00    -0.200 F 
ATOM     81  C   UNL A   1      36.861  29.596  29.390  1.00  0.00     0.200 A 
ATOM     82  F   UNL A   1      37.005  29.054  31.684  1.00  0.00    -0.200 F 
ATOM     83  F   UNL A   1      35.562  29.894  29.526  1.00  0.00    -0.200 F 
ENDBRANCH  49  73
BRANCH  61  84
ATOM     84  C   UNL A   1      45.457  32.682  29.565  1.00  0.00     0.064 A 
ATOM     85  C   UNL A   1      45.736  33.097  30.876  1.00  0.00     0.173 A 
ATOM     86  C   UNL A   1      45.441  33.658  28.557  1.00  0.00     0.173 A 
ATOM     87  F   UNL A   1      45.746  32.206  31.878  1.00  0.00    -0.203 F 
ATOM     88  C   UNL A   1      45.956  34.440  31.170  1.00  0.00     0.198 A 
ATOM     89  C   UNL A   1      45.691  34.996  28.849  1.00  0.00     0.198 A 
ATOM     90  F   UNL A   1      45.186  33.313  27.286  1.00  0.00    -0.203 F 
ATOM     91  F   UNL A   1      46.167  34.821  32.437  1.00  0.00    -0.200 F 
ATOM     92  C   UNL A   1      45.939  35.387  30.156  1.00  0.00     0.200 A 
ATOM     93  F   UNL A   1      45.684  35.908  27.868  1.00  0.00    -0.200 F 
ATOM     94  F   UNL A   1      46.150  36.679  30.442  1.00  0.00    -0.200 F 
ENDBRANCH  61  84
ENDBRANCH  35  36
ENDBRANCH  28  30
ENDBRANCH  27  28
ENDBRANCH  26  27
ENDBRANCH  25  26
ENDBRANCH  24  25
ENDBRANCH  23  24
ENDBRANCH   1  23
TORSDOF 21
ENDMDL
MODEL 2
REMARK VINA RESULT:     -10.0      0.970      2.002
REMARK SMILES CCOc1cc(CO)cc(Br)c1OCC(C)(C)C(=O)OCCOCCOC(=O)c1ccc(-c2c3nc(c(-c4c(F)c(F)c(F)c(F)c4F)c4ccc([nH]4)c(-c4c(F)c(F)c(F)c(F)c4F)c4nc(c(-c5c(F)c(F)c(F)c(F)c5F)c5ccc2[nH]5)C=C4)C=C3)cc1
REMARK SMILES IDX 21 1 20 2 18 3 19 4 15 5 16 6 17 7 14 8 13 9 12 10 4 11 5 12
REMARK SMILES IDX 6 13 10 14 9 15 11 16 3 17 2 18 1 19 7 20 8 21 22 23 23 24
REMARK SMILES IDX 24 25 25 26 26 27 27 28 28 29 29 30 30 31 91 32 31 33 90 34
REMARK SMILES IDX 32 35 33 36 34 37 84 38 35 39 89 40 83 41 85 42 36 43 88 44
REMARK SMILES IDX 82 45 81 46 37 48 69 49 49 50 68 51 50 52 53 53 67 54 86 55
REMARK SMILES IDX 51 56 52 57 66 59 87 60 54 61 38 62 39 63 47 64 40 65 41 66
REMARK SMILES IDX 45 67 48 68 42 69 43 70 46 71 44 72 70 73 71 74 79 75 72 76
REMARK SMILES IDX 73 77 77 78 80 79 74 80 75 81 78 82 76 83 55 84 56 85 64 86
REMARK SMILES IDX 57 87 58 88 62 89 65 90 59 91 60 92 63 93 61 94
REMARK H PARENT 8 22 85 47 53 58
REMARK Flexibility Score: inf
ROOT
ATOM      1  C   UNL A   1      34.899  20.621  25.522  1.00  0.00     0.261 C 
ENDROOT
BRANCH   1   2
ATOM      2  O   UNL A   1      34.226  21.610  24.724  1.00  0.00    -0.463 OA
BRANCH   2   3
ATOM      3  C   UNL A   1      33.882  22.757  25.378  1.00  0.00     0.315 C 
ATOM      4  O   UNL A   1      32.992  22.814  26.214  1.00  0.00    -0.251 OA
BRANCH   3   5
ATOM      5  C   UNL A   1      34.680  23.966  24.887  1.00  0.00     0.096 C 
ATOM      6  C   UNL A   1      35.128  23.632  23.459  1.00  0.00     0.027 C 
ATOM      7  C   UNL A   1      35.977  24.201  25.705  1.00  0.00     0.027 C 
BRANCH   5   8
ATOM      8  C   UNL A   1      33.824  25.260  25.071  1.00  0.00     0.248 C 
BRANCH   8   9
ATOM      9  O   UNL A   1      32.431  25.326  24.736  1.00  0.00    -0.487 OA
BRANCH   9  10
ATOM     10  C   UNL A   1      31.939  26.439  24.118  1.00  0.00     0.175 A 
ATOM     11  C   UNL A   1      31.517  27.478  24.971  1.00  0.00     0.162 A 
ATOM     12  C   UNL A   1      30.808  28.560  24.448  1.00  0.00     0.056 A 
ATOM     13  C   UNL A   1      30.536  28.641  23.077  1.00  0.00    -0.018 A 
ATOM     14  C   UNL A   1      31.844  26.621  22.734  1.00  0.00     0.064 A 
ATOM     15  C   UNL A   1      31.116  27.699  22.220  1.00  0.00     0.026 A 
ATOM     16  Br  UNL A   1      32.741  25.525  21.467  1.00  0.00    -0.047 Br
BRANCH  11  17
ATOM     17  O   UNL A   1      31.942  27.434  26.275  1.00  0.00    -0.490 OA
BRANCH  17  18
ATOM     18  C   UNL A   1      32.488  28.625  26.846  1.00  0.00     0.226 C 
ATOM     19  C   UNL A   1      34.010  28.611  26.876  1.00  0.00     0.049 C 
ENDBRANCH  17  18
ENDBRANCH  11  17
BRANCH  13  20
ATOM     20  C   UNL A   1      29.717  29.777  22.526  1.00  0.00     0.191 C 
BRANCH  20  21
ATOM     21  O   UNL A   1      30.088  30.070  21.184  1.00  0.00    -0.392 OA
ATOM     22  H   UNL A   1      30.693  29.385  20.858  1.00  0.00     0.211 HD
ENDBRANCH  20  21
ENDBRANCH  13  20
ENDBRANCH   9  10
ENDBRANCH   8   9
ENDBRANCH   5   8
ENDBRANCH   3   5
ENDBRANCH   2   3
ENDBRANCH   1   2
BRANCH   1  23
ATOM     23  C   UNL A   1      36.209  20.162  24.880  1.00  0.00     0.202 C 
BRANCH  23  24
ATOM     24  O   UNL A   1      37.185  21.166  24.611  1.00  0.00    -0.374 OA
BRANCH  24  25
ATOM     25  C   UNL A   1      38.406  21.122  25.347  1.00  0.00     0.202 C 
BRANCH  25  26
ATOM     26  C   UNL A   1      39.164  19.788  25.349  1.00  0.00     0.261 C 
BRANCH  26  27
ATOM     27  O   UNL A   1      40.042  19.656  26.485  1.00  0.00    -0.460 OA
BRANCH  27  28
ATOM     28  C   UNL A   1      41.351  19.508  26.166  1.00  0.00     0.338 C 
ATOM     29  O   UNL A   1      41.878  18.559  25.610  1.00  0.00    -0.246 OA
BRANCH  28  30
ATOM     30  C   UNL A   1      42.087  20.760  26.423  1.00  0.00     0.060 A 
ATOM     31  C   UNL A   1      42.339  21.088  27.761  1.00  0.00     0.016 A 
ATOM     32  C   UNL A   1      42.421  21.647  25.397  1.00  0.00     0.016 A 
ATOM     33  C   UNL A   1      42.876  22.331  28.083  1.00  0.00     0.010 A 
ATOM     34  C   UNL A   1      42.953  22.901  25.724  1.00  0.00     0.010 A 
ATOM     35  C   UNL A   1      43.143  23.263  27.072  1.00  0.00    -0.014 A 
BRANCH  35  36
ATOM     36  C   UNL A   1      43.475  24.655  27.459  1.00  0.00     0.031 A 
ATOM     37  C   UNL A   1      44.860  25.179  27.194  1.00  0.00     0.074 A 
ATOM     38  C   UNL A   1      42.533  25.471  27.960  1.00  0.00     0.049 A 
ATOM     39  N   UNL A   1      45.337  26.388  27.352  1.00  0.00    -0.248 NA
ATOM     40  C   UNL A   1      45.836  24.210  26.674  1.00  0.00     0.031 C 
ATOM     41  C   UNL A   1      41.148  25.091  28.228  1.00  0.00     0.029 A 
ATOM     42  N   UNL A   1      42.597  26.796  28.313  1.00  0.00    -0.354 N 
ATOM     43  C   UNL A   1      46.663  26.328  26.945  1.00  0.00     0.074 A 
ATOM     44  C   UNL A   1      46.927  24.954  26.571  1.00  0.00     0.031 C 
ATOM     45  C   UNL A   1      40.486  26.165  28.692  1.00  0.00     0.029 A 
ATOM     46  C   UNL A   1      41.405  27.300  28.765  1.00  0.00     0.049 A 
ATOM     47  H   UNL A   1      43.420  27.332  28.248  1.00  0.00     0.167 HD
ATOM     48  C   UNL A   1      47.574  27.328  26.873  1.00  0.00     0.037 A 
ATOM     49  C   UNL A   1      41.091  28.540  29.187  1.00  0.00     0.037 A 
ATOM     50  C   UNL A   1      47.316  28.692  27.253  1.00  0.00     0.049 A 
ATOM     51  C   UNL A   1      42.140  29.619  29.167  1.00  0.00     0.074 A 
ATOM     52  C   UNL A   1      48.166  29.783  27.194  1.00  0.00     0.029 A 
ATOM     53  N   UNL A   1      46.115  29.150  27.777  1.00  0.00    -0.354 N 
ATOM     54  N   UNL A   1      43.379  29.562  28.742  1.00  0.00    -0.248 NA
ATOM     55  C   UNL A   1      41.742  30.936  29.681  1.00  0.00     0.031 C 
ATOM     56  C   UNL A   1      47.495  30.891  27.729  1.00  0.00     0.029 A 
ATOM     57  C   UNL A   1      46.212  30.500  28.077  1.00  0.00     0.049 A 
ATOM     58  H   UNL A   1      45.312  28.597  27.915  1.00  0.00     0.167 HD
ATOM     59  C   UNL A   1      43.902  30.837  28.918  1.00  0.00     0.074 A 
ATOM     60  C   UNL A   1      42.839  31.650  29.473  1.00  0.00     0.031 C 
ATOM     61  C   UNL A   1      45.149  31.294  28.643  1.00  0.00     0.037 A 
BRANCH  48  62
ATOM     62  C   UNL A   1      48.948  26.966  26.389  1.00  0.00     0.064 A 
ATOM     63  C   UNL A   1      49.944  26.515  27.269  1.00  0.00     0.173 A 
ATOM     64  C   UNL A   1      49.272  27.073  25.029  1.00  0.00     0.173 A 
ATOM     65  F   UNL A   1      49.689  26.410  28.582  1.00  0.00    -0.203 F 
ATOM     66  C   UNL A   1      51.225  26.221  26.809  1.00  0.00     0.198 A 
ATOM     67  C   UNL A   1      50.546  26.751  24.569  1.00  0.00     0.198 A 
ATOM     68  F   UNL A   1      48.356  27.495  24.145  1.00  0.00    -0.203 F 
ATOM     69  F   UNL A   1      52.177  25.847  27.675  1.00  0.00    -0.200 F 
ATOM     70  C   UNL A   1      51.525  26.335  25.459  1.00  0.00     0.200 A 
ATOM     71  F   UNL A   1      50.832  26.855  23.263  1.00  0.00    -0.200 F 
ATOM     72  F   UNL A   1      52.759  26.057  25.020  1.00  0.00    -0.200 F 
ENDBRANCH  48  62
BRANCH  49  73
ATOM     73  C   UNL A   1      39.708  28.834  29.640  1.00  0.00     0.064 A 
ATOM     74  C   UNL A   1      38.760  29.371  28.759  1.00  0.00     0.173 A 
ATOM     75  C   UNL A   1      39.305  28.576  30.959  1.00  0.00     0.173 A 
ATOM     76  F   UNL A   1      39.107  29.658  27.496  1.00  0.00    -0.203 F 
ATOM     77  C   UNL A   1      37.461  29.647  29.182  1.00  0.00     0.198 A 
ATOM     78  C   UNL A   1      38.001  28.830  31.373  1.00  0.00     0.198 A 
ATOM     79  F   UNL A   1      40.178  28.065  31.839  1.00  0.00    -0.203 F 
ATOM     80  F   UNL A   1      36.582  30.189  28.329  1.00  0.00    -0.200 F 
ATOM     81  C   UNL A   1      37.080  29.369  30.487  1.00  0.00     0.200 A 
ATOM     82  F   UNL A   1      37.634  28.551  32.632  1.00  0.00    -0.200 F 
ATOM     83  F   UNL A   1      35.828  29.623  30.890  1.00  0.00    -0.200 F 
ENDBRANCH  49  73
BRANCH  61  84
ATOM     84  C   UNL A   1      45.425  32.742  28.928  1.00  0.00     0.064 A 
ATOM     85  C   UNL A   1      45.176  33.739  27.973  1.00  0.00     0.173 A 
ATOM     86  C   UNL A   1      45.931  33.140  30.175  1.00  0.00     0.173 A 
ATOM     87  F   UNL A   1      44.708  33.409  26.760  1.00  0.00    -0.203 F 
ATOM     88  C   UNL A   1      45.454  35.076  28.244  1.00  0.00     0.198 A 
ATOM     89  C   UNL A   1      46.181  34.480  30.453  1.00  0.00     0.198 A 
ATOM     90  F   UNL A   1      46.180  32.227  31.126  1.00  0.00    -0.203 F 
ATOM     91  F   UNL A   1      45.259  36.004  27.298  1.00  0.00    -0.200 F 
ATOM     92  C   UNL A   1      45.951  35.446  29.485  1.00  0.00     0.200 A 
ATOM     93  F   UNL A   1      46.651  34.838  31.656  1.00  0.00    -0.200 F 
ATOM     94  F   UNL A   1      46.219  36.733  29.744  1.00  0.00    -0.200 F 
ENDBRANCH  61  84
ENDBRANCH  35  36
ENDBRANCH  28  30
ENDBRANCH  27  28
ENDBRANCH  26  27
ENDBRANCH  25  26
ENDBRANCH  24  25
ENDBRANCH  23  24
ENDBRANCH   1  23
TORSDOF 21
ENDMDL
MODEL 3
REMARK VINA RESULT:      -9.9      1.007      2.382
REMARK SMILES CCOc1cc(CO)cc(Br)c1OCC(C)(C)C(=O)OCCOCCOC(=O)c1ccc(-c2c3nc(c(-c4c(F)c(F)c(F)c(F)c4F)c4ccc([nH]4)c(-c4c(F)c(F)c(F)c(F)c4F)c4nc(c(-c5c(F)c(F)c(F)c(F)c5F)c5ccc2[nH]5)C=C4)C=C3)cc1
REMARK SMILES IDX 21 1 20 2 18 3 19 4 15 5 16 6 17 7 14 8 13 9 12 10 4 11 5 12
REMARK SMILES IDX 6 13 10 14 9 15 11 16 3 17 2 18 1 19 7 20 8 21 22 23 23 24
REMARK SMILES IDX 24 25 25 26 26 27 27 28 28 29 29 30 30 31 91 32 31 33 90 34
REMARK SMILES IDX 32 35 33 36 34 37 84 38 35 39 89 40 83 41 85 42 36 43 88 44
REMARK SMILES IDX 82 45 81 46 37 48 69 49 49 50 68 51 50 52 53 53 67 54 86 55
REMARK SMILES IDX 51 56 52 57 66 59 87 60 54 61 38 62 39 63 47 64 40 65 41 66
REMARK SMILES IDX 45 67 48 68 42 69 43 70 46 71 44 72 70 73 71 74 79 75 72 76
REMARK SMILES IDX 73 77 77 78 80 79 74 80 75 81 78 82 76 83 55 84 56 85 64 86
REMARK SMILES IDX 57 87 58 88 62 89 65 90 59 91 60 92 63 93 61 94
REMARK H PARENT 8 22 85 47 53 58
REMARK Flexibility Score: inf
ROOT
ATOM      1  C   UNL A   1      35.245  21.646  25.386  1.00  0.00     0.261 C 
ENDROOT
BRANCH   1   2
ATOM      2  O   UNL A   1      34.380  21.816  24.251  1.00  0.00    -0.463 OA
BRANCH   2   3
ATOM      3  C   UNL A   1      34.294  23.087  23.763  1.00  0.00     0.315 C 
ATOM      4  O   UNL A   1      35.098  23.967  24.035  1.00  0.00    -0.251 OA
BRANCH   3   5
ATOM      5  C   UNL A   1      33.042  23.298  22.910  1.00  0.00     0.096 C 
ATOM      6  C   UNL A   1      32.007  22.286  23.414  1.00  0.00     0.027 C 
ATOM      7  C   UNL A   1      33.275  22.972  21.411  1.00  0.00     0.027 C 
BRANCH   5   8
ATOM      8  C   UNL A   1      32.633  24.805  22.956  1.00  0.00     0.248 C 
BRANCH   8   9
ATOM      9  O   UNL A   1      31.390  25.259  23.511  1.00  0.00    -0.487 OA
BRANCH   9  10
ATOM     10  C   UNL A   1      31.398  26.199  24.500  1.00  0.00     0.175 A 
ATOM     11  C   UNL A   1      30.986  27.492  24.119  1.00  0.00     0.162 A 
ATOM     12  C   UNL A   1      31.163  28.562  24.997  1.00  0.00     0.056 A 
ATOM     13  C   UNL A   1      31.718  28.362  26.266  1.00  0.00    -0.018 A 
ATOM     14  C   UNL A   1      31.760  25.971  25.831  1.00  0.00     0.064 A 
ATOM     15  C   UNL A   1      31.952  27.052  26.698  1.00  0.00     0.026 A 
ATOM     16  Br  UNL A   1      31.924  24.237  26.593  1.00  0.00    -0.047 Br
BRANCH  11  17
ATOM     17  O   UNL A   1      30.307  27.613  22.934  1.00  0.00    -0.490 OA
BRANCH  17  18
ATOM     18  C   UNL A   1      29.286  28.608  22.841  1.00  0.00     0.226 C 
ATOM     19  C   UNL A   1      29.692  29.777  21.953  1.00  0.00     0.049 C 
ENDBRANCH  17  18
ENDBRANCH  11  17
BRANCH  13  20
ATOM     20  C   UNL A   1      31.964  29.528  27.186  1.00  0.00     0.191 C 
BRANCH  20  21
ATOM     21  O   UNL A   1      33.244  29.430  27.803  1.00  0.00    -0.392 OA
ATOM     22  H   UNL A   1      33.910  29.210  27.133  1.00  0.00     0.211 HD
ENDBRANCH  20  21
ENDBRANCH  13  20
ENDBRANCH   9  10
ENDBRANCH   8   9
ENDBRANCH   5   8
ENDBRANCH   3   5
ENDBRANCH   2   3
ENDBRANCH   1   2
BRANCH   1  23
ATOM     23  C   UNL A   1      36.635  21.154  24.979  1.00  0.00     0.202 C 
BRANCH  23  24
ATOM     24  O   UNL A   1      37.724  22.052  25.182  1.00  0.00    -0.374 OA
BRANCH  24  25
ATOM     25  C   UNL A   1      38.862  21.568  25.894  1.00  0.00     0.202 C 
BRANCH  25  26
ATOM     26  C   UNL A   1      39.357  20.162  25.532  1.00  0.00     0.261 C 
BRANCH  26  27
ATOM     27  O   UNL A   1      40.250  19.621  26.526  1.00  0.00    -0.460 OA
BRANCH  27  28
ATOM     28  C   UNL A   1      41.546  19.549  26.135  1.00  0.00     0.338 C 
ATOM     29  O   UNL A   1      42.066  18.691  25.441  1.00  0.00    -0.246 OA
BRANCH  28  30
ATOM     30  C   UNL A   1      42.267  20.777  26.516  1.00  0.00     0.060 A 
ATOM     31  C   UNL A   1      42.263  21.124  27.873  1.00  0.00     0.016 A 
ATOM     32  C   UNL A   1      42.831  21.630  25.565  1.00  0.00     0.016 A 
ATOM     33  C   UNL A   1      42.776  22.352  28.279  1.00  0.00     0.010 A 
ATOM     34  C   UNL A   1      43.338  22.871  25.975  1.00  0.00     0.010 A 
ATOM     35  C   UNL A   1      43.274  23.252  27.328  1.00  0.00    -0.014 A 
BRANCH  35  36
ATOM     36  C   UNL A   1      43.580  24.639  27.755  1.00  0.00     0.031 A 
ATOM     37  C   UNL A   1      45.009  25.107  27.759  1.00  0.00     0.074 A 
ATOM     38  C   UNL A   1      42.591  25.498  28.052  1.00  0.00     0.049 A 
ATOM     39  N   UNL A   1      45.494  26.301  27.992  1.00  0.00    -0.248 NA
ATOM     40  C   UNL A   1      46.029  24.093  27.452  1.00  0.00     0.031 C 
ATOM     41  C   UNL A   1      41.166  25.175  28.050  1.00  0.00     0.029 A 
ATOM     42  N   UNL A   1      42.637  26.827  28.395  1.00  0.00    -0.354 N 
ATOM     43  C   UNL A   1      46.870  26.184  27.852  1.00  0.00     0.074 A 
ATOM     44  C   UNL A   1      47.147  24.794  27.554  1.00  0.00     0.031 C 
ATOM     45  C   UNL A   1      40.470  26.281  28.362  1.00  0.00     0.029 A 
ATOM     46  C   UNL A   1      41.401  27.383  28.600  1.00  0.00     0.049 A 
ATOM     47  H   UNL A   1      43.478  27.331  28.485  1.00  0.00     0.167 HD
ATOM     48  C   UNL A   1      47.817  27.148  27.947  1.00  0.00     0.037 A 
ATOM     49  C   UNL A   1      41.060  28.642  28.936  1.00  0.00     0.037 A 
ATOM     50  C   UNL A   1      47.544  28.529  28.253  1.00  0.00     0.049 A 
ATOM     51  C   UNL A   1      42.136  29.681  29.108  1.00  0.00     0.074 A 
ATOM     52  C   UNL A   1      48.431  29.586  28.347  1.00  0.00     0.029 A 
ATOM     53  N   UNL A   1      46.283  29.040  28.526  1.00  0.00    -0.354 N 
ATOM     54  N   UNL A   1      43.431  29.571  28.934  1.00  0.00    -0.248 NA
ATOM     55  C   UNL A   1      41.697  31.022  29.518  1.00  0.00     0.031 C 
ATOM     56  C   UNL A   1      47.714  30.728  28.727  1.00  0.00     0.029 A 
ATOM     57  C   UNL A   1      46.373  30.391  28.822  1.00  0.00     0.049 A 
ATOM     58  H   UNL A   1      45.448  28.519  28.512  1.00  0.00     0.167 HD
ATOM     59  C   UNL A   1      43.959  30.829  29.192  1.00  0.00     0.074 A 
ATOM     60  C   UNL A   1      42.842  31.691  29.520  1.00  0.00     0.031 C 
ATOM     61  C   UNL A   1      45.253  31.234  29.160  1.00  0.00     0.037 A 
BRANCH  48  62
ATOM     62  C   UNL A   1      49.243  26.727  27.745  1.00  0.00     0.064 A 
ATOM     63  C   UNL A   1      49.785  26.553  26.463  1.00  0.00     0.173 A 
ATOM     64  C   UNL A   1      50.076  26.491  28.848  1.00  0.00     0.173 A 
ATOM     65  F   UNL A   1      49.025  26.751  25.376  1.00  0.00    -0.203 F 
ATOM     66  C   UNL A   1      51.099  26.124  26.293  1.00  0.00     0.198 A 
ATOM     67  C   UNL A   1      51.398  26.088  28.675  1.00  0.00     0.198 A 
ATOM     68  F   UNL A   1      49.609  26.645  30.096  1.00  0.00    -0.203 F 
ATOM     69  F   UNL A   1      51.579  25.910  25.060  1.00  0.00    -0.200 F 
ATOM     70  C   UNL A   1      51.906  25.895  27.399  1.00  0.00     0.200 A 
ATOM     71  F   UNL A   1      52.178  25.875  29.743  1.00  0.00    -0.200 F 
ATOM     72  F   UNL A   1      53.168  25.476  27.234  1.00  0.00    -0.200 F 
ENDBRANCH  48  62
BRANCH  49  73
ATOM     73  C   UNL A   1      39.629  28.996  29.107  1.00  0.00     0.064 A 
ATOM     74  C   UNL A   1      39.022  28.952  30.370  1.00  0.00     0.173 A 
ATOM     75  C   UNL A   1      38.842  29.392  28.016  1.00  0.00     0.173 A 
ATOM     76  F   UNL A   1      39.728  28.555  31.438  1.00  0.00    -0.203 F 
ATOM     77  C   UNL A   1      37.679  29.285  30.533  1.00  0.00     0.198 A 
ATOM     78  C   UNL A   1      37.507  29.747  28.185  1.00  0.00     0.198 A 
ATOM     79  F   UNL A   1      39.378  29.447  26.787  1.00  0.00    -0.203 F 
ATOM     80  F   UNL A   1      37.115  29.206  31.746  1.00  0.00    -0.200 F 
ATOM     81  C   UNL A   1      36.924  29.690  29.442  1.00  0.00     0.200 A 
ATOM     82  F   UNL A   1      36.784  30.147  27.130  1.00  0.00    -0.200 F 
ATOM     83  F   UNL A   1      35.636  30.021  29.601  1.00  0.00    -0.200 F 
ENDBRANCH  49  73
BRANCH  61  84
ATOM     84  C   UNL A   1      45.525  32.677  29.476  1.00  0.00     0.064 A 
ATOM     85  C   UNL A   1      45.491  33.665  28.481  1.00  0.00     0.173 A 
ATOM     86  C   UNL A   1      45.810  33.078  30.790  1.00  0.00     0.173 A 
ATOM     87  F   UNL A   1      45.240  33.332  27.206  1.00  0.00    -0.203 F 
ATOM     88  C   UNL A   1      45.764  34.996  28.784  1.00  0.00     0.198 A 
ATOM     89  C   UNL A   1      46.054  34.414  31.095  1.00  0.00     0.198 A 
ATOM     90  F   UNL A   1      45.848  32.174  31.780  1.00  0.00    -0.203 F 
ATOM     91  F   UNL A   1      45.779  35.915  27.808  1.00  0.00    -0.200 F 
ATOM     92  C   UNL A   1      46.040  35.370  30.091  1.00  0.00     0.200 A 
ATOM     93  F   UNL A   1      46.310  34.776  32.360  1.00  0.00    -0.200 F 
ATOM     94  F   UNL A   1      46.304  36.652  30.381  1.00  0.00    -0.200 F 
ENDBRANCH  61  84
ENDBRANCH  35  36
ENDBRANCH  28  30
ENDBRANCH  27  28
ENDBRANCH  26  27
ENDBRANCH  25  26
ENDBRANCH  24  25
ENDBRANCH  23  24
ENDBRANCH   1  23
TORSDOF 21
ENDMDL
