MODEL 1
REMARK VINA RESULT:     -12.5      0.000      0.000
REMARK SMILES [NH3+][C@H]1C=C[C@H](C(=O)N2CCCc3c(C(=O)OCCOCCOC(=O)c4ccc(-c5c6nc(c(-c7c(F)c(F)c(F)c(F)c7F)c7ccc([nH]7)c(-c7c(F)c(F)c(F)c(F)c7F)c7nc(c(-c8c(F)c(F)c(F)c(F)c8F)c8ccc5[nH]8)C=C7)C=C6)cc4)cccc32)C1
REMARK SMILES IDX 18 1 17 2 16 3 14 4 15 5 13 6 8 7 9 8 91 9 10 10 12 11 90 12
REMARK SMILES IDX 11 13 89 14 88 15 6 16 7 17 5 18 2 19 3 20 92 21 4 22 1 23
REMARK SMILES IDX 19 27 20 28 21 29 22 30 23 31 24 32 25 33 26 34 87 35 27 36
REMARK SMILES IDX 86 37 28 38 29 39 30 40 80 41 31 42 85 43 79 44 81 45 32 46
REMARK SMILES IDX 84 47 78 48 77 49 33 51 65 52 45 53 64 54 46 55 49 56 63 57
REMARK SMILES IDX 82 58 47 59 48 60 62 62 83 63 50 64 34 65 35 66 43 67 36 68
REMARK SMILES IDX 37 69 41 70 44 71 38 72 39 73 42 74 40 75 66 76 67 77 75 78
REMARK SMILES IDX 68 79 69 80 73 81 76 82 70 83 71 84 74 85 72 86 51 87 52 88
REMARK SMILES IDX 60 89 53 90 54 91 58 92 61 93 55 94 56 95 59 96 57 97
REMARK H PARENT 1 24 1 25 1 26 81 50 49 61
REMARK Flexibility Score: inf
ROOT
ATOM      1  C   UNL A   1      31.258  29.188  24.412  1.00  0.00     0.202 C 
ENDROOT
BRANCH   1   2
ATOM      2  C   UNL A   1      31.860  27.784  24.482  1.00  0.00     0.261 C 
BRANCH   2   3
ATOM      3  O   UNL A   1      31.016  26.950  25.294  1.00  0.00    -0.460 OA
BRANCH   3   4
ATOM      4  C   UNL A   1      30.324  25.996  24.636  1.00  0.00     0.338 C 
ATOM      5  O   UNL A   1      29.535  26.175  23.718  1.00  0.00    -0.246 OA
BRANCH   4   6
ATOM      6  C   UNL A   1      30.801  24.647  25.033  1.00  0.00     0.065 A 
ATOM      7  N   UNL A   1      33.209  21.906  24.222  1.00  0.00    -0.312 N 
ATOM      8  C   UNL A   1      33.930  22.567  23.142  1.00  0.00     0.126 C 
ATOM      9  C   UNL A   1      32.138  22.629  24.839  1.00  0.00     0.048 A 
ATOM     10  C   UNL A   1      32.949  23.187  22.169  1.00  0.00     0.027 C 
ATOM     11  C   UNL A   1      31.669  23.835  24.267  1.00  0.00    -0.010 A 
ATOM     12  C   UNL A   1      31.634  22.207  26.084  1.00  0.00     0.027 A 
ATOM     13  C   UNL A   1      32.112  24.244  22.880  1.00  0.00     0.040 C 
ATOM     14  C   UNL A   1      30.727  22.985  26.795  1.00  0.00     0.003 A 
ATOM     15  C   UNL A   1      30.334  24.213  26.286  1.00  0.00     0.016 A 
BRANCH   7  16
ATOM     16  C   UNL A   1      33.563  20.623  24.637  1.00  0.00     0.234 C 
ATOM     17  O   UNL A   1      34.718  20.313  24.936  1.00  0.00    -0.274 OA
BRANCH  16  18
ATOM     18  C   UNL A   1      32.445  19.573  24.551  1.00  0.00     0.108 C 
ATOM     19  C   UNL A   1      33.566  17.420  24.300  1.00  0.00     0.205 C 
ATOM     20  C   UNL A   1      32.999  17.886  23.000  1.00  0.00     0.033 C 
ATOM     21  C   UNL A   1      32.797  18.287  25.311  1.00  0.00     0.087 C 
ATOM     22  C   UNL A   1      32.382  19.069  23.131  1.00  0.00    -0.012 C 
BRANCH  19  23
ATOM     23  N   UNL A   1      33.356  16.000  24.504  1.00  0.00    -0.352 N 
ATOM     24  H   UNL A   1      34.238  15.559  24.764  1.00  0.00     0.345 HD
ATOM     25  H   UNL A   1      33.007  15.579  23.642  1.00  0.00     0.345 HD
ATOM     26  H   UNL A   1      32.674  15.861  25.250  1.00  0.00     0.345 HD
ENDBRANCH  19  23
ENDBRANCH  16  18
ENDBRANCH   7  16
ENDBRANCH   4   6
ENDBRANCH   3   4
ENDBRANCH   2   3
ENDBRANCH   1   2
BRANCH   1  27
ATOM     27  O   UNL A   1      31.762  30.113  25.380  1.00  0.00    -0.374 OA
BRANCH  27  28
ATOM     28  C   UNL A   1      30.919  31.210  25.736  1.00  0.00     0.202 C 
BRANCH  28  29
ATOM     29  C   UNL A   1      31.562  32.285  26.617  1.00  0.00     0.261 C 
BRANCH  29  30
ATOM     30  O   UNL A   1      32.758  31.808  27.259  1.00  0.00    -0.460 OA
BRANCH  30  31
ATOM     31  C   UNL A   1      33.577  32.783  27.710  1.00  0.00     0.338 C 
ATOM     32  O   UNL A   1      33.273  33.935  27.997  1.00  0.00    -0.246 OA
BRANCH  31  33
ATOM     33  C   UNL A   1      34.923  32.247  27.977  1.00  0.00     0.060 A 
ATOM     34  C   UNL A   1      35.032  30.862  28.146  1.00  0.00     0.016 A 
ATOM     35  C   UNL A   1      36.032  33.076  28.163  1.00  0.00     0.016 A 
ATOM     36  C   UNL A   1      36.230  30.307  28.583  1.00  0.00     0.010 A 
ATOM     37  C   UNL A   1      37.237  32.516  28.605  1.00  0.00     0.010 A 
ATOM     38  C   UNL A   1      37.322  31.137  28.869  1.00  0.00    -0.014 A 
BRANCH  38  39
ATOM     39  C   UNL A   1      38.464  30.568  29.624  1.00  0.00     0.031 A 
ATOM     40  C   UNL A   1      38.649  30.958  31.065  1.00  0.00     0.074 A 
ATOM     41  C   UNL A   1      39.281  29.662  29.061  1.00  0.00     0.049 A 
ATOM     42  N   UNL A   1      39.529  30.535  31.936  1.00  0.00    -0.248 NA
ATOM     43  C   UNL A   1      37.713  31.961  31.595  1.00  0.00     0.031 C 
ATOM     44  C   UNL A   1      39.193  29.191  27.681  1.00  0.00     0.029 A 
ATOM     45  N   UNL A   1      40.343  28.973  29.589  1.00  0.00    -0.354 N 
ATOM     46  C   UNL A   1      39.252  31.216  33.114  1.00  0.00     0.074 A 
ATOM     47  C   UNL A   1      38.151  32.114  32.834  1.00  0.00     0.031 C 
ATOM     48  C   UNL A   1      40.170  28.293  27.466  1.00  0.00     0.029 A 
ATOM     49  C   UNL A   1      40.957  28.137  28.690  1.00  0.00     0.049 A 
ATOM     50  H   UNL A   1      40.638  29.070  30.523  1.00  0.00     0.167 HD
ATOM     51  C   UNL A   1      39.847  31.094  34.324  1.00  0.00     0.037 A 
ATOM     52  C   UNL A   1      42.033  27.342  28.839  1.00  0.00     0.037 A 
ATOM     53  C   UNL A   1      40.943  30.203  34.603  1.00  0.00     0.049 A 
ATOM     54  C   UNL A   1      42.700  27.242  30.185  1.00  0.00     0.074 A 
ATOM     55  C   UNL A   1      41.603  29.990  35.800  1.00  0.00     0.029 A 
ATOM     56  N   UNL A   1      41.545  29.379  33.662  1.00  0.00    -0.354 N 
ATOM     57  N   UNL A   1      42.404  27.857  31.304  1.00  0.00    -0.248 NA
ATOM     58  C   UNL A   1      43.839  26.320  30.292  1.00  0.00     0.031 C 
ATOM     59  C   UNL A   1      42.635  29.073  35.573  1.00  0.00     0.029 A 
ATOM     60  C   UNL A   1      42.585  28.674  34.247  1.00  0.00     0.049 A 
ATOM     61  H   UNL A   1      41.274  29.307  32.719  1.00  0.00     0.167 HD
ATOM     62  C   UNL A   1      43.303  27.384  32.251  1.00  0.00     0.074 A 
ATOM     63  C   UNL A   1      44.145  26.416  31.579  1.00  0.00     0.031 C 
ATOM     64  C   UNL A   1      43.418  27.718  33.561  1.00  0.00     0.037 A 
BRANCH  51  65
ATOM     65  C   UNL A   1      39.334  31.971  35.430  1.00  0.00     0.064 A 
ATOM     66  C   UNL A   1      39.713  33.317  35.541  1.00  0.00     0.173 A 
ATOM     67  C   UNL A   1      38.454  31.455  36.393  1.00  0.00     0.173 A 
ATOM     68  F   UNL A   1      40.565  33.853  34.654  1.00  0.00    -0.203 F 
ATOM     69  C   UNL A   1      39.262  34.104  36.598  1.00  0.00     0.198 A 
ATOM     70  C   UNL A   1      37.981  32.254  37.432  1.00  0.00     0.198 A 
ATOM     71  F   UNL A   1      38.056  30.176  36.332  1.00  0.00    -0.203 F 
ATOM     72  F   UNL A   1      39.686  35.370  36.717  1.00  0.00    -0.200 F 
ATOM     73  C   UNL A   1      38.394  33.573  37.539  1.00  0.00     0.200 A 
ATOM     74  F   UNL A   1      37.134  31.743  38.336  1.00  0.00    -0.200 F 
ATOM     75  F   UNL A   1      37.963  34.330  38.558  1.00  0.00    -0.200 F 
ENDBRANCH  51  65
BRANCH  52  76
ATOM     76  C   UNL A   1      42.537  26.574  27.673  1.00  0.00     0.064 A 
ATOM     77  C   UNL A   1      43.500  27.110  26.807  1.00  0.00     0.173 A 
ATOM     78  C   UNL A   1      42.073  25.276  27.412  1.00  0.00     0.173 A 
ATOM     79  F   UNL A   1      43.958  28.355  27.003  1.00  0.00    -0.203 F 
ATOM     80  C   UNL A   1      43.974  26.379  25.720  1.00  0.00     0.198 A 
ATOM     81  C   UNL A   1      42.566  24.537  26.340  1.00  0.00     0.198 A 
ATOM     82  F   UNL A   1      41.153  24.719  28.214  1.00  0.00    -0.203 F 
ATOM     83  F   UNL A   1      44.871  26.926  24.887  1.00  0.00    -0.200 F 
ATOM     84  C   UNL A   1      43.512  25.091  25.491  1.00  0.00     0.200 A 
ATOM     85  F   UNL A   1      42.127  23.289  26.132  1.00  0.00    -0.200 F 
ATOM     86  F   UNL A   1      43.977  24.385  24.452  1.00  0.00    -0.200 F 
ENDBRANCH  52  76
BRANCH  64  87
ATOM     87  C   UNL A   1      44.479  27.016  34.360  1.00  0.00     0.064 A 
ATOM     88  C   UNL A   1      45.765  27.555  34.510  1.00  0.00     0.173 A 
ATOM     89  C   UNL A   1      44.195  25.803  35.009  1.00  0.00     0.173 A 
ATOM     90  F   UNL A   1      46.091  28.704  33.898  1.00  0.00    -0.203 F 
ATOM     91  C   UNL A   1      46.737  26.892  35.256  1.00  0.00     0.198 A 
ATOM     92  C   UNL A   1      45.160  25.159  35.778  1.00  0.00     0.198 A 
ATOM     93  F   UNL A   1      42.978  25.250  34.903  1.00  0.00    -0.203 F 
ATOM     94  F   UNL A   1      47.974  27.401  35.344  1.00  0.00    -0.200 F 
ATOM     95  C   UNL A   1      46.432  25.698  35.894  1.00  0.00     0.200 A 
ATOM     96  F   UNL A   1      44.859  24.013  36.403  1.00  0.00    -0.200 F 
ATOM     97  F   UNL A   1      47.367  25.064  36.613  1.00  0.00    -0.200 F 
ENDBRANCH  64  87
ENDBRANCH  38  39
ENDBRANCH  31  33
ENDBRANCH  30  31
ENDBRANCH  29  30
ENDBRANCH  28  29
ENDBRANCH  27  28
ENDBRANCH   1  27
TORSDOF 17
ENDMDL
MODEL 2
REMARK VINA RESULT:     -12.2      1.605      2.750
REMARK SMILES [NH3+][C@H]1C=C[C@H](C(=O)N2CCCc3c(C(=O)OCCOCCOC(=O)c4ccc(-c5c6nc(c(-c7c(F)c(F)c(F)c(F)c7F)c7ccc([nH]7)c(-c7c(F)c(F)c(F)c(F)c7F)c7nc(c(-c8c(F)c(F)c(F)c(F)c8F)c8ccc5[nH]8)C=C7)C=C6)cc4)cccc32)C1
REMARK SMILES IDX 18 1 17 2 16 3 14 4 15 5 13 6 8 7 9 8 91 9 10 10 12 11 90 12
REMARK SMILES IDX 11 13 89 14 88 15 6 16 7 17 5 18 2 19 3 20 92 21 4 22 1 23
REMARK SMILES IDX 19 27 20 28 21 29 22 30 23 31 24 32 25 33 26 34 87 35 27 36
REMARK SMILES IDX 86 37 28 38 29 39 30 40 80 41 31 42 85 43 79 44 81 45 32 46
REMARK SMILES IDX 84 47 78 48 77 49 33 51 65 52 45 53 64 54 46 55 49 56 63 57
REMARK SMILES IDX 82 58 47 59 48 60 62 62 83 63 50 64 34 65 35 66 43 67 36 68
REMARK SMILES IDX 37 69 41 70 44 71 38 72 39 73 42 74 40 75 66 76 67 77 75 78
REMARK SMILES IDX 68 79 69 80 73 81 76 82 70 83 71 84 74 85 72 86 51 87 52 88
REMARK SMILES IDX 60 89 53 90 54 91 58 92 61 93 55 94 56 95 59 96 57 97
REMARK H PARENT 1 24 1 25 1 26 81 50 49 61
REMARK Flexibility Score: inf
ROOT
ATOM      1  C   UNL A   1      30.325  30.101  24.143  1.00  0.00     0.202 C 
ENDROOT
BRANCH   1   2
ATOM      2  C   UNL A   1      29.424  29.476  23.078  1.00  0.00     0.261 C 
BRANCH   2   3
ATOM      3  O   UNL A   1      30.089  28.335  22.509  1.00  0.00    -0.460 OA
BRANCH   3   4
ATOM      4  C   UNL A   1      29.856  27.154  23.119  1.00  0.00     0.338 C 
ATOM      5  O   UNL A   1      28.801  26.793  23.622  1.00  0.00    -0.246 OA
BRANCH   4   6
ATOM      6  C   UNL A   1      31.007  26.237  22.921  1.00  0.00     0.065 A 
ATOM      7  N   UNL A   1      33.028  23.504  24.477  1.00  0.00    -0.312 N 
ATOM      8  C   UNL A   1      32.244  23.323  25.692  1.00  0.00     0.126 C 
ATOM      9  C   UNL A   1      32.595  24.512  23.557  1.00  0.00     0.048 A 
ATOM     10  C   UNL A   1      31.956  24.669  26.326  1.00  0.00     0.027 C 
ATOM     11  C   UNL A   1      31.587  25.432  23.930  1.00  0.00    -0.010 A 
ATOM     12  C   UNL A   1      33.081  24.511  22.236  1.00  0.00     0.027 A 
ATOM     13  C   UNL A   1      31.135  25.527  25.370  1.00  0.00     0.040 C 
ATOM     14  C   UNL A   1      32.548  25.356  21.270  1.00  0.00     0.003 A 
ATOM     15  C   UNL A   1      31.496  26.196  21.604  1.00  0.00     0.016 A 
BRANCH   7  16
ATOM     16  C   UNL A   1      34.147  22.712  24.224  1.00  0.00     0.234 C 
ATOM     17  O   UNL A   1      34.109  21.479  24.230  1.00  0.00    -0.274 OA
BRANCH  16  18
ATOM     18  C   UNL A   1      35.474  23.475  24.090  1.00  0.00     0.108 C 
ATOM     19  C   UNL A   1      37.121  22.179  25.339  1.00  0.00     0.205 C 
ATOM     20  C   UNL A   1      36.696  23.389  26.103  1.00  0.00     0.033 C 
ATOM     21  C   UNL A   1      36.670  22.530  23.912  1.00  0.00     0.087 C 
ATOM     22  C   UNL A   1      35.791  24.105  25.422  1.00  0.00    -0.012 C 
BRANCH  19  23
ATOM     23  N   UNL A   1      38.550  21.951  25.436  1.00  0.00    -0.352 N 
ATOM     24  H   UNL A   1      38.799  21.762  26.407  1.00  0.00     0.345 HD
ATOM     25  H   UNL A   1      39.050  22.780  25.114  1.00  0.00     0.345 HD
ATOM     26  H   UNL A   1      38.807  21.152  24.857  1.00  0.00     0.345 HD
ENDBRANCH  19  23
ENDBRANCH  16  18
ENDBRANCH   7  16
ENDBRANCH   4   6
ENDBRANCH   3   4
ENDBRANCH   2   3
ENDBRANCH   1   2
BRANCH   1  27
ATOM     27  O   UNL A   1      31.132  29.174  24.875  1.00  0.00    -0.374 OA
BRANCH  27  28
ATOM     28  C   UNL A   1      32.338  29.674  25.456  1.00  0.00     0.202 C 
BRANCH  28  29
ATOM     29  C   UNL A   1      32.208  30.987  26.234  1.00  0.00     0.261 C 
BRANCH  29  30
ATOM     30  O   UNL A   1      32.869  30.922  27.510  1.00  0.00    -0.460 OA
BRANCH  30  31
ATOM     31  C   UNL A   1      33.706  31.953  27.758  1.00  0.00     0.338 C 
ATOM     32  O   UNL A   1      33.409  33.132  27.905  1.00  0.00    -0.246 OA
BRANCH  31  33
ATOM     33  C   UNL A   1      35.075  31.464  27.993  1.00  0.00     0.060 A 
ATOM     34  C   UNL A   1      35.226  30.096  28.248  1.00  0.00     0.016 A 
ATOM     35  C   UNL A   1      36.173  32.326  28.067  1.00  0.00     0.016 A 
ATOM     36  C   UNL A   1      36.456  29.595  28.661  1.00  0.00     0.010 A 
ATOM     37  C   UNL A   1      37.411  31.821  28.486  1.00  0.00     0.010 A 
ATOM     38  C   UNL A   1      37.540  30.465  28.836  1.00  0.00    -0.014 A 
BRANCH  38  39
ATOM     39  C   UNL A   1      38.731  29.972  29.569  1.00  0.00     0.031 A 
ATOM     40  C   UNL A   1      38.956  30.432  30.984  1.00  0.00     0.074 A 
ATOM     41  C   UNL A   1      39.559  29.070  29.015  1.00  0.00     0.049 A 
ATOM     42  N   UNL A   1      39.883  30.081  31.837  1.00  0.00    -0.248 NA
ATOM     43  C   UNL A   1      38.004  31.425  31.506  1.00  0.00     0.031 C 
ATOM     44  C   UNL A   1      39.436  28.535  27.661  1.00  0.00     0.029 A 
ATOM     45  N   UNL A   1      40.665  28.444  29.530  1.00  0.00    -0.354 N 
ATOM     46  C   UNL A   1      39.626  30.805  32.994  1.00  0.00     0.074 A 
ATOM     47  C   UNL A   1      38.483  31.650  32.719  1.00  0.00     0.031 C 
ATOM     48  C   UNL A   1      40.436  27.663  27.448  1.00  0.00     0.029 A 
ATOM     49  C   UNL A   1      41.274  27.590  28.646  1.00  0.00     0.049 A 
ATOM     50  H   UNL A   1      40.991  28.594  30.447  1.00  0.00     0.167 HD
ATOM     51  C   UNL A   1      40.271  30.759  34.184  1.00  0.00     0.037 A 
ATOM     52  C   UNL A   1      42.384  26.841  28.787  1.00  0.00     0.037 A 
ATOM     53  C   UNL A   1      41.408  29.921  34.458  1.00  0.00     0.049 A 
ATOM     54  C   UNL A   1      43.105  26.826  30.108  1.00  0.00     0.074 A 
ATOM     55  C   UNL A   1      42.121  29.785  35.636  1.00  0.00     0.029 A 
ATOM     56  N   UNL A   1      42.005  29.076  33.531  1.00  0.00    -0.354 N 
ATOM     57  N   UNL A   1      42.829  27.480  31.210  1.00  0.00    -0.248 NA
ATOM     58  C   UNL A   1      44.281  25.950  30.211  1.00  0.00     0.031 C 
ATOM     59  C   UNL A   1      43.177  28.896  35.409  1.00  0.00     0.029 A 
ATOM     60  C   UNL A   1      43.091  28.436  34.105  1.00  0.00     0.049 A 
ATOM     61  H   UNL A   1      41.701  28.953  32.603  1.00  0.00     0.167 HD
ATOM     62  C   UNL A   1      43.780  27.082  32.141  1.00  0.00     0.074 A 
ATOM     63  C   UNL A   1      44.632  26.116  31.479  1.00  0.00     0.031 C 
ATOM     64  C   UNL A   1      43.933  27.480  33.429  1.00  0.00     0.037 A 
BRANCH  51  65
ATOM     65  C   UNL A   1      39.768  31.666  35.269  1.00  0.00     0.064 A 
ATOM     66  C   UNL A   1      38.728  31.282  36.129  1.00  0.00     0.173 A 
ATOM     67  C   UNL A   1      40.331  32.938  35.448  1.00  0.00     0.173 A 
ATOM     68  F   UNL A   1      38.145  30.082  35.988  1.00  0.00    -0.203 F 
ATOM     69  C   UNL A   1      38.243  32.152  37.102  1.00  0.00     0.198 A 
ATOM     70  C   UNL A   1      39.864  33.795  36.443  1.00  0.00     0.198 A 
ATOM     71  F   UNL A   1      41.330  33.354  34.657  1.00  0.00    -0.203 F 
ATOM     72  F   UNL A   1      37.208  31.787  37.872  1.00  0.00    -0.200 F 
ATOM     73  C   UNL A   1      38.814  33.406  37.260  1.00  0.00     0.200 A 
ATOM     74  F   UNL A   1      40.423  35.002  36.601  1.00  0.00    -0.200 F 
ATOM     75  F   UNL A   1      38.345  34.245  38.195  1.00  0.00    -0.200 F 
ENDBRANCH  51  65
BRANCH  52  76
ATOM     76  C   UNL A   1      42.872  26.039  27.636  1.00  0.00     0.064 A 
ATOM     77  C   UNL A   1      42.430  24.727  27.424  1.00  0.00     0.173 A 
ATOM     78  C   UNL A   1      43.781  26.581  26.716  1.00  0.00     0.173 A 
ATOM     79  F   UNL A   1      41.577  24.158  28.288  1.00  0.00    -0.203 F 
ATOM     80  C   UNL A   1      42.887  23.983  26.336  1.00  0.00     0.198 A 
ATOM     81  C   UNL A   1      44.217  25.846  25.617  1.00  0.00     0.198 A 
ATOM     82  F   UNL A   1      44.232  27.835  26.877  1.00  0.00    -0.203 F 
ATOM     83  F   UNL A   1      42.475  22.718  26.172  1.00  0.00    -0.200 F 
ATOM     84  C   UNL A   1      43.774  24.546  25.430  1.00  0.00     0.200 A 
ATOM     85  F   UNL A   1      45.063  26.399  24.737  1.00  0.00    -0.200 F 
ATOM     86  F   UNL A   1      44.203  23.835  24.380  1.00  0.00    -0.200 F 
ENDBRANCH  52  76
BRANCH  64  87
ATOM     87  C   UNL A   1      45.049  26.852  34.215  1.00  0.00     0.064 A 
ATOM     88  C   UNL A   1      46.308  27.461  34.320  1.00  0.00     0.173 A 
ATOM     89  C   UNL A   1      44.845  25.642  34.897  1.00  0.00     0.173 A 
ATOM     90  F   UNL A   1      46.558  28.611  33.676  1.00  0.00    -0.203 F 
ATOM     91  C   UNL A   1      47.332  26.867  35.056  1.00  0.00     0.198 A 
ATOM     92  C   UNL A   1      45.861  25.067  35.655  1.00  0.00     0.198 A 
ATOM     93  F   UNL A   1      43.657  25.023  34.835  1.00  0.00    -0.203 F 
ATOM     94  F   UNL A   1      48.541  27.442  35.102  1.00  0.00    -0.200 F 
ATOM     95  C   UNL A   1      47.105  25.674  35.727  1.00  0.00     0.200 A 
ATOM     96  F   UNL A   1      45.637  23.921  36.312  1.00  0.00    -0.200 F 
ATOM     97  F   UNL A   1      48.090  25.106  36.436  1.00  0.00    -0.200 F 
ENDBRANCH  64  87
ENDBRANCH  38  39
ENDBRANCH  31  33
ENDBRANCH  30  31
ENDBRANCH  29  30
ENDBRANCH  28  29
ENDBRANCH  27  28
ENDBRANCH   1  27
TORSDOF 17
ENDMDL
MODEL 3
REMARK VINA RESULT:     -12.1      4.194     10.305
REMARK SMILES [NH3+][C@H]1C=C[C@H](C(=O)N2CCCc3c(C(=O)OCCOCCOC(=O)c4ccc(-c5c6nc(c(-c7c(F)c(F)c(F)c(F)c7F)c7ccc([nH]7)c(-c7c(F)c(F)c(F)c(F)c7F)c7nc(c(-c8c(F)c(F)c(F)c(F)c8F)c8ccc5[nH]8)C=C7)C=C6)cc4)cccc32)C1
REMARK SMILES IDX 18 1 17 2 16 3 14 4 15 5 13 6 8 7 9 8 91 9 10 10 12 11 90 12
REMARK SMILES IDX 11 13 89 14 88 15 6 16 7 17 5 18 2 19 3 20 92 21 4 22 1 23
REMARK SMILES IDX 19 27 20 28 21 29 22 30 23 31 24 32 25 33 26 34 87 35 27 36
REMARK SMILES IDX 86 37 28 38 29 39 30 40 80 41 31 42 85 43 79 44 81 45 32 46
REMARK SMILES IDX 84 47 78 48 77 49 33 51 65 52 45 53 64 54 46 55 49 56 63 57
REMARK SMILES IDX 82 58 47 59 48 60 62 62 83 63 50 64 34 65 35 66 43 67 36 68
REMARK SMILES IDX 37 69 41 70 44 71 38 72 39 73 42 74 40 75 66 76 67 77 75 78
REMARK SMILES IDX 68 79 69 80 73 81 76 82 70 83 71 84 74 85 72 86 51 87 52 88
REMARK SMILES IDX 60 89 53 90 54 91 58 92 61 93 55 94 56 95 59 96 57 97
REMARK H PARENT 1 24 1 25 1 26 81 50 49 61
REMARK Flexibility Score: inf
ROOT
ATOM      1  C   UNL A   1      36.014  21.852  25.341  1.00  0.00     0.202 C 
ENDROOT
BRANCH   1   2
ATOM      2  C   UNL A   1      35.003  20.716  25.179  1.00  0.00     0.261 C 
BRANCH   2   3
ATOM      3  O   UNL A   1      33.781  21.074  25.845  1.00  0.00    -0.460 OA
BRANCH   3   4
ATOM      4  C   UNL A   1      32.699  21.219  25.051  1.00  0.00     0.338 C 
ATOM      5  O   UNL A   1      32.159  20.340  24.393  1.00  0.00    -0.246 OA
BRANCH   4   6
ATOM      6  C   UNL A   1      32.100  22.565  25.237  1.00  0.00     0.065 A 
ATOM      7  N   UNL A   1      31.722  25.966  23.732  1.00  0.00    -0.312 N 
ATOM      8  C   UNL A   1      32.401  25.717  22.467  1.00  0.00     0.126 C 
ATOM      9  C   UNL A   1      31.646  24.882  24.664  1.00  0.00     0.048 A 
ATOM     10  C   UNL A   1      33.718  25.012  22.717  1.00  0.00     0.027 C 
ATOM     11  C   UNL A   1      32.396  23.702  24.447  1.00  0.00    -0.010 A 
ATOM     12  C   UNL A   1      30.731  24.938  25.731  1.00  0.00     0.027 A 
ATOM     13  C   UNL A   1      33.466  23.662  23.380  1.00  0.00     0.040 C 
ATOM     14  C   UNL A   1      30.500  23.834  26.543  1.00  0.00     0.003 A 
ATOM     15  C   UNL A   1      31.161  22.643  26.280  1.00  0.00     0.016 A 
BRANCH   7  16
ATOM     16  C   UNL A   1      31.161  27.212  24.008  1.00  0.00     0.234 C 
ATOM     17  O   UNL A   1      29.952  27.436  23.918  1.00  0.00    -0.274 OA
BRANCH  16  18
ATOM     18  C   UNL A   1      32.170  28.338  24.284  1.00  0.00     0.108 C 
ATOM     19  C   UNL A   1      32.610  28.269  26.683  1.00  0.00     0.205 C 
ATOM     20  C   UNL A   1      31.698  29.398  26.336  1.00  0.00     0.033 C 
ATOM     21  C   UNL A   1      33.228  27.928  25.317  1.00  0.00     0.087 C 
ATOM     22  C   UNL A   1      31.452  29.442  25.019  1.00  0.00    -0.012 C 
BRANCH  19  23
ATOM     23  N   UNL A   1      33.602  28.657  27.667  1.00  0.00    -0.352 N 
ATOM     24  H   UNL A   1      33.980  27.822  28.117  1.00  0.00     0.345 HD
ATOM     25  H   UNL A   1      33.169  29.255  28.371  1.00  0.00     0.345 HD
ATOM     26  H   UNL A   1      34.357  29.166  27.207  1.00  0.00     0.345 HD
ENDBRANCH  19  23
ENDBRANCH  16  18
ENDBRANCH   7  16
ENDBRANCH   4   6
ENDBRANCH   3   4
ENDBRANCH   2   3
ENDBRANCH   1   2
BRANCH   1  27
ATOM     27  O   UNL A   1      37.383  21.441  25.399  1.00  0.00    -0.374 OA
BRANCH  27  28
ATOM     28  C   UNL A   1      37.691  20.126  24.936  1.00  0.00     0.202 C 
BRANCH  28  29
ATOM     29  C   UNL A   1      39.084  19.601  25.298  1.00  0.00     0.261 C 
BRANCH  29  30
ATOM     30  O   UNL A   1      39.561  20.156  26.536  1.00  0.00    -0.460 OA
BRANCH  30  31
ATOM     31  C   UNL A   1      40.849  20.563  26.505  1.00  0.00     0.338 C 
ATOM     32  O   UNL A   1      41.791  20.008  25.952  1.00  0.00    -0.246 OA
BRANCH  31  33
ATOM     33  C   UNL A   1      40.985  21.898  27.114  1.00  0.00     0.060 A 
ATOM     34  C   UNL A   1      40.397  22.970  26.433  1.00  0.00     0.016 A 
ATOM     35  C   UNL A   1      41.752  22.119  28.262  1.00  0.00     0.016 A 
ATOM     36  C   UNL A   1      40.642  24.275  26.846  1.00  0.00     0.010 A 
ATOM     37  C   UNL A   1      41.999  23.434  28.675  1.00  0.00     0.010 A 
ATOM     38  C   UNL A   1      41.489  24.516  27.936  1.00  0.00    -0.014 A 
BRANCH  38  39
ATOM     39  C   UNL A   1      41.981  25.897  28.156  1.00  0.00     0.031 A 
ATOM     40  C   UNL A   1      43.319  26.291  27.592  1.00  0.00     0.074 A 
ATOM     41  C   UNL A   1      41.220  26.809  28.783  1.00  0.00     0.049 A 
ATOM     42  N   UNL A   1      43.917  27.455  27.600  1.00  0.00    -0.248 NA
ATOM     43  C   UNL A   1      44.086  25.226  26.928  1.00  0.00     0.031 C 
ATOM     44  C   UNL A   1      39.901  26.555  29.358  1.00  0.00     0.029 A 
ATOM     45  N   UNL A   1      41.450  28.138  29.035  1.00  0.00    -0.354 N 
ATOM     46  C   UNL A   1      45.125  27.263  26.942  1.00  0.00     0.074 A 
ATOM     47  C   UNL A   1      45.196  25.861  26.589  1.00  0.00     0.031 C 
ATOM     48  C   UNL A   1      39.440  27.692  29.904  1.00  0.00     0.029 A 
ATOM     49  C   UNL A   1      40.437  28.749  29.729  1.00  0.00     0.049 A 
ATOM     50  H   UNL A   1      42.266  28.608  28.746  1.00  0.00     0.167 HD
ATOM     51  C   UNL A   1      46.082  28.174  26.644  1.00  0.00     0.037 A 
ATOM     52  C   UNL A   1      40.330  30.015  30.175  1.00  0.00     0.037 A 
ATOM     53  C   UNL A   1      46.012  29.567  26.997  1.00  0.00     0.049 A 
ATOM     54  C   UNL A   1      41.417  31.006  29.858  1.00  0.00     0.074 A 
ATOM     55  C   UNL A   1      46.919  30.576  26.723  1.00  0.00     0.029 A 
ATOM     56  N   UNL A   1      44.973  30.148  27.710  1.00  0.00    -0.354 N 
ATOM     57  N   UNL A   1      42.536  30.827  29.199  1.00  0.00    -0.248 NA
ATOM     58  C   UNL A   1      41.217  32.383  30.333  1.00  0.00     0.031 C 
ATOM     59  C   UNL A   1      46.452  31.756  27.313  1.00  0.00     0.029 A 
ATOM     60  C   UNL A   1      45.228  31.495  27.907  1.00  0.00     0.049 A 
ATOM     61  H   UNL A   1      44.173  29.671  28.030  1.00  0.00     0.167 HD
ATOM     62  C   UNL A   1      43.162  32.066  29.159  1.00  0.00     0.074 A 
ATOM     63  C   UNL A   1      42.289  32.995  29.849  1.00  0.00     0.031 C 
ATOM     64  C   UNL A   1      44.350  32.405  28.601  1.00  0.00     0.037 A 
BRANCH  51  65
ATOM     65  C   UNL A   1      47.298  27.675  25.918  1.00  0.00     0.064 A 
ATOM     66  C   UNL A   1      48.436  27.229  26.607  1.00  0.00     0.173 A 
ATOM     67  C   UNL A   1      47.326  27.647  24.517  1.00  0.00     0.173 A 
ATOM     68  F   UNL A   1      48.466  27.251  27.948  1.00  0.00    -0.203 F 
ATOM     69  C   UNL A   1      49.572  26.811  25.918  1.00  0.00     0.198 A 
ATOM     70  C   UNL A   1      48.453  27.199  23.831  1.00  0.00     0.198 A 
ATOM     71  F   UNL A   1      46.263  28.058  23.809  1.00  0.00    -0.203 F 
ATOM     72  F   UNL A   1      50.670  26.446  26.597  1.00  0.00    -0.200 F 
ATOM     73  C   UNL A   1      49.578  26.792  24.532  1.00  0.00     0.200 A 
ATOM     74  F   UNL A   1      48.454  27.172  22.491  1.00  0.00    -0.200 F 
ATOM     75  F   UNL A   1      50.673  26.393  23.870  1.00  0.00    -0.200 F 
ENDBRANCH  51  65
BRANCH  52  76
ATOM     76  C   UNL A   1      39.136  30.410  30.965  1.00  0.00     0.064 A 
ATOM     77  C   UNL A   1      39.112  30.287  32.360  1.00  0.00     0.173 A 
ATOM     78  C   UNL A   1      37.999  30.935  30.334  1.00  0.00     0.173 A 
ATOM     79  F   UNL A   1      40.168  29.771  33.006  1.00  0.00    -0.203 F 
ATOM     80  C   UNL A   1      37.991  30.669  33.095  1.00  0.00     0.198 A 
ATOM     81  C   UNL A   1      36.889  31.339  31.072  1.00  0.00     0.198 A 
ATOM     82  F   UNL A   1      37.974  31.073  29.000  1.00  0.00    -0.203 F 
ATOM     83  F   UNL A   1      37.980  30.511  34.426  1.00  0.00    -0.200 F 
ATOM     84  C   UNL A   1      36.883  31.201  32.451  1.00  0.00     0.200 A 
ATOM     85  F   UNL A   1      35.827  31.864  30.446  1.00  0.00    -0.200 F 
ATOM     86  F   UNL A   1      35.810  31.577  33.159  1.00  0.00    -0.200 F 
ENDBRANCH  52  76
BRANCH  64  87
ATOM     87  C   UNL A   1      44.767  33.846  28.691  1.00  0.00     0.064 A 
ATOM     88  C   UNL A   1      45.560  34.318  29.747  1.00  0.00     0.173 A 
ATOM     89  C   UNL A   1      44.393  34.758  27.691  1.00  0.00     0.173 A 
ATOM     90  F   UNL A   1      45.932  33.490  30.735  1.00  0.00    -0.203 F 
ATOM     91  C   UNL A   1      45.941  35.657  29.814  1.00  0.00     0.198 A 
ATOM     92  C   UNL A   1      44.800  36.088  27.747  1.00  0.00     0.198 A 
ATOM     93  F   UNL A   1      43.641  34.355  26.657  1.00  0.00    -0.203 F 
ATOM     94  F   UNL A   1      46.657  36.096  30.858  1.00  0.00    -0.200 F 
ATOM     95  C   UNL A   1      45.565  36.539  28.811  1.00  0.00     0.200 A 
ATOM     96  F   UNL A   1      44.446  36.936  26.771  1.00  0.00    -0.200 F 
ATOM     97  F   UNL A   1      45.933  37.825  28.876  1.00  0.00    -0.200 F 
ENDBRANCH  64  87
ENDBRANCH  38  39
ENDBRANCH  31  33
ENDBRANCH  30  31
ENDBRANCH  29  30
ENDBRANCH  28  29
ENDBRANCH  27  28
ENDBRANCH   1  27
TORSDOF 17
ENDMDL
