MODEL 1
REMARK VINA RESULT:     -10.8      0.000      0.000
REMARK SMILES Cc1cc(C)c2c(OCCCC(=O)OCCOCCOC(=O)c3ccc(-c4c5nc(c(-c6c(F)c(F)c(F)c(F)c6F)c6ccc([nH]6)c(-c6c(F)c(F)c(F)c(F)c6F)c6nc(c(-c7c(F)c(F)c(F)c(F)c7F)c7ccc4[nH]7)C=C6)C=C5)cc3)nsc2n1
REMARK SMILES IDX 16 1 15 2 14 3 12 4 13 5 11 6 10 7 9 8 8 9 7 10 1 11 2 12
REMARK SMILES IDX 3 13 89 14 4 15 88 16 5 17 6 18 87 19 86 20 17 21 18 22
REMARK SMILES IDX 19 23 20 24 21 25 22 26 23 27 24 28 85 29 25 30 84 31 26 32
REMARK SMILES IDX 27 33 28 34 78 35 29 36 83 37 77 38 79 39 30 40 82 41 76 42
REMARK SMILES IDX 75 43 31 45 63 46 43 47 62 48 44 49 47 50 61 51 80 52 45 53
REMARK SMILES IDX 46 54 60 56 81 57 48 58 32 59 33 60 41 61 34 62 35 63 39 64
REMARK SMILES IDX 42 65 36 66 37 67 40 68 38 69 64 70 65 71 73 72 66 73 67 74
REMARK SMILES IDX 71 75 74 76 68 77 69 78 72 79 70 80 49 81 50 82 58 83 51 84
REMARK SMILES IDX 52 85 56 86 59 87 53 88 54 89 57 90 55 91
REMARK H PARENT 79 44 47 55
REMARK Flexibility Score: inf
ROOT
ATOM      1  C   UNL A   1      40.421  21.112  27.208  1.00  0.00     0.202 C 
ENDROOT
BRANCH   1   2
ATOM      2  C   UNL A   1      40.094  21.819  25.900  1.00  0.00     0.261 C 
BRANCH   2   3
ATOM      3  O   UNL A   1      38.687  21.752  25.525  1.00  0.00    -0.463 OA
BRANCH   3   4
ATOM      4  C   UNL A   1      37.961  22.848  25.871  1.00  0.00     0.305 C 
ATOM      5  O   UNL A   1      38.465  23.869  26.333  1.00  0.00    -0.252 OA
BRANCH   4   6
ATOM      6  C   UNL A   1      36.447  22.724  25.771  1.00  0.00     0.126 C 
BRANCH   6   7
ATOM      7  C   UNL A   1      35.721  22.344  24.481  1.00  0.00     0.053 C 
BRANCH   7   8
ATOM      8  C   UNL A   1      35.587  23.325  23.299  1.00  0.00     0.232 C 
BRANCH   8   9
ATOM      9  O   UNL A   1      34.314  23.645  22.760  1.00  0.00    -0.477 OA
BRANCH   9  10
ATOM     10  C   UNL A   1      33.826  24.899  22.904  1.00  0.00     0.235 A 
ATOM     11  C   UNL A   1      34.257  28.961  26.628  1.00  0.00     0.067 C 
ATOM     12  C   UNL A   1      33.757  27.861  25.737  1.00  0.00     0.039 A 
ATOM     13  C   UNL A   1      33.463  26.619  26.283  1.00  0.00     0.027 A 
ATOM     14  N   UNL A   1      33.688  28.120  24.423  1.00  0.00    -0.240 NA
ATOM     15  C   UNL A   1      33.324  25.479  25.467  1.00  0.00    -0.034 A 
ATOM     16  C   UNL A   1      33.553  27.022  23.657  1.00  0.00     0.147 A 
ATOM     17  C   UNL A   1      33.042  24.162  26.136  1.00  0.00     0.045 C 
ATOM     18  C   UNL A   1      33.516  25.688  24.075  1.00  0.00     0.078 A 
ATOM     19  S   UNL A   1      33.448  27.104  21.963  1.00  0.00    -0.012 S 
ATOM     20  N   UNL A   1      33.672  25.484  21.717  1.00  0.00    -0.153 NA
ENDBRANCH   9  10
ENDBRANCH   8   9
ENDBRANCH   7   8
ENDBRANCH   6   7
ENDBRANCH   4   6
ENDBRANCH   3   4
ENDBRANCH   2   3
ENDBRANCH   1   2
BRANCH   1  21
ATOM     21  O   UNL A   1      41.792  20.772  27.396  1.00  0.00    -0.374 OA
BRANCH  21  22
ATOM     22  C   UNL A   1      42.168  19.414  27.215  1.00  0.00     0.202 C 
BRANCH  22  23
ATOM     23  C   UNL A   1      42.827  19.052  25.890  1.00  0.00     0.261 C 
BRANCH  23  24
ATOM     24  O   UNL A   1      43.023  20.154  25.013  1.00  0.00    -0.460 OA
BRANCH  24  25
ATOM     25  C   UNL A   1      44.311  20.244  24.596  1.00  0.00     0.338 C 
ATOM     26  O   UNL A   1      45.078  19.331  24.344  1.00  0.00    -0.246 OA
BRANCH  25  27
ATOM     27  C   UNL A   1      44.772  21.627  24.721  1.00  0.00     0.060 A 
ATOM     28  C   UNL A   1      45.729  21.840  25.718  1.00  0.00     0.016 A 
ATOM     29  C   UNL A   1      43.911  22.635  24.270  1.00  0.00     0.016 A 
ATOM     30  C   UNL A   1      45.631  22.988  26.463  1.00  0.00     0.010 A 
ATOM     31  C   UNL A   1      43.797  23.768  25.034  1.00  0.00     0.010 A 
ATOM     32  C   UNL A   1      44.598  23.882  26.170  1.00  0.00    -0.014 A 
BRANCH  32  33
ATOM     33  C   UNL A   1      44.427  25.014  27.052  1.00  0.00     0.031 A 
ATOM     34  C   UNL A   1      45.534  25.989  26.948  1.00  0.00     0.074 A 
ATOM     35  C   UNL A   1      43.308  25.180  27.781  1.00  0.00     0.049 A 
ATOM     36  N   UNL A   1      46.309  26.427  27.884  1.00  0.00    -0.248 NA
ATOM     37  C   UNL A   1      45.916  26.424  25.592  1.00  0.00     0.031 C 
ATOM     38  C   UNL A   1      42.065  24.406  27.708  1.00  0.00     0.029 A 
ATOM     39  N   UNL A   1      43.005  26.167  28.664  1.00  0.00    -0.354 N 
ATOM     40  C   UNL A   1      47.166  27.325  27.257  1.00  0.00     0.074 A 
ATOM     41  C   UNL A   1      46.998  27.156  25.841  1.00  0.00     0.031 C 
ATOM     42  C   UNL A   1      41.084  25.089  28.340  1.00  0.00     0.029 A 
ATOM     43  C   UNL A   1      41.651  26.282  28.943  1.00  0.00     0.049 A 
ATOM     44  H   UNL A   1      43.687  26.748  29.072  1.00  0.00     0.167 HD
ATOM     45  C   UNL A   1      47.766  28.327  27.948  1.00  0.00     0.037 A 
ATOM     46  C   UNL A   1      41.049  27.344  29.534  1.00  0.00     0.037 A 
ATOM     47  C   UNL A   1      47.837  28.033  29.351  1.00  0.00     0.049 A 
ATOM     48  C   UNL A   1      42.111  28.133  30.211  1.00  0.00     0.074 A 
ATOM     49  C   UNL A   1      48.456  27.050  30.095  1.00  0.00     0.029 A 
ATOM     50  N   UNL A   1      46.904  28.607  30.176  1.00  0.00    -0.354 N 
ATOM     51  N   UNL A   1      42.776  27.733  31.259  1.00  0.00    -0.248 NA
ATOM     52  C   UNL A   1      42.722  29.229  29.470  1.00  0.00     0.031 C 
ATOM     53  C   UNL A   1      47.574  26.790  31.182  1.00  0.00     0.029 A 
ATOM     54  C   UNL A   1      46.483  27.653  31.065  1.00  0.00     0.049 A 
ATOM     55  H   UNL A   1      46.591  29.540  30.136  1.00  0.00     0.167 HD
ATOM     56  C   UNL A   1      44.059  28.228  31.077  1.00  0.00     0.074 A 
ATOM     57  C   UNL A   1      43.936  29.232  30.027  1.00  0.00     0.031 C 
ATOM     58  C   UNL A   1      45.139  27.577  31.594  1.00  0.00     0.037 A 
BRANCH  45  59
ATOM     59  C   UNL A   1      47.953  29.706  27.378  1.00  0.00     0.064 A 
ATOM     60  C   UNL A   1      49.231  30.288  27.381  1.00  0.00     0.173 A 
ATOM     61  C   UNL A   1      46.882  30.580  27.077  1.00  0.00     0.173 A 
ATOM     62  F   UNL A   1      50.311  29.561  27.701  1.00  0.00    -0.203 F 
ATOM     63  C   UNL A   1      49.417  31.652  27.140  1.00  0.00     0.198 A 
ATOM     64  C   UNL A   1      47.078  31.924  26.775  1.00  0.00     0.198 A 
ATOM     65  F   UNL A   1      45.602  30.202  27.175  1.00  0.00    -0.203 F 
ATOM     66  F   UNL A   1      50.638  32.188  27.266  1.00  0.00    -0.200 F 
ATOM     67  C   UNL A   1      48.341  32.467  26.833  1.00  0.00     0.200 A 
ATOM     68  F   UNL A   1      46.017  32.700  26.508  1.00  0.00    -0.200 F 
ATOM     69  F   UNL A   1      48.514  33.782  26.646  1.00  0.00    -0.200 F 
ENDBRANCH  45  59
BRANCH  46  70
ATOM     70  C   UNL A   1      39.694  27.900  29.284  1.00  0.00     0.064 A 
ATOM     71  C   UNL A   1      38.770  28.031  30.336  1.00  0.00     0.173 A 
ATOM     72  C   UNL A   1      39.367  28.564  28.085  1.00  0.00     0.173 A 
ATOM     73  F   UNL A   1      39.018  27.466  31.527  1.00  0.00    -0.203 F 
ATOM     74  C   UNL A   1      37.612  28.807  30.207  1.00  0.00     0.198 A 
ATOM     75  C   UNL A   1      38.204  29.324  27.953  1.00  0.00     0.198 A 
ATOM     76  F   UNL A   1      40.212  28.573  27.045  1.00  0.00    -0.203 F 
ATOM     77  F   UNL A   1      36.796  28.968  31.258  1.00  0.00    -0.200 F 
ATOM     78  C   UNL A   1      37.336  29.461  29.018  1.00  0.00     0.200 A 
ATOM     79  F   UNL A   1      37.966  29.978  26.807  1.00  0.00    -0.200 F 
ATOM     80  F   UNL A   1      36.261  30.255  28.913  1.00  0.00    -0.200 F 
ENDBRANCH  46  70
BRANCH  58  81
ATOM     81  C   UNL A   1      44.890  26.506  32.620  1.00  0.00     0.064 A 
ATOM     82  C   UNL A   1      44.693  26.762  33.988  1.00  0.00     0.173 A 
ATOM     83  C   UNL A   1      44.667  25.199  32.167  1.00  0.00     0.173 A 
ATOM     84  F   UNL A   1      44.795  28.002  34.480  1.00  0.00    -0.203 F 
ATOM     85  C   UNL A   1      44.314  25.744  34.863  1.00  0.00     0.198 A 
ATOM     86  C   UNL A   1      44.250  24.195  33.036  1.00  0.00     0.198 A 
ATOM     87  F   UNL A   1      44.790  24.909  30.862  1.00  0.00    -0.203 F 
ATOM     88  F   UNL A   1      44.132  26.011  36.165  1.00  0.00    -0.200 F 
ATOM     89  C   UNL A   1      44.080  24.466  34.384  1.00  0.00     0.200 A 
ATOM     90  F   UNL A   1      43.975  22.973  32.559  1.00  0.00    -0.200 F 
ATOM     91  F   UNL A   1      43.658  23.503  35.215  1.00  0.00    -0.200 F 
ENDBRANCH  58  81
ENDBRANCH  32  33
ENDBRANCH  25  27
ENDBRANCH  24  25
ENDBRANCH  23  24
ENDBRANCH  22  23
ENDBRANCH  21  22
ENDBRANCH   1  21
TORSDOF 18
ENDMDL
MODEL 2
REMARK VINA RESULT:     -10.8      5.023     10.738
REMARK SMILES Cc1cc(C)c2c(OCCCC(=O)OCCOCCOC(=O)c3ccc(-c4c5nc(c(-c6c(F)c(F)c(F)c(F)c6F)c6ccc([nH]6)c(-c6c(F)c(F)c(F)c(F)c6F)c6nc(c(-c7c(F)c(F)c(F)c(F)c7F)c7ccc4[nH]7)C=C6)C=C5)cc3)nsc2n1
REMARK SMILES IDX 16 1 15 2 14 3 12 4 13 5 11 6 10 7 9 8 8 9 7 10 1 11 2 12
REMARK SMILES IDX 3 13 89 14 4 15 88 16 5 17 6 18 87 19 86 20 17 21 18 22
REMARK SMILES IDX 19 23 20 24 21 25 22 26 23 27 24 28 85 29 25 30 84 31 26 32
REMARK SMILES IDX 27 33 28 34 78 35 29 36 83 37 77 38 79 39 30 40 82 41 76 42
REMARK SMILES IDX 75 43 31 45 63 46 43 47 62 48 44 49 47 50 61 51 80 52 45 53
REMARK SMILES IDX 46 54 60 56 81 57 48 58 32 59 33 60 41 61 34 62 35 63 39 64
REMARK SMILES IDX 42 65 36 66 37 67 40 68 38 69 64 70 65 71 73 72 66 73 67 74
REMARK SMILES IDX 71 75 74 76 68 77 69 78 72 79 70 80 49 81 50 82 58 83 51 84
REMARK SMILES IDX 52 85 56 86 59 87 53 88 54 89 57 90 55 91
REMARK H PARENT 79 44 47 55
REMARK Flexibility Score: inf
ROOT
ATOM      1  C   UNL A   1      33.143  35.816  29.630  1.00  0.00     0.202 C 
ENDROOT
BRANCH   1   2
ATOM      2  C   UNL A   1      33.394  35.940  31.126  1.00  0.00     0.261 C 
BRANCH   2   3
ATOM      3  O   UNL A   1      33.213  34.694  31.862  1.00  0.00    -0.463 OA
BRANCH   3   4
ATOM      4  C   UNL A   1      34.318  33.904  31.911  1.00  0.00     0.305 C 
ATOM      5  O   UNL A   1      34.275  32.681  31.797  1.00  0.00    -0.252 OA
BRANCH   4   6
ATOM      6  C   UNL A   1      35.637  34.593  32.232  1.00  0.00     0.126 C 
BRANCH   6   7
ATOM      7  C   UNL A   1      36.157  34.786  33.656  1.00  0.00     0.053 C 
BRANCH   7   8
ATOM      8  C   UNL A   1      35.477  34.124  34.871  1.00  0.00     0.232 C 
BRANCH   8   9
ATOM      9  O   UNL A   1      36.241  33.424  35.840  1.00  0.00    -0.477 OA
BRANCH   9  10
ATOM     10  C   UNL A   1      37.586  33.360  35.709  1.00  0.00     0.235 A 
ATOM     11  C   UNL A   1      41.216  33.545  31.543  1.00  0.00     0.067 C 
ATOM     12  C   UNL A   1      40.371  33.120  32.710  1.00  0.00     0.039 A 
ATOM     13  C   UNL A   1      39.316  32.240  32.505  1.00  0.00     0.027 A 
ATOM     14  N   UNL A   1      40.639  33.679  33.898  1.00  0.00    -0.240 NA
ATOM     15  C   UNL A   1      38.303  32.080  33.472  1.00  0.00    -0.034 A 
ATOM     16  C   UNL A   1      39.664  33.516  34.810  1.00  0.00     0.147 A 
ATOM     17  C   UNL A   1      37.175  31.136  33.162  1.00  0.00     0.045 C 
ATOM     18  C   UNL A   1      38.432  32.878  34.640  1.00  0.00     0.078 A 
ATOM     19  S   UNL A   1      39.782  34.143  36.386  1.00  0.00    -0.012 S 
ATOM     20  N   UNL A   1      38.190  33.903  36.765  1.00  0.00    -0.153 NA
ENDBRANCH   9  10
ENDBRANCH   8   9
ENDBRANCH   7   8
ENDBRANCH   6   7
ENDBRANCH   4   6
ENDBRANCH   3   4
ENDBRANCH   2   3
ENDBRANCH   1   2
BRANCH   1  21
ATOM     21  O   UNL A   1      32.556  34.588  29.206  1.00  0.00    -0.374 OA
BRANCH  21  22
ATOM     22  C   UNL A   1      33.084  33.970  28.041  1.00  0.00     0.202 C 
BRANCH  22  23
ATOM     23  C   UNL A   1      34.420  33.253  28.187  1.00  0.00     0.261 C 
BRANCH  23  24
ATOM     24  O   UNL A   1      34.341  31.993  28.841  1.00  0.00    -0.460 OA
BRANCH  24  25
ATOM     25  C   UNL A   1      35.228  31.102  28.330  1.00  0.00     0.338 C 
ATOM     26  O   UNL A   1      35.111  30.433  27.318  1.00  0.00    -0.246 OA
BRANCH  25  27
ATOM     27  C   UNL A   1      36.285  30.844  29.308  1.00  0.00     0.060 A 
ATOM     28  C   UNL A   1      37.389  31.696  29.219  1.00  0.00     0.016 A 
ATOM     29  C   UNL A   1      36.366  29.551  29.841  1.00  0.00     0.016 A 
ATOM     30  C   UNL A   1      38.634  31.150  29.403  1.00  0.00     0.010 A 
ATOM     31  C   UNL A   1      37.612  29.001  29.995  1.00  0.00     0.010 A 
ATOM     32  C   UNL A   1      38.724  29.785  29.686  1.00  0.00    -0.014 A 
BRANCH  32  33
ATOM     33  C   UNL A   1      40.044  29.201  29.739  1.00  0.00     0.031 A 
ATOM     34  C   UNL A   1      40.601  29.174  31.108  1.00  0.00     0.074 A 
ATOM     35  C   UNL A   1      40.616  28.646  28.654  1.00  0.00     0.049 A 
ATOM     36  N   UNL A   1      41.709  29.682  31.535  1.00  0.00    -0.248 NA
ATOM     37  C   UNL A   1      39.736  28.628  32.170  1.00  0.00     0.031 C 
ATOM     38  C   UNL A   1      40.001  28.386  27.349  1.00  0.00     0.029 A 
ATOM     39  N   UNL A   1      41.846  28.082  28.534  1.00  0.00    -0.354 N 
ATOM     40  C   UNL A   1      41.756  29.368  32.889  1.00  0.00     0.074 A 
ATOM     41  C   UNL A   1      40.457  28.880  33.258  1.00  0.00     0.031 C 
ATOM     42  C   UNL A   1      40.780  27.522  26.660  1.00  0.00     0.029 A 
ATOM     43  C   UNL A   1      41.985  27.256  27.428  1.00  0.00     0.049 A 
ATOM     44  H   UNL A   1      42.575  28.246  29.174  1.00  0.00     0.167 HD
ATOM     45  C   UNL A   1      42.937  29.288  33.553  1.00  0.00     0.037 A 
ATOM     46  C   UNL A   1      42.975  26.349  27.232  1.00  0.00     0.037 A 
ATOM     47  C   UNL A   1      43.968  30.033  32.890  1.00  0.00     0.049 A 
ATOM     48  C   UNL A   1      44.084  26.701  28.157  1.00  0.00     0.074 A 
ATOM     49  C   UNL A   1      44.145  31.369  32.589  1.00  0.00     0.029 A 
ATOM     50  N   UNL A   1      44.858  29.344  32.108  1.00  0.00    -0.354 N 
ATOM     51  N   UNL A   1      44.830  27.765  28.047  1.00  0.00    -0.248 NA
ATOM     52  C   UNL A   1      44.112  26.055  29.462  1.00  0.00     0.031 C 
ATOM     53  C   UNL A   1      44.819  31.385  31.335  1.00  0.00     0.029 A 
ATOM     54  C   UNL A   1      45.051  30.062  30.956  1.00  0.00     0.049 A 
ATOM     55  H   UNL A   1      45.283  28.485  32.332  1.00  0.00     0.167 HD
ATOM     56  C   UNL A   1      45.087  28.155  29.353  1.00  0.00     0.074 A 
ATOM     57  C   UNL A   1      44.721  27.006  30.174  1.00  0.00     0.031 C 
ATOM     58  C   UNL A   1      45.301  29.465  29.663  1.00  0.00     0.037 A 
BRANCH  45  59
ATOM     59  C   UNL A   1      43.209  28.241  34.598  1.00  0.00     0.064 A 
ATOM     60  C   UNL A   1      43.584  28.637  35.893  1.00  0.00     0.173 A 
ATOM     61  C   UNL A   1      43.381  26.868  34.303  1.00  0.00     0.173 A 
ATOM     62  F   UNL A   1      43.508  29.924  36.261  1.00  0.00    -0.203 F 
ATOM     63  C   UNL A   1      44.125  27.731  36.809  1.00  0.00     0.198 A 
ATOM     64  C   UNL A   1      43.861  25.957  35.239  1.00  0.00     0.198 A 
ATOM     65  F   UNL A   1      43.202  26.373  33.072  1.00  0.00    -0.203 F 
ATOM     66  F   UNL A   1      44.574  28.173  37.992  1.00  0.00    -0.200 F 
ATOM     67  C   UNL A   1      44.259  26.392  36.484  1.00  0.00     0.200 A 
ATOM     68  F   UNL A   1      44.006  24.671  34.892  1.00  0.00    -0.200 F 
ATOM     69  F   UNL A   1      44.818  25.534  37.345  1.00  0.00    -0.200 F 
ENDBRANCH  45  59
BRANCH  46  70
ATOM     70  C   UNL A   1      42.903  25.029  26.555  1.00  0.00     0.064 A 
ATOM     71  C   UNL A   1      43.651  24.781  25.390  1.00  0.00     0.173 A 
ATOM     72  C   UNL A   1      42.324  23.903  27.171  1.00  0.00     0.173 A 
ATOM     73  F   UNL A   1      44.272  25.789  24.759  1.00  0.00    -0.203 F 
ATOM     74  C   UNL A   1      43.840  23.485  24.897  1.00  0.00     0.198 A 
ATOM     75  C   UNL A   1      42.499  22.611  26.669  1.00  0.00     0.198 A 
ATOM     76  F   UNL A   1      41.657  24.011  28.329  1.00  0.00    -0.203 F 
ATOM     77  F   UNL A   1      44.623  23.284  23.828  1.00  0.00    -0.200 F 
ATOM     78  C   UNL A   1      43.271  22.400  25.544  1.00  0.00     0.200 A 
ATOM     79  F   UNL A   1      41.970  21.568  27.325  1.00  0.00    -0.200 F 
ATOM     80  F   UNL A   1      43.501  21.153  25.110  1.00  0.00    -0.200 F 
ENDBRANCH  46  70
BRANCH  58  81
ATOM     81  C   UNL A   1      45.567  30.420  28.532  1.00  0.00     0.064 A 
ATOM     82  C   UNL A   1      44.558  31.083  27.812  1.00  0.00     0.173 A 
ATOM     83  C   UNL A   1      46.893  30.808  28.295  1.00  0.00     0.173 A 
ATOM     84  F   UNL A   1      43.264  30.835  28.049  1.00  0.00    -0.203 F 
ATOM     85  C   UNL A   1      44.870  32.071  26.879  1.00  0.00     0.198 A 
ATOM     86  C   UNL A   1      47.198  31.822  27.393  1.00  0.00     0.198 A 
ATOM     87  F   UNL A   1      47.893  30.245  28.992  1.00  0.00    -0.203 F 
ATOM     88  F   UNL A   1      43.891  32.689  26.202  1.00  0.00    -0.200 F 
ATOM     89  C   UNL A   1      46.188  32.448  26.681  1.00  0.00     0.200 A 
ATOM     90  F   UNL A   1      48.469  32.219  27.242  1.00  0.00    -0.200 F 
ATOM     91  F   UNL A   1      46.483  33.439  25.827  1.00  0.00    -0.200 F 
ENDBRANCH  58  81
ENDBRANCH  32  33
ENDBRANCH  25  27
ENDBRANCH  24  25
ENDBRANCH  23  24
ENDBRANCH  22  23
ENDBRANCH  21  22
ENDBRANCH   1  21
TORSDOF 18
ENDMDL
MODEL 3
REMARK VINA RESULT:     -10.6      1.234      2.343
REMARK SMILES Cc1cc(C)c2c(OCCCC(=O)OCCOCCOC(=O)c3ccc(-c4c5nc(c(-c6c(F)c(F)c(F)c(F)c6F)c6ccc([nH]6)c(-c6c(F)c(F)c(F)c(F)c6F)c6nc(c(-c7c(F)c(F)c(F)c(F)c7F)c7ccc4[nH]7)C=C6)C=C5)cc3)nsc2n1
REMARK SMILES IDX 16 1 15 2 14 3 12 4 13 5 11 6 10 7 9 8 8 9 7 10 1 11 2 12
REMARK SMILES IDX 3 13 89 14 4 15 88 16 5 17 6 18 87 19 86 20 17 21 18 22
REMARK SMILES IDX 19 23 20 24 21 25 22 26 23 27 24 28 85 29 25 30 84 31 26 32
REMARK SMILES IDX 27 33 28 34 78 35 29 36 83 37 77 38 79 39 30 40 82 41 76 42
REMARK SMILES IDX 75 43 31 45 63 46 43 47 62 48 44 49 47 50 61 51 80 52 45 53
REMARK SMILES IDX 46 54 60 56 81 57 48 58 32 59 33 60 41 61 34 62 35 63 39 64
REMARK SMILES IDX 42 65 36 66 37 67 40 68 38 69 64 70 65 71 73 72 66 73 67 74
REMARK SMILES IDX 71 75 74 76 68 77 69 78 72 79 70 80 49 81 50 82 58 83 51 84
REMARK SMILES IDX 52 85 56 86 59 87 53 88 54 89 57 90 55 91
REMARK H PARENT 79 44 47 55
REMARK Flexibility Score: inf
ROOT
ATOM      1  C   UNL A   1      41.331  21.028  27.503  1.00  0.00     0.202 C 
ENDROOT
BRANCH   1   2
ATOM      2  C   UNL A   1      40.619  21.501  26.243  1.00  0.00     0.261 C 
BRANCH   2   3
ATOM      3  O   UNL A   1      39.211  21.126  26.183  1.00  0.00    -0.463 OA
BRANCH   3   4
ATOM      4  C   UNL A   1      38.381  22.124  25.778  1.00  0.00     0.305 C 
ATOM      5  O   UNL A   1      38.526  23.296  26.118  1.00  0.00    -0.252 OA
BRANCH   4   6
ATOM      6  C   UNL A   1      37.166  21.712  24.958  1.00  0.00     0.126 C 
BRANCH   6   7
ATOM      7  C   UNL A   1      36.618  22.543  23.798  1.00  0.00     0.053 C 
BRANCH   7   8
ATOM      8  C   UNL A   1      35.874  23.873  24.025  1.00  0.00     0.232 C 
BRANCH   8   9
ATOM      9  O   UNL A   1      35.372  24.216  25.308  1.00  0.00    -0.477 OA
BRANCH   9  10
ATOM     10  C   UNL A   1      34.101  24.662  25.429  1.00  0.00     0.235 A 
ATOM     11  C   UNL A   1      29.336  22.683  27.415  1.00  0.00     0.067 C 
ATOM     12  C   UNL A   1      30.428  23.209  26.528  1.00  0.00     0.039 A 
ATOM     13  C   UNL A   1      31.091  22.340  25.672  1.00  0.00     0.027 A 
ATOM     14  N   UNL A   1      30.762  24.500  26.665  1.00  0.00    -0.240 NA
ATOM     15  C   UNL A   1      32.322  22.694  25.085  1.00  0.00    -0.034 A 
ATOM     16  C   UNL A   1      31.938  24.822  26.097  1.00  0.00     0.147 A 
ATOM     17  C   UNL A   1      32.997  21.684  24.198  1.00  0.00     0.045 C 
ATOM     18  C   UNL A   1      32.830  23.973  25.436  1.00  0.00     0.078 A 
ATOM     19  S   UNL A   1      32.567  26.401  26.147  1.00  0.00    -0.012 S 
ATOM     20  N   UNL A   1      34.080  25.979  25.631  1.00  0.00    -0.153 NA
ENDBRANCH   9  10
ENDBRANCH   8   9
ENDBRANCH   7   8
ENDBRANCH   6   7
ENDBRANCH   4   6
ENDBRANCH   3   4
ENDBRANCH   2   3
ENDBRANCH   1   2
BRANCH   1  21
ATOM     21  O   UNL A   1      41.987  19.766  27.401  1.00  0.00    -0.374 OA
BRANCH  21  22
ATOM     22  C   UNL A   1      42.056  19.159  26.119  1.00  0.00     0.202 C 
BRANCH  22  23
ATOM     23  C   UNL A   1      43.442  18.995  25.507  1.00  0.00     0.261 C 
BRANCH  23  24
ATOM     24  O   UNL A   1      44.285  20.130  25.657  1.00  0.00    -0.460 OA
BRANCH  24  25
ATOM     25  C   UNL A   1      44.530  20.737  24.468  1.00  0.00     0.338 C 
ATOM     26  O   UNL A   1      44.613  20.217  23.370  1.00  0.00    -0.246 OA
BRANCH  25  27
ATOM     27  C   UNL A   1      44.944  22.121  24.701  1.00  0.00     0.060 A 
ATOM     28  C   UNL A   1      45.844  22.297  25.755  1.00  0.00     0.016 A 
ATOM     29  C   UNL A   1      44.076  23.133  24.268  1.00  0.00     0.016 A 
ATOM     30  C   UNL A   1      45.677  23.394  26.563  1.00  0.00     0.010 A 
ATOM     31  C   UNL A   1      43.892  24.212  25.094  1.00  0.00     0.010 A 
ATOM     32  C   UNL A   1      44.633  24.277  26.273  1.00  0.00    -0.014 A 
BRANCH  32  33
ATOM     33  C   UNL A   1      44.387  25.347  27.212  1.00  0.00     0.031 A 
ATOM     34  C   UNL A   1      45.483  26.339  27.245  1.00  0.00     0.074 A 
ATOM     35  C   UNL A   1      43.220  25.452  27.874  1.00  0.00     0.049 A 
ATOM     36  N   UNL A   1      46.187  26.725  28.256  1.00  0.00    -0.248 NA
ATOM     37  C   UNL A   1      45.946  26.866  25.948  1.00  0.00     0.031 C 
ATOM     38  C   UNL A   1      41.997  24.670  27.669  1.00  0.00     0.029 A 
ATOM     39  N   UNL A   1      42.844  26.376  28.797  1.00  0.00    -0.354 N 
ATOM     40  C   UNL A   1      47.069  27.672  27.747  1.00  0.00     0.074 A 
ATOM     41  C   UNL A   1      46.997  27.593  26.315  1.00  0.00     0.031 C 
ATOM     42  C   UNL A   1      40.966  25.298  28.277  1.00  0.00     0.029 A 
ATOM     43  C   UNL A   1      41.473  26.457  28.992  1.00  0.00     0.049 A 
ATOM     44  H   UNL A   1      43.489  26.937  29.286  1.00  0.00     0.167 HD
ATOM     45  C   UNL A   1      47.607  28.634  28.539  1.00  0.00     0.037 A 
ATOM     46  C   UNL A   1      40.816  27.471  29.609  1.00  0.00     0.037 A 
ATOM     47  C   UNL A   1      47.590  28.250  29.922  1.00  0.00     0.049 A 
ATOM     48  C   UNL A   1      41.820  28.227  30.404  1.00  0.00     0.074 A 
ATOM     49  C   UNL A   1      48.175  27.228  30.641  1.00  0.00     0.029 A 
ATOM     50  N   UNL A   1      46.596  28.758  30.718  1.00  0.00    -0.354 N 
ATOM     51  N   UNL A   1      42.420  27.767  31.466  1.00  0.00    -0.248 NA
ATOM     52  C   UNL A   1      42.460  29.375  29.777  1.00  0.00     0.031 C 
ATOM     53  C   UNL A   1      47.227  26.887  31.648  1.00  0.00     0.029 A 
ATOM     54  C   UNL A   1      46.133  27.743  31.514  1.00  0.00     0.049 A 
ATOM     55  H   UNL A   1      46.272  29.688  30.718  1.00  0.00     0.167 HD
ATOM     56  C   UNL A   1      43.704  28.288  31.402  1.00  0.00     0.074 A 
ATOM     57  C   UNL A   1      43.634  29.356  30.412  1.00  0.00     0.031 C 
ATOM     58  C   UNL A   1      44.759  27.617  31.947  1.00  0.00     0.037 A 
BRANCH  45  59
ATOM     59  C   UNL A   1      47.809  30.048  28.072  1.00  0.00     0.064 A 
ATOM     60  C   UNL A   1      46.700  30.804  27.653  1.00  0.00     0.173 A 
ATOM     61  C   UNL A   1      49.075  30.597  27.764  1.00  0.00     0.173 A 
ATOM     62  F   UNL A   1      45.454  30.352  27.850  1.00  0.00    -0.203 F 
ATOM     63  C   UNL A   1      46.852  31.999  26.945  1.00  0.00     0.198 A 
ATOM     64  C   UNL A   1      49.223  31.819  27.115  1.00  0.00     0.198 A 
ATOM     65  F   UNL A   1      50.215  29.926  27.973  1.00  0.00    -0.203 F 
ATOM     66  F   UNL A   1      45.771  32.628  26.466  1.00  0.00    -0.200 F 
ATOM     67  C   UNL A   1      48.112  32.508  26.681  1.00  0.00     0.200 A 
ATOM     68  F   UNL A   1      50.454  32.278  26.847  1.00  0.00    -0.200 F 
ATOM     69  F   UNL A   1      48.258  33.630  25.965  1.00  0.00    -0.200 F 
ENDBRANCH  45  59
BRANCH  46  70
ATOM     70  C   UNL A   1      39.472  28.026  29.305  1.00  0.00     0.064 A 
ATOM     71  C   UNL A   1      38.522  28.196  30.328  1.00  0.00     0.173 A 
ATOM     72  C   UNL A   1      39.181  28.652  28.078  1.00  0.00     0.173 A 
ATOM     73  F   UNL A   1      38.735  27.670  31.542  1.00  0.00    -0.203 F 
ATOM     74  C   UNL A   1      37.373  28.975  30.143  1.00  0.00     0.198 A 
ATOM     75  C   UNL A   1      38.027  29.414  27.890  1.00  0.00     0.198 A 
ATOM     76  F   UNL A   1      40.053  28.622  27.059  1.00  0.00    -0.203 F 
ATOM     77  F   UNL A   1      36.531  29.175  31.166  1.00  0.00    -0.200 F 
ATOM     78  C   UNL A   1      37.132  29.591  28.927  1.00  0.00     0.200 A 
ATOM     79  F   UNL A   1      37.823  30.032  26.717  1.00  0.00    -0.200 F 
ATOM     80  F   UNL A   1      36.066  30.387  28.768  1.00  0.00    -0.200 F 
ENDBRANCH  46  70
BRANCH  58  81
ATOM     81  C   UNL A   1      44.460  26.479  32.883  1.00  0.00     0.064 A 
ATOM     82  C   UNL A   1      44.324  25.142  32.473  1.00  0.00     0.173 A 
ATOM     83  C   UNL A   1      44.492  26.734  34.261  1.00  0.00     0.173 A 
ATOM     84  F   UNL A   1      44.379  24.808  31.177  1.00  0.00    -0.203 F 
ATOM     85  C   UNL A   1      44.200  24.112  33.404  1.00  0.00     0.198 A 
ATOM     86  C   UNL A   1      44.408  25.699  35.188  1.00  0.00     0.198 A 
ATOM     87  F   UNL A   1      44.672  27.986  34.709  1.00  0.00    -0.203 F 
ATOM     88  F   UNL A   1      44.071  22.843  32.990  1.00  0.00    -0.200 F 
ATOM     89  C   UNL A   1      44.256  24.390  34.760  1.00  0.00     0.200 A 
ATOM     90  F   UNL A   1      44.515  25.968  36.497  1.00  0.00    -0.200 F 
ATOM     91  F   UNL A   1      44.197  23.394  35.654  1.00  0.00    -0.200 F 
ENDBRANCH  58  81
ENDBRANCH  32  33
ENDBRANCH  25  27
ENDBRANCH  24  25
ENDBRANCH  23  24
ENDBRANCH  22  23
ENDBRANCH  21  22
ENDBRANCH   1  21
TORSDOF 18
ENDMDL
