MODEL 1
REMARK VINA RESULT:     -12.5      0.000      0.000
REMARK SMILES CCc1cc(C(=O)c2[nH]c3cc(Cl)ccc3c2CC(=O)OCCOCCOC(=O)c2ccc(-c3c4nc(c(-c5c(F)c(F)c(F)c(F)c5F)c5ccc([nH]5)c(-c5c(F)c(F)c(F)c(F)c5F)c5nc(c(-c6c(F)c(F)c(F)c(F)c6F)c6ccc3[nH]6)C=C5)C=C4)cc2)ncc1Cl
REMARK SMILES IDX 23 1 22 2 21 3 19 4 20 5 18 6 17 7 8 8 9 9 10 10 16 12 11 13
REMARK SMILES IDX 15 14 12 15 14 16 13 17 6 18 7 19 5 20 3 21 4 22 95 23 94 24
REMARK SMILES IDX 96 25 93 26 2 27 1 28 24 29 25 30 26 31 27 32 28 33 29 34
REMARK SMILES IDX 30 35 31 36 92 37 32 38 91 39 33 40 34 41 35 42 85 43 36 44
REMARK SMILES IDX 90 45 84 46 86 47 37 48 89 49 83 50 82 51 38 53 70 54 50 55
REMARK SMILES IDX 69 56 51 57 54 58 68 59 87 60 52 61 53 62 67 64 88 65 55 66
REMARK SMILES IDX 39 67 40 68 48 69 41 70 42 71 46 72 49 73 43 74 44 75 47 76
REMARK SMILES IDX 45 77 71 78 72 79 80 80 73 81 74 82 78 83 81 84 75 85 76 86
REMARK SMILES IDX 79 87 77 88 56 89 57 90 65 91 58 92 59 93 63 94 66 95 60 96
REMARK SMILES IDX 61 97 64 98 62 99
REMARK H PARENT 9 11 86 52 54 63
REMARK Flexibility Score: inf
ROOT
ATOM      1  C   UNL A   1      39.777  21.369  26.315  1.00  0.00     0.202 C 
ENDROOT
BRANCH   1   2
ATOM      2  C   UNL A   1      38.428  21.537  25.607  1.00  0.00     0.261 C 
BRANCH   2   3
ATOM      3  O   UNL A   1      37.753  22.761  25.979  1.00  0.00    -0.463 OA
BRANCH   3   4
ATOM      4  C   UNL A   1      36.485  22.881  25.501  1.00  0.00     0.310 C 
ATOM      5  O   UNL A   1      36.212  23.398  24.418  1.00  0.00    -0.252 OA
BRANCH   4   6
ATOM      6  C   UNL A   1      35.383  22.410  26.424  1.00  0.00     0.161 C 
BRANCH   6   7
ATOM      7  C   UNL A   1      34.224  21.625  25.865  1.00  0.00     0.000 A 
ATOM      8  C   UNL A   1      32.860  21.860  26.072  1.00  0.00     0.093 A 
ATOM      9  N   UNL A   1      32.178  20.880  25.383  1.00  0.00    -0.351 N 
ATOM     10  C   UNL A   1      33.039  19.892  24.970  1.00  0.00     0.048 A 
ATOM     11  H   UNL A   1      31.209  20.887  25.210  1.00  0.00     0.167 HD
ATOM     12  C   UNL A   1      34.331  20.343  25.229  1.00  0.00     0.004 A 
ATOM     13  C   UNL A   1      32.774  18.635  24.409  1.00  0.00     0.047 A 
ATOM     14  C   UNL A   1      35.417  19.497  24.913  1.00  0.00     0.012 A 
ATOM     15  C   UNL A   1      33.867  17.805  24.145  1.00  0.00     0.043 A 
ATOM     16  C   UNL A   1      35.171  18.223  24.388  1.00  0.00     0.021 A 
ATOM     17  Cl  UNL A   1      33.590  16.219  23.527  1.00  0.00    -0.084 Cl
BRANCH   8  18
ATOM     18  C   UNL A   1      32.257  22.932  26.855  1.00  0.00     0.227 C 
ATOM     19  O   UNL A   1      32.155  22.862  28.078  1.00  0.00    -0.285 OA
BRANCH  18  20
ATOM     20  C   UNL A   1      31.667  24.140  26.198  1.00  0.00     0.113 A 
ATOM     21  C   UNL A   1      31.729  26.514  25.718  1.00  0.00    -0.026 A 
ATOM     22  C   UNL A   1      32.087  25.426  26.541  1.00  0.00     0.037 A 
ATOM     23  C   UNL A   1      30.972  26.240  24.569  1.00  0.00     0.062 A 
ATOM     24  C   UNL A   1      30.552  24.934  24.343  1.00  0.00     0.132 A 
ATOM     25  Cl  UNL A   1      30.608  27.423  23.371  1.00  0.00    -0.082 Cl
ATOM     26  N   UNL A   1      30.866  23.884  25.135  1.00  0.00    -0.251 NA
BRANCH  21  27
ATOM     27  C   UNL A   1      32.268  27.888  26.052  1.00  0.00     0.034 C 
ATOM     28  C   UNL A   1      33.779  27.958  26.237  1.00  0.00     0.009 C 
ENDBRANCH  21  27
ENDBRANCH  18  20
ENDBRANCH   8  18
ENDBRANCH   6   7
ENDBRANCH   4   6
ENDBRANCH   3   4
ENDBRANCH   2   3
ENDBRANCH   1   2
BRANCH   1  29
ATOM     29  O   UNL A   1      40.896  22.045  25.740  1.00  0.00    -0.374 OA
BRANCH  29  30
ATOM     30  C   UNL A   1      42.185  21.505  26.029  1.00  0.00     0.202 C 
BRANCH  30  31
ATOM     31  C   UNL A   1      43.377  22.271  25.443  1.00  0.00     0.261 C 
BRANCH  31  32
ATOM     32  O   UNL A   1      42.977  23.469  24.756  1.00  0.00    -0.460 OA
BRANCH  32  33
ATOM     33  C   UNL A   1      43.725  24.557  25.051  1.00  0.00     0.338 C 
ATOM     34  O   UNL A   1      44.813  24.866  24.582  1.00  0.00    -0.246 OA
BRANCH  33  35
ATOM     35  C   UNL A   1      42.983  25.461  25.944  1.00  0.00     0.060 A 
ATOM     36  C   UNL A   1      43.611  26.658  26.310  1.00  0.00     0.016 A 
ATOM     37  C   UNL A   1      41.739  25.116  26.479  1.00  0.00     0.016 A 
ATOM     38  C   UNL A   1      43.029  27.488  27.261  1.00  0.00     0.010 A 
ATOM     39  C   UNL A   1      41.158  25.947  27.441  1.00  0.00     0.010 A 
ATOM     40  C   UNL A   1      41.821  27.113  27.865  1.00  0.00    -0.014 A 
BRANCH  40  41
ATOM     41  C   UNL A   1      41.351  27.858  29.056  1.00  0.00     0.031 A 
ATOM     42  C   UNL A   1      42.118  27.726  30.341  1.00  0.00     0.074 A 
ATOM     43  C   UNL A   1      40.293  28.682  28.975  1.00  0.00     0.049 A 
ATOM     44  N   UNL A   1      41.911  28.298  31.499  1.00  0.00    -0.248 NA
ATOM     45  C   UNL A   1      43.280  26.824  30.316  1.00  0.00     0.031 C 
ATOM     46  C   UNL A   1      39.504  28.921  27.769  1.00  0.00     0.029 A 
ATOM     47  N   UNL A   1      39.706  29.474  29.927  1.00  0.00    -0.354 N 
ATOM     48  C   UNL A   1      42.914  27.829  32.337  1.00  0.00     0.074 A 
ATOM     49  C   UNL A   1      43.707  26.893  31.568  1.00  0.00     0.031 C 
ATOM     50  C   UNL A   1      38.535  29.808  28.052  1.00  0.00     0.029 A 
ATOM     51  C   UNL A   1      38.622  30.176  29.465  1.00  0.00     0.049 A 
ATOM     52  H   UNL A   1      40.031  29.534  30.855  1.00  0.00     0.167 HD
ATOM     53  C   UNL A   1      43.161  28.159  33.626  1.00  0.00     0.037 A 
ATOM     54  C   UNL A   1      37.793  31.015  30.114  1.00  0.00     0.037 A 
ATOM     55  C   UNL A   1      42.361  29.084  34.387  1.00  0.00     0.049 A 
ATOM     56  C   UNL A   1      38.036  31.304  31.572  1.00  0.00     0.074 A 
ATOM     57  C   UNL A   1      42.523  29.493  35.698  1.00  0.00     0.029 A 
ATOM     58  N   UNL A   1      41.236  29.735  33.900  1.00  0.00    -0.354 N 
ATOM     59  N   UNL A   1      39.000  30.875  32.352  1.00  0.00    -0.248 NA
ATOM     60  C   UNL A   1      37.078  32.197  32.239  1.00  0.00     0.031 C 
ATOM     61  C   UNL A   1      41.466  30.353  36.019  1.00  0.00     0.029 A 
ATOM     62  C   UNL A   1      40.677  30.523  34.892  1.00  0.00     0.049 A 
ATOM     63  H   UNL A   1      40.887  29.649  32.983  1.00  0.00     0.167 HD
ATOM     64  C   UNL A   1      38.782  31.465  33.589  1.00  0.00     0.074 A 
ATOM     65  C   UNL A   1      37.599  32.291  33.455  1.00  0.00     0.031 C 
ATOM     66  C   UNL A   1      39.500  31.340  34.734  1.00  0.00     0.037 A 
BRANCH  53  67
ATOM     67  C   UNL A   1      44.325  27.487  34.296  1.00  0.00     0.064 A 
ATOM     68  C   UNL A   1      45.602  28.071  34.320  1.00  0.00     0.173 A 
ATOM     69  C   UNL A   1      44.166  26.237  34.914  1.00  0.00     0.173 A 
ATOM     70  F   UNL A   1      45.812  29.259  33.732  1.00  0.00    -0.203 F 
ATOM     71  C   UNL A   1      46.683  27.412  34.902  1.00  0.00     0.198 A 
ATOM     72  C   UNL A   1      45.243  25.595  35.521  1.00  0.00     0.198 A 
ATOM     73  F   UNL A   1      42.969  25.635  34.923  1.00  0.00    -0.203 F 
ATOM     74  F   UNL A   1      47.904  27.961  34.858  1.00  0.00    -0.200 F 
ATOM     75  C   UNL A   1      46.501  26.177  35.505  1.00  0.00     0.200 A 
ATOM     76  F   UNL A   1      45.064  24.405  36.112  1.00  0.00    -0.200 F 
ATOM     77  F   UNL A   1      47.542  25.540  36.059  1.00  0.00    -0.200 F 
ENDBRANCH  53  67
BRANCH  54  78
ATOM     78  C   UNL A   1      36.666  31.650  29.383  1.00  0.00     0.064 A 
ATOM     79  C   UNL A   1      35.549  30.900  28.988  1.00  0.00     0.173 A 
ATOM     80  C   UNL A   1      36.674  33.018  29.076  1.00  0.00     0.173 A 
ATOM     81  F   UNL A   1      35.506  29.583  29.237  1.00  0.00    -0.203 F 
ATOM     82  C   UNL A   1      34.488  31.494  28.309  1.00  0.00     0.198 A 
ATOM     83  C   UNL A   1      35.600  33.617  28.420  1.00  0.00     0.198 A 
ATOM     84  F   UNL A   1      37.720  33.780  29.431  1.00  0.00    -0.203 F 
ATOM     85  F   UNL A   1      33.446  30.748  27.915  1.00  0.00    -0.200 F 
ATOM     86  C   UNL A   1      34.510  32.852  28.033  1.00  0.00     0.200 A 
ATOM     87  F   UNL A   1      35.622  34.931  28.165  1.00  0.00    -0.200 F 
ATOM     88  F   UNL A   1      33.483  33.425  27.390  1.00  0.00    -0.200 F 
ENDBRANCH  54  78
BRANCH  66  89
ATOM     89  C   UNL A   1      39.045  32.137  35.922  1.00  0.00     0.064 A 
ATOM     90  C   UNL A   1      38.212  31.584  36.905  1.00  0.00     0.173 A 
ATOM     91  C   UNL A   1      39.487  33.457  36.100  1.00  0.00     0.173 A 
ATOM     92  F   UNL A   1      37.750  30.332  36.773  1.00  0.00    -0.203 F 
ATOM     93  C   UNL A   1      37.820  32.333  38.012  1.00  0.00     0.198 A 
ATOM     94  C   UNL A   1      39.116  34.191  37.222  1.00  0.00     0.198 A 
ATOM     95  F   UNL A   1      40.292  34.029  35.191  1.00  0.00    -0.203 F 
ATOM     96  F   UNL A   1      36.988  31.800  38.917  1.00  0.00    -0.200 F 
ATOM     97  C   UNL A   1      38.278  33.632  38.173  1.00  0.00     0.200 A 
ATOM     98  F   UNL A   1      39.571  35.442  37.384  1.00  0.00    -0.200 F 
ATOM     99  F   UNL A   1      37.907  34.347  39.245  1.00  0.00    -0.200 F 
ENDBRANCH  66  89
ENDBRANCH  40  41
ENDBRANCH  33  35
ENDBRANCH  32  33
ENDBRANCH  31  32
ENDBRANCH  30  31
ENDBRANCH  29  30
ENDBRANCH   1  29
TORSDOF 18
ENDMDL
MODEL 2
REMARK VINA RESULT:     -12.3      3.277      8.847
REMARK SMILES CCc1cc(C(=O)c2[nH]c3cc(Cl)ccc3c2CC(=O)OCCOCCOC(=O)c2ccc(-c3c4nc(c(-c5c(F)c(F)c(F)c(F)c5F)c5ccc([nH]5)c(-c5c(F)c(F)c(F)c(F)c5F)c5nc(c(-c6c(F)c(F)c(F)c(F)c6F)c6ccc3[nH]6)C=C5)C=C4)cc2)ncc1Cl
REMARK SMILES IDX 23 1 22 2 21 3 19 4 20 5 18 6 17 7 8 8 9 9 10 10 16 12 11 13
REMARK SMILES IDX 15 14 12 15 14 16 13 17 6 18 7 19 5 20 3 21 4 22 95 23 94 24
REMARK SMILES IDX 96 25 93 26 2 27 1 28 24 29 25 30 26 31 27 32 28 33 29 34
REMARK SMILES IDX 30 35 31 36 92 37 32 38 91 39 33 40 34 41 35 42 85 43 36 44
REMARK SMILES IDX 90 45 84 46 86 47 37 48 89 49 83 50 82 51 38 53 70 54 50 55
REMARK SMILES IDX 69 56 51 57 54 58 68 59 87 60 52 61 53 62 67 64 88 65 55 66
REMARK SMILES IDX 39 67 40 68 48 69 41 70 42 71 46 72 49 73 43 74 44 75 47 76
REMARK SMILES IDX 45 77 71 78 72 79 80 80 73 81 74 82 78 83 81 84 75 85 76 86
REMARK SMILES IDX 79 87 77 88 56 89 57 90 65 91 58 92 59 93 63 94 66 95 60 96
REMARK SMILES IDX 61 97 64 98 62 99
REMARK H PARENT 9 11 86 52 54 63
REMARK Flexibility Score: inf
ROOT
ATOM      1  C   UNL A   1      34.625  30.272  27.641  1.00  0.00     0.202 C 
ENDROOT
BRANCH   1   2
ATOM      2  C   UNL A   1      33.719  29.317  26.856  1.00  0.00     0.261 C 
BRANCH   2   3
ATOM      3  O   UNL A   1      34.287  27.993  26.727  1.00  0.00    -0.463 OA
BRANCH   3   4
ATOM      4  C   UNL A   1      33.670  27.194  25.816  1.00  0.00     0.310 C 
ATOM      5  O   UNL A   1      33.276  26.055  26.066  1.00  0.00    -0.252 OA
BRANCH   4   6
ATOM      6  C   UNL A   1      33.556  27.753  24.415  1.00  0.00     0.161 C 
BRANCH   6   7
ATOM      7  C   UNL A   1      32.236  27.687  23.688  1.00  0.00     0.000 A 
ATOM      8  C   UNL A   1      31.881  26.820  22.650  1.00  0.00     0.093 A 
ATOM      9  N   UNL A   1      30.590  27.140  22.288  1.00  0.00    -0.351 N 
ATOM     10  C   UNL A   1      30.208  28.328  22.862  1.00  0.00     0.048 A 
ATOM     11  H   UNL A   1      30.020  26.593  21.700  1.00  0.00     0.167 HD
ATOM     12  C   UNL A   1      31.205  28.681  23.769  1.00  0.00     0.004 A 
ATOM     13  C   UNL A   1      29.074  29.121  22.636  1.00  0.00     0.047 A 
ATOM     14  C   UNL A   1      31.065  29.888  24.489  1.00  0.00     0.012 A 
ATOM     15  C   UNL A   1      28.985  30.330  23.334  1.00  0.00     0.043 A 
ATOM     16  C   UNL A   1      29.959  30.712  24.249  1.00  0.00     0.021 A 
ATOM     17  Cl  UNL A   1      27.649  31.378  23.034  1.00  0.00    -0.084 Cl
BRANCH   8  18
ATOM     18  C   UNL A   1      32.699  25.770  22.056  1.00  0.00     0.227 C 
ATOM     19  O   UNL A   1      33.278  25.929  20.982  1.00  0.00    -0.285 OA
BRANCH  18  20
ATOM     20  C   UNL A   1      32.817  24.420  22.690  1.00  0.00     0.113 A 
ATOM     21  C   UNL A   1      34.130  22.752  23.858  1.00  0.00    -0.026 A 
ATOM     22  C   UNL A   1      34.063  23.880  23.014  1.00  0.00     0.037 A 
ATOM     23  C   UNL A   1      32.923  22.234  24.351  1.00  0.00     0.062 A 
ATOM     24  C   UNL A   1      31.729  22.805  23.925  1.00  0.00     0.132 A 
ATOM     25  Cl  UNL A   1      32.842  20.980  25.529  1.00  0.00    -0.082 Cl
ATOM     26  N   UNL A   1      31.646  23.870  23.097  1.00  0.00    -0.251 NA
BRANCH  21  27
ATOM     27  C   UNL A   1      35.490  22.234  24.275  1.00  0.00     0.034 C 
ATOM     28  C   UNL A   1      36.657  22.753  23.443  1.00  0.00     0.009 C 
ENDBRANCH  21  27
ENDBRANCH  18  20
ENDBRANCH   8  18
ENDBRANCH   6   7
ENDBRANCH   4   6
ENDBRANCH   3   4
ENDBRANCH   2   3
ENDBRANCH   1   2
BRANCH   1  29
ATOM     29  O   UNL A   1      34.219  31.640  27.704  1.00  0.00    -0.374 OA
BRANCH  29  30
ATOM     30  C   UNL A   1      32.880  31.927  27.304  1.00  0.00     0.202 C 
BRANCH  30  31
ATOM     31  C   UNL A   1      32.503  33.413  27.247  1.00  0.00     0.261 C 
BRANCH  31  32
ATOM     32  O   UNL A   1      32.173  33.947  28.541  1.00  0.00    -0.460 OA
BRANCH  32  33
ATOM     33  C   UNL A   1      32.905  35.026  28.901  1.00  0.00     0.338 C 
ATOM     34  O   UNL A   1      32.624  36.207  28.743  1.00  0.00    -0.246 OA
BRANCH  33  35
ATOM     35  C   UNL A   1      34.081  34.608  29.680  1.00  0.00     0.060 A 
ATOM     36  C   UNL A   1      35.318  34.610  29.024  1.00  0.00     0.016 A 
ATOM     37  C   UNL A   1      33.973  34.147  30.995  1.00  0.00     0.016 A 
ATOM     38  C   UNL A   1      36.443  34.093  29.656  1.00  0.00     0.010 A 
ATOM     39  C   UNL A   1      35.102  33.619  31.627  1.00  0.00     0.010 A 
ATOM     40  C   UNL A   1      36.330  33.553  30.944  1.00  0.00    -0.014 A 
BRANCH  40  41
ATOM     41  C   UNL A   1      37.460  32.768  31.497  1.00  0.00     0.031 A 
ATOM     42  C   UNL A   1      37.960  33.094  32.875  1.00  0.00     0.074 A 
ATOM     43  C   UNL A   1      37.989  31.747  30.802  1.00  0.00     0.049 A 
ATOM     44  N   UNL A   1      38.914  32.531  33.571  1.00  0.00    -0.248 NA
ATOM     45  C   UNL A   1      37.292  34.209  33.563  1.00  0.00     0.031 C 
ATOM     46  C   UNL A   1      37.551  31.315  29.477  1.00  0.00     0.029 A 
ATOM     47  N   UNL A   1      39.005  30.885  31.122  1.00  0.00    -0.354 N 
ATOM     48  C   UNL A   1      38.958  33.219  34.776  1.00  0.00     0.074 A 
ATOM     49  C   UNL A   1      37.964  34.269  34.703  1.00  0.00     0.031 C 
ATOM     50  C   UNL A   1      38.294  30.261  29.096  1.00  0.00     0.029 A 
ATOM     51  C   UNL A   1      39.274  29.965  30.140  1.00  0.00     0.049 A 
ATOM     52  H   UNL A   1      39.497  30.923  31.975  1.00  0.00     0.167 HD
ATOM     53  C   UNL A   1      39.746  32.988  35.853  1.00  0.00     0.037 A 
ATOM     54  C   UNL A   1      40.211  29.000  30.092  1.00  0.00     0.037 A 
ATOM     55  C   UNL A   1      40.740  31.948  35.913  1.00  0.00     0.049 A 
ATOM     56  C   UNL A   1      41.134  28.814  31.268  1.00  0.00     0.074 A 
ATOM     57  C   UNL A   1      41.591  31.624  36.954  1.00  0.00     0.029 A 
ATOM     58  N   UNL A   1      41.022  31.069  34.876  1.00  0.00    -0.354 N 
ATOM     59  N   UNL A   1      41.156  29.453  32.412  1.00  0.00    -0.248 NA
ATOM     60  C   UNL A   1      42.161  27.770  31.144  1.00  0.00     0.031 C 
ATOM     61  C   UNL A   1      42.422  30.580  36.528  1.00  0.00     0.029 A 
ATOM     62  C   UNL A   1      42.052  30.219  35.242  1.00  0.00     0.049 A 
ATOM     63  H   UNL A   1      40.556  31.053  34.008  1.00  0.00     0.167 HD
ATOM     64  C   UNL A   1      42.174  28.873  33.156  1.00  0.00     0.074 A 
ATOM     65  C   UNL A   1      42.743  27.823  32.334  1.00  0.00     0.031 C 
ATOM     66  C   UNL A   1      42.599  29.178  34.408  1.00  0.00     0.037 A 
BRANCH  53  67
ATOM     67  C   UNL A   1      39.581  33.902  37.033  1.00  0.00     0.064 A 
ATOM     68  C   UNL A   1      40.210  35.156  37.091  1.00  0.00     0.173 A 
ATOM     69  C   UNL A   1      38.793  33.515  38.128  1.00  0.00     0.173 A 
ATOM     70  F   UNL A   1      40.988  35.568  36.077  1.00  0.00    -0.203 F 
ATOM     71  C   UNL A   1      40.088  35.970  38.214  1.00  0.00     0.198 A 
ATOM     72  C   UNL A   1      38.648  34.345  39.237  1.00  0.00     0.198 A 
ATOM     73  F   UNL A   1      38.168  32.329  38.125  1.00  0.00    -0.203 F 
ATOM     74  F   UNL A   1      40.748  37.135  38.271  1.00  0.00    -0.200 F 
ATOM     75  C   UNL A   1      39.304  35.565  39.284  1.00  0.00     0.200 A 
ATOM     76  F   UNL A   1      37.883  33.957  40.267  1.00  0.00    -0.200 F 
ATOM     77  F   UNL A   1      39.192  36.346  40.368  1.00  0.00    -0.200 F 
ENDBRANCH  53  67
BRANCH  54  78
ATOM     78  C   UNL A   1      40.310  28.128  28.893  1.00  0.00     0.064 A 
ATOM     79  C   UNL A   1      41.079  28.511  27.785  1.00  0.00     0.173 A 
ATOM     80  C   UNL A   1      39.650  26.892  28.833  1.00  0.00     0.173 A 
ATOM     81  F   UNL A   1      41.709  29.694  27.784  1.00  0.00    -0.203 F 
ATOM     82  C   UNL A   1      41.180  27.692  26.662  1.00  0.00     0.198 A 
ATOM     83  C   UNL A   1      39.773  26.062  27.720  1.00  0.00     0.198 A 
ATOM     84  F   UNL A   1      38.900  26.481  29.867  1.00  0.00    -0.203 F 
ATOM     85  F   UNL A   1      41.897  28.095  25.604  1.00  0.00    -0.200 F 
ATOM     86  C   UNL A   1      40.534  26.465  26.634  1.00  0.00     0.200 A 
ATOM     87  F   UNL A   1      39.155  24.874  27.702  1.00  0.00    -0.200 F 
ATOM     88  F   UNL A   1      40.641  25.673  25.558  1.00  0.00    -0.200 F 
ENDBRANCH  54  78
BRANCH  66  89
ATOM     89  C   UNL A   1      43.710  28.345  34.979  1.00  0.00     0.064 A 
ATOM     90  C   UNL A   1      43.456  27.146  35.661  1.00  0.00     0.173 A 
ATOM     91  C   UNL A   1      45.048  28.729  34.799  1.00  0.00     0.173 A 
ATOM     92  F   UNL A   1      42.194  26.742  35.872  1.00  0.00    -0.203 F 
ATOM     93  C   UNL A   1      44.501  26.374  36.163  1.00  0.00     0.198 A 
ATOM     94  C   UNL A   1      46.090  27.940  35.277  1.00  0.00     0.198 A 
ATOM     95  F   UNL A   1      45.343  29.864  34.147  1.00  0.00    -0.203 F 
ATOM     96  F   UNL A   1      44.235  25.255  36.851  1.00  0.00    -0.200 F 
ATOM     97  C   UNL A   1      45.816  26.768  35.964  1.00  0.00     0.200 A 
ATOM     98  F   UNL A   1      47.360  28.315  35.072  1.00  0.00    -0.200 F 
ATOM     99  F   UNL A   1      46.821  26.019  36.440  1.00  0.00    -0.200 F 
ENDBRANCH  66  89
ENDBRANCH  40  41
ENDBRANCH  33  35
ENDBRANCH  32  33
ENDBRANCH  31  32
ENDBRANCH  30  31
ENDBRANCH  29  30
ENDBRANCH   1  29
TORSDOF 18
ENDMDL
MODEL 3
REMARK VINA RESULT:     -12.2      4.462      7.754
REMARK SMILES CCc1cc(C(=O)c2[nH]c3cc(Cl)ccc3c2CC(=O)OCCOCCOC(=O)c2ccc(-c3c4nc(c(-c5c(F)c(F)c(F)c(F)c5F)c5ccc([nH]5)c(-c5c(F)c(F)c(F)c(F)c5F)c5nc(c(-c6c(F)c(F)c(F)c(F)c6F)c6ccc3[nH]6)C=C5)C=C4)cc2)ncc1Cl
REMARK SMILES IDX 23 1 22 2 21 3 19 4 20 5 18 6 17 7 8 8 9 9 10 10 16 12 11 13
REMARK SMILES IDX 15 14 12 15 14 16 13 17 6 18 7 19 5 20 3 21 4 22 95 23 94 24
REMARK SMILES IDX 96 25 93 26 2 27 1 28 24 29 25 30 26 31 27 32 28 33 29 34
REMARK SMILES IDX 30 35 31 36 92 37 32 38 91 39 33 40 34 41 35 42 85 43 36 44
REMARK SMILES IDX 90 45 84 46 86 47 37 48 89 49 83 50 82 51 38 53 70 54 50 55
REMARK SMILES IDX 69 56 51 57 54 58 68 59 87 60 52 61 53 62 67 64 88 65 55 66
REMARK SMILES IDX 39 67 40 68 48 69 41 70 42 71 46 72 49 73 43 74 44 75 47 76
REMARK SMILES IDX 45 77 71 78 72 79 80 80 73 81 74 82 78 83 81 84 75 85 76 86
REMARK SMILES IDX 79 87 77 88 56 89 57 90 65 91 58 92 59 93 63 94 66 95 60 96
REMARK SMILES IDX 61 97 64 98 62 99
REMARK H PARENT 9 11 86 52 54 63
REMARK Flexibility Score: inf
ROOT
ATOM      1  C   UNL A   1      33.702  23.155  25.630  1.00  0.00     0.202 C 
ENDROOT
BRANCH   1   2
ATOM      2  C   UNL A   1      32.375  23.330  24.884  1.00  0.00     0.261 C 
BRANCH   2   3
ATOM      3  O   UNL A   1      31.501  24.290  25.521  1.00  0.00    -0.463 OA
BRANCH   3   4
ATOM      4  C   UNL A   1      30.671  24.956  24.674  1.00  0.00     0.310 C 
ATOM      5  O   UNL A   1      30.278  24.495  23.603  1.00  0.00    -0.252 OA
BRANCH   4   6
ATOM      6  C   UNL A   1      30.303  26.366  25.081  1.00  0.00     0.161 C 
BRANCH   6   7
ATOM      7  C   UNL A   1      30.703  27.526  24.205  1.00  0.00     0.000 A 
ATOM      8  C   UNL A   1      31.908  28.235  24.232  1.00  0.00     0.093 A 
ATOM      9  N   UNL A   1      31.814  29.217  23.268  1.00  0.00    -0.351 N 
ATOM     10  C   UNL A   1      30.521  29.329  22.817  1.00  0.00     0.048 A 
ATOM     11  H   UNL A   1      32.569  29.762  22.947  1.00  0.00     0.167 HD
ATOM     12  C   UNL A   1      29.807  28.264  23.361  1.00  0.00     0.004 A 
ATOM     13  C   UNL A   1      29.930  30.296  21.992  1.00  0.00     0.047 A 
ATOM     14  C   UNL A   1      28.430  28.156  23.067  1.00  0.00     0.012 A 
ATOM     15  C   UNL A   1      28.557  30.183  21.752  1.00  0.00     0.043 A 
ATOM     16  C   UNL A   1      27.813  29.132  22.275  1.00  0.00     0.021 A 
ATOM     17  Cl  UNL A   1      27.766  31.390  20.807  1.00  0.00    -0.084 Cl
BRANCH   8  18
ATOM     18  C   UNL A   1      33.056  27.995  25.098  1.00  0.00     0.227 C 
ATOM     19  O   UNL A   1      33.743  26.981  24.995  1.00  0.00    -0.285 OA
BRANCH  18  20
ATOM     20  C   UNL A   1      33.411  28.939  26.203  1.00  0.00     0.113 A 
ATOM     21  C   UNL A   1      35.034  29.843  27.757  1.00  0.00    -0.026 A 
ATOM     22  C   UNL A   1      34.593  28.791  26.929  1.00  0.00     0.037 A 
ATOM     23  C   UNL A   1      34.258  31.012  27.795  1.00  0.00     0.062 A 
ATOM     24  C   UNL A   1      33.066  31.043  27.081  1.00  0.00     0.132 A 
ATOM     25  Cl  UNL A   1      34.749  32.448  28.609  1.00  0.00    -0.082 Cl
ATOM     26  N   UNL A   1      32.616  30.033  26.302  1.00  0.00    -0.251 NA
BRANCH  21  27
ATOM     27  C   UNL A   1      36.364  29.704  28.466  1.00  0.00     0.034 C 
ATOM     28  C   UNL A   1      37.588  29.860  27.572  1.00  0.00     0.009 C 
ENDBRANCH  21  27
ENDBRANCH  18  20
ENDBRANCH   8  18
ENDBRANCH   6   7
ENDBRANCH   4   6
ENDBRANCH   3   4
ENDBRANCH   2   3
ENDBRANCH   1   2
BRANCH   1  29
ATOM     29  O   UNL A   1      34.592  22.153  25.138  1.00  0.00    -0.374 OA
BRANCH  29  30
ATOM     30  C   UNL A   1      35.687  21.801  25.983  1.00  0.00     0.202 C 
BRANCH  30  31
ATOM     31  C   UNL A   1      36.875  21.124  25.289  1.00  0.00     0.261 C 
BRANCH  31  32
ATOM     32  O   UNL A   1      38.022  21.988  25.194  1.00  0.00    -0.460 OA
BRANCH  32  33
ATOM     33  C   UNL A   1      39.064  21.617  25.973  1.00  0.00     0.338 C 
ATOM     34  O   UNL A   1      39.628  20.531  26.000  1.00  0.00    -0.246 OA
BRANCH  33  35
ATOM     35  C   UNL A   1      39.573  22.772  26.729  1.00  0.00     0.060 A 
ATOM     36  C   UNL A   1      38.990  24.018  26.465  1.00  0.00     0.016 A 
ATOM     37  C   UNL A   1      40.648  22.662  27.615  1.00  0.00     0.016 A 
ATOM     38  C   UNL A   1      39.518  25.170  27.037  1.00  0.00     0.010 A 
ATOM     39  C   UNL A   1      41.184  23.821  28.183  1.00  0.00     0.010 A 
ATOM     40  C   UNL A   1      40.647  25.081  27.862  1.00  0.00    -0.014 A 
BRANCH  40  41
ATOM     41  C   UNL A   1      41.358  26.324  28.244  1.00  0.00     0.031 A 
ATOM     42  C   UNL A   1      42.742  26.559  27.709  1.00  0.00     0.074 A 
ATOM     43  C   UNL A   1      40.755  27.251  29.008  1.00  0.00     0.049 A 
ATOM     44  N   UNL A   1      43.543  27.578  27.886  1.00  0.00    -0.248 NA
ATOM     45  C   UNL A   1      43.299  25.497  26.857  1.00  0.00     0.031 C 
ATOM     46  C   UNL A   1      39.399  27.148  29.542  1.00  0.00     0.029 A 
ATOM     47  N   UNL A   1      41.206  28.465  29.457  1.00  0.00    -0.354 N 
ATOM     48  C   UNL A   1      44.693  27.282  27.167  1.00  0.00     0.074 A 
ATOM     49  C   UNL A   1      44.505  25.971  26.585  1.00  0.00     0.031 C 
ATOM     50  C   UNL A   1      39.124  28.259  30.247  1.00  0.00     0.029 A 
ATOM     51  C   UNL A   1      40.295  29.136  30.233  1.00  0.00     0.049 A 
ATOM     52  H   UNL A   1      42.099  28.822  29.245  1.00  0.00     0.167 HD
ATOM     53  C   UNL A   1      45.802  28.042  26.997  1.00  0.00     0.037 A 
ATOM     54  C   UNL A   1      40.401  30.320  30.864  1.00  0.00     0.037 A 
ATOM     55  C   UNL A   1      45.985  29.342  27.589  1.00  0.00     0.049 A 
ATOM     56  C   UNL A   1      41.675  31.112  30.728  1.00  0.00     0.074 A 
ATOM     57  C   UNL A   1      47.065  30.198  27.479  1.00  0.00     0.029 A 
ATOM     58  N   UNL A   1      45.060  29.966  28.415  1.00  0.00    -0.354 N 
ATOM     59  N   UNL A   1      42.750  30.837  30.029  1.00  0.00    -0.248 NA
ATOM     60  C   UNL A   1      41.749  32.379  31.468  1.00  0.00     0.031 C 
ATOM     61  C   UNL A   1      46.814  31.319  28.280  1.00  0.00     0.029 A 
ATOM     62  C   UNL A   1      45.555  31.186  28.844  1.00  0.00     0.049 A 
ATOM     63  H   UNL A   1      44.180  29.595  28.658  1.00  0.00     0.167 HD
ATOM     64  C   UNL A   1      43.615  31.906  30.220  1.00  0.00     0.074 A 
ATOM     65  C   UNL A   1      42.935  32.840  31.096  1.00  0.00     0.031 C 
ATOM     66  C   UNL A   1      44.858  32.101  29.713  1.00  0.00     0.037 A 
BRANCH  53  67
ATOM     67  C   UNL A   1      46.908  27.464  26.162  1.00  0.00     0.064 A 
ATOM     68  C   UNL A   1      47.882  26.615  26.712  1.00  0.00     0.173 A 
ATOM     69  C   UNL A   1      47.004  27.770  24.796  1.00  0.00     0.173 A 
ATOM     70  F   UNL A   1      47.846  26.302  28.017  1.00  0.00    -0.203 F 
ATOM     71  C   UNL A   1      48.931  26.128  25.936  1.00  0.00     0.198 A 
ATOM     72  C   UNL A   1      48.037  27.256  24.016  1.00  0.00     0.198 A 
ATOM     73  F   UNL A   1      46.099  28.573  24.219  1.00  0.00    -0.203 F 
ATOM     74  F   UNL A   1      49.883  25.370  26.497  1.00  0.00    -0.200 F 
ATOM     75  C   UNL A   1      49.005  26.446  24.588  1.00  0.00     0.200 A 
ATOM     76  F   UNL A   1      48.102  27.557  22.712  1.00  0.00    -0.200 F 
ATOM     77  F   UNL A   1      50.018  25.982  23.843  1.00  0.00    -0.200 F 
ENDBRANCH  53  67
BRANCH  54  78
ATOM     78  C   UNL A   1      39.260  30.833  31.666  1.00  0.00     0.064 A 
ATOM     79  C   UNL A   1      38.316  31.703  31.101  1.00  0.00     0.173 A 
ATOM     80  C   UNL A   1      39.081  30.456  33.004  1.00  0.00     0.173 A 
ATOM     81  F   UNL A   1      38.457  32.112  29.832  1.00  0.00    -0.203 F 
ATOM     82  C   UNL A   1      37.240  32.179  31.848  1.00  0.00     0.198 A 
ATOM     83  C   UNL A   1      37.990  30.913  33.742  1.00  0.00     0.198 A 
ATOM     84  F   UNL A   1      39.957  29.627  33.591  1.00  0.00    -0.203 F 
ATOM     85  F   UNL A   1      36.369  33.034  31.294  1.00  0.00    -0.200 F 
ATOM     86  C   UNL A   1      37.074  31.777  33.164  1.00  0.00     0.200 A 
ATOM     87  F   UNL A   1      37.828  30.513  35.010  1.00  0.00    -0.200 F 
ATOM     88  F   UNL A   1      36.032  32.227  33.878  1.00  0.00    -0.200 F 
ENDBRANCH  54  78
BRANCH  66  89
ATOM     89  C   UNL A   1      45.550  33.386  30.065  1.00  0.00     0.064 A 
ATOM     90  C   UNL A   1      45.446  34.525  29.254  1.00  0.00     0.173 A 
ATOM     91  C   UNL A   1      46.289  33.490  31.254  1.00  0.00     0.173 A 
ATOM     92  F   UNL A   1      44.764  34.473  28.100  1.00  0.00    -0.203 F 
ATOM     93  C   UNL A   1      46.076  35.715  29.609  1.00  0.00     0.198 A 
ATOM     94  C   UNL A   1      46.893  34.690  31.619  1.00  0.00     0.198 A 
ATOM     95  F   UNL A   1      46.413  32.430  32.068  1.00  0.00    -0.203 F 
ATOM     96  F   UNL A   1      46.000  36.779  28.797  1.00  0.00    -0.200 F 
ATOM     97  C   UNL A   1      46.792  35.798  30.794  1.00  0.00     0.200 A 
ATOM     98  F   UNL A   1      47.572  34.772  32.772  1.00  0.00    -0.200 F 
ATOM     99  F   UNL A   1      47.390  36.948  31.139  1.00  0.00    -0.200 F 
ENDBRANCH  66  89
ENDBRANCH  40  41
ENDBRANCH  33  35
ENDBRANCH  32  33
ENDBRANCH  31  32
ENDBRANCH  30  31
ENDBRANCH  29  30
ENDBRANCH   1  29
TORSDOF 18
ENDMDL
