MODEL 1
REMARK VINA RESULT:     -10.9      0.000      0.000
REMARK SMILES CC[C@@H](C)[C@@H](NC(N)=O)C(=O)N1CCC[C@H](C(=O)OCCOCCOC(=O)c2ccc(-c3c4nc(c(-c5c(F)c(F)c(F)c(F)c5F)c5ccc([nH]5)c(-c5c(F)c(F)c(F)c(F)c5F)c5nc(c(-c6c(F)c(F)c(F)c(F)c6F)c6ccc3[nH]6)C=C5)C=C4)cc2)C1
REMARK SMILES IDX 21 1 20 2 19 3 17 4 18 5 16 6 12 7 13 8 91 9 14 10 15 11
REMARK SMILES IDX 10 12 11 13 5 14 3 15 4 16 2 17 1 18 6 19 7 20 8 22 9 23
REMARK SMILES IDX 22 26 23 27 24 28 25 29 26 30 27 31 28 32 29 33 90 34 30 35
REMARK SMILES IDX 89 36 31 37 32 38 33 39 83 40 34 41 88 42 82 43 84 44 35 45
REMARK SMILES IDX 87 46 81 47 80 48 36 50 68 51 48 52 67 53 49 54 52 55 66 56
REMARK SMILES IDX 85 57 50 58 51 59 65 61 86 62 53 63 37 64 38 65 46 66 39 67
REMARK SMILES IDX 40 68 44 69 47 70 41 71 42 72 45 73 43 74 69 75 70 76 78 77
REMARK SMILES IDX 71 78 72 79 76 80 79 81 73 82 74 83 77 84 75 85 54 86 55 87
REMARK SMILES IDX 63 88 56 89 57 90 61 91 64 92 58 93 59 94 62 95 60 96
REMARK H PARENT 6 21 8 24 8 25 84 49 52 60
REMARK Flexibility Score: inf
ROOT
ATOM      1  C   UNL A   1      32.945  29.336  25.307  1.00  0.00     0.202 C 
ENDROOT
BRANCH   1   2
ATOM      2  C   UNL A   1      33.429  27.922  25.623  1.00  0.00     0.261 C 
BRANCH   2   3
ATOM      3  O   UNL A   1      32.461  26.937  25.218  1.00  0.00    -0.463 OA
BRANCH   3   4
ATOM      4  C   UNL A   1      31.426  26.689  26.058  1.00  0.00     0.310 C 
ATOM      5  O   UNL A   1      31.438  26.887  27.267  1.00  0.00    -0.252 OA
BRANCH   4   6
ATOM      6  C   UNL A   1      30.222  26.077  25.351  1.00  0.00     0.119 C 
ATOM      7  N   UNL A   1      30.886  23.761  25.676  1.00  0.00    -0.340 N 
ATOM      8  C   UNL A   1      30.987  23.459  24.255  1.00  0.00     0.119 C 
ATOM      9  C   UNL A   1      29.872  24.748  26.018  1.00  0.00     0.134 C 
ATOM     10  C   UNL A   1      31.241  24.709  23.418  1.00  0.00     0.022 C 
ATOM     11  C   UNL A   1      30.350  25.887  23.829  1.00  0.00     0.019 C 
BRANCH   7  12
ATOM     12  C   UNL A   1      31.897  23.335  26.535  1.00  0.00     0.245 C 
ATOM     13  O   UNL A   1      31.841  23.584  27.745  1.00  0.00    -0.272 OA
BRANCH  12  14
ATOM     14  C   UNL A   1      33.075  22.475  25.959  1.00  0.00     0.176 C 
BRANCH  14  15
ATOM     15  C   UNL A   1      34.485  23.112  26.140  1.00  0.00     0.018 C 
ATOM     16  C   UNL A   1      34.680  24.338  25.240  1.00  0.00     0.010 C 
BRANCH  15  17
ATOM     17  C   UNL A   1      35.637  22.108  25.885  1.00  0.00     0.002 C 
ATOM     18  C   UNL A   1      36.010  22.015  24.406  1.00  0.00     0.004 C 
ENDBRANCH  15  17
ENDBRANCH  14  15
BRANCH  14  19
ATOM     19  N   UNL A   1      32.990  21.126  26.544  1.00  0.00    -0.326 N 
ATOM     20  C   UNL A   1      32.870  20.026  25.747  1.00  0.00     0.312 C 
ATOM     21  H   UNL A   1      33.021  21.017  27.522  1.00  0.00     0.166 HD
ATOM     22  N   UNL A   1      32.863  18.865  26.437  1.00  0.00    -0.352 N 
ATOM     23  O   UNL A   1      32.730  20.036  24.532  1.00  0.00    -0.249 OA
ATOM     24  H   UNL A   1      32.977  18.873  27.415  1.00  0.00     0.161 HD
ATOM     25  H   UNL A   1      32.744  18.010  25.962  1.00  0.00     0.161 HD
ENDBRANCH  14  19
ENDBRANCH  12  14
ENDBRANCH   7  12
ENDBRANCH   4   6
ENDBRANCH   3   4
ENDBRANCH   2   3
ENDBRANCH   1   2
BRANCH   1  26
ATOM     26  O   UNL A   1      32.308  30.042  26.370  1.00  0.00    -0.374 OA
BRANCH  26  27
ATOM     27  C   UNL A   1      31.458  31.133  26.021  1.00  0.00     0.202 C 
BRANCH  27  28
ATOM     28  C   UNL A   1      31.537  32.386  26.904  1.00  0.00     0.261 C 
BRANCH  28  29
ATOM     29  O   UNL A   1      32.773  33.111  26.767  1.00  0.00    -0.460 OA
BRANCH  29  30
ATOM     30  C   UNL A   1      33.312  33.524  27.942  1.00  0.00     0.338 C 
ATOM     31  O   UNL A   1      32.812  34.281  28.758  1.00  0.00    -0.246 OA
BRANCH  30  32
ATOM     32  C   UNL A   1      34.577  32.820  28.223  1.00  0.00     0.060 A 
ATOM     33  C   UNL A   1      34.490  31.484  28.639  1.00  0.00     0.016 A 
ATOM     34  C   UNL A   1      35.805  33.482  28.221  1.00  0.00     0.016 A 
ATOM     35  C   UNL A   1      35.622  30.824  29.113  1.00  0.00     0.010 A 
ATOM     36  C   UNL A   1      36.942  32.818  28.703  1.00  0.00     0.010 A 
ATOM     37  C   UNL A   1      36.846  31.500  29.190  1.00  0.00    -0.014 A 
BRANCH  37  38
ATOM     38  C   UNL A   1      37.980  30.872  29.917  1.00  0.00     0.031 A 
ATOM     39  C   UNL A   1      38.211  31.226  31.363  1.00  0.00     0.074 A 
ATOM     40  C   UNL A   1      38.769  29.967  29.312  1.00  0.00     0.049 A 
ATOM     41  N   UNL A   1      39.155  30.826  32.177  1.00  0.00    -0.248 NA
ATOM     42  C   UNL A   1      37.249  32.156  31.975  1.00  0.00     0.031 C 
ATOM     43  C   UNL A   1      38.628  29.514  27.930  1.00  0.00     0.029 A 
ATOM     44  N   UNL A   1      39.857  29.274  29.785  1.00  0.00    -0.354 N 
ATOM     45  C   UNL A   1      38.911  31.465  33.386  1.00  0.00     0.074 A 
ATOM     46  C   UNL A   1      37.741  32.294  33.198  1.00  0.00     0.031 C 
ATOM     47  C   UNL A   1      39.603  28.628  27.660  1.00  0.00     0.029 A 
ATOM     48  C   UNL A   1      40.456  28.479  28.838  1.00  0.00     0.049 A 
ATOM     49  H   UNL A   1      40.177  29.340  30.714  1.00  0.00     0.167 HD
ATOM     50  C   UNL A   1      39.598  31.363  34.548  1.00  0.00     0.037 A 
ATOM     51  C   UNL A   1      41.581  27.740  28.907  1.00  0.00     0.037 A 
ATOM     52  C   UNL A   1      40.748  30.519  34.743  1.00  0.00     0.049 A 
ATOM     53  C   UNL A   1      42.353  27.686  30.201  1.00  0.00     0.074 A 
ATOM     54  C   UNL A   1      41.484  30.319  35.898  1.00  0.00     0.029 A 
ATOM     55  N   UNL A   1      41.333  29.740  33.756  1.00  0.00    -0.354 N 
ATOM     56  N   UNL A   1      42.092  28.263  31.350  1.00  0.00    -0.248 NA
ATOM     57  C   UNL A   1      43.578  26.872  30.210  1.00  0.00     0.031 C 
ATOM     58  C   UNL A   1      42.548  29.463  35.597  1.00  0.00     0.029 A 
ATOM     59  C   UNL A   1      42.439  29.082  34.269  1.00  0.00     0.049 A 
ATOM     60  H   UNL A   1      41.009  29.666  32.829  1.00  0.00     0.167 HD
ATOM     61  C   UNL A   1      43.097  27.857  32.220  1.00  0.00     0.074 A 
ATOM     62  C   UNL A   1      43.964  26.973  31.473  1.00  0.00     0.031 C 
ATOM     63  C   UNL A   1      43.284  28.189  33.520  1.00  0.00     0.037 A 
BRANCH  50  64
ATOM     64  C   UNL A   1      39.148  32.199  35.710  1.00  0.00     0.064 A 
ATOM     65  C   UNL A   1      38.322  31.680  36.719  1.00  0.00     0.173 A 
ATOM     66  C   UNL A   1      39.621  33.512  35.858  1.00  0.00     0.173 A 
ATOM     67  F   UNL A   1      37.836  30.435  36.620  1.00  0.00    -0.203 F 
ATOM     68  C   UNL A   1      37.982  32.450  37.829  1.00  0.00     0.198 A 
ATOM     69  C   UNL A   1      39.300  34.268  36.982  1.00  0.00     0.198 A 
ATOM     70  F   UNL A   1      40.419  34.053  34.924  1.00  0.00    -0.203 F 
ATOM     71  F   UNL A   1      37.171  31.945  38.769  1.00  0.00    -0.200 F 
ATOM     72  C   UNL A   1      38.479  33.738  37.965  1.00  0.00     0.200 A 
ATOM     73  F   UNL A   1      39.794  35.507  37.118  1.00  0.00    -0.200 F 
ATOM     74  F   UNL A   1      38.167  34.469  39.045  1.00  0.00    -0.200 F 
ENDBRANCH  50  64
BRANCH  51  75
ATOM     75  C   UNL A   1      42.073  27.012  27.707  1.00  0.00     0.064 A 
ATOM     76  C   UNL A   1      41.663  25.701  27.430  1.00  0.00     0.173 A 
ATOM     77  C   UNL A   1      43.013  27.596  26.843  1.00  0.00     0.173 A 
ATOM     78  F   UNL A   1      40.791  25.086  28.244  1.00  0.00    -0.203 F 
ATOM     79  C   UNL A   1      42.193  24.992  26.354  1.00  0.00     0.198 A 
ATOM     80  C   UNL A   1      43.518  26.898  25.748  1.00  0.00     0.198 A 
ATOM     81  F   UNL A   1      43.447  28.844  27.068  1.00  0.00    -0.203 F 
ATOM     82  F   UNL A   1      41.835  23.715  26.154  1.00  0.00    -0.200 F 
ATOM     83  C   UNL A   1      43.118  25.592  25.512  1.00  0.00     0.200 A 
ATOM     84  F   UNL A   1      44.406  27.483  24.934  1.00  0.00    -0.200 F 
ATOM     85  F   UNL A   1      43.636  24.905  24.485  1.00  0.00    -0.200 F 
ENDBRANCH  51  75
BRANCH  63  86
ATOM     86  C   UNL A   1      44.443  27.559  34.238  1.00  0.00     0.064 A 
ATOM     87  C   UNL A   1      45.689  28.196  34.335  1.00  0.00     0.173 A 
ATOM     88  C   UNL A   1      44.291  26.317  34.876  1.00  0.00     0.173 A 
ATOM     89  F   UNL A   1      45.890  29.379  33.733  1.00  0.00    -0.203 F 
ATOM     90  C   UNL A   1      46.746  27.602  35.019  1.00  0.00     0.198 A 
ATOM     91  C   UNL A   1      45.340  25.742  35.587  1.00  0.00     0.198 A 
ATOM     92  F   UNL A   1      43.117  25.669  34.822  1.00  0.00    -0.203 F 
ATOM     93  F   UNL A   1      47.941  28.207  35.057  1.00  0.00    -0.200 F 
ATOM     94  C   UNL A   1      46.568  26.380  35.652  1.00  0.00     0.200 A 
ATOM     95  F   UNL A   1      45.161  24.569  36.210  1.00  0.00    -0.200 F 
ATOM     96  F   UNL A   1      47.585  25.815  36.317  1.00  0.00    -0.200 F 
ENDBRANCH  63  86
ENDBRANCH  37  38
ENDBRANCH  30  32
ENDBRANCH  29  30
ENDBRANCH  28  29
ENDBRANCH  27  28
ENDBRANCH  26  27
ENDBRANCH   1  26
TORSDOF 19
ENDMDL
MODEL 2
REMARK VINA RESULT:     -10.8      0.609      7.414
REMARK SMILES CC[C@@H](C)[C@@H](NC(N)=O)C(=O)N1CCC[C@H](C(=O)OCCOCCOC(=O)c2ccc(-c3c4nc(c(-c5c(F)c(F)c(F)c(F)c5F)c5ccc([nH]5)c(-c5c(F)c(F)c(F)c(F)c5F)c5nc(c(-c6c(F)c(F)c(F)c(F)c6F)c6ccc3[nH]6)C=C5)C=C4)cc2)C1
REMARK SMILES IDX 21 1 20 2 19 3 17 4 18 5 16 6 12 7 13 8 91 9 14 10 15 11
REMARK SMILES IDX 10 12 11 13 5 14 3 15 4 16 2 17 1 18 6 19 7 20 8 22 9 23
REMARK SMILES IDX 22 26 23 27 24 28 25 29 26 30 27 31 28 32 29 33 90 34 30 35
REMARK SMILES IDX 89 36 31 37 32 38 33 39 83 40 34 41 88 42 82 43 84 44 35 45
REMARK SMILES IDX 87 46 81 47 80 48 36 50 68 51 48 52 67 53 49 54 52 55 66 56
REMARK SMILES IDX 85 57 50 58 51 59 65 61 86 62 53 63 37 64 38 65 46 66 39 67
REMARK SMILES IDX 40 68 44 69 47 70 41 71 42 72 45 73 43 74 69 75 70 76 78 77
REMARK SMILES IDX 71 78 72 79 76 80 79 81 73 82 74 83 77 84 75 85 54 86 55 87
REMARK SMILES IDX 63 88 56 89 57 90 61 91 64 92 58 93 59 94 62 95 60 96
REMARK H PARENT 6 21 8 24 8 25 84 49 52 60
REMARK Flexibility Score: inf
ROOT
ATOM      1  C   UNL A   1      33.275  29.727  25.845  1.00  0.00     0.202 C 
ENDROOT
BRANCH   1   2
ATOM      2  C   UNL A   1      33.804  28.340  26.205  1.00  0.00     0.261 C 
BRANCH   2   3
ATOM      3  O   UNL A   1      32.944  27.306  25.693  1.00  0.00    -0.463 OA
BRANCH   3   4
ATOM      4  C   UNL A   1      31.734  27.144  26.283  1.00  0.00     0.310 C 
ATOM      5  O   UNL A   1      31.543  27.081  27.492  1.00  0.00    -0.252 OA
BRANCH   4   6
ATOM      6  C   UNL A   1      30.599  26.993  25.277  1.00  0.00     0.119 C 
ATOM      7  N   UNL A   1      30.612  24.563  25.239  1.00  0.00    -0.340 N 
ATOM      8  C   UNL A   1      30.940  24.461  23.824  1.00  0.00     0.119 C 
ATOM      9  C   UNL A   1      29.811  25.724  25.597  1.00  0.00     0.134 C 
ATOM     10  C   UNL A   1      31.654  25.706  23.308  1.00  0.00     0.022 C 
ATOM     11  C   UNL A   1      31.000  27.006  23.790  1.00  0.00     0.019 C 
BRANCH   7  12
ATOM     12  C   UNL A   1      31.286  23.755  26.153  1.00  0.00     0.245 C 
ATOM     13  O   UNL A   1      30.835  23.579  27.290  1.00  0.00    -0.272 OA
BRANCH  12  14
ATOM     14  C   UNL A   1      32.593  23.016  25.699  1.00  0.00     0.176 C 
BRANCH  14  15
ATOM     15  C   UNL A   1      33.912  23.775  26.035  1.00  0.00     0.018 C 
ATOM     16  C   UNL A   1      34.586  24.337  24.777  1.00  0.00     0.010 C 
BRANCH  15  17
ATOM     17  C   UNL A   1      34.931  22.900  26.806  1.00  0.00     0.002 C 
ATOM     18  C   UNL A   1      36.175  22.587  25.976  1.00  0.00     0.004 C 
ENDBRANCH  15  17
ENDBRANCH  14  15
BRANCH  14  19
ATOM     19  N   UNL A   1      32.571  21.655  26.259  1.00  0.00    -0.326 N 
ATOM     20  C   UNL A   1      32.932  20.581  25.499  1.00  0.00     0.312 C 
ATOM     21  H   UNL A   1      32.294  21.518  27.194  1.00  0.00     0.166 HD
ATOM     22  N   UNL A   1      32.912  19.414  26.180  1.00  0.00    -0.352 N 
ATOM     23  O   UNL A   1      33.206  20.609  24.308  1.00  0.00    -0.249 OA
ATOM     24  H   UNL A   1      32.690  19.408  27.139  1.00  0.00     0.161 HD
ATOM     25  H   UNL A   1      33.121  18.570  25.718  1.00  0.00     0.161 HD
ENDBRANCH  14  19
ENDBRANCH  12  14
ENDBRANCH   7  12
ENDBRANCH   4   6
ENDBRANCH   3   4
ENDBRANCH   2   3
ENDBRANCH   1   2
BRANCH   1  26
ATOM     26  O   UNL A   1      32.409  30.344  26.796  1.00  0.00    -0.374 OA
BRANCH  26  27
ATOM     27  C   UNL A   1      31.442  31.268  26.304  1.00  0.00     0.202 C 
BRANCH  27  28
ATOM     28  C   UNL A   1      31.515  32.703  26.844  1.00  0.00     0.261 C 
BRANCH  28  29
ATOM     29  O   UNL A   1      32.821  33.297  26.729  1.00  0.00    -0.460 OA
BRANCH  29  30
ATOM     30  C   UNL A   1      33.316  33.792  27.892  1.00  0.00     0.338 C 
ATOM     31  O   UNL A   1      32.785  34.602  28.634  1.00  0.00    -0.246 OA
BRANCH  30  32
ATOM     32  C   UNL A   1      34.568  33.111  28.269  1.00  0.00     0.060 A 
ATOM     33  C   UNL A   1      34.466  31.804  28.764  1.00  0.00     0.016 A 
ATOM     34  C   UNL A   1      35.795  33.777  28.277  1.00  0.00     0.016 A 
ATOM     35  C   UNL A   1      35.578  31.178  29.325  1.00  0.00     0.010 A 
ATOM     36  C   UNL A   1      36.911  33.148  28.847  1.00  0.00     0.010 A 
ATOM     37  C   UNL A   1      36.797  31.863  29.410  1.00  0.00    -0.014 A 
BRANCH  37  38
ATOM     38  C   UNL A   1      37.899  31.286  30.222  1.00  0.00     0.031 A 
ATOM     39  C   UNL A   1      38.827  30.279  29.593  1.00  0.00     0.074 A 
ATOM     40  C   UNL A   1      38.100  31.682  31.492  1.00  0.00     0.049 A 
ATOM     41  N   UNL A   1      39.830  29.625  30.123  1.00  0.00    -0.248 NA
ATOM     42  C   UNL A   1      38.593  29.967  28.174  1.00  0.00     0.031 C 
ATOM     43  C   UNL A   1      37.295  32.674  32.203  1.00  0.00     0.029 A 
ATOM     44  N   UNL A   1      39.041  31.287  32.412  1.00  0.00    -0.354 N 
ATOM     45  C   UNL A   1      40.334  28.817  29.113  1.00  0.00     0.074 A 
ATOM     46  C   UNL A   1      39.517  29.045  27.941  1.00  0.00     0.031 C 
ATOM     47  C   UNL A   1      37.767  32.800  33.456  1.00  0.00     0.029 A 
ATOM     48  C   UNL A   1      38.883  31.873  33.644  1.00  0.00     0.049 A 
ATOM     49  H   UNL A   1      39.759  30.646  32.208  1.00  0.00     0.167 HD
ATOM     50  C   UNL A   1      41.385  27.966  29.158  1.00  0.00     0.037 A 
ATOM     51  C   UNL A   1      39.545  31.664  34.800  1.00  0.00     0.037 A 
ATOM     52  C   UNL A   1      42.213  27.756  30.317  1.00  0.00     0.049 A 
ATOM     53  C   UNL A   1      40.681  30.671  34.832  1.00  0.00     0.074 A 
ATOM     54  C   UNL A   1      43.327  26.944  30.444  1.00  0.00     0.029 A 
ATOM     55  N   UNL A   1      42.012  28.357  31.551  1.00  0.00    -0.354 N 
ATOM     56  N   UNL A   1      41.174  29.941  33.861  1.00  0.00    -0.248 NA
ATOM     57  C   UNL A   1      41.356  30.477  36.124  1.00  0.00     0.031 C 
ATOM     58  C   UNL A   1      43.767  27.010  31.770  1.00  0.00     0.029 A 
ATOM     59  C   UNL A   1      42.965  27.910  32.452  1.00  0.00     0.049 A 
ATOM     60  H   UNL A   1      41.300  29.005  31.754  1.00  0.00     0.167 HD
ATOM     61  C   UNL A   1      42.232  29.230  34.416  1.00  0.00     0.074 A 
ATOM     62  C   UNL A   1      42.320  29.627  35.803  1.00  0.00     0.031 C 
ATOM     63  C   UNL A   1      43.054  28.328  33.827  1.00  0.00     0.037 A 
BRANCH  50  64
ATOM     64  C   UNL A   1      41.703  27.169  27.927  1.00  0.00     0.064 A 
ATOM     65  C   UNL A   1      42.590  27.641  26.948  1.00  0.00     0.173 A 
ATOM     66  C   UNL A   1      41.177  25.877  27.769  1.00  0.00     0.173 A 
ATOM     67  F   UNL A   1      43.113  28.872  27.048  1.00  0.00    -0.203 F 
ATOM     68  C   UNL A   1      42.932  26.851  25.853  1.00  0.00     0.198 A 
ATOM     69  C   UNL A   1      41.541  25.082  26.686  1.00  0.00     0.198 A 
ATOM     70  F   UNL A   1      40.328  25.376  28.680  1.00  0.00    -0.203 F 
ATOM     71  F   UNL A   1      43.762  27.331  24.916  1.00  0.00    -0.200 F 
ATOM     72  C   UNL A   1      42.416  25.570  25.728  1.00  0.00     0.200 A 
ATOM     73  F   UNL A   1      41.054  23.837  26.577  1.00  0.00    -0.200 F 
ATOM     74  F   UNL A   1      42.764  24.804  24.685  1.00  0.00    -0.200 F 
ENDBRANCH  50  64
BRANCH  51  75
ATOM     75  C   UNL A   1      39.137  32.379  36.038  1.00  0.00     0.064 A 
ATOM     76  C   UNL A   1      39.644  33.647  36.348  1.00  0.00     0.173 A 
ATOM     77  C   UNL A   1      38.272  31.779  36.967  1.00  0.00     0.173 A 
ATOM     78  F   UNL A   1      40.500  34.250  35.508  1.00  0.00    -0.203 F 
ATOM     79  C   UNL A   1      39.328  34.276  37.551  1.00  0.00     0.198 A 
ATOM     80  C   UNL A   1      37.929  32.422  38.154  1.00  0.00     0.198 A 
ATOM     81  F   UNL A   1      37.766  30.561  36.724  1.00  0.00    -0.203 F 
ATOM     82  F   UNL A   1      39.883  35.458  37.852  1.00  0.00    -0.200 F 
ATOM     83  C   UNL A   1      38.467  33.665  38.451  1.00  0.00     0.200 A 
ATOM     84  F   UNL A   1      37.094  31.831  39.018  1.00  0.00    -0.200 F 
ATOM     85  F   UNL A   1      38.173  34.265  39.612  1.00  0.00    -0.200 F 
ENDBRANCH  51  75
BRANCH  63  86
ATOM     86  C   UNL A   1      44.154  27.741  34.665  1.00  0.00     0.064 A 
ATOM     87  C   UNL A   1      43.994  26.530  35.354  1.00  0.00     0.173 A 
ATOM     88  C   UNL A   1      45.402  28.379  34.743  1.00  0.00     0.173 A 
ATOM     89  F   UNL A   1      42.817  25.886  35.322  1.00  0.00    -0.203 F 
ATOM     90  C   UNL A   1      45.032  25.995  36.112  1.00  0.00     0.198 A 
ATOM     91  C   UNL A   1      46.448  27.824  35.475  1.00  0.00     0.198 A 
ATOM     92  F   UNL A   1      45.613  29.535  34.095  1.00  0.00    -0.203 F 
ATOM     93  F   UNL A   1      44.840  24.862  36.802  1.00  0.00    -0.200 F 
ATOM     94  C   UNL A   1      46.260  26.637  36.165  1.00  0.00     0.200 A 
ATOM     95  F   UNL A   1      47.639  28.439  35.511  1.00  0.00    -0.200 F 
ATOM     96  F   UNL A   1      47.261  26.115  36.888  1.00  0.00    -0.200 F 
ENDBRANCH  63  86
ENDBRANCH  37  38
ENDBRANCH  30  32
ENDBRANCH  29  30
ENDBRANCH  28  29
ENDBRANCH  27  28
ENDBRANCH  26  27
ENDBRANCH   1  26
TORSDOF 19
ENDMDL
MODEL 3
REMARK VINA RESULT:     -10.8      1.001      1.776
REMARK SMILES CC[C@@H](C)[C@@H](NC(N)=O)C(=O)N1CCC[C@H](C(=O)OCCOCCOC(=O)c2ccc(-c3c4nc(c(-c5c(F)c(F)c(F)c(F)c5F)c5ccc([nH]5)c(-c5c(F)c(F)c(F)c(F)c5F)c5nc(c(-c6c(F)c(F)c(F)c(F)c6F)c6ccc3[nH]6)C=C5)C=C4)cc2)C1
REMARK SMILES IDX 21 1 20 2 19 3 17 4 18 5 16 6 12 7 13 8 91 9 14 10 15 11
REMARK SMILES IDX 10 12 11 13 5 14 3 15 4 16 2 17 1 18 6 19 7 20 8 22 9 23
REMARK SMILES IDX 22 26 23 27 24 28 25 29 26 30 27 31 28 32 29 33 90 34 30 35
REMARK SMILES IDX 89 36 31 37 32 38 33 39 83 40 34 41 88 42 82 43 84 44 35 45
REMARK SMILES IDX 87 46 81 47 80 48 36 50 68 51 48 52 67 53 49 54 52 55 66 56
REMARK SMILES IDX 85 57 50 58 51 59 65 61 86 62 53 63 37 64 38 65 46 66 39 67
REMARK SMILES IDX 40 68 44 69 47 70 41 71 42 72 45 73 43 74 69 75 70 76 78 77
REMARK SMILES IDX 71 78 72 79 76 80 79 81 73 82 74 83 77 84 75 85 54 86 55 87
REMARK SMILES IDX 63 88 56 89 57 90 61 91 64 92 58 93 59 94 62 95 60 96
REMARK H PARENT 6 21 8 24 8 25 84 49 52 60
REMARK Flexibility Score: inf
ROOT
ATOM      1  C   UNL A   1      32.282  29.679  27.008  1.00  0.00     0.202 C 
ENDROOT
BRANCH   1   2
ATOM      2  C   UNL A   1      31.792  28.233  27.056  1.00  0.00     0.261 C 
BRANCH   2   3
ATOM      3  O   UNL A   1      31.009  27.909  25.893  1.00  0.00    -0.463 OA
BRANCH   3   4
ATOM      4  C   UNL A   1      30.847  26.598  25.587  1.00  0.00     0.310 C 
ATOM      5  O   UNL A   1      30.795  25.687  26.405  1.00  0.00    -0.252 OA
BRANCH   4   6
ATOM      6  C   UNL A   1      30.779  26.343  24.086  1.00  0.00     0.119 C 
ATOM      7  N   UNL A   1      33.093  25.637  23.843  1.00  0.00    -0.340 N 
ATOM      8  C   UNL A   1      33.457  26.714  22.933  1.00  0.00     0.119 C 
ATOM      9  C   UNL A   1      31.714  25.187  23.733  1.00  0.00     0.134 C 
ATOM     10  C   UNL A   1      32.548  27.930  23.086  1.00  0.00     0.022 C 
ATOM     11  C   UNL A   1      31.065  27.551  23.176  1.00  0.00     0.019 C 
BRANCH   7  12
ATOM     12  C   UNL A   1      33.945  25.323  24.900  1.00  0.00     0.245 C 
ATOM     13  O   UNL A   1      34.227  26.171  25.755  1.00  0.00    -0.272 OA
BRANCH  12  14
ATOM     14  C   UNL A   1      34.492  23.859  25.030  1.00  0.00     0.176 C 
BRANCH  14  15
ATOM     15  C   UNL A   1      36.005  23.704  24.689  1.00  0.00     0.018 C 
ATOM     16  C   UNL A   1      36.225  22.849  23.435  1.00  0.00     0.010 C 
BRANCH  15  17
ATOM     17  C   UNL A   1      36.828  23.109  25.859  1.00  0.00     0.002 C 
ATOM     18  C   UNL A   1      37.894  24.076  26.371  1.00  0.00     0.004 C 
ENDBRANCH  15  17
ENDBRANCH  14  15
BRANCH  14  19
ATOM     19  N   UNL A   1      34.167  23.363  26.377  1.00  0.00    -0.326 N 
ATOM     20  C   UNL A   1      33.031  22.643  26.602  1.00  0.00     0.312 C 
ATOM     21  H   UNL A   1      34.778  23.552  27.126  1.00  0.00     0.166 HD
ATOM     22  N   UNL A   1      32.912  22.216  27.877  1.00  0.00    -0.352 N 
ATOM     23  O   UNL A   1      32.153  22.421  25.780  1.00  0.00    -0.249 OA
ATOM     24  H   UNL A   1      33.628  22.402  28.528  1.00  0.00     0.161 HD
ATOM     25  H   UNL A   1      32.111  21.717  28.158  1.00  0.00     0.161 HD
ENDBRANCH  14  19
ENDBRANCH  12  14
ENDBRANCH   7  12
ENDBRANCH   4   6
ENDBRANCH   3   4
ENDBRANCH   2   3
ENDBRANCH   1   2
BRANCH   1  26
ATOM     26  O   UNL A   1      31.813  30.473  25.921  1.00  0.00    -0.374 OA
BRANCH  26  27
ATOM     27  C   UNL A   1      31.023  31.618  26.234  1.00  0.00     0.202 C 
BRANCH  27  28
ATOM     28  C   UNL A   1      31.774  32.928  26.508  1.00  0.00     0.261 C 
BRANCH  28  29
ATOM     29  O   UNL A   1      32.273  33.035  27.854  1.00  0.00    -0.460 OA
BRANCH  29  30
ATOM     30  C   UNL A   1      33.335  33.869  27.992  1.00  0.00     0.338 C 
ATOM     31  O   UNL A   1      33.319  35.088  28.009  1.00  0.00    -0.246 OA
BRANCH  30  32
ATOM     32  C   UNL A   1      34.570  33.114  28.276  1.00  0.00     0.060 A 
ATOM     33  C   UNL A   1      34.429  31.774  28.663  1.00  0.00     0.016 A 
ATOM     34  C   UNL A   1      35.821  33.731  28.305  1.00  0.00     0.016 A 
ATOM     35  C   UNL A   1      35.530  31.064  29.139  1.00  0.00     0.010 A 
ATOM     36  C   UNL A   1      36.926  33.017  28.789  1.00  0.00     0.010 A 
ATOM     37  C   UNL A   1      36.776  31.694  29.247  1.00  0.00    -0.014 A 
BRANCH  37  38
ATOM     38  C   UNL A   1      37.876  31.011  29.977  1.00  0.00     0.031 A 
ATOM     39  C   UNL A   1      38.111  31.342  31.428  1.00  0.00     0.074 A 
ATOM     40  C   UNL A   1      38.630  30.079  29.369  1.00  0.00     0.049 A 
ATOM     41  N   UNL A   1      39.031  30.893  32.245  1.00  0.00    -0.248 NA
ATOM     42  C   UNL A   1      37.185  32.307  32.041  1.00  0.00     0.031 C 
ATOM     43  C   UNL A   1      38.480  29.644  27.982  1.00  0.00     0.029 A 
ATOM     44  N   UNL A   1      39.684  29.334  29.844  1.00  0.00    -0.354 N 
ATOM     45  C   UNL A   1      38.805  31.531  33.458  1.00  0.00     0.074 A 
ATOM     46  C   UNL A   1      37.673  32.413  33.269  1.00  0.00     0.031 C 
ATOM     47  C   UNL A   1      39.418  28.719  27.711  1.00  0.00     0.029 A 
ATOM     48  C   UNL A   1      40.255  28.523  28.894  1.00  0.00     0.049 A 
ATOM     49  H   UNL A   1      39.999  29.378  30.775  1.00  0.00     0.167 HD
ATOM     50  C   UNL A   1      39.477  31.389  34.624  1.00  0.00     0.037 A 
ATOM     51  C   UNL A   1      41.346  27.735  28.964  1.00  0.00     0.037 A 
ATOM     52  C   UNL A   1      40.588  30.495  34.820  1.00  0.00     0.049 A 
ATOM     53  C   UNL A   1      42.105  27.636  30.264  1.00  0.00     0.074 A 
ATOM     54  C   UNL A   1      41.305  30.253  35.979  1.00  0.00     0.029 A 
ATOM     55  N   UNL A   1      41.147  29.701  33.830  1.00  0.00    -0.354 N 
ATOM     56  N   UNL A   1      41.860  28.213  31.416  1.00  0.00    -0.248 NA
ATOM     57  C   UNL A   1      43.294  26.770  30.274  1.00  0.00     0.031 C 
ATOM     58  C   UNL A   1      42.334  29.355  35.677  1.00  0.00     0.029 A 
ATOM     59  C   UNL A   1      42.219  28.991  34.346  1.00  0.00     0.049 A 
ATOM     60  H   UNL A   1      40.827  29.649  32.900  1.00  0.00     0.167 HD
ATOM     61  C   UNL A   1      42.839  27.757  32.289  1.00  0.00     0.074 A 
ATOM     62  C   UNL A   1      43.674  26.842  31.541  1.00  0.00     0.031 C 
ATOM     63  C   UNL A   1      43.031  28.068  33.594  1.00  0.00     0.037 A 
BRANCH  50  64
ATOM     64  C   UNL A   1      39.055  32.234  35.791  1.00  0.00     0.064 A 
ATOM     65  C   UNL A   1      38.265  31.718  36.830  1.00  0.00     0.173 A 
ATOM     66  C   UNL A   1      39.519  33.553  35.910  1.00  0.00     0.173 A 
ATOM     67  F   UNL A   1      37.788  30.467  36.758  1.00  0.00    -0.203 F 
ATOM     68  C   UNL A   1      37.951  32.497  37.941  1.00  0.00     0.198 A 
ATOM     69  C   UNL A   1      39.224  34.318  37.035  1.00  0.00     0.198 A 
ATOM     70  F   UNL A   1      40.283  34.091  34.947  1.00  0.00    -0.203 F 
ATOM     71  F   UNL A   1      37.174  31.994  38.911  1.00  0.00    -0.200 F 
ATOM     72  C   UNL A   1      38.439  33.791  38.048  1.00  0.00     0.200 A 
ATOM     73  F   UNL A   1      39.711  35.563  37.143  1.00  0.00    -0.200 F 
ATOM     74  F   UNL A   1      38.153  34.530  39.130  1.00  0.00    -0.200 F 
ENDBRANCH  50  64
BRANCH  51  75
ATOM     75  C   UNL A   1      41.816  26.997  27.761  1.00  0.00     0.064 A 
ATOM     76  C   UNL A   1      41.371  25.699  27.482  1.00  0.00     0.173 A 
ATOM     77  C   UNL A   1      42.768  27.559  26.896  1.00  0.00     0.173 A 
ATOM     78  F   UNL A   1      40.486  25.104  28.298  1.00  0.00    -0.203 F 
ATOM     79  C   UNL A   1      41.880  24.978  26.404  1.00  0.00     0.198 A 
ATOM     80  C   UNL A   1      43.251  26.851  25.798  1.00  0.00     0.198 A 
ATOM     81  F   UNL A   1      43.235  28.795  27.122  1.00  0.00    -0.203 F 
ATOM     82  F   UNL A   1      41.488  23.712  26.202  1.00  0.00    -0.200 F 
ATOM     83  C   UNL A   1      42.817  25.556  25.560  1.00  0.00     0.200 A 
ATOM     84  F   UNL A   1      44.153  27.414  24.983  1.00  0.00    -0.200 F 
ATOM     85  F   UNL A   1      43.314  24.858  24.530  1.00  0.00    -0.200 F 
ENDBRANCH  51  75
BRANCH  63  86
ATOM     86  C   UNL A   1      44.156  27.382  34.315  1.00  0.00     0.064 A 
ATOM     87  C   UNL A   1      43.992  26.129  34.922  1.00  0.00     0.173 A 
ATOM     88  C   UNL A   1      45.430  27.970  34.359  1.00  0.00     0.173 A 
ATOM     89  F   UNL A   1      42.791  25.530  34.918  1.00  0.00    -0.203 F 
ATOM     90  C   UNL A   1      45.052  25.503  35.571  1.00  0.00     0.198 A 
ATOM     91  C   UNL A   1      46.497  27.326  34.979  1.00  0.00     0.198 A 
ATOM     92  F   UNL A   1      45.646  29.164  33.785  1.00  0.00    -0.203 F 
ATOM     93  F   UNL A   1      44.859  24.329  36.186  1.00  0.00    -0.200 F 
ATOM     94  C   UNL A   1      46.306  26.098  35.591  1.00  0.00     0.200 A 
ATOM     95  F   UNL A   1      47.710  27.895  34.984  1.00  0.00    -0.200 F 
ATOM     96  F   UNL A   1      47.328  25.489  36.209  1.00  0.00    -0.200 F 
ENDBRANCH  63  86
ENDBRANCH  37  38
ENDBRANCH  30  32
ENDBRANCH  29  30
ENDBRANCH  28  29
ENDBRANCH  27  28
ENDBRANCH  26  27
ENDBRANCH   1  26
TORSDOF 19
ENDMDL
