MODEL 1
REMARK VINA RESULT:     -11.0      0.000      0.000
REMARK SMILES C[C@H](NC(=O)CCn1ccccc1=O)C(=O)OCCOCCOC(=O)c1ccc(-c2c3nc(c(-c4c(F)c(F)c(F)c(F)c4F)c4ccc([nH]4)c(-c4c(F)c(F)c(F)c(F)c4F)c4nc(c(-c5c(F)c(F)c(F)c(F)c5F)c5ccc2[nH]5)C=C4)C=C3)cc1
REMARK SMILES IDX 19 1 18 2 17 3 15 4 16 5 2 6 1 7 3 8 4 9 5 11 6 12 7 13 8 14
REMARK SMILES IDX 9 15 13 16 10 17 12 18 14 19 11 20 20 21 21 22 22 23 23 24
REMARK SMILES IDX 24 25 25 26 26 27 27 28 88 29 28 30 87 31 29 32 30 33 31 34
REMARK SMILES IDX 81 35 32 36 86 37 80 38 82 39 33 40 85 41 79 42 78 43 34 45
REMARK SMILES IDX 66 46 46 47 65 48 47 49 50 50 64 51 83 52 48 53 49 54 63 56
REMARK SMILES IDX 84 57 51 58 35 59 36 60 44 61 37 62 38 63 42 64 45 65 39 66
REMARK SMILES IDX 40 67 43 68 41 69 67 70 68 71 76 72 69 73 70 74 74 75 77 76
REMARK SMILES IDX 71 77 72 78 75 79 73 80 52 81 53 82 61 83 54 84 55 85 59 86
REMARK SMILES IDX 62 87 56 88 57 89 60 90 58 91
REMARK H PARENT 3 10 82 44 50 55
REMARK Flexibility Score: inf
ROOT
ATOM      1  C   UNL A   1      33.504  30.473  26.873  1.00  0.00     0.202 C 
ENDROOT
BRANCH   1   2
ATOM      2  C   UNL A   1      33.759  28.984  27.078  1.00  0.00     0.261 C 
BRANCH   2   3
ATOM      3  O   UNL A   1      32.916  28.124  26.296  1.00  0.00    -0.462 OA
BRANCH   3   4
ATOM      4  C   UNL A   1      31.881  27.467  26.895  1.00  0.00     0.328 C 
ATOM      5  O   UNL A   1      31.303  27.828  27.909  1.00  0.00    -0.250 OA
BRANCH   4   6
ATOM      6  C   UNL A   1      31.523  26.244  26.041  1.00  0.00     0.189 C 
ATOM      7  C   UNL A   1      30.596  26.685  24.911  1.00  0.00     0.043 C 
BRANCH   6   8
ATOM      8  N   UNL A   1      30.977  25.098  26.762  1.00  0.00    -0.343 N 
ATOM      9  C   UNL A   1      31.425  23.819  26.867  1.00  0.00     0.222 C 
ATOM     10  H   UNL A   1      30.144  25.283  27.255  1.00  0.00     0.164 HD
ATOM     11  O   UNL A   1      30.687  22.998  27.417  1.00  0.00    -0.275 OA
BRANCH   9  12
ATOM     12  C   UNL A   1      32.821  23.410  26.432  1.00  0.00     0.122 C 
BRANCH  12  13
ATOM     13  C   UNL A   1      33.004  22.979  24.975  1.00  0.00     0.135 C 
BRANCH  13  14
ATOM     14  N   UNL A   1      34.371  22.576  24.609  1.00  0.00    -0.315 N 
ATOM     15  C   UNL A   1      35.013  21.567  25.318  1.00  0.00     0.089 A 
ATOM     16  C   UNL A   1      34.998  23.226  23.539  1.00  0.00     0.250 A 
ATOM     17  C   UNL A   1      36.302  21.277  25.105  1.00  0.00     0.018 A 
ATOM     18  C   UNL A   1      36.439  22.908  23.338  1.00  0.00     0.072 A 
ATOM     19  O   UNL A   1      34.468  24.065  22.818  1.00  0.00    -0.269 OA
ATOM     20  C   UNL A   1      37.049  22.002  24.112  1.00  0.00     0.007 A 
ENDBRANCH  13  14
ENDBRANCH  12  13
ENDBRANCH   9  12
ENDBRANCH   6   8
ENDBRANCH   4   6
ENDBRANCH   3   4
ENDBRANCH   2   3
ENDBRANCH   1   2
BRANCH   1  21
ATOM     21  O   UNL A   1      32.135  30.869  26.935  1.00  0.00    -0.374 OA
BRANCH  21  22
ATOM     22  C   UNL A   1      31.909  32.282  26.850  1.00  0.00     0.202 C 
BRANCH  22  23
ATOM     23  C   UNL A   1      32.956  33.185  27.525  1.00  0.00     0.261 C 
BRANCH  23  24
ATOM     24  O   UNL A   1      32.327  34.234  28.282  1.00  0.00    -0.460 OA
BRANCH  24  25
ATOM     25  C   UNL A   1      33.151  35.227  28.705  1.00  0.00     0.338 C 
ATOM     26  O   UNL A   1      32.935  36.424  28.664  1.00  0.00    -0.246 OA
BRANCH  25  27
ATOM     27  C   UNL A   1      34.263  34.633  29.489  1.00  0.00     0.060 A 
ATOM     28  C   UNL A   1      34.090  34.110  30.773  1.00  0.00     0.016 A 
ATOM     29  C   UNL A   1      35.541  34.673  28.913  1.00  0.00     0.016 A 
ATOM     30  C   UNL A   1      35.192  33.588  31.460  1.00  0.00     0.010 A 
ATOM     31  C   UNL A   1      36.642  34.168  29.604  1.00  0.00     0.010 A 
ATOM     32  C   UNL A   1      36.470  33.599  30.873  1.00  0.00    -0.014 A 
BRANCH  32  33
ATOM     33  C   UNL A   1      37.593  32.853  31.491  1.00  0.00     0.031 A 
ATOM     34  C   UNL A   1      38.180  33.239  32.811  1.00  0.00     0.074 A 
ATOM     35  C   UNL A   1      38.114  31.827  30.794  1.00  0.00     0.049 A 
ATOM     36  N   UNL A   1      39.146  32.660  33.482  1.00  0.00    -0.248 NA
ATOM     37  C   UNL A   1      37.623  34.431  33.461  1.00  0.00     0.031 C 
ATOM     38  C   UNL A   1      37.640  31.382  29.484  1.00  0.00     0.029 A 
ATOM     39  N   UNL A   1      39.148  30.975  31.086  1.00  0.00    -0.354 N 
ATOM     40  C   UNL A   1      39.291  33.394  34.650  1.00  0.00     0.074 A 
ATOM     41  C   UNL A   1      38.354  34.498  34.567  1.00  0.00     0.031 C 
ATOM     42  C   UNL A   1      38.362  30.322  29.094  1.00  0.00     0.029 A 
ATOM     43  C   UNL A   1      39.362  30.028  30.116  1.00  0.00     0.049 A 
ATOM     44  H   UNL A   1      39.683  31.036  31.910  1.00  0.00     0.167 HD
ATOM     45  C   UNL A   1      40.115  33.152  35.700  1.00  0.00     0.037 A 
ATOM     46  C   UNL A   1      40.258  29.026  30.061  1.00  0.00     0.037 A 
ATOM     47  C   UNL A   1      41.074  32.075  35.755  1.00  0.00     0.049 A 
ATOM     48  C   UNL A   1      41.209  28.823  31.203  1.00  0.00     0.074 A 
ATOM     49  C   UNL A   1      41.944  31.741  36.780  1.00  0.00     0.029 A 
ATOM     50  N   UNL A   1      41.301  31.161  34.733  1.00  0.00    -0.354 N 
ATOM     51  N   UNL A   1      41.300  29.487  32.329  1.00  0.00    -0.248 NA
ATOM     52  C   UNL A   1      42.177  27.727  31.068  1.00  0.00     0.031 C 
ATOM     53  C   UNL A   1      42.730  30.661  36.359  1.00  0.00     0.029 A 
ATOM     54  C   UNL A   1      42.315  30.285  35.092  1.00  0.00     0.049 A 
ATOM     55  H   UNL A   1      40.814  31.140  33.878  1.00  0.00     0.167 HD
ATOM     56  C   UNL A   1      42.321  28.881  33.047  1.00  0.00     0.074 A 
ATOM     57  C   UNL A   1      42.807  27.784  32.233  1.00  0.00     0.031 C 
ATOM     58  C   UNL A   1      42.807  29.207  34.269  1.00  0.00     0.037 A 
BRANCH  45  59
ATOM     59  C   UNL A   1      40.010  34.067  36.887  1.00  0.00     0.064 A 
ATOM     60  C   UNL A   1      39.152  33.773  37.958  1.00  0.00     0.173 A 
ATOM     61  C   UNL A   1      40.806  35.219  36.985  1.00  0.00     0.173 A 
ATOM     62  F   UNL A   1      38.366  32.687  37.914  1.00  0.00    -0.203 F 
ATOM     63  C   UNL A   1      39.075  34.609  39.069  1.00  0.00     0.198 A 
ATOM     64  C   UNL A   1      40.746  36.039  38.111  1.00  0.00     0.198 A 
ATOM     65  F   UNL A   1      41.651  35.545  35.996  1.00  0.00    -0.203 F 
ATOM     66  F   UNL A   1      38.214  34.329  40.058  1.00  0.00    -0.200 F 
ATOM     67  C   UNL A   1      39.876  35.737  39.147  1.00  0.00     0.200 A 
ATOM     68  F   UNL A   1      41.531  37.123  38.191  1.00  0.00    -0.200 F 
ATOM     69  F   UNL A   1      39.803  36.539  40.218  1.00  0.00    -0.200 F 
ENDBRANCH  45  59
BRANCH  46  70
ATOM     70  C   UNL A   1      40.233  28.103  28.900  1.00  0.00     0.064 A 
ATOM     71  C   UNL A   1      40.969  28.399  27.745  1.00  0.00     0.173 A 
ATOM     72  C   UNL A   1      39.538  26.886  28.945  1.00  0.00     0.173 A 
ATOM     73  F   UNL A   1      41.635  29.559  27.656  1.00  0.00    -0.203 F 
ATOM     74  C   UNL A   1      41.014  27.508  26.677  1.00  0.00     0.198 A 
ATOM     75  C   UNL A   1      39.603  25.987  27.884  1.00  0.00     0.198 A 
ATOM     76  F   UNL A   1      38.827  26.558  30.033  1.00  0.00    -0.203 F 
ATOM     77  F   UNL A   1      41.713  27.820  25.577  1.00  0.00    -0.200 F 
ATOM     78  C   UNL A   1      40.340  26.298  26.750  1.00  0.00     0.200 A 
ATOM     79  F   UNL A   1      38.965  24.811  27.965  1.00  0.00    -0.200 F 
ATOM     80  F   UNL A   1      40.402  25.431  25.730  1.00  0.00    -0.200 F 
ENDBRANCH  46  70
BRANCH  58  81
ATOM     81  C   UNL A   1      43.924  28.360  34.809  1.00  0.00     0.064 A 
ATOM     82  C   UNL A   1      43.671  27.178  35.522  1.00  0.00     0.173 A 
ATOM     83  C   UNL A   1      45.263  28.713  34.583  1.00  0.00     0.173 A 
ATOM     84  F   UNL A   1      42.408  26.804  35.779  1.00  0.00    -0.203 F 
ATOM     85  C   UNL A   1      44.715  26.397  36.011  1.00  0.00     0.198 A 
ATOM     86  C   UNL A   1      46.304  27.915  35.048  1.00  0.00     0.198 A 
ATOM     87  F   UNL A   1      45.563  29.831  33.904  1.00  0.00    -0.203 F 
ATOM     88  F   UNL A   1      44.447  25.299  36.730  1.00  0.00    -0.200 F 
ATOM     89  C   UNL A   1      46.030  26.761  35.767  1.00  0.00     0.200 A 
ATOM     90  F   UNL A   1      47.576  28.262  34.801  1.00  0.00    -0.200 F 
ATOM     91  F   UNL A   1      47.034  26.005  36.232  1.00  0.00    -0.200 F 
ENDBRANCH  58  81
ENDBRANCH  32  33
ENDBRANCH  25  27
ENDBRANCH  24  25
ENDBRANCH  23  24
ENDBRANCH  22  23
ENDBRANCH  21  22
ENDBRANCH   1  21
TORSDOF 18
ENDMDL
MODEL 2
REMARK VINA RESULT:     -10.8      3.205      9.148
REMARK SMILES C[C@H](NC(=O)CCn1ccccc1=O)C(=O)OCCOCCOC(=O)c1ccc(-c2c3nc(c(-c4c(F)c(F)c(F)c(F)c4F)c4ccc([nH]4)c(-c4c(F)c(F)c(F)c(F)c4F)c4nc(c(-c5c(F)c(F)c(F)c(F)c5F)c5ccc2[nH]5)C=C4)C=C3)cc1
REMARK SMILES IDX 19 1 18 2 17 3 15 4 16 5 2 6 1 7 3 8 4 9 5 11 6 12 7 13 8 14
REMARK SMILES IDX 9 15 13 16 10 17 12 18 14 19 11 20 20 21 21 22 22 23 23 24
REMARK SMILES IDX 24 25 25 26 26 27 27 28 88 29 28 30 87 31 29 32 30 33 31 34
REMARK SMILES IDX 81 35 32 36 86 37 80 38 82 39 33 40 85 41 79 42 78 43 34 45
REMARK SMILES IDX 66 46 46 47 65 48 47 49 50 50 64 51 83 52 48 53 49 54 63 56
REMARK SMILES IDX 84 57 51 58 35 59 36 60 44 61 37 62 38 63 42 64 45 65 39 66
REMARK SMILES IDX 40 67 43 68 41 69 67 70 68 71 76 72 69 73 70 74 74 75 77 76
REMARK SMILES IDX 71 77 72 78 75 79 73 80 52 81 53 82 61 83 54 84 55 85 59 86
REMARK SMILES IDX 62 87 56 88 57 89 60 90 58 91
REMARK H PARENT 3 10 82 44 50 55
REMARK Flexibility Score: inf
ROOT
ATOM      1  C   UNL A   1      41.479  21.597  26.715  1.00  0.00     0.202 C 
ENDROOT
BRANCH   1   2
ATOM      2  C   UNL A   1      40.018  21.159  26.732  1.00  0.00     0.261 C 
BRANCH   2   3
ATOM      3  O   UNL A   1      39.180  21.851  25.794  1.00  0.00    -0.462 OA
BRANCH   3   4
ATOM      4  C   UNL A   1      38.042  21.254  25.338  1.00  0.00     0.328 C 
ATOM      5  O   UNL A   1      37.969  20.128  24.870  1.00  0.00    -0.250 OA
BRANCH   4   6
ATOM      6  C   UNL A   1      36.863  22.206  25.582  1.00  0.00     0.189 C 
ATOM      7  C   UNL A   1      37.408  23.566  26.014  1.00  0.00     0.043 C 
BRANCH   6   8
ATOM      8  N   UNL A   1      35.834  21.728  26.501  1.00  0.00    -0.343 N 
ATOM      9  C   UNL A   1      34.511  22.030  26.587  1.00  0.00     0.222 C 
ATOM     10  H   UNL A   1      36.151  21.079  27.170  1.00  0.00     0.164 HD
ATOM     11  O   UNL A   1      33.890  21.601  27.562  1.00  0.00    -0.275 OA
BRANCH   9  12
ATOM     12  C   UNL A   1      33.775  22.771  25.486  1.00  0.00     0.122 C 
BRANCH  12  13
ATOM     13  C   UNL A   1      32.289  22.456  25.298  1.00  0.00     0.135 C 
BRANCH  13  14
ATOM     14  N   UNL A   1      31.423  23.625  25.084  1.00  0.00    -0.315 N 
ATOM     15  C   UNL A   1      30.992  23.947  23.802  1.00  0.00     0.089 A 
ATOM     16  C   UNL A   1      31.047  24.394  26.192  1.00  0.00     0.250 A 
ATOM     17  C   UNL A   1      30.326  25.081  23.554  1.00  0.00     0.018 A 
ATOM     18  C   UNL A   1      30.330  25.664  25.892  1.00  0.00     0.072 A 
ATOM     19  O   UNL A   1      31.320  24.126  27.358  1.00  0.00    -0.269 OA
ATOM     20  C   UNL A   1      30.024  25.988  24.629  1.00  0.00     0.007 A 
ENDBRANCH  13  14
ENDBRANCH  12  13
ENDBRANCH   9  12
ENDBRANCH   6   8
ENDBRANCH   4   6
ENDBRANCH   3   4
ENDBRANCH   2   3
ENDBRANCH   1   2
BRANCH   1  21
ATOM     21  O   UNL A   1      42.022  21.853  25.422  1.00  0.00    -0.374 OA
BRANCH  21  22
ATOM     22  C   UNL A   1      43.435  21.647  25.307  1.00  0.00     0.202 C 
BRANCH  22  23
ATOM     23  C   UNL A   1      44.273  22.866  24.882  1.00  0.00     0.261 C 
BRANCH  23  24
ATOM     24  O   UNL A   1      43.503  24.079  24.958  1.00  0.00    -0.460 OA
BRANCH  24  25
ATOM     25  C   UNL A   1      44.202  25.198  25.277  1.00  0.00     0.338 C 
ATOM     26  O   UNL A   1      45.141  25.672  24.668  1.00  0.00    -0.246 OA
BRANCH  25  27
ATOM     27  C   UNL A   1      43.478  25.932  26.346  1.00  0.00     0.060 A 
ATOM     28  C   UNL A   1      42.422  25.370  27.069  1.00  0.00     0.016 A 
ATOM     29  C   UNL A   1      43.853  27.264  26.571  1.00  0.00     0.016 A 
ATOM     30  C   UNL A   1      41.771  26.134  28.045  1.00  0.00     0.010 A 
ATOM     31  C   UNL A   1      43.195  28.029  27.533  1.00  0.00     0.010 A 
ATOM     32  C   UNL A   1      42.166  27.461  28.295  1.00  0.00    -0.014 A 
BRANCH  32  33
ATOM     33  C   UNL A   1      41.641  28.198  29.469  1.00  0.00     0.031 A 
ATOM     34  C   UNL A   1      40.436  29.081  29.387  1.00  0.00     0.074 A 
ATOM     35  C   UNL A   1      42.320  28.089  30.625  1.00  0.00     0.049 A 
ATOM     36  N   UNL A   1      39.850  29.764  30.340  1.00  0.00    -0.248 NA
ATOM     37  C   UNL A   1      39.810  29.227  28.067  1.00  0.00     0.031 C 
ATOM     38  C   UNL A   1      43.525  27.281  30.810  1.00  0.00     0.029 A 
ATOM     39  N   UNL A   1      42.099  28.652  31.855  1.00  0.00    -0.354 N 
ATOM     40  C   UNL A   1      38.766  30.394  29.748  1.00  0.00     0.074 A 
ATOM     41  C   UNL A   1      38.812  30.060  28.336  1.00  0.00     0.031 C 
ATOM     42  C   UNL A   1      43.923  27.378  32.087  1.00  0.00     0.029 A 
ATOM     43  C   UNL A   1      43.016  28.270  32.800  1.00  0.00     0.049 A 
ATOM     44  H   UNL A   1      41.355  29.270  32.040  1.00  0.00     0.167 HD
ATOM     45  C   UNL A   1      37.813  31.160  30.334  1.00  0.00     0.037 A 
ATOM     46  C   UNL A   1      43.110  28.594  34.103  1.00  0.00     0.037 A 
ATOM     47  C   UNL A   1      37.801  31.521  31.731  1.00  0.00     0.049 A 
ATOM     48  C   UNL A   1      42.084  29.503  34.712  1.00  0.00     0.074 A 
ATOM     49  C   UNL A   1      36.871  32.283  32.420  1.00  0.00     0.029 A 
ATOM     50  N   UNL A   1      38.774  31.158  32.654  1.00  0.00    -0.354 N 
ATOM     51  N   UNL A   1      41.030  30.048  34.157  1.00  0.00    -0.248 NA
ATOM     52  C   UNL A   1      42.260  29.837  36.132  1.00  0.00     0.031 C 
ATOM     53  C   UNL A   1      37.307  32.422  33.744  1.00  0.00     0.029 A 
ATOM     54  C   UNL A   1      38.481  31.703  33.896  1.00  0.00     0.049 A 
ATOM     55  H   UNL A   1      39.557  30.596  32.455  1.00  0.00     0.167 HD
ATOM     56  C   UNL A   1      40.404  30.774  35.160  1.00  0.00     0.074 A 
ATOM     57  C   UNL A   1      41.189  30.585  36.363  1.00  0.00     0.031 C 
ATOM     58  C   UNL A   1      39.278  31.526  35.085  1.00  0.00     0.037 A 
BRANCH  45  59
ATOM     59  C   UNL A   1      36.693  31.655  29.465  1.00  0.00     0.064 A 
ATOM     60  C   UNL A   1      35.736  30.773  28.938  1.00  0.00     0.173 A 
ATOM     61  C   UNL A   1      36.537  33.024  29.194  1.00  0.00     0.173 A 
ATOM     62  F   UNL A   1      35.840  29.454  29.162  1.00  0.00    -0.203 F 
ATOM     63  C   UNL A   1      34.683  31.237  28.154  1.00  0.00     0.198 A 
ATOM     64  C   UNL A   1      35.466  33.487  28.431  1.00  0.00     0.198 A 
ATOM     65  F   UNL A   1      37.415  33.914  29.679  1.00  0.00    -0.203 F 
ATOM     66  F   UNL A   1      33.809  30.368  27.626  1.00  0.00    -0.200 F 
ATOM     67  C   UNL A   1      34.546  32.594  27.907  1.00  0.00     0.200 A 
ATOM     68  F   UNL A   1      35.328  34.801  28.204  1.00  0.00    -0.200 F 
ATOM     69  F   UNL A   1      33.530  33.039  27.154  1.00  0.00    -0.200 F 
ENDBRANCH  45  59
BRANCH  46  70
ATOM     70  C   UNL A   1      44.189  27.985  34.919  1.00  0.00     0.064 A 
ATOM     71  C   UNL A   1      44.011  26.720  35.495  1.00  0.00     0.173 A 
ATOM     72  C   UNL A   1      45.431  28.614  35.080  1.00  0.00     0.173 A 
ATOM     73  F   UNL A   1      42.833  26.091  35.377  1.00  0.00    -0.203 F 
ATOM     74  C   UNL A   1      45.041  26.105  36.201  1.00  0.00     0.198 A 
ATOM     75  C   UNL A   1      46.466  27.986  35.768  1.00  0.00     0.198 A 
ATOM     76  F   UNL A   1      45.649  29.822  34.539  1.00  0.00    -0.203 F 
ATOM     77  F   UNL A   1      44.842  24.902  36.756  1.00  0.00    -0.200 F 
ATOM     78  C   UNL A   1      46.270  26.733  36.329  1.00  0.00     0.200 A 
ATOM     79  F   UNL A   1      47.659  28.588  35.874  1.00  0.00    -0.200 F 
ATOM     80  F   UNL A   1      47.268  26.129  36.990  1.00  0.00    -0.200 F 
ENDBRANCH  46  70
BRANCH  58  81
ATOM     81  C   UNL A   1      38.823  32.201  36.348  1.00  0.00     0.064 A 
ATOM     82  C   UNL A   1      38.026  31.533  37.291  1.00  0.00     0.173 A 
ATOM     83  C   UNL A   1      39.213  33.518  36.635  1.00  0.00     0.173 A 
ATOM     84  F   UNL A   1      37.613  30.279  37.056  1.00  0.00    -0.203 F 
ATOM     85  C   UNL A   1      37.617  32.168  38.461  1.00  0.00     0.198 A 
ATOM     86  C   UNL A   1      38.825  34.139  37.820  1.00  0.00     0.198 A 
ATOM     87  F   UNL A   1      39.977  34.202  35.771  1.00  0.00    -0.203 F 
ATOM     88  F   UNL A   1      36.817  31.525  39.324  1.00  0.00    -0.200 F 
ATOM     89  C   UNL A   1      38.022  33.466  38.728  1.00  0.00     0.200 A 
ATOM     90  F   UNL A   1      39.228  35.390  38.082  1.00  0.00    -0.200 F 
ATOM     91  F   UNL A   1      37.632  34.072  39.858  1.00  0.00    -0.200 F 
ENDBRANCH  58  81
ENDBRANCH  32  33
ENDBRANCH  25  27
ENDBRANCH  24  25
ENDBRANCH  23  24
ENDBRANCH  22  23
ENDBRANCH  21  22
ENDBRANCH   1  21
TORSDOF 18
ENDMDL
MODEL 3
REMARK VINA RESULT:     -10.8      5.665     10.640
REMARK SMILES C[C@H](NC(=O)CCn1ccccc1=O)C(=O)OCCOCCOC(=O)c1ccc(-c2c3nc(c(-c4c(F)c(F)c(F)c(F)c4F)c4ccc([nH]4)c(-c4c(F)c(F)c(F)c(F)c4F)c4nc(c(-c5c(F)c(F)c(F)c(F)c5F)c5ccc2[nH]5)C=C4)C=C3)cc1
REMARK SMILES IDX 19 1 18 2 17 3 15 4 16 5 2 6 1 7 3 8 4 9 5 11 6 12 7 13 8 14
REMARK SMILES IDX 9 15 13 16 10 17 12 18 14 19 11 20 20 21 21 22 22 23 23 24
REMARK SMILES IDX 24 25 25 26 26 27 27 28 88 29 28 30 87 31 29 32 30 33 31 34
REMARK SMILES IDX 81 35 32 36 86 37 80 38 82 39 33 40 85 41 79 42 78 43 34 45
REMARK SMILES IDX 66 46 46 47 65 48 47 49 50 50 64 51 83 52 48 53 49 54 63 56
REMARK SMILES IDX 84 57 51 58 35 59 36 60 44 61 37 62 38 63 42 64 45 65 39 66
REMARK SMILES IDX 40 67 43 68 41 69 67 70 68 71 76 72 69 73 70 74 74 75 77 76
REMARK SMILES IDX 71 77 72 78 75 79 73 80 52 81 53 82 61 83 54 84 55 85 59 86
REMARK SMILES IDX 62 87 56 88 57 89 60 90 58 91
REMARK H PARENT 3 10 82 44 50 55
REMARK Flexibility Score: inf
ROOT
ATOM      1  C   UNL A   1      38.315  23.400  26.125  1.00  0.00     0.202 C 
ENDROOT
BRANCH   1   2
ATOM      2  C   UNL A   1      36.814  23.178  25.975  1.00  0.00     0.261 C 
BRANCH   2   3
ATOM      3  O   UNL A   1      36.186  24.007  24.986  1.00  0.00    -0.462 OA
BRANCH   3   4
ATOM      4  C   UNL A   1      35.770  23.457  23.810  1.00  0.00     0.328 C 
ATOM      5  O   UNL A   1      36.499  23.036  22.925  1.00  0.00    -0.250 OA
BRANCH   4   6
ATOM      6  C   UNL A   1      34.236  23.391  23.821  1.00  0.00     0.189 C 
ATOM      7  C   UNL A   1      33.693  24.355  22.769  1.00  0.00     0.043 C 
BRANCH   6   8
ATOM      8  N   UNL A   1      33.597  23.602  25.117  1.00  0.00    -0.343 N 
ATOM      9  C   UNL A   1      33.019  22.720  25.975  1.00  0.00     0.222 C 
ATOM     10  H   UNL A   1      33.582  24.539  25.420  1.00  0.00     0.164 HD
ATOM     11  O   UNL A   1      32.407  23.181  26.942  1.00  0.00    -0.275 OA
BRANCH   9  12
ATOM     12  C   UNL A   1      33.193  21.219  25.835  1.00  0.00     0.122 C 
BRANCH  12  13
ATOM     13  C   UNL A   1      32.140  20.462  25.020  1.00  0.00     0.135 C 
BRANCH  13  14
ATOM     14  N   UNL A   1      32.506  19.086  24.650  1.00  0.00    -0.315 N 
ATOM     15  C   UNL A   1      32.807  18.156  25.638  1.00  0.00     0.089 A 
ATOM     16  C   UNL A   1      32.539  18.742  23.293  1.00  0.00     0.250 A 
ATOM     17  C   UNL A   1      33.281  16.942  25.332  1.00  0.00     0.018 A 
ATOM     18  C   UNL A   1      33.094  17.398  22.974  1.00  0.00     0.072 A 
ATOM     19  O   UNL A   1      32.208  19.483  22.372  1.00  0.00    -0.269 OA
ATOM     20  C   UNL A   1      33.470  16.569  23.956  1.00  0.00     0.007 A 
ENDBRANCH  13  14
ENDBRANCH  12  13
ENDBRANCH   9  12
ENDBRANCH   6   8
ENDBRANCH   4   6
ENDBRANCH   3   4
ENDBRANCH   2   3
ENDBRANCH   1   2
BRANCH   1  21
ATOM     21  O   UNL A   1      39.110  22.217  26.099  1.00  0.00    -0.374 OA
BRANCH  21  22
ATOM     22  C   UNL A   1      38.487  21.082  25.484  1.00  0.00     0.202 C 
BRANCH  22  23
ATOM     23  C   UNL A   1      39.368  19.833  25.299  1.00  0.00     0.261 C 
BRANCH  23  24
ATOM     24  O   UNL A   1      40.170  19.585  26.468  1.00  0.00    -0.460 OA
BRANCH  24  25
ATOM     25  C   UNL A   1      41.509  19.521  26.258  1.00  0.00     0.338 C 
ATOM     26  O   UNL A   1      42.123  18.620  25.719  1.00  0.00    -0.246 OA
BRANCH  25  27
ATOM     27  C   UNL A   1      42.107  20.851  26.539  1.00  0.00     0.060 A 
ATOM     28  C   UNL A   1      42.623  21.676  25.536  1.00  0.00     0.016 A 
ATOM     29  C   UNL A   1      42.200  21.237  27.884  1.00  0.00     0.016 A 
ATOM     30  C   UNL A   1      43.195  22.907  25.882  1.00  0.00     0.010 A 
ATOM     31  C   UNL A   1      42.783  22.456  28.229  1.00  0.00     0.010 A 
ATOM     32  C   UNL A   1      43.261  23.311  27.227  1.00  0.00    -0.014 A 
BRANCH  32  33
ATOM     33  C   UNL A   1      43.655  24.695  27.584  1.00  0.00     0.031 A 
ATOM     34  C   UNL A   1      45.083  25.139  27.617  1.00  0.00     0.074 A 
ATOM     35  C   UNL A   1      42.674  25.549  27.931  1.00  0.00     0.049 A 
ATOM     36  N   UNL A   1      45.569  26.326  27.884  1.00  0.00    -0.248 NA
ATOM     37  C   UNL A   1      46.099  24.121  27.323  1.00  0.00     0.031 C 
ATOM     38  C   UNL A   1      41.251  25.215  27.964  1.00  0.00     0.029 A 
ATOM     39  N   UNL A   1      42.722  26.862  28.320  1.00  0.00    -0.354 N 
ATOM     40  C   UNL A   1      46.945  26.212  27.757  1.00  0.00     0.074 A 
ATOM     41  C   UNL A   1      47.220  24.821  27.448  1.00  0.00     0.031 C 
ATOM     42  C   UNL A   1      40.555  26.302  28.325  1.00  0.00     0.029 A 
ATOM     43  C   UNL A   1      41.485  27.400  28.570  1.00  0.00     0.049 A 
ATOM     44  H   UNL A   1      43.560  27.369  28.411  1.00  0.00     0.167 HD
ATOM     45  C   UNL A   1      47.885  27.184  27.867  1.00  0.00     0.037 A 
ATOM     46  C   UNL A   1      41.136  28.644  28.946  1.00  0.00     0.037 A 
ATOM     47  C   UNL A   1      47.604  28.555  28.216  1.00  0.00     0.049 A 
ATOM     48  C   UNL A   1      42.201  29.683  29.133  1.00  0.00     0.074 A 
ATOM     49  C   UNL A   1      48.488  29.615  28.340  1.00  0.00     0.029 A 
ATOM     50  N   UNL A   1      46.343  29.058  28.513  1.00  0.00    -0.354 N 
ATOM     51  N   UNL A   1      43.495  29.581  28.954  1.00  0.00    -0.248 NA
ATOM     52  C   UNL A   1      41.755  31.013  29.567  1.00  0.00     0.031 C 
ATOM     53  C   UNL A   1      47.770  30.742  28.760  1.00  0.00     0.029 A 
ATOM     54  C   UNL A   1      46.431  30.401  28.847  1.00  0.00     0.049 A 
ATOM     55  H   UNL A   1      45.510  28.535  28.490  1.00  0.00     0.167 HD
ATOM     56  C   UNL A   1      44.019  30.834  29.235  1.00  0.00     0.074 A 
ATOM     57  C   UNL A   1      42.898  31.685  29.580  1.00  0.00     0.031 C 
ATOM     58  C   UNL A   1      45.312  31.238  29.207  1.00  0.00     0.037 A 
BRANCH  45  59
ATOM     59  C   UNL A   1      49.312  26.800  27.597  1.00  0.00     0.064 A 
ATOM     60  C   UNL A   1      49.842  26.840  26.297  1.00  0.00     0.173 A 
ATOM     61  C   UNL A   1      50.175  26.438  28.643  1.00  0.00     0.173 A 
ATOM     62  F   UNL A   1      49.060  27.173  25.260  1.00  0.00    -0.203 F 
ATOM     63  C   UNL A   1      51.172  26.508  26.052  1.00  0.00     0.198 A 
ATOM     64  C   UNL A   1      51.513  26.134  28.397  1.00  0.00     0.198 A 
ATOM     65  F   UNL A   1      49.726  26.393  29.905  1.00  0.00    -0.203 F 
ATOM     66  F   UNL A   1      51.641  26.510  24.796  1.00  0.00    -0.200 F 
ATOM     67  C   UNL A   1      52.007  26.161  27.103  1.00  0.00     0.200 A 
ATOM     68  F   UNL A   1      52.323  25.811  29.416  1.00  0.00    -0.200 F 
ATOM     69  F   UNL A   1      53.288  25.846  26.865  1.00  0.00    -0.200 F 
ENDBRANCH  45  59
BRANCH  46  70
ATOM     70  C   UNL A   1      39.697  28.972  29.096  1.00  0.00     0.064 A 
ATOM     71  C   UNL A   1      38.945  29.380  27.987  1.00  0.00     0.173 A 
ATOM     72  C   UNL A   1      39.034  28.819  30.322  1.00  0.00     0.173 A 
ATOM     73  F   UNL A   1      39.544  29.553  26.800  1.00  0.00    -0.203 F 
ATOM     74  C   UNL A   1      37.579  29.621  28.098  1.00  0.00     0.198 A 
ATOM     75  C   UNL A   1      37.663  29.039  30.425  1.00  0.00     0.198 A 
ATOM     76  F   UNL A   1      39.713  28.423  31.409  1.00  0.00    -0.203 F 
ATOM     77  F   UNL A   1      36.884  30.025  27.027  1.00  0.00    -0.200 F 
ATOM     78  C   UNL A   1      36.936  29.440  29.314  1.00  0.00     0.200 A 
ATOM     79  F   UNL A   1      37.042  28.846  31.597  1.00  0.00    -0.200 F 
ATOM     80  F   UNL A   1      35.616  29.650  29.414  1.00  0.00    -0.200 F 
ENDBRANCH  46  70
BRANCH  58  81
ATOM     81  C   UNL A   1      45.588  32.673  29.556  1.00  0.00     0.064 A 
ATOM     82  C   UNL A   1      45.870  33.068  30.873  1.00  0.00     0.173 A 
ATOM     83  C   UNL A   1      45.601  33.662  28.560  1.00  0.00     0.173 A 
ATOM     84  F   UNL A   1      45.854  32.164  31.865  1.00  0.00    -0.203 F 
ATOM     85  C   UNL A   1      46.131  34.400  31.183  1.00  0.00     0.198 A 
ATOM     86  C   UNL A   1      45.891  34.988  28.869  1.00  0.00     0.198 A 
ATOM     87  F   UNL A   1      45.341  33.340  27.284  1.00  0.00    -0.203 F 
ATOM     88  F   UNL A   1      46.352  34.759  32.455  1.00  0.00    -0.200 F 
ATOM     89  C   UNL A   1      46.149  35.357  30.181  1.00  0.00     0.200 A 
ATOM     90  F   UNL A   1      45.919  35.911  27.897  1.00  0.00    -0.200 F 
ATOM     91  F   UNL A   1      46.407  36.638  30.480  1.00  0.00    -0.200 F 
ENDBRANCH  58  81
ENDBRANCH  32  33
ENDBRANCH  25  27
ENDBRANCH  24  25
ENDBRANCH  23  24
ENDBRANCH  22  23
ENDBRANCH  21  22
ENDBRANCH   1  21
TORSDOF 18
ENDMDL
