MODEL 1
REMARK VINA RESULT:     -11.7      0.000      0.000
REMARK SMILES C/C=C(\C)[C@H]1C(C)=C[C@H]2CC[C@@H](OS(=O)(=O)[O-])[C@@H](C)[C@H]2[C@H]1/C=C/C=C/C(=O)OCCOCCOC(=O)c1ccc(-c2c3nc(c(-c4c(F)c(F)c(F)c(F)c4F)c4ccc([nH]4)c(-c4c(F)c(F)c(F)c(F)c4F)c4nc(c(-c5c(F)c(F)c(F)c(F)c5F)c5ccc2[nH]5)C=C4)C=C3)cc1
REMARK SMILES IDX 30 1 29 2 28 3 26 4 27 5 25 6 24 7 23 8 22 9 21 10 5 11 6 12
REMARK SMILES IDX 7 13 8 14 20 15 9 16 18 17 10 18 12 19 19 20 11 21 3 22 1 23
REMARK SMILES IDX 2 24 4 25 13 26 14 27 15 28 16 29 17 30 31 31 32 32 33 33
REMARK SMILES IDX 34 34 35 35 36 36 37 37 38 38 99 39 39 40 98 41 40 42 41 43
REMARK SMILES IDX 42 44 92 45 43 46 97 47 91 48 93 49 44 50 96 51 90 52 89 53
REMARK SMILES IDX 45 55 77 56 57 57 76 58 58 59 61 60 75 61 94 62 59 63 60 64
REMARK SMILES IDX 74 66 95 67 62 68 46 69 47 70 55 71 48 72 49 73 53 74 56 75
REMARK SMILES IDX 50 76 51 77 54 78 52 79 78 80 79 81 87 82 80 83 81 84 85 85
REMARK SMILES IDX 88 86 82 87 83 88 86 89 84 90 63 91 64 92 72 93 65 94 66 95
REMARK SMILES IDX 70 96 73 97 67 98 68 99 71 100 69 101
REMARK H PARENT 93 54 61 65
REMARK Flexibility Score: inf
ROOT
ATOM      1  C   UNL A   1      40.886  21.187  27.224  1.00  0.00     0.202 C 
ENDROOT
BRANCH   1   2
ATOM      2  C   UNL A   1      40.383  22.520  26.667  1.00  0.00     0.261 C 
BRANCH   2   3
ATOM      3  O   UNL A   1      38.957  22.482  26.501  1.00  0.00    -0.460 OA
BRANCH   3   4
ATOM      4  C   UNL A   1      38.373  23.696  26.424  1.00  0.00     0.330 C 
ATOM      5  O   UNL A   1      38.769  24.737  26.927  1.00  0.00    -0.247 OA
BRANCH   4   6
ATOM      6  C   UNL A   1      37.297  23.700  25.424  1.00  0.00     0.093 C 
ATOM      7  C   UNL A   1      37.166  22.993  24.286  1.00  0.00     0.007 C 
BRANCH   7   8
ATOM      8  C   UNL A   1      35.998  23.304  23.488  1.00  0.00    -0.004 C 
ATOM      9  C   UNL A   1      34.874  22.576  23.436  1.00  0.00    -0.022 C 
BRANCH   9  10
ATOM     10  C   UNL A   1      33.428  23.092  23.267  1.00  0.00     0.027 C 
ATOM     11  C   UNL A   1      32.330  22.216  24.093  1.00  0.00     0.047 C 
ATOM     12  C   UNL A   1      31.294  23.047  24.852  1.00  0.00    -0.069 C 
ATOM     13  C   UNL A   1      30.659  22.578  26.133  1.00  0.00     0.040 C 
ATOM     14  C   UNL A   1      30.901  24.236  24.355  1.00  0.00    -0.024 C 
ATOM     15  C   UNL A   1      33.110  24.656  23.257  1.00  0.00     0.009 C 
ATOM     16  C   UNL A   1      31.574  24.884  23.177  1.00  0.00     0.016 C 
ATOM     17  C   UNL A   1      33.754  25.563  24.358  1.00  0.00     0.021 C 
ATOM     18  C   UNL A   1      31.223  26.382  23.086  1.00  0.00     0.011 C 
ATOM     19  C   UNL A   1      33.314  27.045  24.292  1.00  0.00     0.141 C 
ATOM     20  C   UNL A   1      33.654  25.006  25.780  1.00  0.00     0.011 C 
ATOM     21  C   UNL A   1      31.804  27.220  24.226  1.00  0.00     0.034 C 
BRANCH  11  22
ATOM     22  C   UNL A   1      32.809  20.935  24.834  1.00  0.00    -0.070 C 
ATOM     23  C   UNL A   1      32.612  18.390  25.166  1.00  0.00     0.035 C 
ATOM     24  C   UNL A   1      32.485  19.687  24.434  1.00  0.00    -0.031 C 
ATOM     25  C   UNL A   1      33.627  21.195  26.077  1.00  0.00     0.040 C 
ENDBRANCH  11  22
BRANCH  19  26
ATOM     26  O   UNL A   1      34.027  27.797  25.274  1.00  0.00    -0.276 OA
BRANCH  26  27
ATOM     27  S   UNL A   1      33.328  28.782  26.355  1.00  0.00     0.217 S 
ATOM     28  O   UNL A   1      32.839  29.958  25.673  1.00  0.00    -0.213 OA
ATOM     29  O   UNL A   1      32.498  28.016  27.251  1.00  0.00    -0.213 OA
ATOM     30  O   UNL A   1      34.584  29.230  27.259  1.00  0.00    -0.726 OA
ENDBRANCH  26  27
ENDBRANCH  19  26
ENDBRANCH   9  10
ENDBRANCH   7   8
ENDBRANCH   4   6
ENDBRANCH   3   4
ENDBRANCH   2   3
ENDBRANCH   1   2
BRANCH   1  31
ATOM     31  O   UNL A   1      41.396  20.230  26.298  1.00  0.00    -0.374 OA
BRANCH  31  32
ATOM     32  C   UNL A   1      42.263  19.204  26.777  1.00  0.00     0.202 C 
BRANCH  32  33
ATOM     33  C   UNL A   1      43.072  18.397  25.751  1.00  0.00     0.261 C 
BRANCH  33  34
ATOM     34  O   UNL A   1      44.411  18.885  25.560  1.00  0.00    -0.460 OA
BRANCH  34  35
ATOM     35  C   UNL A   1      44.585  19.604  24.424  1.00  0.00     0.338 C 
ATOM     36  O   UNL A   1      44.326  19.263  23.282  1.00  0.00    -0.246 OA
BRANCH  35  37
ATOM     37  C   UNL A   1      44.966  20.990  24.754  1.00  0.00     0.060 A 
ATOM     38  C   UNL A   1      45.384  21.245  26.065  1.00  0.00     0.016 A 
ATOM     39  C   UNL A   1      44.832  22.031  23.834  1.00  0.00     0.016 A 
ATOM     40  C   UNL A   1      45.635  22.551  26.474  1.00  0.00     0.010 A 
ATOM     41  C   UNL A   1      45.078  23.345  24.251  1.00  0.00     0.010 A 
ATOM     42  C   UNL A   1      45.452  23.615  25.581  1.00  0.00    -0.014 A 
BRANCH  42  43
ATOM     43  C   UNL A   1      45.557  25.005  26.089  1.00  0.00     0.031 A 
ATOM     44  C   UNL A   1      46.880  25.719  26.040  1.00  0.00     0.074 A 
ATOM     45  C   UNL A   1      44.458  25.650  26.523  1.00  0.00     0.049 A 
ATOM     46  N   UNL A   1      47.180  26.940  26.409  1.00  0.00    -0.248 NA
ATOM     47  C   UNL A   1      48.019  24.959  25.502  1.00  0.00     0.031 C 
ATOM     48  C   UNL A   1      43.115  25.074  26.589  1.00  0.00     0.029 A 
ATOM     49  N   UNL A   1      44.297  26.931  26.988  1.00  0.00    -0.354 N 
ATOM     50  C   UNL A   1      48.533  27.096  26.142  1.00  0.00     0.074 A 
ATOM     51  C   UNL A   1      49.010  25.832  25.621  1.00  0.00     0.031 C 
ATOM     52  C   UNL A   1      42.267  25.999  27.068  1.00  0.00     0.029 A 
ATOM     53  C   UNL A   1      43.012  27.218  27.374  1.00  0.00     0.049 A 
ATOM     54  H   UNL A   1      45.034  27.582  27.039  1.00  0.00     0.167 HD
ATOM     55  C   UNL A   1      49.305  28.198  26.299  1.00  0.00     0.037 A 
ATOM     56  C   UNL A   1      42.500  28.332  27.932  1.00  0.00     0.037 A 
ATOM     57  C   UNL A   1      48.830  29.455  26.822  1.00  0.00     0.049 A 
ATOM     58  C   UNL A   1      43.399  29.519  28.163  1.00  0.00     0.074 A 
ATOM     59  C   UNL A   1      49.535  30.630  27.018  1.00  0.00     0.029 A 
ATOM     60  N   UNL A   1      47.529  29.698  27.237  1.00  0.00    -0.354 N 
ATOM     61  N   UNL A   1      44.671  29.665  27.881  1.00  0.00    -0.248 NA
ATOM     62  C   UNL A   1      42.786  30.702  28.783  1.00  0.00     0.031 C 
ATOM     63  C   UNL A   1      48.675  31.566  27.603  1.00  0.00     0.029 A 
ATOM     64  C   UNL A   1      47.417  30.996  27.711  1.00  0.00     0.049 A 
ATOM     65  H   UNL A   1      46.793  29.044  27.201  1.00  0.00     0.167 HD
ATOM     66  C   UNL A   1      45.002  30.961  28.261  1.00  0.00     0.074 A 
ATOM     67  C   UNL A   1      43.788  31.568  28.764  1.00  0.00     0.031 C 
ATOM     68  C   UNL A   1      46.202  31.590  28.207  1.00  0.00     0.037 A 
BRANCH  55  69
ATOM     69  C   UNL A   1      50.752  28.103  25.908  1.00  0.00     0.064 A 
ATOM     70  C   UNL A   1      51.161  28.206  24.569  1.00  0.00     0.173 A 
ATOM     71  C   UNL A   1      51.749  27.980  26.888  1.00  0.00     0.173 A 
ATOM     72  F   UNL A   1      50.248  28.314  23.591  1.00  0.00    -0.203 F 
ATOM     73  C   UNL A   1      52.510  28.174  24.226  1.00  0.00     0.198 A 
ATOM     74  C   UNL A   1      53.098  27.980  26.544  1.00  0.00     0.198 A 
ATOM     75  F   UNL A   1      51.415  27.884  28.183  1.00  0.00    -0.203 F 
ATOM     76  F   UNL A   1      52.875  28.238  22.938  1.00  0.00    -0.200 F 
ATOM     77  C   UNL A   1      53.478  28.071  25.214  1.00  0.00     0.200 A 
ATOM     78  F   UNL A   1      54.032  27.897  27.502  1.00  0.00    -0.200 F 
ATOM     79  F   UNL A   1      54.777  28.061  24.885  1.00  0.00    -0.200 F 
ENDBRANCH  55  69
BRANCH  56  80
ATOM     80  C   UNL A   1      41.069  28.378  28.341  1.00  0.00     0.064 A 
ATOM     81  C   UNL A   1      40.081  28.892  27.490  1.00  0.00     0.173 A 
ATOM     82  C   UNL A   1      40.670  27.957  29.619  1.00  0.00     0.173 A 
ATOM     83  F   UNL A   1      40.413  29.329  26.266  1.00  0.00    -0.203 F 
ATOM     84  C   UNL A   1      38.759  29.021  27.914  1.00  0.00     0.198 A 
ATOM     85  C   UNL A   1      39.341  28.049  30.029  1.00  0.00     0.198 A 
ATOM     86  F   UNL A   1      41.572  27.455  30.475  1.00  0.00    -0.203 F 
ATOM     87  F   UNL A   1      37.852  29.585  27.106  1.00  0.00    -0.200 F 
ATOM     88  C   UNL A   1      38.390  28.595  29.181  1.00  0.00     0.200 A 
ATOM     89  F   UNL A   1      38.987  27.621  31.247  1.00  0.00    -0.200 F 
ATOM     90  F   UNL A   1      37.121  28.725  29.591  1.00  0.00    -0.200 F 
ENDBRANCH  56  80
BRANCH  68  91
ATOM     91  C   UNL A   1      46.249  33.019  28.673  1.00  0.00     0.064 A 
ATOM     92  C   UNL A   1      46.512  33.352  30.011  1.00  0.00     0.173 A 
ATOM     93  C   UNL A   1      46.029  34.070  27.770  1.00  0.00     0.173 A 
ATOM     94  F   UNL A   1      46.717  32.387  30.920  1.00  0.00    -0.203 F 
ATOM     95  C   UNL A   1      46.504  34.679  30.435  1.00  0.00     0.198 A 
ATOM     96  C   UNL A   1      46.060  35.397  28.189  1.00  0.00     0.198 A 
ATOM     97  F   UNL A   1      45.784  33.812  26.476  1.00  0.00    -0.203 F 
ATOM     98  F   UNL A   1      46.683  34.967  31.732  1.00  0.00    -0.200 F 
ATOM     99  C   UNL A   1      46.283  35.700  29.524  1.00  0.00     0.200 A 
ATOM    100  F   UNL A   1      45.866  36.384  27.303  1.00  0.00    -0.200 F 
ATOM    101  F   UNL A   1      46.273  36.976  29.934  1.00  0.00    -0.200 F 
ENDBRANCH  68  91
ENDBRANCH  42  43
ENDBRANCH  35  37
ENDBRANCH  34  35
ENDBRANCH  33  34
ENDBRANCH  32  33
ENDBRANCH  31  32
ENDBRANCH   1  31
TORSDOF 19
ENDMDL
MODEL 2
REMARK VINA RESULT:     -11.3      5.258      9.590
REMARK SMILES C/C=C(\C)[C@H]1C(C)=C[C@H]2CC[C@@H](OS(=O)(=O)[O-])[C@@H](C)[C@H]2[C@H]1/C=C/C=C/C(=O)OCCOCCOC(=O)c1ccc(-c2c3nc(c(-c4c(F)c(F)c(F)c(F)c4F)c4ccc([nH]4)c(-c4c(F)c(F)c(F)c(F)c4F)c4nc(c(-c5c(F)c(F)c(F)c(F)c5F)c5ccc2[nH]5)C=C4)C=C3)cc1
REMARK SMILES IDX 30 1 29 2 28 3 26 4 27 5 25 6 24 7 23 8 22 9 21 10 5 11 6 12
REMARK SMILES IDX 7 13 8 14 20 15 9 16 18 17 10 18 12 19 19 20 11 21 3 22 1 23
REMARK SMILES IDX 2 24 4 25 13 26 14 27 15 28 16 29 17 30 31 31 32 32 33 33
REMARK SMILES IDX 34 34 35 35 36 36 37 37 38 38 99 39 39 40 98 41 40 42 41 43
REMARK SMILES IDX 42 44 92 45 43 46 97 47 91 48 93 49 44 50 96 51 90 52 89 53
REMARK SMILES IDX 45 55 77 56 57 57 76 58 58 59 61 60 75 61 94 62 59 63 60 64
REMARK SMILES IDX 74 66 95 67 62 68 46 69 47 70 55 71 48 72 49 73 53 74 56 75
REMARK SMILES IDX 50 76 51 77 54 78 52 79 78 80 79 81 87 82 80 83 81 84 85 85
REMARK SMILES IDX 88 86 82 87 83 88 86 89 84 90 63 91 64 92 72 93 65 94 66 95
REMARK SMILES IDX 70 96 73 97 67 98 68 99 71 100 69 101
REMARK H PARENT 93 54 61 65
REMARK Flexibility Score: inf
ROOT
ATOM      1  C   UNL A   1      41.940  21.154  26.280  1.00  0.00     0.202 C 
ENDROOT
BRANCH   1   2
ATOM      2  C   UNL A   1      40.517  20.625  26.471  1.00  0.00     0.261 C 
BRANCH   2   3
ATOM      3  O   UNL A   1      39.576  21.708  26.427  1.00  0.00    -0.460 OA
BRANCH   3   4
ATOM      4  C   UNL A   1      38.510  21.488  25.629  1.00  0.00     0.330 C 
ATOM      5  O   UNL A   1      38.308  20.511  24.923  1.00  0.00    -0.247 OA
BRANCH   4   6
ATOM      6  C   UNL A   1      37.446  22.467  25.889  1.00  0.00     0.093 C 
ATOM      7  C   UNL A   1      37.103  23.577  25.210  1.00  0.00     0.007 C 
BRANCH   7   8
ATOM      8  C   UNL A   1      36.037  24.362  25.796  1.00  0.00    -0.004 C 
ATOM      9  C   UNL A   1      34.983  24.862  25.135  1.00  0.00    -0.022 C 
BRANCH   9  10
ATOM     10  C   UNL A   1      33.542  25.039  25.661  1.00  0.00     0.027 C 
ATOM     11  C   UNL A   1      32.691  26.165  24.847  1.00  0.00     0.047 C 
ATOM     12  C   UNL A   1      31.262  25.750  24.492  1.00  0.00    -0.069 C 
ATOM     13  C   UNL A   1      30.555  26.248  23.261  1.00  0.00     0.040 C 
ATOM     14  C   UNL A   1      30.584  24.927  25.316  1.00  0.00    -0.024 C 
ATOM     15  C   UNL A   1      32.666  23.777  26.096  1.00  0.00     0.009 C 
ATOM     16  C   UNL A   1      31.231  24.237  26.484  1.00  0.00     0.016 C 
ATOM     17  C   UNL A   1      32.618  22.531  25.151  1.00  0.00     0.021 C 
ATOM     18  C   UNL A   1      30.372  23.060  26.987  1.00  0.00     0.011 C 
ATOM     19  C   UNL A   1      31.679  21.403  25.640  1.00  0.00     0.141 C 
ATOM     20  C   UNL A   1      32.384  22.862  23.675  1.00  0.00     0.011 C 
ATOM     21  C   UNL A   1      30.285  21.897  25.998  1.00  0.00     0.034 C 
BRANCH  11  22
ATOM     22  C   UNL A   1      33.419  26.997  23.753  1.00  0.00    -0.070 C 
ATOM     23  C   UNL A   1      34.127  29.306  22.861  1.00  0.00     0.035 C 
ATOM     24  C   UNL A   1      33.703  28.309  23.892  1.00  0.00    -0.031 C 
ATOM     25  C   UNL A   1      33.740  26.233  22.490  1.00  0.00     0.040 C 
ENDBRANCH  11  22
BRANCH  19  26
ATOM     26  O   UNL A   1      31.781  20.284  24.760  1.00  0.00    -0.276 OA
BRANCH  26  27
ATOM     27  S   UNL A   1      32.800  19.042  24.975  1.00  0.00     0.217 S 
ATOM     28  O   UNL A   1      34.146  19.483  24.685  1.00  0.00    -0.213 OA
ATOM     29  O   UNL A   1      32.470  18.341  26.191  1.00  0.00    -0.213 OA
ATOM     30  O   UNL A   1      32.354  18.036  23.800  1.00  0.00    -0.726 OA
ENDBRANCH  26  27
ENDBRANCH  19  26
ENDBRANCH   9  10
ENDBRANCH   7   8
ENDBRANCH   4   6
ENDBRANCH   3   4
ENDBRANCH   2   3
ENDBRANCH   1   2
BRANCH   1  31
ATOM     31  O   UNL A   1      42.779  20.480  25.344  1.00  0.00    -0.374 OA
BRANCH  31  32
ATOM     32  C   UNL A   1      44.190  20.673  25.423  1.00  0.00     0.202 C 
BRANCH  32  33
ATOM     33  C   UNL A   1      44.761  22.043  25.025  1.00  0.00     0.261 C 
BRANCH  33  34
ATOM     34  O   UNL A   1      44.648  23.037  26.058  1.00  0.00    -0.460 OA
BRANCH  34  35
ATOM     35  C   UNL A   1      44.565  24.310  25.600  1.00  0.00     0.338 C 
ATOM     36  O   UNL A   1      44.898  24.728  24.504  1.00  0.00    -0.246 OA
BRANCH  35  37
ATOM     37  C   UNL A   1      43.813  25.145  26.555  1.00  0.00     0.060 A 
ATOM     38  C   UNL A   1      44.171  26.495  26.647  1.00  0.00     0.016 A 
ATOM     39  C   UNL A   1      42.845  24.606  27.403  1.00  0.00     0.016 A 
ATOM     40  C   UNL A   1      43.589  27.306  27.616  1.00  0.00     0.010 A 
ATOM     41  C   UNL A   1      42.266  25.422  28.383  1.00  0.00     0.010 A 
ATOM     42  C   UNL A   1      42.657  26.768  28.514  1.00  0.00    -0.014 A 
BRANCH  42  43
ATOM     43  C   UNL A   1      42.183  27.606  29.644  1.00  0.00     0.031 A 
ATOM     44  C   UNL A   1      40.925  28.416  29.495  1.00  0.00     0.074 A 
ATOM     45  C   UNL A   1      42.836  27.583  30.821  1.00  0.00     0.049 A 
ATOM     46  N   UNL A   1      40.328  29.192  30.366  1.00  0.00    -0.248 NA
ATOM     47  C   UNL A   1      40.245  28.343  28.192  1.00  0.00     0.031 C 
ATOM     48  C   UNL A   1      44.049  26.814  31.096  1.00  0.00     0.029 A 
ATOM     49  N   UNL A   1      42.568  28.223  32.005  1.00  0.00    -0.354 N 
ATOM     50  C   UNL A   1      39.203  29.690  29.722  1.00  0.00     0.074 A 
ATOM     51  C   UNL A   1      39.222  29.167  28.373  1.00  0.00     0.031 C 
ATOM     52  C   UNL A   1      44.422  27.027  32.369  1.00  0.00     0.029 A 
ATOM     53  C   UNL A   1      43.495  27.973  32.986  1.00  0.00     0.049 A 
ATOM     54  H   UNL A   1      41.786  28.806  32.138  1.00  0.00     0.167 HD
ATOM     55  C   UNL A   1      38.234  30.496  30.217  1.00  0.00     0.037 A 
ATOM     56  C   UNL A   1      43.595  28.470  34.234  1.00  0.00     0.037 A 
ATOM     57  C   UNL A   1      38.219  31.021  31.560  1.00  0.00     0.049 A 
ATOM     58  C   UNL A   1      42.540  29.424  34.733  1.00  0.00     0.074 A 
ATOM     59  C   UNL A   1      37.279  31.845  32.155  1.00  0.00     0.029 A 
ATOM     60  N   UNL A   1      39.194  30.775  32.515  1.00  0.00    -0.354 N 
ATOM     61  N   UNL A   1      41.466  29.866  34.125  1.00  0.00    -0.248 NA
ATOM     62  C   UNL A   1      42.708  29.939  36.099  1.00  0.00     0.031 C 
ATOM     63  C   UNL A   1      37.713  32.143  33.450  1.00  0.00     0.029 A 
ATOM     64  C   UNL A   1      38.891  31.452  33.687  1.00  0.00     0.049 A 
ATOM     65  H   UNL A   1      39.986  30.205  32.381  1.00  0.00     0.167 HD
ATOM     66  C   UNL A   1      40.818  30.687  35.042  1.00  0.00     0.074 A 
ATOM     67  C   UNL A   1      41.604  30.653  36.257  1.00  0.00     0.031 C 
ATOM     68  C   UNL A   1      39.680  31.409  34.891  1.00  0.00     0.037 A 
BRANCH  55  69
ATOM     69  C   UNL A   1      37.102  30.874  29.304  1.00  0.00     0.064 A 
ATOM     70  C   UNL A   1      36.077  29.968  28.989  1.00  0.00     0.173 A 
ATOM     71  C   UNL A   1      37.000  32.179  28.796  1.00  0.00     0.173 A 
ATOM     72  F   UNL A   1      36.131  28.705  29.439  1.00  0.00    -0.203 F 
ATOM     73  C   UNL A   1      35.004  30.349  28.188  1.00  0.00     0.198 A 
ATOM     74  C   UNL A   1      35.910  32.564  28.021  1.00  0.00     0.198 A 
ATOM     75  F   UNL A   1      37.948  33.086  29.071  1.00  0.00    -0.203 F 
ATOM     76  F   UNL A   1      34.056  29.456  27.871  1.00  0.00    -0.200 F 
ATOM     77  C   UNL A   1      34.915  31.649  27.713  1.00  0.00     0.200 A 
ATOM     78  F   UNL A   1      35.818  33.826  27.578  1.00  0.00    -0.200 F 
ATOM     79  F   UNL A   1      33.872  32.020  26.959  1.00  0.00    -0.200 F 
ENDBRANCH  55  69
BRANCH  56  80
ATOM     80  C   UNL A   1      44.751  28.103  35.098  1.00  0.00     0.064 A 
ATOM     81  C   UNL A   1      45.968  28.795  35.025  1.00  0.00     0.173 A 
ATOM     82  C   UNL A   1      44.676  27.012  35.978  1.00  0.00     0.173 A 
ATOM     83  F   UNL A   1      46.099  29.831  34.184  1.00  0.00    -0.203 F 
ATOM     84  C   UNL A   1      47.076  28.386  35.766  1.00  0.00     0.198 A 
ATOM     85  C   UNL A   1      45.772  26.628  36.748  1.00  0.00     0.198 A 
ATOM     86  F   UNL A   1      43.536  26.314  36.090  1.00  0.00    -0.203 F 
ATOM     87  F   UNL A   1      48.246  29.020  35.620  1.00  0.00    -0.200 F 
ATOM     88  C   UNL A   1      46.975  27.306  36.631  1.00  0.00     0.200 A 
ATOM     89  F   UNL A   1      45.665  25.595  37.594  1.00  0.00    -0.200 F 
ATOM     90  F   UNL A   1      48.042  26.910  37.338  1.00  0.00    -0.200 F 
ENDBRANCH  56  80
BRANCH  68  91
ATOM     91  C   UNL A   1      39.202  32.193  36.082  1.00  0.00     0.064 A 
ATOM     92  C   UNL A   1      39.620  33.513  36.315  1.00  0.00     0.173 A 
ATOM     93  C   UNL A   1      38.314  31.617  37.004  1.00  0.00     0.173 A 
ATOM     94  F   UNL A   1      40.479  34.107  35.473  1.00  0.00    -0.203 F 
ATOM     95  C   UNL A   1      39.205  34.207  37.449  1.00  0.00     0.198 A 
ATOM     96  C   UNL A   1      37.870  32.328  38.115  1.00  0.00     0.198 A 
ATOM     97  F   UNL A   1      37.872  30.363  36.826  1.00  0.00    -0.203 F 
ATOM     98  F   UNL A   1      39.678  35.438  37.687  1.00  0.00    -0.200 F 
ATOM     99  C   UNL A   1      38.328  33.617  38.345  1.00  0.00     0.200 A 
ATOM    100  F   UNL A   1      37.007  31.763  38.970  1.00  0.00    -0.200 F 
ATOM    101  F   UNL A   1      37.932  34.285  39.437  1.00  0.00    -0.200 F 
ENDBRANCH  68  91
ENDBRANCH  42  43
ENDBRANCH  35  37
ENDBRANCH  34  35
ENDBRANCH  33  34
ENDBRANCH  32  33
ENDBRANCH  31  32
ENDBRANCH   1  31
TORSDOF 19
ENDMDL
MODEL 3
REMARK VINA RESULT:     -11.3      0.679      7.006
REMARK SMILES C/C=C(\C)[C@H]1C(C)=C[C@H]2CC[C@@H](OS(=O)(=O)[O-])[C@@H](C)[C@H]2[C@H]1/C=C/C=C/C(=O)OCCOCCOC(=O)c1ccc(-c2c3nc(c(-c4c(F)c(F)c(F)c(F)c4F)c4ccc([nH]4)c(-c4c(F)c(F)c(F)c(F)c4F)c4nc(c(-c5c(F)c(F)c(F)c(F)c5F)c5ccc2[nH]5)C=C4)C=C3)cc1
REMARK SMILES IDX 30 1 29 2 28 3 26 4 27 5 25 6 24 7 23 8 22 9 21 10 5 11 6 12
REMARK SMILES IDX 7 13 8 14 20 15 9 16 18 17 10 18 12 19 19 20 11 21 3 22 1 23
REMARK SMILES IDX 2 24 4 25 13 26 14 27 15 28 16 29 17 30 31 31 32 32 33 33
REMARK SMILES IDX 34 34 35 35 36 36 37 37 38 38 99 39 39 40 98 41 40 42 41 43
REMARK SMILES IDX 42 44 92 45 43 46 97 47 91 48 93 49 44 50 96 51 90 52 89 53
REMARK SMILES IDX 45 55 77 56 57 57 76 58 58 59 61 60 75 61 94 62 59 63 60 64
REMARK SMILES IDX 74 66 95 67 62 68 46 69 47 70 55 71 48 72 49 73 53 74 56 75
REMARK SMILES IDX 50 76 51 77 54 78 52 79 78 80 79 81 87 82 80 83 81 84 85 85
REMARK SMILES IDX 88 86 82 87 83 88 86 89 84 90 63 91 64 92 72 93 65 94 66 95
REMARK SMILES IDX 70 96 73 97 67 98 68 99 71 100 69 101
REMARK H PARENT 93 54 61 65
REMARK Flexibility Score: inf
ROOT
ATOM      1  C   UNL A   1      41.363  21.596  26.134  1.00  0.00     0.202 C 
ENDROOT
BRANCH   1   2
ATOM      2  C   UNL A   1      40.024  21.783  26.849  1.00  0.00     0.261 C 
BRANCH   2   3
ATOM      3  O   UNL A   1      39.102  22.484  26.001  1.00  0.00    -0.460 OA
BRANCH   3   4
ATOM      4  C   UNL A   1      38.206  21.691  25.378  1.00  0.00     0.330 C 
ATOM      5  O   UNL A   1      38.180  20.469  25.375  1.00  0.00    -0.247 OA
BRANCH   4   6
ATOM      6  C   UNL A   1      37.066  22.473  24.882  1.00  0.00     0.093 C 
ATOM      7  C   UNL A   1      36.560  22.579  23.639  1.00  0.00     0.007 C 
BRANCH   7   8
ATOM      8  C   UNL A   1      35.461  23.510  23.489  1.00  0.00    -0.004 C 
ATOM      9  C   UNL A   1      34.382  23.324  22.715  1.00  0.00    -0.022 C 
BRANCH   9  10
ATOM     10  C   UNL A   1      32.937  23.793  22.991  1.00  0.00     0.027 C 
ATOM     11  C   UNL A   1      32.075  22.736  23.883  1.00  0.00     0.047 C 
ATOM     12  C   UNL A   1      31.250  23.373  25.002  1.00  0.00    -0.069 C 
ATOM     13  C   UNL A   1      30.947  22.660  26.292  1.00  0.00     0.040 C 
ATOM     14  C   UNL A   1      30.744  24.611  24.835  1.00  0.00    -0.024 C 
ATOM     15  C   UNL A   1      32.620  25.318  23.338  1.00  0.00     0.009 C 
ATOM     16  C   UNL A   1      31.109  25.484  23.667  1.00  0.00     0.016 C 
ATOM     17  C   UNL A   1      33.508  26.050  24.399  1.00  0.00     0.021 C 
ATOM     18  C   UNL A   1      30.742  26.957  23.933  1.00  0.00     0.011 C 
ATOM     19  C   UNL A   1      33.060  27.498  24.706  1.00  0.00     0.141 C 
ATOM     20  C   UNL A   1      33.757  25.250  25.679  1.00  0.00     0.011 C 
ATOM     21  C   UNL A   1      31.579  27.611  25.033  1.00  0.00     0.034 C 
BRANCH  11  22
ATOM     22  C   UNL A   1      32.723  21.370  24.246  1.00  0.00    -0.070 C 
ATOM     23  C   UNL A   1      32.829  18.824  23.877  1.00  0.00     0.035 C 
ATOM     24  C   UNL A   1      32.527  20.246  23.525  1.00  0.00    -0.031 C 
ATOM     25  C   UNL A   1      33.554  21.383  25.507  1.00  0.00     0.040 C 
ENDBRANCH  11  22
BRANCH  19  26
ATOM     26  O   UNL A   1      33.987  28.101  25.609  1.00  0.00    -0.276 OA
BRANCH  26  27
ATOM     27  S   UNL A   1      33.562  28.948  26.925  1.00  0.00     0.217 S 
ATOM     28  O   UNL A   1      32.521  28.234  27.628  1.00  0.00    -0.213 OA
ATOM     29  O   UNL A   1      34.742  29.437  27.595  1.00  0.00    -0.213 OA
ATOM     30  O   UNL A   1      32.898  30.263  26.275  1.00  0.00    -0.726 OA
ENDBRANCH  26  27
ENDBRANCH  19  26
ENDBRANCH   9  10
ENDBRANCH   7   8
ENDBRANCH   4   6
ENDBRANCH   3   4
ENDBRANCH   2   3
ENDBRANCH   1   2
BRANCH   1  31
ATOM     31  O   UNL A   1      41.585  20.363  25.452  1.00  0.00    -0.374 OA
BRANCH  31  32
ATOM     32  C   UNL A   1      42.170  19.278  26.170  1.00  0.00     0.202 C 
BRANCH  32  33
ATOM     33  C   UNL A   1      43.346  18.529  25.525  1.00  0.00     0.261 C 
BRANCH  33  34
ATOM     34  O   UNL A   1      43.740  19.064  24.250  1.00  0.00    -0.460 OA
BRANCH  34  35
ATOM     35  C   UNL A   1      44.985  19.601  24.232  1.00  0.00     0.338 C 
ATOM     36  O   UNL A   1      45.983  19.144  23.701  1.00  0.00    -0.246 OA
BRANCH  35  37
ATOM     37  C   UNL A   1      44.957  20.964  24.794  1.00  0.00     0.060 A 
ATOM     38  C   UNL A   1      44.684  22.016  23.912  1.00  0.00     0.016 A 
ATOM     39  C   UNL A   1      45.279  21.220  26.127  1.00  0.00     0.016 A 
ATOM     40  C   UNL A   1      44.768  23.334  24.351  1.00  0.00     0.010 A 
ATOM     41  C   UNL A   1      45.371  22.547  26.565  1.00  0.00     0.010 A 
ATOM     42  C   UNL A   1      45.145  23.611  25.672  1.00  0.00    -0.014 A 
BRANCH  42  43
ATOM     43  C   UNL A   1      45.397  25.019  26.066  1.00  0.00     0.031 A 
ATOM     44  C   UNL A   1      44.278  25.843  26.644  1.00  0.00     0.074 A 
ATOM     45  C   UNL A   1      46.637  25.534  25.975  1.00  0.00     0.049 A 
ATOM     46  N   UNL A   1      44.294  27.081  27.072  1.00  0.00    -0.248 NA
ATOM     47  C   UNL A   1      42.967  25.186  26.756  1.00  0.00     0.031 C 
ATOM     48  C   UNL A   1      47.807  24.824  25.461  1.00  0.00     0.029 A 
ATOM     49  N   UNL A   1      47.118  26.773  26.317  1.00  0.00    -0.354 N 
ATOM     50  C   UNL A   1      43.004  27.347  27.511  1.00  0.00     0.074 A 
ATOM     51  C   UNL A   1      42.217  26.159  27.256  1.00  0.00     0.031 C 
ATOM     52  C   UNL A   1      48.873  25.640  25.520  1.00  0.00     0.029 A 
ATOM     53  C   UNL A   1      48.453  26.939  26.043  1.00  0.00     0.049 A 
ATOM     54  H   UNL A   1      46.560  27.476  26.720  1.00  0.00     0.167 HD
ATOM     55  C   UNL A   1      42.523  28.473  28.090  1.00  0.00     0.037 A 
ATOM     56  C   UNL A   1      49.241  28.023  26.178  1.00  0.00     0.037 A 
ATOM     57  C   UNL A   1      43.306  29.657  28.339  1.00  0.00     0.049 A 
ATOM     58  C   UNL A   1      48.659  29.286  26.757  1.00  0.00     0.074 A 
ATOM     59  C   UNL A   1      42.909  30.849  28.922  1.00  0.00     0.029 A 
ATOM     60  N   UNL A   1      44.647  29.801  28.014  1.00  0.00    -0.354 N 
ATOM     61  N   UNL A   1      47.445  29.518  27.195  1.00  0.00    -0.248 NA
ATOM     62  C   UNL A   1      49.565  30.438  26.872  1.00  0.00     0.031 C 
ATOM     63  C   UNL A   1      43.993  31.732  28.899  1.00  0.00     0.029 A 
ATOM     64  C   UNL A   1      45.085  31.070  28.362  1.00  0.00     0.049 A 
ATOM     65  H   UNL A   1      45.206  29.105  27.597  1.00  0.00     0.167 HD
ATOM     66  C   UNL A   1      47.449  30.828  27.660  1.00  0.00     0.074 A 
ATOM     67  C   UNL A   1      48.795  31.328  27.482  1.00  0.00     0.031 C 
ATOM     68  C   UNL A   1      46.430  31.555  28.181  1.00  0.00     0.037 A 
BRANCH  55  69
ATOM     69  C   UNL A   1      41.076  28.492  28.494  1.00  0.00     0.064 A 
ATOM     70  C   UNL A   1      40.668  28.119  29.785  1.00  0.00     0.173 A 
ATOM     71  C   UNL A   1      40.093  28.954  27.605  1.00  0.00     0.173 A 
ATOM     72  F   UNL A   1      41.565  27.659  30.669  1.00  0.00    -0.203 F 
ATOM     73  C   UNL A   1      39.330  28.196  30.163  1.00  0.00     0.198 A 
ATOM     74  C   UNL A   1      38.762  29.059  27.998  1.00  0.00     0.198 A 
ATOM     75  F   UNL A   1      40.429  29.328  26.362  1.00  0.00    -0.203 F 
ATOM     76  F   UNL A   1      38.959  27.802  31.389  1.00  0.00    -0.200 F 
ATOM     77  C   UNL A   1      38.380  28.675  29.274  1.00  0.00     0.200 A 
ATOM     78  F   UNL A   1      37.848  29.538  27.143  1.00  0.00    -0.200 F 
ATOM     79  F   UNL A   1      37.096  28.767  29.647  1.00  0.00    -0.200 F 
ENDBRANCH  55  69
BRANCH  56  80
ATOM     80  C   UNL A   1      50.661  27.980  25.732  1.00  0.00     0.064 A 
ATOM     81  C   UNL A   1      51.005  28.057  24.376  1.00  0.00     0.173 A 
ATOM     82  C   UNL A   1      51.702  27.805  26.657  1.00  0.00     0.173 A 
ATOM     83  F   UNL A   1      50.045  28.202  23.449  1.00  0.00    -0.203 F 
ATOM     84  C   UNL A   1      52.327  27.920  23.957  1.00  0.00     0.198 A 
ATOM     85  C   UNL A   1      53.029  27.708  26.241  1.00  0.00     0.198 A 
ATOM     86  F   UNL A   1      51.433  27.726  27.968  1.00  0.00    -0.203 F 
ATOM     87  F   UNL A   1      52.617  27.923  22.649  1.00  0.00    -0.200 F 
ATOM     88  C   UNL A   1      53.339  27.750  24.891  1.00  0.00     0.200 A 
ATOM     89  F   UNL A   1      54.003  27.560  27.148  1.00  0.00    -0.200 F 
ATOM     90  F   UNL A   1      54.609  27.612  24.488  1.00  0.00    -0.200 F 
ENDBRANCH  56  80
BRANCH  68  91
ATOM     91  C   UNL A   1      46.745  32.957  28.626  1.00  0.00     0.064 A 
ATOM     92  C   UNL A   1      47.187  33.237  29.929  1.00  0.00     0.173 A 
ATOM     93  C   UNL A   1      46.603  34.035  27.738  1.00  0.00     0.173 A 
ATOM     94  F   UNL A   1      47.328  32.246  30.822  1.00  0.00    -0.203 F 
ATOM     95  C   UNL A   1      47.429  34.547  30.338  1.00  0.00     0.198 A 
ATOM     96  C   UNL A   1      46.883  35.338  28.140  1.00  0.00     0.198 A 
ATOM     97  F   UNL A   1      46.194  33.825  26.478  1.00  0.00    -0.203 F 
ATOM     98  F   UNL A   1      47.778  34.795  31.608  1.00  0.00    -0.200 F 
ATOM     99  C   UNL A   1      47.281  35.595  29.443  1.00  0.00     0.200 A 
ATOM    100  F   UNL A   1      46.758  36.348  27.267  1.00  0.00    -0.200 F 
ATOM    101  F   UNL A   1      47.510  36.855  29.839  1.00  0.00    -0.200 F 
ENDBRANCH  68  91
ENDBRANCH  42  43
ENDBRANCH  35  37
ENDBRANCH  34  35
ENDBRANCH  33  34
ENDBRANCH  32  33
ENDBRANCH  31  32
ENDBRANCH   1  31
TORSDOF 19
ENDMDL
