MODEL 1
REMARK VINA RESULT:     -10.3      0.000      0.000
REMARK SMILES CC[C@@H]1CCCN1C(=O)N(CC(=O)OCCOCCOC(=O)c1ccc(-c2c3nc(c(-c4c(F)c(F)c(F)c(F)c4F)c4ccc([nH]4)c(-c4c(F)c(F)c(F)c(F)c4F)c4nc(c(-c5c(F)c(F)c(F)c(F)c5F)c5ccc2[nH]5)C=C4)C=C3)cc1)CC(F)(F)F
REMARK SMILES IDX 16 1 15 2 14 3 12 4 13 5 11 6 10 7 8 8 9 9 7 10 3 11 4 12
REMARK SMILES IDX 5 13 6 14 2 15 1 16 86 17 87 18 88 19 89 20 90 21 17 22
REMARK SMILES IDX 18 23 19 24 20 25 21 26 22 27 23 28 24 29 85 30 25 31 84 32
REMARK SMILES IDX 26 33 27 34 28 35 78 36 29 37 83 38 77 39 79 40 30 41 82 42
REMARK SMILES IDX 76 43 75 44 31 46 63 47 43 48 62 49 44 50 47 51 61 52 80 53
REMARK SMILES IDX 45 54 46 55 60 57 81 58 48 59 32 60 33 61 41 62 34 63 35 64
REMARK SMILES IDX 39 65 42 66 36 67 37 68 40 69 38 70 64 71 65 72 73 73 66 74
REMARK SMILES IDX 67 75 71 76 74 77 68 78 69 79 72 80 70 81 49 82 50 83 58 84
REMARK SMILES IDX 51 85 52 86 56 87 59 88 53 89 54 90 57 91 55 92
REMARK H PARENT 79 45 47 56
REMARK Flexibility Score: inf
ROOT
ATOM      1  C   UNL A   1      30.467  28.752  23.385  1.00  0.00     0.202 C 
ENDROOT
BRANCH   1   2
ATOM      2  C   UNL A   1      30.804  27.271  23.195  1.00  0.00     0.261 C 
BRANCH   2   3
ATOM      3  O   UNL A   1      31.264  26.925  21.873  1.00  0.00    -0.462 OA
BRANCH   3   4
ATOM      4  C   UNL A   1      32.195  25.929  21.816  1.00  0.00     0.325 C 
ATOM      5  O   UNL A   1      33.271  26.014  21.234  1.00  0.00    -0.250 OA
BRANCH   4   6
ATOM      6  C   UNL A   1      31.765  24.635  22.517  1.00  0.00     0.244 C 
BRANCH   6   7
ATOM      7  N   UNL A   1      32.651  24.039  23.518  1.00  0.00    -0.304 N 
BRANCH   7   8
ATOM      8  C   UNL A   1      33.613  23.084  23.323  1.00  0.00     0.321 C 
ATOM      9  O   UNL A   1      34.503  23.332  22.499  1.00  0.00    -0.248 OA
BRANCH   8  10
ATOM     10  N   UNL A   1      33.645  21.874  23.960  1.00  0.00    -0.322 N 
ATOM     11  C   UNL A   1      34.409  21.260  25.066  1.00  0.00     0.086 C 
ATOM     12  C   UNL A   1      33.942  19.788  25.086  1.00  0.00     0.027 C 
ATOM     13  C   UNL A   1      32.530  19.853  24.554  1.00  0.00     0.024 C 
ATOM     14  C   UNL A   1      32.651  20.908  23.477  1.00  0.00     0.122 C 
BRANCH  11  15
ATOM     15  C   UNL A   1      35.941  21.274  25.008  1.00  0.00     0.022 C 
ATOM     16  C   UNL A   1      36.611  19.911  24.997  1.00  0.00     0.006 C 
ENDBRANCH  11  15
ENDBRANCH   8  10
ENDBRANCH   7   8
BRANCH   7  17
ATOM     17  C   UNL A   1      32.762  24.822  24.780  1.00  0.00     0.237 C 
BRANCH  17  18
ATOM     18  C   UNL A   1      34.039  25.635  25.073  1.00  0.00     0.406 C 
ATOM     19  F   UNL A   1      34.404  26.453  24.065  1.00  0.00    -0.169 F 
ATOM     20  F   UNL A   1      33.802  26.454  26.136  1.00  0.00    -0.169 F 
ATOM     21  F   UNL A   1      35.089  24.857  25.412  1.00  0.00    -0.169 F 
ENDBRANCH  17  18
ENDBRANCH   7  17
ENDBRANCH   6   7
ENDBRANCH   4   6
ENDBRANCH   3   4
ENDBRANCH   2   3
ENDBRANCH   1   2
BRANCH   1  22
ATOM     22  O   UNL A   1      31.562  29.632  23.610  1.00  0.00    -0.374 OA
BRANCH  22  23
ATOM     23  C   UNL A   1      32.173  29.606  24.896  1.00  0.00     0.202 C 
BRANCH  23  24
ATOM     24  C   UNL A   1      31.621  30.589  25.936  1.00  0.00     0.261 C 
BRANCH  24  25
ATOM     25  O   UNL A   1      32.354  30.558  27.177  1.00  0.00    -0.460 OA
BRANCH  25  26
ATOM     26  C   UNL A   1      33.175  31.623  27.362  1.00  0.00     0.338 C 
ATOM     27  O   UNL A   1      32.859  32.802  27.364  1.00  0.00    -0.246 OA
BRANCH  26  28
ATOM     28  C   UNL A   1      34.544  31.206  27.722  1.00  0.00     0.060 A 
ATOM     29  C   UNL A   1      34.746  29.852  28.016  1.00  0.00     0.016 A 
ATOM     30  C   UNL A   1      35.560  32.135  27.957  1.00  0.00     0.016 A 
ATOM     31  C   UNL A   1      35.938  29.433  28.609  1.00  0.00     0.010 A 
ATOM     32  C   UNL A   1      36.759  31.712  28.550  1.00  0.00     0.010 A 
ATOM     33  C   UNL A   1      36.933  30.368  28.925  1.00  0.00    -0.014 A 
BRANCH  33  34
ATOM     34  C   UNL A   1      38.075  29.947  29.780  1.00  0.00     0.031 A 
ATOM     35  C   UNL A   1      39.087  28.972  29.238  1.00  0.00     0.074 A 
ATOM     36  C   UNL A   1      38.250  30.472  31.005  1.00  0.00     0.049 A 
ATOM     37  N   UNL A   1      40.189  28.525  29.788  1.00  0.00    -0.248 NA
ATOM     38  C   UNL A   1      38.824  28.430  27.895  1.00  0.00     0.031 C 
ATOM     39  C   UNL A   1      37.360  31.438  31.643  1.00  0.00     0.029 A 
ATOM     40  N   UNL A   1      39.244  30.265  31.930  1.00  0.00    -0.354 N 
ATOM     41  C   UNL A   1      40.750  27.656  28.861  1.00  0.00     0.074 A 
ATOM     42  C   UNL A   1      39.852  27.611  27.727  1.00  0.00     0.031 C 
ATOM     43  C   UNL A   1      37.847  31.740  32.859  1.00  0.00     0.029 A 
ATOM     44  C   UNL A   1      39.072  30.977  33.091  1.00  0.00     0.049 A 
ATOM     45  H   UNL A   1      40.007  29.663  31.775  1.00  0.00     0.167 HD
ATOM     46  C   UNL A   1      41.914  26.967  28.940  1.00  0.00     0.037 A 
ATOM     47  C   UNL A   1      39.814  31.005  34.214  1.00  0.00     0.037 A 
ATOM     48  C   UNL A   1      42.817  27.008  30.060  1.00  0.00     0.049 A 
ATOM     49  C   UNL A   1      41.078  30.190  34.299  1.00  0.00     0.074 A 
ATOM     50  C   UNL A   1      44.041  26.379  30.207  1.00  0.00     0.029 A 
ATOM     51  N   UNL A   1      42.586  27.710  31.234  1.00  0.00    -0.354 N 
ATOM     52  N   UNL A   1      41.627  29.417  33.394  1.00  0.00    -0.248 NA
ATOM     53  C   UNL A   1      41.828  30.258  35.563  1.00  0.00     0.031 C 
ATOM     54  C   UNL A   1      44.530  26.662  31.487  1.00  0.00     0.029 A 
ATOM     55  C   UNL A   1      43.631  27.503  32.121  1.00  0.00     0.049 A 
ATOM     56  H   UNL A   1      41.797  28.272  31.410  1.00  0.00     0.167 HD
ATOM     57  C   UNL A   1      42.793  28.924  33.969  1.00  0.00     0.074 A 
ATOM     58  C   UNL A   1      42.881  29.497  35.295  1.00  0.00     0.031 C 
ATOM     59  C   UNL A   1      43.708  28.074  33.441  1.00  0.00     0.037 A 
BRANCH  46  60
ATOM     60  C   UNL A   1      42.279  26.093  27.777  1.00  0.00     0.064 A 
ATOM     61  C   UNL A   1      43.173  26.523  26.786  1.00  0.00     0.173 A 
ATOM     62  C   UNL A   1      41.759  24.793  27.676  1.00  0.00     0.173 A 
ATOM     63  F   UNL A   1      43.691  27.760  26.835  1.00  0.00    -0.203 F 
ATOM     64  C   UNL A   1      43.517  25.693  25.723  1.00  0.00     0.198 A 
ATOM     65  C   UNL A   1      42.123  23.957  26.624  1.00  0.00     0.198 A 
ATOM     66  F   UNL A   1      40.905  24.333  28.603  1.00  0.00    -0.203 F 
ATOM     67  F   UNL A   1      44.345  26.136  24.768  1.00  0.00    -0.200 F 
ATOM     68  C   UNL A   1      42.996  24.409  25.646  1.00  0.00     0.200 A 
ATOM     69  F   UNL A   1      41.627  22.713  26.557  1.00  0.00    -0.200 F 
ATOM     70  F   UNL A   1      43.333  23.608  24.626  1.00  0.00    -0.200 F 
ENDBRANCH  46  60
BRANCH  47  71
ATOM     71  C   UNL A   1      39.380  31.841  35.362  1.00  0.00     0.064 A 
ATOM     72  C   UNL A   1      38.474  31.353  36.313  1.00  0.00     0.173 A 
ATOM     73  C   UNL A   1      39.857  33.150  35.523  1.00  0.00     0.173 A 
ATOM     74  F   UNL A   1      37.970  30.117  36.184  1.00  0.00    -0.203 F 
ATOM     75  C   UNL A   1      38.052  32.148  37.376  1.00  0.00     0.198 A 
ATOM     76  C   UNL A   1      39.453  33.935  36.600  1.00  0.00     0.198 A 
ATOM     77  F   UNL A   1      40.723  33.663  34.637  1.00  0.00    -0.203 F 
ATOM     78  F   UNL A   1      37.155  31.672  38.251  1.00  0.00    -0.200 F 
ATOM     79  C   UNL A   1      38.546  33.435  37.522  1.00  0.00     0.200 A 
ATOM     80  F   UNL A   1      39.940  35.175  36.743  1.00  0.00    -0.200 F 
ATOM     81  F   UNL A   1      38.143  34.197  38.548  1.00  0.00    -0.200 F 
ENDBRANCH  47  71
BRANCH  59  82
ATOM     82  C   UNL A   1      44.892  27.720  34.292  1.00  0.00     0.064 A 
ATOM     83  C   UNL A   1      44.884  26.594  35.128  1.00  0.00     0.173 A 
ATOM     84  C   UNL A   1      46.063  28.491  34.241  1.00  0.00     0.173 A 
ATOM     85  F   UNL A   1      43.783  25.833  35.223  1.00  0.00    -0.203 F 
ATOM     86  C   UNL A   1      45.996  26.266  35.899  1.00  0.00     0.198 A 
ATOM     87  C   UNL A   1      47.182  28.146  34.994  1.00  0.00     0.198 A 
ATOM     88  F   UNL A   1      46.125  29.576  33.453  1.00  0.00    -0.203 F 
ATOM     89  F   UNL A   1      45.951  25.209  36.722  1.00  0.00    -0.200 F 
ATOM     90  C   UNL A   1      47.146  27.038  35.827  1.00  0.00     0.200 A 
ATOM     91  F   UNL A   1      48.296  28.888  34.916  1.00  0.00    -0.200 F 
ATOM     92  F   UNL A   1      48.217  26.718  36.566  1.00  0.00    -0.200 F 
ENDBRANCH  59  82
ENDBRANCH  33  34
ENDBRANCH  26  28
ENDBRANCH  25  26
ENDBRANCH  24  25
ENDBRANCH  23  24
ENDBRANCH  22  23
ENDBRANCH   1  22
TORSDOF 20
ENDMDL
MODEL 2
REMARK VINA RESULT:     -10.3      1.346      7.421
REMARK SMILES CC[C@@H]1CCCN1C(=O)N(CC(=O)OCCOCCOC(=O)c1ccc(-c2c3nc(c(-c4c(F)c(F)c(F)c(F)c4F)c4ccc([nH]4)c(-c4c(F)c(F)c(F)c(F)c4F)c4nc(c(-c5c(F)c(F)c(F)c(F)c5F)c5ccc2[nH]5)C=C4)C=C3)cc1)CC(F)(F)F
REMARK SMILES IDX 16 1 15 2 14 3 12 4 13 5 11 6 10 7 8 8 9 9 7 10 3 11 4 12
REMARK SMILES IDX 5 13 6 14 2 15 1 16 86 17 87 18 88 19 89 20 90 21 17 22
REMARK SMILES IDX 18 23 19 24 20 25 21 26 22 27 23 28 24 29 85 30 25 31 84 32
REMARK SMILES IDX 26 33 27 34 28 35 78 36 29 37 83 38 77 39 79 40 30 41 82 42
REMARK SMILES IDX 76 43 75 44 31 46 63 47 43 48 62 49 44 50 47 51 61 52 80 53
REMARK SMILES IDX 45 54 46 55 60 57 81 58 48 59 32 60 33 61 41 62 34 63 35 64
REMARK SMILES IDX 39 65 42 66 36 67 37 68 40 69 38 70 64 71 65 72 73 73 66 74
REMARK SMILES IDX 67 75 71 76 74 77 68 78 69 79 72 80 70 81 49 82 50 83 58 84
REMARK SMILES IDX 51 85 52 86 56 87 59 88 53 89 54 90 57 91 55 92
REMARK H PARENT 79 45 47 56
REMARK Flexibility Score: inf
ROOT
ATOM      1  C   UNL A   1      32.198  29.207  24.177  1.00  0.00     0.202 C 
ENDROOT
BRANCH   1   2
ATOM      2  C   UNL A   1      33.624  28.650  24.178  1.00  0.00     0.261 C 
BRANCH   2   3
ATOM      3  O   UNL A   1      33.730  27.276  23.757  1.00  0.00    -0.462 OA
BRANCH   3   4
ATOM      4  C   UNL A   1      33.764  27.076  22.407  1.00  0.00     0.325 C 
ATOM      5  O   UNL A   1      34.142  27.908  21.589  1.00  0.00    -0.250 OA
BRANCH   4   6
ATOM      6  C   UNL A   1      33.232  25.706  21.968  1.00  0.00     0.244 C 
BRANCH   6   7
ATOM      7  N   UNL A   1      33.175  24.619  22.945  1.00  0.00    -0.304 N 
BRANCH   7   8
ATOM      8  C   UNL A   1      32.060  24.006  23.452  1.00  0.00     0.321 C 
ATOM      9  O   UNL A   1      31.806  22.862  23.051  1.00  0.00    -0.248 OA
BRANCH   8  10
ATOM     10  N   UNL A   1      31.202  24.577  24.351  1.00  0.00    -0.322 N 
ATOM     11  C   UNL A   1      31.068  24.638  25.823  1.00  0.00     0.086 C 
ATOM     12  C   UNL A   1      29.731  25.375  26.057  1.00  0.00     0.027 C 
ATOM     13  C   UNL A   1      29.597  26.269  24.848  1.00  0.00     0.024 C 
ATOM     14  C   UNL A   1      30.137  25.385  23.745  1.00  0.00     0.122 C 
BRANCH  11  15
ATOM     15  C   UNL A   1      31.038  23.329  26.620  1.00  0.00     0.022 C 
ATOM     16  C   UNL A   1      32.362  22.898  27.225  1.00  0.00     0.006 C 
ENDBRANCH  11  15
ENDBRANCH   8  10
ENDBRANCH   7   8
BRANCH   7  17
ATOM     17  C   UNL A   1      34.454  23.872  23.106  1.00  0.00     0.237 C 
BRANCH  17  18
ATOM     18  C   UNL A   1      35.121  23.776  24.493  1.00  0.00     0.406 C 
ATOM     19  F   UNL A   1      34.645  24.667  25.386  1.00  0.00    -0.169 F 
ATOM     20  F   UNL A   1      34.851  22.550  25.023  1.00  0.00    -0.169 F 
ATOM     21  F   UNL A   1      36.465  23.884  24.435  1.00  0.00    -0.169 F 
ENDBRANCH  17  18
ENDBRANCH   7  17
ENDBRANCH   6   7
ENDBRANCH   4   6
ENDBRANCH   3   4
ENDBRANCH   2   3
ENDBRANCH   1   2
BRANCH   1  22
ATOM     22  O   UNL A   1      31.676  29.630  25.432  1.00  0.00    -0.374 OA
BRANCH  22  23
ATOM     23  C   UNL A   1      30.978  30.871  25.470  1.00  0.00     0.202 C 
BRANCH  23  24
ATOM     24  C   UNL A   1      31.456  31.892  26.509  1.00  0.00     0.261 C 
BRANCH  24  25
ATOM     25  O   UNL A   1      32.611  31.441  27.245  1.00  0.00    -0.460 OA
BRANCH  25  26
ATOM     26  C   UNL A   1      33.453  32.437  27.618  1.00  0.00     0.338 C 
ATOM     27  O   UNL A   1      33.158  33.596  27.862  1.00  0.00    -0.246 OA
BRANCH  26  28
ATOM     28  C   UNL A   1      34.822  31.940  27.857  1.00  0.00     0.060 A 
ATOM     29  C   UNL A   1      34.980  30.560  28.042  1.00  0.00     0.016 A 
ATOM     30  C   UNL A   1      35.892  32.807  28.087  1.00  0.00     0.016 A 
ATOM     31  C   UNL A   1      36.187  30.052  28.524  1.00  0.00     0.010 A 
ATOM     32  C   UNL A   1      37.106  32.293  28.568  1.00  0.00     0.010 A 
ATOM     33  C   UNL A   1      37.242  30.920  28.836  1.00  0.00    -0.014 A 
BRANCH  33  34
ATOM     34  C   UNL A   1      38.416  30.391  29.583  1.00  0.00     0.031 A 
ATOM     35  C   UNL A   1      38.643  30.822  31.008  1.00  0.00     0.074 A 
ATOM     36  C   UNL A   1      39.239  29.487  29.023  1.00  0.00     0.049 A 
ATOM     37  N   UNL A   1      39.561  30.433  31.858  1.00  0.00    -0.248 NA
ATOM     38  C   UNL A   1      37.709  31.822  31.549  1.00  0.00     0.031 C 
ATOM     39  C   UNL A   1      39.123  28.970  27.663  1.00  0.00     0.029 A 
ATOM     40  N   UNL A   1      40.336  28.841  29.539  1.00  0.00    -0.354 N 
ATOM     41  C   UNL A   1      39.314  31.135  33.031  1.00  0.00     0.074 A 
ATOM     42  C   UNL A   1      38.182  32.000  32.775  1.00  0.00     0.031 C 
ATOM     43  C   UNL A   1      40.113  28.086  27.448  1.00  0.00     0.029 A 
ATOM     44  C   UNL A   1      40.940  27.988  28.650  1.00  0.00     0.049 A 
ATOM     45  H   UNL A   1      40.659  28.978  30.459  1.00  0.00     0.167 HD
ATOM     46  C   UNL A   1      39.962  31.059  34.218  1.00  0.00     0.037 A 
ATOM     47  C   UNL A   1      42.039  27.221  28.787  1.00  0.00     0.037 A 
ATOM     48  C   UNL A   1      41.086  30.200  34.485  1.00  0.00     0.049 A 
ATOM     49  C   UNL A   1      42.774  27.193  30.101  1.00  0.00     0.074 A 
ATOM     50  C   UNL A   1      41.776  30.024  35.672  1.00  0.00     0.029 A 
ATOM     51  N   UNL A   1      41.693  29.381  33.545  1.00  0.00    -0.354 N 
ATOM     52  N   UNL A   1      42.497  27.818  31.219  1.00  0.00    -0.248 NA
ATOM     53  C   UNL A   1      43.974  26.344  30.171  1.00  0.00     0.031 C 
ATOM     54  C   UNL A   1      42.830  29.133  35.439  1.00  0.00     0.029 A 
ATOM     55  C   UNL A   1      42.770  28.721  34.118  1.00  0.00     0.049 A 
ATOM     56  H   UNL A   1      41.403  29.283  32.610  1.00  0.00     0.167 HD
ATOM     57  C   UNL A   1      43.472  27.424  32.129  1.00  0.00     0.074 A 
ATOM     58  C   UNL A   1      44.339  26.494  31.438  1.00  0.00     0.031 C 
ATOM     59  C   UNL A   1      43.631  27.801  33.421  1.00  0.00     0.037 A 
BRANCH  46  60
ATOM     60  C   UNL A   1      39.476  31.943  35.327  1.00  0.00     0.064 A 
ATOM     61  C   UNL A   1      39.891  33.279  35.438  1.00  0.00     0.173 A 
ATOM     62  C   UNL A   1      38.554  31.461  36.268  1.00  0.00     0.173 A 
ATOM     63  F   UNL A   1      40.777  33.785  34.567  1.00  0.00    -0.203 F 
ATOM     64  C   UNL A   1      39.416  34.093  36.462  1.00  0.00     0.198 A 
ATOM     65  C   UNL A   1      38.063  32.284  37.277  1.00  0.00     0.198 A 
ATOM     66  F   UNL A   1      38.121  30.192  36.201  1.00  0.00    -0.203 F 
ATOM     67  F   UNL A   1      39.852  35.356  36.570  1.00  0.00    -0.200 F 
ATOM     68  C   UNL A   1      38.498  33.596  37.377  1.00  0.00     0.200 A 
ATOM     69  F   UNL A   1      37.169  31.806  38.154  1.00  0.00    -0.200 F 
ATOM     70  F   UNL A   1      38.037  34.384  38.359  1.00  0.00    -0.200 F 
ENDBRANCH  46  60
BRANCH  47  71
ATOM     71  C   UNL A   1      42.516  26.408  27.640  1.00  0.00     0.064 A 
ATOM     72  C   UNL A   1      42.013  25.122  27.404  1.00  0.00     0.173 A 
ATOM     73  C   UNL A   1      43.494  26.901  26.764  1.00  0.00     0.173 A 
ATOM     74  F   UNL A   1      41.097  24.600  28.232  1.00  0.00    -0.203 F 
ATOM     75  C   UNL A   1      42.480  24.354  26.339  1.00  0.00     0.198 A 
ATOM     76  C   UNL A   1      43.941  26.141  25.686  1.00  0.00     0.198 A 
ATOM     77  F   UNL A   1      44.009  28.125  26.951  1.00  0.00    -0.203 F 
ATOM     78  F   UNL A   1      42.010  23.112  26.156  1.00  0.00    -0.200 F 
ATOM     79  C   UNL A   1      43.438  24.866  25.478  1.00  0.00     0.200 A 
ATOM     80  F   UNL A   1      44.862  26.643  24.850  1.00  0.00    -0.200 F 
ATOM     81  F   UNL A   1      43.883  24.128  24.452  1.00  0.00    -0.200 F 
ENDBRANCH  47  71
BRANCH  59  82
ATOM     82  C   UNL A   1      44.777  27.198  34.180  1.00  0.00     0.064 A 
ATOM     83  C   UNL A   1      44.628  26.009  34.908  1.00  0.00     0.173 A 
ATOM     84  C   UNL A   1      46.047  27.795  34.146  1.00  0.00     0.173 A 
ATOM     85  F   UNL A   1      43.431  25.409  34.984  1.00  0.00    -0.203 F 
ATOM     86  C   UNL A   1      45.705  25.450  35.593  1.00  0.00     0.198 A 
ATOM     87  C   UNL A   1      47.126  27.220  34.812  1.00  0.00     0.198 A 
ATOM     88  F   UNL A   1      46.243  28.931  33.460  1.00  0.00    -0.203 F 
ATOM     89  F   UNL A   1      45.530  24.336  36.317  1.00  0.00    -0.200 F 
ATOM     90  C   UNL A   1      46.953  26.052  35.539  1.00  0.00     0.200 A 
ATOM     91  F   UNL A   1      48.334  27.797  34.751  1.00  0.00    -0.200 F 
ATOM     92  F   UNL A   1      47.988  25.510  36.195  1.00  0.00    -0.200 F 
ENDBRANCH  59  82
ENDBRANCH  33  34
ENDBRANCH  26  28
ENDBRANCH  25  26
ENDBRANCH  24  25
ENDBRANCH  23  24
ENDBRANCH  22  23
ENDBRANCH   1  22
TORSDOF 20
ENDMDL
MODEL 3
REMARK VINA RESULT:     -10.3      1.003      7.352
REMARK SMILES CC[C@@H]1CCCN1C(=O)N(CC(=O)OCCOCCOC(=O)c1ccc(-c2c3nc(c(-c4c(F)c(F)c(F)c(F)c4F)c4ccc([nH]4)c(-c4c(F)c(F)c(F)c(F)c4F)c4nc(c(-c5c(F)c(F)c(F)c(F)c5F)c5ccc2[nH]5)C=C4)C=C3)cc1)CC(F)(F)F
REMARK SMILES IDX 16 1 15 2 14 3 12 4 13 5 11 6 10 7 8 8 9 9 7 10 3 11 4 12
REMARK SMILES IDX 5 13 6 14 2 15 1 16 86 17 87 18 88 19 89 20 90 21 17 22
REMARK SMILES IDX 18 23 19 24 20 25 21 26 22 27 23 28 24 29 85 30 25 31 84 32
REMARK SMILES IDX 26 33 27 34 28 35 78 36 29 37 83 38 77 39 79 40 30 41 82 42
REMARK SMILES IDX 76 43 75 44 31 46 63 47 43 48 62 49 44 50 47 51 61 52 80 53
REMARK SMILES IDX 45 54 46 55 60 57 81 58 48 59 32 60 33 61 41 62 34 63 35 64
REMARK SMILES IDX 39 65 42 66 36 67 37 68 40 69 38 70 64 71 65 72 73 73 66 74
REMARK SMILES IDX 67 75 71 76 74 77 68 78 69 79 72 80 70 81 49 82 50 83 58 84
REMARK SMILES IDX 51 85 52 86 56 87 59 88 53 89 54 90 57 91 55 92
REMARK H PARENT 79 45 47 56
REMARK Flexibility Score: inf
ROOT
ATOM      1  C   UNL A   1      31.416  28.103  23.525  1.00  0.00     0.202 C 
ENDROOT
BRANCH   1   2
ATOM      2  C   UNL A   1      31.105  27.430  22.186  1.00  0.00     0.261 C 
BRANCH   2   3
ATOM      3  O   UNL A   1      31.395  26.019  22.143  1.00  0.00    -0.462 OA
BRANCH   3   4
ATOM      4  C   UNL A   1      32.705  25.694  21.945  1.00  0.00     0.325 C 
ATOM      5  O   UNL A   1      33.253  25.649  20.848  1.00  0.00    -0.250 OA
BRANCH   4   6
ATOM      6  C   UNL A   1      33.458  25.331  23.231  1.00  0.00     0.244 C 
BRANCH   6   7
ATOM      7  N   UNL A   1      33.549  23.927  23.630  1.00  0.00    -0.304 N 
BRANCH   7   8
ATOM      8  C   UNL A   1      32.597  23.173  24.264  1.00  0.00     0.321 C 
ATOM      9  O   UNL A   1      31.531  23.730  24.558  1.00  0.00    -0.248 OA
BRANCH   8  10
ATOM     10  N   UNL A   1      32.753  21.858  24.610  1.00  0.00    -0.322 N 
ATOM     11  C   UNL A   1      33.055  21.098  25.841  1.00  0.00     0.086 C 
ATOM     12  C   UNL A   1      33.202  19.636  25.365  1.00  0.00     0.027 C 
ATOM     13  C   UNL A   1      32.305  19.562  24.153  1.00  0.00     0.024 C 
ATOM     14  C   UNL A   1      32.538  20.912  23.509  1.00  0.00     0.122 C 
BRANCH  11  15
ATOM     15  C   UNL A   1      34.302  21.464  26.653  1.00  0.00     0.022 C 
ATOM     16  C   UNL A   1      34.272  22.824  27.328  1.00  0.00     0.006 C 
ENDBRANCH  11  15
ENDBRANCH   8  10
ENDBRANCH   7   8
BRANCH   7  17
ATOM     17  C   UNL A   1      34.628  23.164  22.944  1.00  0.00     0.237 C 
BRANCH  17  18
ATOM     18  C   UNL A   1      36.012  23.019  23.609  1.00  0.00     0.406 C 
ATOM     19  F   UNL A   1      36.170  23.788  24.705  1.00  0.00    -0.169 F 
ATOM     20  F   UNL A   1      36.156  21.735  24.043  1.00  0.00    -0.169 F 
ATOM     21  F   UNL A   1      37.030  23.253  22.754  1.00  0.00    -0.169 F 
ENDBRANCH  17  18
ENDBRANCH   7  17
ENDBRANCH   6   7
ENDBRANCH   4   6
ENDBRANCH   3   4
ENDBRANCH   2   3
ENDBRANCH   1   2
BRANCH   1  22
ATOM     22  O   UNL A   1      32.543  28.972  23.558  1.00  0.00    -0.374 OA
BRANCH  22  23
ATOM     23  C   UNL A   1      33.061  29.328  24.836  1.00  0.00     0.202 C 
BRANCH  23  24
ATOM     24  C   UNL A   1      32.152  30.179  25.730  1.00  0.00     0.261 C 
BRANCH  24  25
ATOM     25  O   UNL A   1      32.614  30.245  27.094  1.00  0.00    -0.460 OA
BRANCH  25  26
ATOM     26  C   UNL A   1      33.333  31.359  27.382  1.00  0.00     0.338 C 
ATOM     27  O   UNL A   1      32.906  32.495  27.517  1.00  0.00    -0.246 OA
BRANCH  26  28
ATOM     28  C   UNL A   1      34.745  31.042  27.675  1.00  0.00     0.060 A 
ATOM     29  C   UNL A   1      35.084  29.690  27.810  1.00  0.00     0.016 A 
ATOM     30  C   UNL A   1      35.671  32.035  28.000  1.00  0.00     0.016 A 
ATOM     31  C   UNL A   1      36.324  29.328  28.336  1.00  0.00     0.010 A 
ATOM     32  C   UNL A   1      36.920  31.669  28.526  1.00  0.00     0.010 A 
ATOM     33  C   UNL A   1      37.232  30.315  28.743  1.00  0.00    -0.014 A 
BRANCH  33  34
ATOM     34  C   UNL A   1      38.429  29.916  29.530  1.00  0.00     0.031 A 
ATOM     35  C   UNL A   1      38.605  30.442  30.931  1.00  0.00     0.074 A 
ATOM     36  C   UNL A   1      39.322  29.043  29.032  1.00  0.00     0.049 A 
ATOM     37  N   UNL A   1      39.537  30.169  31.811  1.00  0.00    -0.248 NA
ATOM     38  C   UNL A   1      37.595  31.401  31.404  1.00  0.00     0.031 C 
ATOM     39  C   UNL A   1      39.263  28.442  27.703  1.00  0.00     0.029 A 
ATOM     40  N   UNL A   1      40.455  28.508  29.596  1.00  0.00    -0.354 N 
ATOM     41  C   UNL A   1      39.224  30.917  32.939  1.00  0.00     0.074 A 
ATOM     42  C   UNL A   1      38.036  31.682  32.622  1.00  0.00     0.031 C 
ATOM     43  C   UNL A   1      40.316  27.621  27.550  1.00  0.00     0.029 A 
ATOM     44  C   UNL A   1      41.131  27.651  28.763  1.00  0.00     0.049 A 
ATOM     45  H   UNL A   1      40.755  28.720  30.509  1.00  0.00     0.167 HD
ATOM     46  C   UNL A   1      39.859  30.955  34.135  1.00  0.00     0.037 A 
ATOM     47  C   UNL A   1      42.280  26.975  28.955  1.00  0.00     0.037 A 
ATOM     48  C   UNL A   1      41.037  30.196  34.462  1.00  0.00     0.049 A 
ATOM     49  C   UNL A   1      42.997  27.073  30.276  1.00  0.00     0.074 A 
ATOM     50  C   UNL A   1      41.721  30.138  35.664  1.00  0.00     0.029 A 
ATOM     51  N   UNL A   1      41.714  29.371  33.577  1.00  0.00    -0.354 N 
ATOM     52  N   UNL A   1      42.660  27.739  31.353  1.00  0.00    -0.248 NA
ATOM     53  C   UNL A   1      44.253  26.319  30.407  1.00  0.00     0.031 C 
ATOM     54  C   UNL A   1      42.839  29.313  35.494  1.00  0.00     0.029 A 
ATOM     55  C   UNL A   1      42.826  28.824  34.198  1.00  0.00     0.049 A 
ATOM     56  H   UNL A   1      41.445  29.198  32.646  1.00  0.00     0.167 HD
ATOM     57  C   UNL A   1      43.647  27.470  32.294  1.00  0.00     0.074 A 
ATOM     58  C   UNL A   1      44.589  26.567  31.666  1.00  0.00     0.031 C 
ATOM     59  C   UNL A   1      43.761  27.930  33.564  1.00  0.00     0.037 A 
BRANCH  46  60
ATOM     60  C   UNL A   1      39.295  31.864  35.187  1.00  0.00     0.064 A 
ATOM     61  C   UNL A   1      38.485  31.375  36.222  1.00  0.00     0.173 A 
ATOM     62  C   UNL A   1      39.604  33.232  35.182  1.00  0.00     0.173 A 
ATOM     63  F   UNL A   1      38.155  30.075  36.265  1.00  0.00    -0.203 F 
ATOM     64  C   UNL A   1      37.985  32.228  37.202  1.00  0.00     0.198 A 
ATOM     65  C   UNL A   1      39.121  34.078  36.177  1.00  0.00     0.198 A 
ATOM     66  F   UNL A   1      40.381  33.747  34.217  1.00  0.00    -0.203 F 
ATOM     67  F   UNL A   1      37.183  31.747  38.162  1.00  0.00    -0.200 F 
ATOM     68  C   UNL A   1      38.308  33.577  37.182  1.00  0.00     0.200 A 
ATOM     69  F   UNL A   1      39.443  35.379  36.162  1.00  0.00    -0.200 F 
ATOM     70  F   UNL A   1      37.831  34.395  38.130  1.00  0.00    -0.200 F 
ENDBRANCH  46  60
BRANCH  47  71
ATOM     71  C   UNL A   1      42.830  26.134  27.862  1.00  0.00     0.064 A 
ATOM     72  C   UNL A   1      42.473  24.785  27.734  1.00  0.00     0.173 A 
ATOM     73  C   UNL A   1      43.734  26.664  26.929  1.00  0.00     0.173 A 
ATOM     74  F   UNL A   1      41.633  24.229  28.619  1.00  0.00    -0.203 F 
ATOM     75  C   UNL A   1      43.008  23.995  26.720  1.00  0.00     0.198 A 
ATOM     76  C   UNL A   1      44.249  25.879  25.901  1.00  0.00     0.198 A 
ATOM     77  F   UNL A   1      44.110  27.949  27.013  1.00  0.00    -0.203 F 
ATOM     78  F   UNL A   1      42.680  22.698  26.641  1.00  0.00    -0.200 F 
ATOM     79  C   UNL A   1      43.891  24.543  25.801  1.00  0.00     0.200 A 
ATOM     80  F   UNL A   1      45.095  26.415  25.011  1.00  0.00    -0.200 F 
ATOM     81  F   UNL A   1      44.401  23.782  24.824  1.00  0.00    -0.200 F 
ENDBRANCH  47  71
BRANCH  59  82
ATOM     82  C   UNL A   1      44.936  27.455  34.368  1.00  0.00     0.064 A 
ATOM     83  C   UNL A   1      44.885  26.265  35.107  1.00  0.00     0.173 A 
ATOM     84  C   UNL A   1      46.139  28.177  34.367  1.00  0.00     0.173 A 
ATOM     85  F   UNL A   1      43.753  25.547  35.153  1.00  0.00    -0.203 F 
ATOM     86  C   UNL A   1      45.989  25.825  35.835  1.00  0.00     0.198 A 
ATOM     87  C   UNL A   1      47.248  27.722  35.075  1.00  0.00     0.198 A 
ATOM     88  F   UNL A   1      46.242  29.320  33.671  1.00  0.00    -0.203 F 
ATOM     89  F   UNL A   1      45.904  24.707  36.568  1.00  0.00    -0.200 F 
ATOM     90  C   UNL A   1      47.171  26.550  35.812  1.00  0.00     0.200 A 
ATOM     91  F   UNL A   1      48.393  28.419  35.045  1.00  0.00    -0.200 F 
ATOM     92  F   UNL A   1      48.233  26.124  36.509  1.00  0.00    -0.200 F 
ENDBRANCH  59  82
ENDBRANCH  33  34
ENDBRANCH  26  28
ENDBRANCH  25  26
ENDBRANCH  24  25
ENDBRANCH  23  24
ENDBRANCH  22  23
ENDBRANCH   1  22
TORSDOF 20
ENDMDL
