MODEL 1
REMARK VINA RESULT:     -11.2      0.000      0.000
REMARK SMILES COc1ccc(C(=O)OCCOCCOC(=O)c2ccc(-c3c4nc(c(-c5c(F)c(F)c(F)c(F)c5F)c5ccc([nH]5)c(-c5c(F)c(F)c(F)c(F)c5F)c5nc(c(-c6c(F)c(F)c(F)c(F)c6F)c6ccc3[nH]6)C=C5)C=C4)cc2)cc1C(F)(F)F
REMARK SMILES IDX 13 1 12 2 11 3 10 4 9 5 7 6 8 7 6 8 3 9 4 10 82 11 5 12
REMARK SMILES IDX 81 13 2 14 1 15 83 16 84 17 85 18 86 19 14 20 15 21 16 22
REMARK SMILES IDX 17 23 18 24 19 25 80 26 20 27 79 28 21 29 22 30 23 31 73 32
REMARK SMILES IDX 24 33 78 34 72 35 74 36 25 37 77 38 71 39 70 40 26 42 58 43
REMARK SMILES IDX 38 44 57 45 39 46 42 47 56 48 75 49 40 50 41 51 55 53 76 54
REMARK SMILES IDX 43 55 27 56 28 57 36 58 29 59 30 60 34 61 37 62 31 63 32 64
REMARK SMILES IDX 35 65 33 66 59 67 60 68 68 69 61 70 62 71 66 72 69 73 63 74
REMARK SMILES IDX 64 75 67 76 65 77 44 78 45 79 53 80 46 81 47 82 51 83 54 84
REMARK SMILES IDX 48 85 49 86 52 87 50 88
REMARK H PARENT 74 41 42 52
REMARK Flexibility Score: inf
ROOT
ATOM      1  C   UNL A   1      42.689  20.919  26.137  1.00  0.00     0.202 C 
ENDROOT
BRANCH   1   2
ATOM      2  O   UNL A   1      42.148  21.432  27.356  1.00  0.00    -0.374 OA
BRANCH   2   3
ATOM      3  C   UNL A   1      40.739  21.657  27.395  1.00  0.00     0.202 C 
BRANCH   3   4
ATOM      4  C   UNL A   1      39.931  21.022  26.261  1.00  0.00     0.261 C 
BRANCH   4   5
ATOM      5  O   UNL A   1      38.683  21.708  26.066  1.00  0.00    -0.460 OA
BRANCH   5   6
ATOM      6  C   UNL A   1      37.836  21.116  25.192  1.00  0.00     0.338 C 
ATOM      7  O   UNL A   1      37.953  20.001  24.704  1.00  0.00    -0.246 OA
BRANCH   6   8
ATOM      8  C   UNL A   1      36.637  21.961  24.966  1.00  0.00     0.060 A 
ATOM      9  C   UNL A   1      34.429  23.645  24.720  1.00  0.00     0.131 A 
ATOM     10  C   UNL A   1      35.673  24.176  25.066  1.00  0.00     0.048 A 
ATOM     11  C   UNL A   1      34.283  22.291  24.393  1.00  0.00     0.098 A 
ATOM     12  C   UNL A   1      36.773  23.335  25.197  1.00  0.00     0.019 A 
ATOM     13  C   UNL A   1      35.405  21.446  24.537  1.00  0.00     0.032 A 
BRANCH   9  14
ATOM     14  O   UNL A   1      33.369  24.508  24.686  1.00  0.00    -0.496 OA
ATOM     15  C   UNL A   1      33.100  24.997  26.005  1.00  0.00     0.278 C 
ENDBRANCH   9  14
BRANCH  11  16
ATOM     16  C   UNL A   1      32.966  21.704  23.958  1.00  0.00     0.419 C 
ATOM     17  F   UNL A   1      32.721  21.911  22.631  1.00  0.00    -0.166 F 
ATOM     18  F   UNL A   1      32.936  20.351  24.128  1.00  0.00    -0.166 F 
ATOM     19  F   UNL A   1      31.870  22.185  24.605  1.00  0.00    -0.166 F 
ENDBRANCH  11  16
ENDBRANCH   6   8
ENDBRANCH   5   6
ENDBRANCH   4   5
ENDBRANCH   3   4
ENDBRANCH   2   3
ENDBRANCH   1   2
BRANCH   1  20
ATOM     20  C   UNL A   1      43.611  21.869  25.363  1.00  0.00     0.261 C 
BRANCH  20  21
ATOM     21  O   UNL A   1      42.911  23.049  24.924  1.00  0.00    -0.460 OA
BRANCH  21  22
ATOM     22  C   UNL A   1      43.618  24.199  25.016  1.00  0.00     0.338 C 
ATOM     23  O   UNL A   1      44.598  24.523  24.360  1.00  0.00    -0.246 OA
BRANCH  22  24
ATOM     24  C   UNL A   1      42.938  25.138  25.927  1.00  0.00     0.060 A 
ATOM     25  C   UNL A   1      43.583  26.351  26.202  1.00  0.00     0.016 A 
ATOM     26  C   UNL A   1      41.734  24.817  26.556  1.00  0.00     0.016 A 
ATOM     27  C   UNL A   1      43.052  27.227  27.147  1.00  0.00     0.010 A 
ATOM     28  C   UNL A   1      41.206  25.694  27.512  1.00  0.00     0.010 A 
ATOM     29  C   UNL A   1      41.882  26.886  27.836  1.00  0.00    -0.014 A 
BRANCH  29  30
ATOM     30  C   UNL A   1      41.447  27.707  28.993  1.00  0.00     0.031 A 
ATOM     31  C   UNL A   1      42.202  27.597  30.290  1.00  0.00     0.074 A 
ATOM     32  C   UNL A   1      40.417  28.565  28.882  1.00  0.00     0.049 A 
ATOM     33  N   UNL A   1      41.975  28.185  31.437  1.00  0.00    -0.248 NA
ATOM     34  C   UNL A   1      43.371  26.702  30.294  1.00  0.00     0.031 C 
ATOM     35  C   UNL A   1      39.636  28.792  27.668  1.00  0.00     0.029 A 
ATOM     36  N   UNL A   1      39.848  29.400  29.812  1.00  0.00    -0.354 N 
ATOM     37  C   UNL A   1      42.971  27.734  32.295  1.00  0.00     0.074 A 
ATOM     38  C   UNL A   1      43.784  26.800  31.549  1.00  0.00     0.031 C 
ATOM     39  C   UNL A   1      38.677  29.699  27.932  1.00  0.00     0.029 A 
ATOM     40  C   UNL A   1      38.760  30.090  29.338  1.00  0.00     0.049 A 
ATOM     41  H   UNL A   1      40.189  29.495  30.731  1.00  0.00     0.167 HD
ATOM     42  C   UNL A   1      43.192  28.080  33.586  1.00  0.00     0.037 A 
ATOM     43  C   UNL A   1      37.915  30.922  29.976  1.00  0.00     0.037 A 
ATOM     44  C   UNL A   1      42.383  29.010  34.329  1.00  0.00     0.049 A 
ATOM     45  C   UNL A   1      38.140  31.230  31.435  1.00  0.00     0.074 A 
ATOM     46  C   UNL A   1      42.528  29.423  35.641  1.00  0.00     0.029 A 
ATOM     47  N   UNL A   1      41.275  29.671  33.821  1.00  0.00    -0.354 N 
ATOM     48  N   UNL A   1      39.094  30.814  32.233  1.00  0.00    -0.248 NA
ATOM     49  C   UNL A   1      37.173  32.129  32.081  1.00  0.00     0.031 C 
ATOM     50  C   UNL A   1      41.482  30.303  35.941  1.00  0.00     0.029 A 
ATOM     51  C   UNL A   1      40.716  30.476  34.800  1.00  0.00     0.049 A 
ATOM     52  H   UNL A   1      40.936  29.582  32.901  1.00  0.00     0.167 HD
ATOM     53  C   UNL A   1      38.860  31.423  33.459  1.00  0.00     0.074 A 
ATOM     54  C   UNL A   1      37.682  32.249  33.298  1.00  0.00     0.031 C 
ATOM     55  C   UNL A   1      39.556  31.309  34.617  1.00  0.00     0.037 A 
BRANCH  42  56
ATOM     56  C   UNL A   1      44.354  27.442  34.287  1.00  0.00     0.064 A 
ATOM     57  C   UNL A   1      45.609  28.064  34.340  1.00  0.00     0.173 A 
ATOM     58  C   UNL A   1      44.193  26.225  34.967  1.00  0.00     0.173 A 
ATOM     59  F   UNL A   1      45.817  29.222  33.695  1.00  0.00    -0.203 F 
ATOM     60  C   UNL A   1      46.667  27.484  35.036  1.00  0.00     0.198 A 
ATOM     61  C   UNL A   1      45.245  25.661  35.683  1.00  0.00     0.198 A 
ATOM     62  F   UNL A   1      43.011  25.593  34.951  1.00  0.00    -0.203 F 
ATOM     63  F   UNL A   1      47.867  28.080  35.047  1.00  0.00    -0.200 F 
ATOM     64  C   UNL A   1      46.481  26.288  35.714  1.00  0.00     0.200 A 
ATOM     65  F   UNL A   1      45.061  24.512  36.348  1.00  0.00    -0.200 F 
ATOM     66  F   UNL A   1      47.495  25.739  36.396  1.00  0.00    -0.200 F 
ENDBRANCH  42  56
BRANCH  43  67
ATOM     67  C   UNL A   1      36.757  31.515  29.254  1.00  0.00     0.064 A 
ATOM     68  C   UNL A   1      36.713  32.883  28.955  1.00  0.00     0.173 A 
ATOM     69  C   UNL A   1      35.651  30.732  28.893  1.00  0.00     0.173 A 
ATOM     70  F   UNL A   1      37.735  33.679  29.304  1.00  0.00    -0.203 F 
ATOM     71  C   UNL A   1      35.594  33.452  28.350  1.00  0.00     0.198 A 
ATOM     72  C   UNL A   1      34.545  31.297  28.260  1.00  0.00     0.198 A 
ATOM     73  F   UNL A   1      35.642  29.418  29.159  1.00  0.00    -0.203 F 
ATOM     74  F   UNL A   1      35.552  34.774  28.131  1.00  0.00    -0.200 F 
ATOM     75  C   UNL A   1      34.512  32.658  28.000  1.00  0.00     0.200 A 
ATOM     76  F   UNL A   1      33.507  30.523  27.915  1.00  0.00    -0.200 F 
ATOM     77  F   UNL A   1      33.434  33.205  27.424  1.00  0.00    -0.200 F 
ENDBRANCH  43  67
BRANCH  55  78
ATOM     78  C   UNL A   1      39.096  32.131  35.786  1.00  0.00     0.064 A 
ATOM     79  C   UNL A   1      38.278  31.592  36.789  1.00  0.00     0.173 A 
ATOM     80  C   UNL A   1      39.515  33.463  35.922  1.00  0.00     0.173 A 
ATOM     81  F   UNL A   1      37.839  30.328  36.696  1.00  0.00    -0.203 F 
ATOM     82  C   UNL A   1      37.875  32.366  37.874  1.00  0.00     0.198 A 
ATOM     83  C   UNL A   1      39.134  34.224  37.023  1.00  0.00     0.198 A 
ATOM     84  F   UNL A   1      40.304  34.023  34.994  1.00  0.00    -0.203 F 
ATOM     85  F   UNL A   1      37.055  31.846  38.798  1.00  0.00    -0.200 F 
ATOM     86  C   UNL A   1      38.309  33.678  37.994  1.00  0.00     0.200 A 
ATOM     87  F   UNL A   1      39.565  35.489  37.144  1.00  0.00    -0.200 F 
ATOM     88  F   UNL A   1      37.924  34.419  39.043  1.00  0.00    -0.200 F 
ENDBRANCH  55  78
ENDBRANCH  29  30
ENDBRANCH  22  24
ENDBRANCH  21  22
ENDBRANCH  20  21
ENDBRANCH   1  20
TORSDOF 16
ENDMDL
MODEL 2
REMARK VINA RESULT:     -11.0      4.549      6.965
REMARK SMILES COc1ccc(C(=O)OCCOCCOC(=O)c2ccc(-c3c4nc(c(-c5c(F)c(F)c(F)c(F)c5F)c5ccc([nH]5)c(-c5c(F)c(F)c(F)c(F)c5F)c5nc(c(-c6c(F)c(F)c(F)c(F)c6F)c6ccc3[nH]6)C=C5)C=C4)cc2)cc1C(F)(F)F
REMARK SMILES IDX 13 1 12 2 11 3 10 4 9 5 7 6 8 7 6 8 3 9 4 10 82 11 5 12
REMARK SMILES IDX 81 13 2 14 1 15 83 16 84 17 85 18 86 19 14 20 15 21 16 22
REMARK SMILES IDX 17 23 18 24 19 25 80 26 20 27 79 28 21 29 22 30 23 31 73 32
REMARK SMILES IDX 24 33 78 34 72 35 74 36 25 37 77 38 71 39 70 40 26 42 58 43
REMARK SMILES IDX 38 44 57 45 39 46 42 47 56 48 75 49 40 50 41 51 55 53 76 54
REMARK SMILES IDX 43 55 27 56 28 57 36 58 29 59 30 60 34 61 37 62 31 63 32 64
REMARK SMILES IDX 35 65 33 66 59 67 60 68 68 69 61 70 62 71 66 72 69 73 63 74
REMARK SMILES IDX 64 75 67 76 65 77 44 78 45 79 53 80 46 81 47 82 51 83 54 84
REMARK SMILES IDX 48 85 49 86 52 87 50 88
REMARK H PARENT 74 41 42 52
REMARK Flexibility Score: inf
ROOT
ATOM      1  C   UNL A   1      42.045  19.863  26.366  1.00  0.00     0.202 C 
ENDROOT
BRANCH   1   2
ATOM      2  O   UNL A   1      42.577  19.417  25.117  1.00  0.00    -0.374 OA
BRANCH   2   3
ATOM      3  C   UNL A   1      43.920  18.934  25.120  1.00  0.00     0.202 C 
BRANCH   3   4
ATOM      4  C   UNL A   1      44.856  19.562  24.084  1.00  0.00     0.261 C 
BRANCH   4   5
ATOM      5  O   UNL A   1      45.544  20.701  24.630  1.00  0.00    -0.460 OA
BRANCH   5   6
ATOM      6  C   UNL A   1      44.873  21.873  24.535  1.00  0.00     0.338 C 
ATOM      7  O   UNL A   1      44.191  22.249  23.592  1.00  0.00    -0.246 OA
BRANCH   6   8
ATOM      8  C   UNL A   1      44.971  22.639  25.802  1.00  0.00     0.060 A 
ATOM      9  C   UNL A   1      45.350  24.012  28.198  1.00  0.00     0.131 A 
ATOM     10  C   UNL A   1      46.308  24.102  27.187  1.00  0.00     0.048 A 
ATOM     11  C   UNL A   1      44.147  23.325  27.999  1.00  0.00     0.098 A 
ATOM     12  C   UNL A   1      46.123  23.409  25.995  1.00  0.00     0.019 A 
ATOM     13  C   UNL A   1      43.974  22.621  26.788  1.00  0.00     0.032 A 
BRANCH   9  14
ATOM     14  O   UNL A   1      45.626  24.647  29.378  1.00  0.00    -0.496 OA
ATOM     15  C   UNL A   1      46.861  25.364  29.265  1.00  0.00     0.278 C 
ENDBRANCH   9  14
BRANCH  11  16
ATOM     16  C   UNL A   1      43.070  23.263  29.052  1.00  0.00     0.419 C 
ATOM     17  F   UNL A   1      43.554  22.858  30.262  1.00  0.00    -0.166 F 
ATOM     18  F   UNL A   1      42.510  24.486  29.273  1.00  0.00    -0.166 F 
ATOM     19  F   UNL A   1      42.035  22.423  28.778  1.00  0.00    -0.166 F 
ENDBRANCH  11  16
ENDBRANCH   6   8
ENDBRANCH   5   6
ENDBRANCH   4   5
ENDBRANCH   3   4
ENDBRANCH   2   3
ENDBRANCH   1   2
BRANCH   1  20
ATOM     20  C   UNL A   1      40.608  20.399  26.327  1.00  0.00     0.261 C 
BRANCH  20  21
ATOM     21  O   UNL A   1      40.522  21.730  26.867  1.00  0.00    -0.460 OA
BRANCH  21  22
ATOM     22  C   UNL A   1      39.469  22.458  26.430  1.00  0.00     0.338 C 
ATOM     23  O   UNL A   1      38.458  22.044  25.880  1.00  0.00    -0.246 OA
BRANCH  22  24
ATOM     24  C   UNL A   1      39.609  23.860  26.861  1.00  0.00     0.060 A 
ATOM     25  C   UNL A   1      40.141  24.771  25.939  1.00  0.00     0.016 A 
ATOM     26  C   UNL A   1      39.296  24.269  28.160  1.00  0.00     0.016 A 
ATOM     27  C   UNL A   1      40.409  26.082  26.325  1.00  0.00     0.010 A 
ATOM     28  C   UNL A   1      39.575  25.585  28.549  1.00  0.00     0.010 A 
ATOM     29  C   UNL A   1      40.165  26.487  27.643  1.00  0.00    -0.014 A 
BRANCH  29  30
ATOM     30  C   UNL A   1      40.659  27.806  28.108  1.00  0.00     0.031 A 
ATOM     31  C   UNL A   1      42.138  28.086  28.068  1.00  0.00     0.074 A 
ATOM     32  C   UNL A   1      39.804  28.755  28.527  1.00  0.00     0.049 A 
ATOM     33  N   UNL A   1      42.794  29.148  28.461  1.00  0.00    -0.248 NA
ATOM     34  C   UNL A   1      42.991  27.024  27.509  1.00  0.00     0.031 C 
ATOM     35  C   UNL A   1      38.350  28.619  28.572  1.00  0.00     0.029 A 
ATOM     36  N   UNL A   1      40.040  30.021  29.004  1.00  0.00    -0.354 N 
ATOM     37  C   UNL A   1      44.132  28.884  28.195  1.00  0.00     0.074 A 
ATOM     38  C   UNL A   1      44.200  27.551  27.639  1.00  0.00     0.031 C 
ATOM     39  C   UNL A   1      37.822  29.755  29.064  1.00  0.00     0.029 A 
ATOM     40  C   UNL A   1      38.902  30.682  29.396  1.00  0.00     0.049 A 
ATOM     41  H   UNL A   1      40.940  30.417  29.058  1.00  0.00     0.167 HD
ATOM     42  C   UNL A   1      45.205  29.688  28.388  1.00  0.00     0.037 A 
ATOM     43  C   UNL A   1      38.756  31.887  29.979  1.00  0.00     0.037 A 
ATOM     44  C   UNL A   1      45.138  31.014  28.942  1.00  0.00     0.049 A 
ATOM     45  C   UNL A   1      39.976  32.729  30.252  1.00  0.00     0.074 A 
ATOM     46  C   UNL A   1      46.171  31.905  29.177  1.00  0.00     0.029 A 
ATOM     47  N   UNL A   1      43.969  31.640  29.349  1.00  0.00    -0.354 N 
ATOM     48  N   UNL A   1      41.235  32.480  29.982  1.00  0.00    -0.248 NA
ATOM     49  C   UNL A   1      39.754  34.027  30.909  1.00  0.00     0.031 C 
ATOM     50  C   UNL A   1      45.632  33.054  29.765  1.00  0.00     0.029 A 
ATOM     51  C   UNL A   1      44.259  32.899  29.851  1.00  0.00     0.049 A 
ATOM     52  H   UNL A   1      43.068  31.248  29.291  1.00  0.00     0.167 HD
ATOM     53  C   UNL A   1      41.946  33.596  30.404  1.00  0.00     0.074 A 
ATOM     54  C   UNL A   1      40.978  34.532  30.936  1.00  0.00     0.031 C 
ATOM     55  C   UNL A   1      43.281  33.827  30.356  1.00  0.00     0.037 A 
BRANCH  42  56
ATOM     56  C   UNL A   1      46.553  29.152  28.006  1.00  0.00     0.064 A 
ATOM     57  C   UNL A   1      47.489  28.768  28.977  1.00  0.00     0.173 A 
ATOM     58  C   UNL A   1      46.887  28.963  26.657  1.00  0.00     0.173 A 
ATOM     59  F   UNL A   1      47.221  28.940  30.280  1.00  0.00    -0.203 F 
ATOM     60  C   UNL A   1      48.718  28.226  28.609  1.00  0.00     0.198 A 
ATOM     61  C   UNL A   1      48.106  28.398  26.294  1.00  0.00     0.198 A 
ATOM     62  F   UNL A   1      46.024  29.311  25.691  1.00  0.00    -0.203 F 
ATOM     63  F   UNL A   1      49.611  27.895  29.552  1.00  0.00    -0.200 F 
ATOM     64  C   UNL A   1      49.022  28.034  27.269  1.00  0.00     0.200 A 
ATOM     65  F   UNL A   1      48.394  28.202  25.000  1.00  0.00    -0.200 F 
ATOM     66  F   UNL A   1      50.199  27.498  26.918  1.00  0.00    -0.200 F 
ENDBRANCH  42  56
BRANCH  43  67
ATOM     67  C   UNL A   1      37.405  32.373  30.369  1.00  0.00     0.064 A 
ATOM     68  C   UNL A   1      36.634  33.152  29.495  1.00  0.00     0.173 A 
ATOM     69  C   UNL A   1      36.881  32.110  31.643  1.00  0.00     0.173 A 
ATOM     70  F   UNL A   1      37.104  33.453  28.275  1.00  0.00    -0.203 F 
ATOM     71  C   UNL A   1      35.404  33.673  29.890  1.00  0.00     0.198 A 
ATOM     72  C   UNL A   1      35.636  32.606  32.026  1.00  0.00     0.198 A 
ATOM     73  F   UNL A   1      37.579  31.373  32.518  1.00  0.00    -0.203 F 
ATOM     74  F   UNL A   1      34.715  34.465  29.056  1.00  0.00    -0.200 F 
ATOM     75  C   UNL A   1      34.904  33.397  31.154  1.00  0.00     0.200 A 
ATOM     76  F   UNL A   1      35.154  32.329  33.245  1.00  0.00    -0.200 F 
ATOM     77  F   UNL A   1      33.725  33.903  31.536  1.00  0.00    -0.200 F 
ENDBRANCH  43  67
BRANCH  55  78
ATOM     78  C   UNL A   1      43.771  35.158  30.847  1.00  0.00     0.064 A 
ATOM     79  C   UNL A   1      44.250  35.332  32.153  1.00  0.00     0.173 A 
ATOM     80  C   UNL A   1      43.801  36.263  29.982  1.00  0.00     0.173 A 
ATOM     81  F   UNL A   1      44.229  34.310  33.021  1.00  0.00    -0.203 F 
ATOM     82  C   UNL A   1      44.715  36.572  32.584  1.00  0.00     0.198 A 
ATOM     83  C   UNL A   1      44.294  37.493  30.408  1.00  0.00     0.198 A 
ATOM     84  F   UNL A   1      43.361  36.148  28.721  1.00  0.00    -0.203 F 
ATOM     85  F   UNL A   1      45.126  36.727  33.851  1.00  0.00    -0.200 F 
ATOM     86  C   UNL A   1      44.745  37.648  31.710  1.00  0.00     0.200 A 
ATOM     87  F   UNL A   1      44.334  38.529  29.557  1.00  0.00    -0.200 F 
ATOM     88  F   UNL A   1      45.200  38.839  32.126  1.00  0.00    -0.200 F 
ENDBRANCH  55  78
ENDBRANCH  29  30
ENDBRANCH  22  24
ENDBRANCH  21  22
ENDBRANCH  20  21
ENDBRANCH   1  20
TORSDOF 16
ENDMDL
MODEL 3
REMARK VINA RESULT:     -10.9      3.093      8.258
REMARK SMILES COc1ccc(C(=O)OCCOCCOC(=O)c2ccc(-c3c4nc(c(-c5c(F)c(F)c(F)c(F)c5F)c5ccc([nH]5)c(-c5c(F)c(F)c(F)c(F)c5F)c5nc(c(-c6c(F)c(F)c(F)c(F)c6F)c6ccc3[nH]6)C=C5)C=C4)cc2)cc1C(F)(F)F
REMARK SMILES IDX 13 1 12 2 11 3 10 4 9 5 7 6 8 7 6 8 3 9 4 10 82 11 5 12
REMARK SMILES IDX 81 13 2 14 1 15 83 16 84 17 85 18 86 19 14 20 15 21 16 22
REMARK SMILES IDX 17 23 18 24 19 25 80 26 20 27 79 28 21 29 22 30 23 31 73 32
REMARK SMILES IDX 24 33 78 34 72 35 74 36 25 37 77 38 71 39 70 40 26 42 58 43
REMARK SMILES IDX 38 44 57 45 39 46 42 47 56 48 75 49 40 50 41 51 55 53 76 54
REMARK SMILES IDX 43 55 27 56 28 57 36 58 29 59 30 60 34 61 37 62 31 63 32 64
REMARK SMILES IDX 35 65 33 66 59 67 60 68 68 69 61 70 62 71 66 72 69 73 63 74
REMARK SMILES IDX 64 75 67 76 65 77 44 78 45 79 53 80 46 81 47 82 51 83 54 84
REMARK SMILES IDX 48 85 49 86 52 87 50 88
REMARK H PARENT 74 41 42 52
REMARK Flexibility Score: inf
ROOT
ATOM      1  C   UNL A   1      31.474  29.042  25.126  1.00  0.00     0.202 C 
ENDROOT
BRANCH   1   2
ATOM      2  O   UNL A   1      32.209  28.888  23.910  1.00  0.00    -0.374 OA
BRANCH   2   3
ATOM      3  C   UNL A   1      31.470  28.510  22.750  1.00  0.00     0.202 C 
BRANCH   3   4
ATOM      4  C   UNL A   1      31.246  27.007  22.564  1.00  0.00     0.261 C 
BRANCH   4   5
ATOM      5  O   UNL A   1      32.290  26.245  23.195  1.00  0.00    -0.460 OA
BRANCH   5   6
ATOM      6  C   UNL A   1      33.115  25.591  22.344  1.00  0.00     0.338 C 
ATOM      7  O   UNL A   1      33.558  26.016  21.287  1.00  0.00    -0.246 OA
BRANCH   6   8
ATOM      8  C   UNL A   1      33.528  24.285  22.913  1.00  0.00     0.060 A 
ATOM      9  C   UNL A   1      34.119  21.819  24.070  1.00  0.00     0.131 A 
ATOM     10  C   UNL A   1      32.905  22.001  23.406  1.00  0.00     0.048 A 
ATOM     11  C   UNL A   1      35.097  22.820  24.084  1.00  0.00     0.098 A 
ATOM     12  C   UNL A   1      32.607  23.235  22.836  1.00  0.00     0.019 A 
ATOM     13  C   UNL A   1      34.780  24.070  23.508  1.00  0.00     0.032 A 
BRANCH   9  14
ATOM     14  O   UNL A   1      34.321  20.612  24.681  1.00  0.00    -0.496 OA
ATOM     15  C   UNL A   1      33.366  20.435  25.734  1.00  0.00     0.278 C 
ENDBRANCH   9  14
BRANCH  11  16
ATOM     16  C   UNL A   1      36.440  22.628  24.741  1.00  0.00     0.419 C 
ATOM     17  F   UNL A   1      37.132  23.799  24.853  1.00  0.00    -0.166 F 
ATOM     18  F   UNL A   1      36.314  22.154  26.014  1.00  0.00    -0.166 F 
ATOM     19  F   UNL A   1      37.283  21.770  24.106  1.00  0.00    -0.166 F 
ENDBRANCH  11  16
ENDBRANCH   6   8
ENDBRANCH   5   6
ENDBRANCH   4   5
ENDBRANCH   3   4
ENDBRANCH   2   3
ENDBRANCH   1   2
BRANCH   1  20
ATOM     20  C   UNL A   1      31.785  30.304  25.940  1.00  0.00     0.261 C 
BRANCH  20  21
ATOM     21  O   UNL A   1      33.199  30.454  26.170  1.00  0.00    -0.460 OA
BRANCH  21  22
ATOM     22  C   UNL A   1      33.530  31.342  27.135  1.00  0.00     0.338 C 
ATOM     23  O   UNL A   1      32.818  32.210  27.621  1.00  0.00    -0.246 OA
BRANCH  22  24
ATOM     24  C   UNL A   1      34.861  31.023  27.681  1.00  0.00     0.060 A 
ATOM     25  C   UNL A   1      35.152  29.675  27.931  1.00  0.00     0.016 A 
ATOM     26  C   UNL A   1      35.783  32.019  28.012  1.00  0.00     0.016 A 
ATOM     27  C   UNL A   1      36.344  29.321  28.558  1.00  0.00     0.010 A 
ATOM     28  C   UNL A   1      36.978  31.662  28.650  1.00  0.00     0.010 A 
ATOM     29  C   UNL A   1      37.246  30.315  28.957  1.00  0.00    -0.014 A 
BRANCH  29  30
ATOM     30  C   UNL A   1      38.399  29.955  29.820  1.00  0.00     0.031 A 
ATOM     31  C   UNL A   1      39.415  28.972  29.305  1.00  0.00     0.074 A 
ATOM     32  C   UNL A   1      38.559  30.519  31.029  1.00  0.00     0.049 A 
ATOM     33  N   UNL A   1      40.474  28.482  29.898  1.00  0.00    -0.248 NA
ATOM     34  C   UNL A   1      39.210  28.474  27.934  1.00  0.00     0.031 C 
ATOM     35  C   UNL A   1      37.667  31.515  31.620  1.00  0.00     0.029 A 
ATOM     36  N   UNL A   1      39.529  30.327  31.982  1.00  0.00    -0.354 N 
ATOM     37  C   UNL A   1      41.059  27.624  28.976  1.00  0.00     0.074 A 
ATOM     38  C   UNL A   1      40.224  27.632  27.796  1.00  0.00     0.031 C 
ATOM     39  C   UNL A   1      38.124  31.837  32.844  1.00  0.00     0.029 A 
ATOM     40  C   UNL A   1      39.321  31.049  33.132  1.00  0.00     0.049 A 
ATOM     41  H   UNL A   1      40.300  29.729  31.853  1.00  0.00     0.167 HD
ATOM     42  C   UNL A   1      42.200  26.902  29.100  1.00  0.00     0.037 A 
ATOM     43  C   UNL A   1      40.006  31.051  34.291  1.00  0.00     0.037 A 
ATOM     44  C   UNL A   1      43.032  26.893  30.274  1.00  0.00     0.049 A 
ATOM     45  C   UNL A   1      41.229  30.179  34.428  1.00  0.00     0.074 A 
ATOM     46  C   UNL A   1      44.205  26.194  30.495  1.00  0.00     0.029 A 
ATOM     47  N   UNL A   1      42.776  27.620  31.427  1.00  0.00    -0.354 N 
ATOM     48  N   UNL A   1      41.786  29.384  33.546  1.00  0.00    -0.248 NA
ATOM     49  C   UNL A   1      41.924  30.210  35.725  1.00  0.00     0.031 C 
ATOM     50  C   UNL A   1      44.637  26.465  31.798  1.00  0.00     0.029 A 
ATOM     51  C   UNL A   1      43.760  27.371  32.370  1.00  0.00     0.049 A 
ATOM     52  H   UNL A   1      42.008  28.223  31.557  1.00  0.00     0.167 HD
ATOM     53  C   UNL A   1      42.907  28.849  34.167  1.00  0.00     0.074 A 
ATOM     54  C   UNL A   1      42.962  29.418  35.497  1.00  0.00     0.031 C 
ATOM     55  C   UNL A   1      43.811  27.963  33.681  1.00  0.00     0.037 A 
BRANCH  42  56
ATOM     56  C   UNL A   1      42.614  26.050  27.938  1.00  0.00     0.064 A 
ATOM     57  C   UNL A   1      42.070  24.774  27.735  1.00  0.00     0.173 A 
ATOM     58  C   UNL A   1      43.517  26.540  26.983  1.00  0.00     0.173 A 
ATOM     59  F   UNL A   1      41.211  24.256  28.627  1.00  0.00    -0.203 F 
ATOM     60  C   UNL A   1      42.426  24.012  26.625  1.00  0.00     0.198 A 
ATOM     61  C   UNL A   1      43.852  25.787  25.862  1.00  0.00     0.198 A 
ATOM     62  F   UNL A   1      44.062  27.757  27.129  1.00  0.00    -0.203 F 
ATOM     63  F   UNL A   1      41.918  22.782  26.468  1.00  0.00    -0.200 F 
ATOM     64  C   UNL A   1      43.309  24.523  25.685  1.00  0.00     0.200 A 
ATOM     65  F   UNL A   1      44.696  26.285  24.948  1.00  0.00    -0.200 F 
ATOM     66  F   UNL A   1      43.639  23.795  24.610  1.00  0.00    -0.200 F 
ENDBRANCH  42  56
BRANCH  43  67
ATOM     67  C   UNL A   1      39.549  31.889  35.432  1.00  0.00     0.064 A 
ATOM     68  C   UNL A   1      38.632  31.398  36.370  1.00  0.00     0.173 A 
ATOM     69  C   UNL A   1      39.985  33.214  35.576  1.00  0.00     0.173 A 
ATOM     70  F   UNL A   1      38.165  30.145  36.259  1.00  0.00    -0.203 F 
ATOM     71  C   UNL A   1      38.144  32.210  37.393  1.00  0.00     0.198 A 
ATOM     72  C   UNL A   1      39.519  34.016  36.617  1.00  0.00     0.198 A 
ATOM     73  F   UNL A   1      40.860  33.734  34.703  1.00  0.00    -0.203 F 
ATOM     74  F   UNL A   1      37.221  31.734  38.240  1.00  0.00    -0.200 F 
ATOM     75  C   UNL A   1      38.590  33.517  37.517  1.00  0.00     0.200 A 
ATOM     76  F   UNL A   1      39.961  35.274  36.739  1.00  0.00    -0.200 F 
ATOM     77  F   UNL A   1      38.117  34.299  38.496  1.00  0.00    -0.200 F 
ENDBRANCH  43  67
BRANCH  55  78
ATOM     78  C   UNL A   1      44.963  27.592  34.569  1.00  0.00     0.064 A 
ATOM     79  C   UNL A   1      44.907  26.482  35.425  1.00  0.00     0.173 A 
ATOM     80  C   UNL A   1      46.154  28.334  34.532  1.00  0.00     0.173 A 
ATOM     81  F   UNL A   1      43.787  25.750  35.507  1.00  0.00    -0.203 F 
ATOM     82  C   UNL A   1      45.992  26.145  36.229  1.00  0.00     0.198 A 
ATOM     83  C   UNL A   1      47.246  27.976  35.316  1.00  0.00     0.198 A 
ATOM     84  F   UNL A   1      46.261  29.400  33.726  1.00  0.00    -0.203 F 
ATOM     85  F   UNL A   1      45.900  25.107  37.073  1.00  0.00    -0.200 F 
ATOM     86  C   UNL A   1      47.163  26.886  36.169  1.00  0.00     0.200 A 
ATOM     87  F   UNL A   1      48.381  28.687  35.246  1.00  0.00    -0.200 F 
ATOM     88  F   UNL A   1      48.208  26.555  36.940  1.00  0.00    -0.200 F 
ENDBRANCH  55  78
ENDBRANCH  29  30
ENDBRANCH  22  24
ENDBRANCH  21  22
ENDBRANCH  20  21
ENDBRANCH   1  20
TORSDOF 16
ENDMDL
