MODEL 1
REMARK VINA RESULT:     -12.5      0.000      0.000
REMARK SMILES CN1C(=O)C[C@@H](C(=O)OCCOCCOC(=O)c2ccc(-c3c4nc(c(-c5c(F)c(F)c(F)c(F)c5F)c5ccc([nH]5)c(-c5c(F)c(F)c(F)c(F)c5F)c5nc(c(-c6c(F)c(F)c(F)c(F)c6F)c6ccc3[nH]6)C=C5)C=C4)cc2)C12CCN(C(=O)c1ccccc1-n1cccn1)CC2
REMARK SMILES IDX 12 1 11 2 10 3 9 4 7 5 8 6 6 7 1 8 2 9 3 10 81 11 4 12 5 13
REMARK SMILES IDX 82 14 99 15 83 16 98 17 84 18 85 19 86 20 87 21 88 22 92 23
REMARK SMILES IDX 89 24 91 25 90 26 93 27 94 28 97 29 95 30 96 31 13 32 14 33
REMARK SMILES IDX 15 34 16 35 17 36 18 37 19 38 80 39 20 40 79 41 21 42 22 43
REMARK SMILES IDX 23 44 73 45 24 46 78 47 72 48 74 49 25 50 77 51 71 52 70 53
REMARK SMILES IDX 26 55 58 56 38 57 57 58 39 59 42 60 56 61 75 62 40 63 41 64
REMARK SMILES IDX 55 66 76 67 43 68 27 69 28 70 36 71 29 72 30 73 34 74 37 75
REMARK SMILES IDX 31 76 32 77 35 78 33 79 59 80 60 81 68 82 61 83 62 84 66 85
REMARK SMILES IDX 69 86 63 87 64 88 67 89 65 90 44 91 45 92 53 93 46 94 47 95
REMARK SMILES IDX 51 96 54 97 48 98 49 99 52 100 50 101
REMARK H PARENT 74 54 42 65
REMARK Flexibility Score: inf
ROOT
ATOM      1  O   UNL A   1      39.515  22.080  26.094  1.00  0.00    -0.374 OA
ENDROOT
BRANCH   1   2
ATOM      2  C   UNL A   1      38.623  22.966  26.767  1.00  0.00     0.202 C 
BRANCH   2   3
ATOM      3  C   UNL A   1      37.995  24.081  25.919  1.00  0.00     0.261 C 
BRANCH   3   4
ATOM      4  O   UNL A   1      36.550  24.086  25.881  1.00  0.00    -0.463 OA
BRANCH   4   5
ATOM      5  C   UNL A   1      35.980  23.114  25.127  1.00  0.00     0.311 C 
ATOM      6  O   UNL A   1      36.361  22.802  24.002  1.00  0.00    -0.252 OA
BRANCH   5   7
ATOM      7  C   UNL A   1      34.730  22.491  25.720  1.00  0.00     0.134 C 
ATOM      8  C   UNL A   1      32.288  20.918  23.333  1.00  0.00     0.147 C 
ATOM      9  N   UNL A   1      33.298  21.269  24.316  1.00  0.00    -0.339 N 
ATOM     10  C   UNL A   1      34.223  20.351  24.783  1.00  0.00     0.223 C 
ATOM     11  C   UNL A   1      33.347  22.559  25.021  1.00  0.00     0.060 C 
ATOM     12  O   UNL A   1      34.360  19.198  24.410  1.00  0.00    -0.275 OA
ATOM     13  C   UNL A   1      35.012  20.994  25.888  1.00  0.00     0.118 C 
ATOM     14  C   UNL A   1      33.127  23.747  24.068  1.00  0.00     0.051 C 
ATOM     15  C   UNL A   1      32.216  22.586  26.105  1.00  0.00     0.051 C 
ATOM     16  C   UNL A   1      32.994  25.070  24.807  1.00  0.00     0.122 C 
ATOM     17  C   UNL A   1      32.018  23.957  26.763  1.00  0.00     0.122 C 
ATOM     18  N   UNL A   1      31.894  25.006  25.759  1.00  0.00    -0.338 N 
ATOM     19  C   UNL A   1      30.834  25.912  25.834  1.00  0.00     0.256 C 
ATOM     20  O   UNL A   1      30.000  25.919  26.735  1.00  0.00    -0.269 OA
BRANCH  19  21
ATOM     21  C   UNL A   1      30.700  26.937  24.775  1.00  0.00     0.065 A 
ATOM     22  C   UNL A   1      29.776  26.649  23.758  1.00  0.00     0.016 A 
ATOM     23  C   UNL A   1      31.329  28.194  24.819  1.00  0.00     0.077 A 
ATOM     24  C   UNL A   1      29.435  27.624  22.821  1.00  0.00     0.001 A 
ATOM     25  C   UNL A   1      30.936  29.183  23.902  1.00  0.00     0.029 A 
ATOM     26  C   UNL A   1      30.000  28.895  22.906  1.00  0.00     0.002 A 
BRANCH  23  27
ATOM     27  N   UNL A   1      32.347  28.510  25.756  1.00  0.00    -0.240 N 
ATOM     28  C   UNL A   1      32.218  28.922  27.066  1.00  0.00     0.115 A 
ATOM     29  N   UNL A   1      33.660  28.409  25.406  1.00  0.00    -0.177 NA
ATOM     30  C   UNL A   1      33.483  29.137  27.555  1.00  0.00     0.042 A 
ATOM     31  C   UNL A   1      34.331  28.807  26.489  1.00  0.00     0.135 A 
ENDBRANCH  23  27
ENDBRANCH  19  21
ENDBRANCH   5   7
ENDBRANCH   4   5
ENDBRANCH   3   4
ENDBRANCH   2   3
ENDBRANCH   1   2
BRANCH   1  32
ATOM     32  C   UNL A   1      38.957  20.893  25.532  1.00  0.00     0.202 C 
BRANCH  32  33
ATOM     33  C   UNL A   1      39.696  19.601  25.890  1.00  0.00     0.261 C 
BRANCH  33  34
ATOM     34  O   UNL A   1      40.938  19.537  25.170  1.00  0.00    -0.460 OA
BRANCH  34  35
ATOM     35  C   UNL A   1      41.995  19.202  25.944  1.00  0.00     0.338 C 
ATOM     36  O   UNL A   1      42.463  18.090  26.112  1.00  0.00    -0.246 OA
BRANCH  35  37
ATOM     37  C   UNL A   1      42.663  20.438  26.382  1.00  0.00     0.060 A 
ATOM     38  C   UNL A   1      42.398  20.894  27.680  1.00  0.00     0.016 A 
ATOM     39  C   UNL A   1      43.438  21.195  25.504  1.00  0.00     0.016 A 
ATOM     40  C   UNL A   1      42.861  22.147  28.084  1.00  0.00     0.010 A 
ATOM     41  C   UNL A   1      43.909  22.450  25.917  1.00  0.00     0.010 A 
ATOM     42  C   UNL A   1      43.586  22.951  27.193  1.00  0.00    -0.014 A 
BRANCH  42  43
ATOM     43  C   UNL A   1      43.863  24.367  27.554  1.00  0.00     0.031 A 
ATOM     44  C   UNL A   1      45.284  24.864  27.541  1.00  0.00     0.074 A 
ATOM     45  C   UNL A   1      42.861  25.219  27.837  1.00  0.00     0.049 A 
ATOM     46  N   UNL A   1      45.748  26.067  27.776  1.00  0.00    -0.248 NA
ATOM     47  C   UNL A   1      46.323  23.875  27.213  1.00  0.00     0.031 C 
ATOM     48  C   UNL A   1      41.442  24.874  27.861  1.00  0.00     0.029 A 
ATOM     49  N   UNL A   1      42.890  26.556  28.154  1.00  0.00    -0.354 N 
ATOM     50  C   UNL A   1      47.125  25.979  27.621  1.00  0.00     0.074 A 
ATOM     51  C   UNL A   1      47.428  24.600  27.308  1.00  0.00     0.031 C 
ATOM     52  C   UNL A   1      40.733  25.972  28.178  1.00  0.00     0.029 A 
ATOM     53  C   UNL A   1      41.649  27.091  28.397  1.00  0.00     0.049 A 
ATOM     54  H   UNL A   1      43.722  27.081  28.202  1.00  0.00     0.167 HD
ATOM     55  C   UNL A   1      48.054  26.961  27.715  1.00  0.00     0.037 A 
ATOM     56  C   UNL A   1      41.293  28.339  28.764  1.00  0.00     0.037 A 
ATOM     57  C   UNL A   1      47.761  28.335  28.027  1.00  0.00     0.049 A 
ATOM     58  C   UNL A   1      42.352  29.400  28.922  1.00  0.00     0.074 A 
ATOM     59  C   UNL A   1      48.635  29.405  28.122  1.00  0.00     0.029 A 
ATOM     60  N   UNL A   1      46.495  28.828  28.303  1.00  0.00    -0.354 N 
ATOM     61  N   UNL A   1      43.645  29.314  28.731  1.00  0.00    -0.248 NA
ATOM     62  C   UNL A   1      41.896  30.734  29.342  1.00  0.00     0.031 C 
ATOM     63  C   UNL A   1      47.903  30.536  28.500  1.00  0.00     0.029 A 
ATOM     64  C   UNL A   1      46.568  30.181  28.596  1.00  0.00     0.049 A 
ATOM     65  H   UNL A   1      45.667  28.296  28.293  1.00  0.00     0.167 HD
ATOM     66  C   UNL A   1      44.154  30.582  28.985  1.00  0.00     0.074 A 
ATOM     67  C   UNL A   1      43.028  31.424  29.330  1.00  0.00     0.031 C 
ATOM     68  C   UNL A   1      45.440  31.009  28.936  1.00  0.00     0.037 A 
BRANCH  55  69
ATOM     69  C   UNL A   1      49.487  26.579  27.490  1.00  0.00     0.064 A 
ATOM     70  C   UNL A   1      50.012  26.430  26.198  1.00  0.00     0.173 A 
ATOM     71  C   UNL A   1      50.352  26.394  28.579  1.00  0.00     0.173 A 
ATOM     72  F   UNL A   1      49.221  26.586  25.126  1.00  0.00    -0.203 F 
ATOM     73  C   UNL A   1      51.348  26.087  26.005  1.00  0.00     0.198 A 
ATOM     74  C   UNL A   1      51.694  26.076  28.381  1.00  0.00     0.198 A 
ATOM     75  F   UNL A   1      49.899  26.530  29.834  1.00  0.00    -0.203 F 
ATOM     76  F   UNL A   1      51.819  25.911  24.763  1.00  0.00    -0.200 F 
ATOM     77  C   UNL A   1      52.188  25.916  27.095  1.00  0.00     0.200 A 
ATOM     78  F   UNL A   1      52.506  25.921  29.434  1.00  0.00    -0.200 F 
ATOM     79  F   UNL A   1      53.475  25.591  26.907  1.00  0.00    -0.200 F 
ENDBRANCH  55  69
BRANCH  56  80
ATOM     80  C   UNL A   1      39.863  28.657  29.008  1.00  0.00     0.064 A 
ATOM     81  C   UNL A   1      39.052  29.178  27.990  1.00  0.00     0.173 A 
ATOM     82  C   UNL A   1      39.283  28.462  30.270  1.00  0.00     0.173 A 
ATOM     83  F   UNL A   1      39.570  29.409  26.774  1.00  0.00    -0.203 F 
ATOM     84  C   UNL A   1      37.718  29.502  28.229  1.00  0.00     0.198 A 
ATOM     85  C   UNL A   1      37.943  28.763  30.500  1.00  0.00     0.198 A 
ATOM     86  F   UNL A   1      40.020  27.972  31.277  1.00  0.00    -0.203 F 
ATOM     87  F   UNL A   1      36.975  30.038  27.250  1.00  0.00    -0.200 F 
ATOM     88  C   UNL A   1      37.163  29.289  29.481  1.00  0.00     0.200 A 
ATOM     89  F   UNL A   1      37.408  28.547  31.710  1.00  0.00    -0.200 F 
ATOM     90  F   UNL A   1      35.879  29.598  29.710  1.00  0.00    -0.200 F 
ENDBRANCH  56  80
BRANCH  68  91
ATOM     91  C   UNL A   1      45.702  32.455  29.240  1.00  0.00     0.064 A 
ATOM     92  C   UNL A   1      46.015  32.885  30.538  1.00  0.00     0.173 A 
ATOM     93  C   UNL A   1      45.685  33.413  28.216  1.00  0.00     0.173 A 
ATOM     94  F   UNL A   1      46.030  32.010  31.554  1.00  0.00    -0.203 F 
ATOM     95  C   UNL A   1      46.285  34.226  30.802  1.00  0.00     0.198 A 
ATOM     96  C   UNL A   1      45.980  34.748  28.478  1.00  0.00     0.198 A 
ATOM     97  F   UNL A   1      45.397  33.052  26.956  1.00  0.00    -0.203 F 
ATOM     98  F   UNL A   1      46.547  34.622  32.055  1.00  0.00    -0.200 F 
ATOM     99  C   UNL A   1      46.274  35.155  29.770  1.00  0.00     0.200 A 
ATOM    100  F   UNL A   1      45.981  35.643  27.479  1.00  0.00    -0.200 F 
ATOM    101  F   UNL A   1      46.542  36.443  30.025  1.00  0.00    -0.200 F 
ENDBRANCH  68  91
ENDBRANCH  42  43
ENDBRANCH  35  37
ENDBRANCH  34  35
ENDBRANCH  33  34
ENDBRANCH  32  33
ENDBRANCH   1  32
TORSDOF 16
ENDMDL
MODEL 2
REMARK VINA RESULT:     -12.5      0.764      6.949
REMARK SMILES CN1C(=O)C[C@@H](C(=O)OCCOCCOC(=O)c2ccc(-c3c4nc(c(-c5c(F)c(F)c(F)c(F)c5F)c5ccc([nH]5)c(-c5c(F)c(F)c(F)c(F)c5F)c5nc(c(-c6c(F)c(F)c(F)c(F)c6F)c6ccc3[nH]6)C=C5)C=C4)cc2)C12CCN(C(=O)c1ccccc1-n1cccn1)CC2
REMARK SMILES IDX 12 1 11 2 10 3 9 4 7 5 8 6 6 7 1 8 2 9 3 10 81 11 4 12 5 13
REMARK SMILES IDX 82 14 99 15 83 16 98 17 84 18 85 19 86 20 87 21 88 22 92 23
REMARK SMILES IDX 89 24 91 25 90 26 93 27 94 28 97 29 95 30 96 31 13 32 14 33
REMARK SMILES IDX 15 34 16 35 17 36 18 37 19 38 80 39 20 40 79 41 21 42 22 43
REMARK SMILES IDX 23 44 73 45 24 46 78 47 72 48 74 49 25 50 77 51 71 52 70 53
REMARK SMILES IDX 26 55 58 56 38 57 57 58 39 59 42 60 56 61 75 62 40 63 41 64
REMARK SMILES IDX 55 66 76 67 43 68 27 69 28 70 36 71 29 72 30 73 34 74 37 75
REMARK SMILES IDX 31 76 32 77 35 78 33 79 59 80 60 81 68 82 61 83 62 84 66 85
REMARK SMILES IDX 69 86 63 87 64 88 67 89 65 90 44 91 45 92 53 93 46 94 47 95
REMARK SMILES IDX 51 96 54 97 48 98 49 99 52 100 50 101
REMARK H PARENT 74 54 42 65
REMARK Flexibility Score: inf
ROOT
ATOM      1  O   UNL A   1      39.497  22.096  25.893  1.00  0.00    -0.374 OA
ENDROOT
BRANCH   1   2
ATOM      2  C   UNL A   1      38.828  23.152  26.579  1.00  0.00     0.202 C 
BRANCH   2   3
ATOM      3  C   UNL A   1      37.871  24.015  25.746  1.00  0.00     0.261 C 
BRANCH   3   4
ATOM      4  O   UNL A   1      36.466  23.821  26.023  1.00  0.00    -0.463 OA
BRANCH   4   5
ATOM      5  C   UNL A   1      35.797  23.037  25.143  1.00  0.00     0.311 C 
ATOM      6  O   UNL A   1      36.128  22.880  23.971  1.00  0.00    -0.252 OA
BRANCH   5   7
ATOM      7  C   UNL A   1      34.506  22.437  25.669  1.00  0.00     0.134 C 
ATOM      8  C   UNL A   1      32.112  21.014  23.144  1.00  0.00     0.147 C 
ATOM      9  N   UNL A   1      33.093  21.303  24.175  1.00  0.00    -0.339 N 
ATOM     10  C   UNL A   1      33.972  20.343  24.648  1.00  0.00     0.223 C 
ATOM     11  C   UNL A   1      33.154  22.570  24.921  1.00  0.00     0.060 C 
ATOM     12  O   UNL A   1      34.087  19.197  24.245  1.00  0.00    -0.275 OA
ATOM     13  C   UNL A   1      34.737  20.927  25.801  1.00  0.00     0.118 C 
ATOM     14  C   UNL A   1      33.008  23.792  23.997  1.00  0.00     0.051 C 
ATOM     15  C   UNL A   1      31.984  22.600  25.962  1.00  0.00     0.051 C 
ATOM     16  C   UNL A   1      32.887  25.095  24.771  1.00  0.00     0.122 C 
ATOM     17  C   UNL A   1      31.802  23.957  26.654  1.00  0.00     0.122 C 
ATOM     18  N   UNL A   1      31.750  25.039  25.679  1.00  0.00    -0.338 N 
ATOM     19  C   UNL A   1      30.716  25.975  25.742  1.00  0.00     0.256 C 
ATOM     20  O   UNL A   1      29.848  25.982  26.610  1.00  0.00    -0.269 OA
BRANCH  19  21
ATOM     21  C   UNL A   1      30.654  27.035  24.711  1.00  0.00     0.065 A 
ATOM     22  C   UNL A   1      29.760  26.807  23.652  1.00  0.00     0.016 A 
ATOM     23  C   UNL A   1      31.320  28.268  24.817  1.00  0.00     0.077 A 
ATOM     24  C   UNL A   1      29.486  27.820  22.734  1.00  0.00     0.001 A 
ATOM     25  C   UNL A   1      30.994  29.297  23.916  1.00  0.00     0.029 A 
ATOM     26  C   UNL A   1      30.087  29.069  22.879  1.00  0.00     0.002 A 
BRANCH  23  27
ATOM     27  N   UNL A   1      32.311  28.524  25.800  1.00  0.00    -0.240 N 
ATOM     28  C   UNL A   1      32.153  29.008  27.081  1.00  0.00     0.115 A 
ATOM     29  N   UNL A   1      33.625  28.272  25.535  1.00  0.00    -0.177 NA
ATOM     30  C   UNL A   1      33.405  29.116  27.636  1.00  0.00     0.042 A 
ATOM     31  C   UNL A   1      34.271  28.650  26.638  1.00  0.00     0.135 A 
ENDBRANCH  23  27
ENDBRANCH  19  21
ENDBRANCH   5   7
ENDBRANCH   4   5
ENDBRANCH   3   4
ENDBRANCH   2   3
ENDBRANCH   1   2
BRANCH   1  32
ATOM     32  C   UNL A   1      38.716  20.963  25.517  1.00  0.00     0.202 C 
BRANCH  32  33
ATOM     33  C   UNL A   1      39.403  19.610  25.722  1.00  0.00     0.261 C 
BRANCH  33  34
ATOM     34  O   UNL A   1      40.389  19.720  26.761  1.00  0.00    -0.460 OA
BRANCH  34  35
ATOM     35  C   UNL A   1      41.647  19.458  26.342  1.00  0.00     0.338 C 
ATOM     36  O   UNL A   1      42.037  18.467  25.751  1.00  0.00    -0.246 OA
BRANCH  35  37
ATOM     37  C   UNL A   1      42.455  20.679  26.499  1.00  0.00     0.060 A 
ATOM     38  C   UNL A   1      42.530  21.248  27.777  1.00  0.00     0.016 A 
ATOM     39  C   UNL A   1      43.028  21.317  25.399  1.00  0.00     0.016 A 
ATOM     40  C   UNL A   1      43.131  22.495  27.947  1.00  0.00     0.010 A 
ATOM     41  C   UNL A   1      43.639  22.566  25.576  1.00  0.00     0.010 A 
ATOM     42  C   UNL A   1      43.655  23.182  26.843  1.00  0.00    -0.014 A 
BRANCH  42  43
ATOM     43  C   UNL A   1      44.073  24.600  27.002  1.00  0.00     0.031 A 
ATOM     44  C   UNL A   1      43.055  25.623  27.433  1.00  0.00     0.074 A 
ATOM     45  C   UNL A   1      45.353  24.970  26.821  1.00  0.00     0.049 A 
ATOM     46  N   UNL A   1      43.209  26.900  27.677  1.00  0.00    -0.248 NA
ATOM     47  C   UNL A   1      41.677  25.139  27.619  1.00  0.00     0.031 C 
ATOM     48  C   UNL A   1      46.441  24.079  26.428  1.00  0.00     0.029 A 
ATOM     49  N   UNL A   1      45.954  26.199  26.951  1.00  0.00    -0.354 N 
ATOM     50  C   UNL A   1      41.956  27.370  28.048  1.00  0.00     0.074 A 
ATOM     51  C   UNL A   1      41.043  26.251  27.963  1.00  0.00     0.031 C 
ATOM     52  C   UNL A   1      47.580  24.790  26.347  1.00  0.00     0.029 A 
ATOM     53  C   UNL A   1      47.296  26.189  26.663  1.00  0.00     0.049 A 
ATOM     54  H   UNL A   1      45.467  27.011  27.224  1.00  0.00     0.167 HD
ATOM     55  C   UNL A   1      41.599  28.617  28.440  1.00  0.00     0.037 A 
ATOM     56  C   UNL A   1      48.193  27.197  26.648  1.00  0.00     0.037 A 
ATOM     57  C   UNL A   1      42.501  29.735  28.527  1.00  0.00     0.049 A 
ATOM     58  C   UNL A   1      47.758  28.589  27.029  1.00  0.00     0.074 A 
ATOM     59  C   UNL A   1      42.233  31.031  28.936  1.00  0.00     0.029 A 
ATOM     60  N   UNL A   1      43.845  29.692  28.191  1.00  0.00    -0.354 N 
ATOM     61  N   UNL A   1      46.580  29.011  27.419  1.00  0.00    -0.248 NA
ATOM     62  C   UNL A   1      48.782  29.643  26.973  1.00  0.00     0.031 C 
ATOM     63  C   UNL A   1      43.406  31.783  28.804  1.00  0.00     0.029 A 
ATOM     64  C   UNL A   1      44.415  30.945  28.356  1.00  0.00     0.049 A 
ATOM     65  H   UNL A   1      44.325  28.890  27.881  1.00  0.00     0.167 HD
ATOM     66  C   UNL A   1      46.726  30.369  27.674  1.00  0.00     0.074 A 
ATOM     67  C   UNL A   1      48.110  30.699  27.409  1.00  0.00     0.031 C 
ATOM     68  C   UNL A   1      45.794  31.261  28.092  1.00  0.00     0.037 A 
BRANCH  55  69
ATOM     69  C   UNL A   1      40.159  28.843  28.794  1.00  0.00     0.064 A 
ATOM     70  C   UNL A   1      39.230  29.284  27.840  1.00  0.00     0.173 A 
ATOM     71  C   UNL A   1      39.696  28.581  30.092  1.00  0.00     0.173 A 
ATOM     72  F   UNL A   1      39.627  29.558  26.588  1.00  0.00    -0.203 F 
ATOM     73  C   UNL A   1      37.894  29.477  28.179  1.00  0.00     0.198 A 
ATOM     74  C   UNL A   1      38.354  28.751  30.421  1.00  0.00     0.198 A 
ATOM     75  F   UNL A   1      40.544  28.152  31.039  1.00  0.00    -0.203 F 
ATOM     76  F   UNL A   1      37.031  29.937  27.263  1.00  0.00    -0.200 F 
ATOM     77  C   UNL A   1      37.456  29.205  29.467  1.00  0.00     0.200 A 
ATOM     78  F   UNL A   1      37.930  28.478  31.662  1.00  0.00    -0.200 F 
ATOM     79  F   UNL A   1      36.168  29.387  29.791  1.00  0.00    -0.200 F 
ENDBRANCH  55  69
BRANCH  56  80
ATOM     80  C   UNL A   1      49.600  26.927  26.256  1.00  0.00     0.064 A 
ATOM     81  C   UNL A   1      50.002  26.977  24.914  1.00  0.00     0.173 A 
ATOM     82  C   UNL A   1      50.568  26.597  27.216  1.00  0.00     0.173 A 
ATOM     83  F   UNL A   1      49.105  27.259  23.957  1.00  0.00    -0.203 F 
ATOM     84  C   UNL A   1      51.316  26.695  24.546  1.00  0.00     0.198 A 
ATOM     85  C   UNL A   1      51.887  26.341  26.849  1.00  0.00     0.198 A 
ATOM     86  F   UNL A   1      50.231  26.530  28.512  1.00  0.00    -0.203 F 
ATOM     87  F   UNL A   1      51.665  26.710  23.252  1.00  0.00    -0.200 F 
ATOM     88  C   UNL A   1      52.259  26.384  25.514  1.00  0.00     0.200 A 
ATOM     89  F   UNL A   1      52.796  26.048  27.788  1.00  0.00    -0.200 F 
ATOM     90  F   UNL A   1      53.523  26.117  25.159  1.00  0.00    -0.200 F 
ENDBRANCH  56  80
BRANCH  68  91
ATOM     91  C   UNL A   1      46.241  32.677  28.310  1.00  0.00     0.064 A 
ATOM     92  C   UNL A   1      46.136  33.643  27.299  1.00  0.00     0.173 A 
ATOM     93  C   UNL A   1      46.735  33.083  29.558  1.00  0.00     0.173 A 
ATOM     94  F   UNL A   1      45.683  33.301  26.084  1.00  0.00    -0.203 F 
ATOM     95  C   UNL A   1      46.526  34.961  27.524  1.00  0.00     0.198 A 
ATOM     96  C   UNL A   1      47.101  34.406  29.788  1.00  0.00     0.198 A 
ATOM     97  F   UNL A   1      46.850  32.199  30.561  1.00  0.00    -0.203 F 
ATOM     98  F   UNL A   1      46.452  35.859  26.533  1.00  0.00    -0.200 F 
ATOM     99  C   UNL A   1      47.002  35.342  28.770  1.00  0.00     0.200 A 
ATOM    100  F   UNL A   1      47.549  34.778  30.996  1.00  0.00    -0.200 F 
ATOM    101  F   UNL A   1      47.369  36.613  28.987  1.00  0.00    -0.200 F 
ENDBRANCH  68  91
ENDBRANCH  42  43
ENDBRANCH  35  37
ENDBRANCH  34  35
ENDBRANCH  33  34
ENDBRANCH  32  33
ENDBRANCH   1  32
TORSDOF 16
ENDMDL
MODEL 3
REMARK VINA RESULT:     -12.4      0.627      1.649
REMARK SMILES CN1C(=O)C[C@@H](C(=O)OCCOCCOC(=O)c2ccc(-c3c4nc(c(-c5c(F)c(F)c(F)c(F)c5F)c5ccc([nH]5)c(-c5c(F)c(F)c(F)c(F)c5F)c5nc(c(-c6c(F)c(F)c(F)c(F)c6F)c6ccc3[nH]6)C=C5)C=C4)cc2)C12CCN(C(=O)c1ccccc1-n1cccn1)CC2
REMARK SMILES IDX 12 1 11 2 10 3 9 4 7 5 8 6 6 7 1 8 2 9 3 10 81 11 4 12 5 13
REMARK SMILES IDX 82 14 99 15 83 16 98 17 84 18 85 19 86 20 87 21 88 22 92 23
REMARK SMILES IDX 89 24 91 25 90 26 93 27 94 28 97 29 95 30 96 31 13 32 14 33
REMARK SMILES IDX 15 34 16 35 17 36 18 37 19 38 80 39 20 40 79 41 21 42 22 43
REMARK SMILES IDX 23 44 73 45 24 46 78 47 72 48 74 49 25 50 77 51 71 52 70 53
REMARK SMILES IDX 26 55 58 56 38 57 57 58 39 59 42 60 56 61 75 62 40 63 41 64
REMARK SMILES IDX 55 66 76 67 43 68 27 69 28 70 36 71 29 72 30 73 34 74 37 75
REMARK SMILES IDX 31 76 32 77 35 78 33 79 59 80 60 81 68 82 61 83 62 84 66 85
REMARK SMILES IDX 69 86 63 87 64 88 67 89 65 90 44 91 45 92 53 93 46 94 47 95
REMARK SMILES IDX 51 96 54 97 48 98 49 99 52 100 50 101
REMARK H PARENT 74 54 42 65
REMARK Flexibility Score: inf
ROOT
ATOM      1  O   UNL A   1      39.621  22.084  26.021  1.00  0.00    -0.374 OA
ENDROOT
BRANCH   1   2
ATOM      2  C   UNL A   1      38.777  22.956  26.770  1.00  0.00     0.202 C 
BRANCH   2   3
ATOM      3  C   UNL A   1      38.183  24.152  26.015  1.00  0.00     0.261 C 
BRANCH   3   4
ATOM      4  O   UNL A   1      36.739  24.218  26.002  1.00  0.00    -0.463 OA
BRANCH   4   5
ATOM      5  C   UNL A   1      36.118  23.312  25.209  1.00  0.00     0.311 C 
ATOM      6  O   UNL A   1      36.449  23.066  24.053  1.00  0.00    -0.252 OA
BRANCH   5   7
ATOM      7  C   UNL A   1      34.874  22.680  25.807  1.00  0.00     0.134 C 
ATOM      8  C   UNL A   1      32.464  21.035  23.437  1.00  0.00     0.147 C 
ATOM      9  N   UNL A   1      33.465  21.416  24.418  1.00  0.00    -0.339 N 
ATOM     10  C   UNL A   1      34.402  20.519  24.902  1.00  0.00     0.223 C 
ATOM     11  C   UNL A   1      33.493  22.717  25.103  1.00  0.00     0.060 C 
ATOM     12  O   UNL A   1      34.557  19.362  24.547  1.00  0.00    -0.275 OA
ATOM     13  C   UNL A   1      35.178  21.190  26.000  1.00  0.00     0.118 C 
ATOM     14  C   UNL A   1      33.259  23.887  24.131  1.00  0.00     0.051 C 
ATOM     15  C   UNL A   1      32.358  22.744  26.183  1.00  0.00     0.051 C 
ATOM     16  C   UNL A   1      33.106  25.219  24.849  1.00  0.00     0.122 C 
ATOM     17  C   UNL A   1      32.138  24.122  26.819  1.00  0.00     0.122 C 
ATOM     18  N   UNL A   1      32.003  25.154  25.799  1.00  0.00    -0.338 N 
ATOM     19  C   UNL A   1      30.930  26.046  25.856  1.00  0.00     0.256 C 
ATOM     20  O   UNL A   1      30.093  26.054  26.754  1.00  0.00    -0.269 OA
BRANCH  19  21
ATOM     21  C   UNL A   1      30.785  27.053  24.781  1.00  0.00     0.065 A 
ATOM     22  C   UNL A   1      29.887  26.724  23.753  1.00  0.00     0.016 A 
ATOM     23  C   UNL A   1      31.376  28.327  24.819  1.00  0.00     0.077 A 
ATOM     24  C   UNL A   1      29.535  27.676  22.797  1.00  0.00     0.001 A 
ATOM     25  C   UNL A   1      30.971  29.293  23.881  1.00  0.00     0.029 A 
ATOM     26  C   UNL A   1      30.061  28.964  22.874  1.00  0.00     0.002 A 
BRANCH  23  27
ATOM     27  N   UNL A   1      32.368  28.686  25.769  1.00  0.00    -0.240 N 
ATOM     28  C   UNL A   1      32.204  29.229  27.026  1.00  0.00     0.115 A 
ATOM     29  N   UNL A   1      33.688  28.489  25.493  1.00  0.00    -0.177 NA
ATOM     30  C   UNL A   1      33.457  29.431  27.552  1.00  0.00     0.042 A 
ATOM     31  C   UNL A   1      34.331  28.959  26.564  1.00  0.00     0.135 A 
ENDBRANCH  23  27
ENDBRANCH  19  21
ENDBRANCH   5   7
ENDBRANCH   4   5
ENDBRANCH   3   4
ENDBRANCH   2   3
ENDBRANCH   1   2
BRANCH   1  32
ATOM     32  C   UNL A   1      39.050  20.861  25.557  1.00  0.00     0.202 C 
BRANCH  32  33
ATOM     33  C   UNL A   1      39.799  19.597  25.984  1.00  0.00     0.261 C 
BRANCH  33  34
ATOM     34  O   UNL A   1      40.992  19.450  25.196  1.00  0.00    -0.460 OA
BRANCH  34  35
ATOM     35  C   UNL A   1      42.092  19.165  25.929  1.00  0.00     0.338 C 
ATOM     36  O   UNL A   1      42.586  18.068  26.122  1.00  0.00    -0.246 OA
BRANCH  35  37
ATOM     37  C   UNL A   1      42.762  20.428  26.276  1.00  0.00     0.060 A 
ATOM     38  C   UNL A   1      42.612  20.903  27.586  1.00  0.00     0.016 A 
ATOM     39  C   UNL A   1      43.422  21.190  25.312  1.00  0.00     0.016 A 
ATOM     40  C   UNL A   1      43.075  22.177  27.920  1.00  0.00     0.010 A 
ATOM     41  C   UNL A   1      43.893  22.465  25.654  1.00  0.00     0.010 A 
ATOM     42  C   UNL A   1      43.683  22.983  26.947  1.00  0.00    -0.014 A 
BRANCH  42  43
ATOM     43  C   UNL A   1      43.951  24.413  27.254  1.00  0.00     0.031 A 
ATOM     44  C   UNL A   1      45.331  24.968  27.025  1.00  0.00     0.074 A 
ATOM     45  C   UNL A   1      42.967  25.227  27.678  1.00  0.00     0.049 A 
ATOM     46  N   UNL A   1      45.774  26.191  27.181  1.00  0.00    -0.248 NA
ATOM     47  C   UNL A   1      46.351  24.018  26.553  1.00  0.00     0.031 C 
ATOM     48  C   UNL A   1      41.583  24.825  27.916  1.00  0.00     0.029 A 
ATOM     49  N   UNL A   1      42.986  26.568  27.979  1.00  0.00    -0.354 N 
ATOM     50  C   UNL A   1      47.115  26.158  26.823  1.00  0.00     0.074 A 
ATOM     51  C   UNL A   1      47.426  24.789  26.476  1.00  0.00     0.031 C 
ATOM     52  C   UNL A   1      40.883  25.897  28.329  1.00  0.00     0.029 A 
ATOM     53  C   UNL A   1      41.774  27.055  28.402  1.00  0.00     0.049 A 
ATOM     54  H   UNL A   1      43.793  27.127  27.900  1.00  0.00     0.167 HD
ATOM     55  C   UNL A   1      48.005  27.178  26.771  1.00  0.00     0.037 A 
ATOM     56  C   UNL A   1      41.424  28.291  28.810  1.00  0.00     0.037 A 
ATOM     57  C   UNL A   1      47.704  28.543  27.115  1.00  0.00     0.049 A 
ATOM     58  C   UNL A   1      42.449  29.397  28.801  1.00  0.00     0.074 A 
ATOM     59  C   UNL A   1      48.537  29.649  27.072  1.00  0.00     0.029 A 
ATOM     60  N   UNL A   1      46.474  28.987  27.574  1.00  0.00    -0.354 N 
ATOM     61  N   UNL A   1      43.702  29.362  28.420  1.00  0.00    -0.248 NA
ATOM     62  C   UNL A   1      42.005  30.716  29.276  1.00  0.00     0.031 C 
ATOM     63  C   UNL A   1      47.822  30.754  27.548  1.00  0.00     0.029 A 
ATOM     64  C   UNL A   1      46.532  30.346  27.844  1.00  0.00     0.049 A 
ATOM     65  H   UNL A   1      45.676  28.422  27.691  1.00  0.00     0.167 HD
ATOM     66  C   UNL A   1      44.189  30.653  28.587  1.00  0.00     0.074 A 
ATOM     67  C   UNL A   1      43.092  31.452  29.091  1.00  0.00     0.031 C 
ATOM     68  C   UNL A   1      45.434  31.131  28.343  1.00  0.00     0.037 A 
BRANCH  55  69
ATOM     69  C   UNL A   1      49.404  26.852  26.337  1.00  0.00     0.064 A 
ATOM     70  C   UNL A   1      50.378  26.437  27.256  1.00  0.00     0.173 A 
ATOM     71  C   UNL A   1      49.762  26.921  24.983  1.00  0.00     0.173 A 
ATOM     72  F   UNL A   1      50.086  26.366  28.564  1.00  0.00    -0.203 F 
ATOM     73  C   UNL A   1      51.669  26.125  26.837  1.00  0.00     0.198 A 
ATOM     74  C   UNL A   1      51.047  26.584  24.565  1.00  0.00     0.198 A 
ATOM     75  F   UNL A   1      48.864  27.307  24.064  1.00  0.00    -0.203 F 
ATOM     76  F   UNL A   1      52.596  25.769  27.738  1.00  0.00    -0.200 F 
ATOM     77  C   UNL A   1      52.001  26.194  25.493  1.00  0.00     0.200 A 
ATOM     78  F   UNL A   1      51.363  26.641  23.264  1.00  0.00    -0.200 F 
ATOM     79  F   UNL A   1      53.242  25.888  25.090  1.00  0.00    -0.200 F 
ENDBRANCH  55  69
BRANCH  56  80
ATOM     80  C   UNL A   1      40.034  28.554  29.263  1.00  0.00     0.064 A 
ATOM     81  C   UNL A   1      39.636  28.278  30.578  1.00  0.00     0.173 A 
ATOM     82  C   UNL A   1      39.072  29.072  28.384  1.00  0.00     0.173 A 
ATOM     83  F   UNL A   1      40.513  27.753  31.447  1.00  0.00    -0.203 F 
ATOM     84  C   UNL A   1      38.324  28.498  30.994  1.00  0.00     0.198 A 
ATOM     85  C   UNL A   1      37.768  29.316  28.808  1.00  0.00     0.198 A 
ATOM     86  F   UNL A   1      39.403  29.347  27.114  1.00  0.00    -0.203 F 
ATOM     87  F   UNL A   1      37.958  28.186  32.245  1.00  0.00    -0.200 F 
ATOM     88  C   UNL A   1      37.393  29.023  30.111  1.00  0.00     0.200 A 
ATOM     89  F   UNL A   1      36.873  29.831  27.954  1.00  0.00    -0.200 F 
ATOM     90  F   UNL A   1      36.132  29.238  30.511  1.00  0.00    -0.200 F 
ENDBRANCH  56  80
BRANCH  68  91
ATOM     91  C   UNL A   1      45.676  32.590  28.597  1.00  0.00     0.064 A 
ATOM     92  C   UNL A   1      46.245  33.041  29.797  1.00  0.00     0.173 A 
ATOM     93  C   UNL A   1      45.382  33.543  27.610  1.00  0.00     0.173 A 
ATOM     94  F   UNL A   1      46.531  32.171  30.776  1.00  0.00    -0.203 F 
ATOM     95  C   UNL A   1      46.492  34.395  30.008  1.00  0.00     0.198 A 
ATOM     96  C   UNL A   1      45.653  34.893  27.814  1.00  0.00     0.198 A 
ATOM     97  F   UNL A   1      44.842  33.162  26.442  1.00  0.00    -0.203 F 
ATOM     98  F   UNL A   1      47.002  34.809  31.176  1.00  0.00    -0.200 F 
ATOM     99  C   UNL A   1      46.203  35.319  29.013  1.00  0.00     0.200 A 
ATOM    100  F   UNL A   1      45.385  35.783  26.848  1.00  0.00    -0.200 F 
ATOM    101  F   UNL A   1      46.450  36.621  29.215  1.00  0.00    -0.200 F 
ENDBRANCH  68  91
ENDBRANCH  42  43
ENDBRANCH  35  37
ENDBRANCH  34  35
ENDBRANCH  33  34
ENDBRANCH  32  33
ENDBRANCH   1  32
TORSDOF 16
ENDMDL
