MODEL 1
REMARK VINA RESULT:     -12.1      0.000      0.000
REMARK SMILES C/C(=N\NC(N)=S)c1nnn(-c2ccc(C(=O)OCCOCCOC(=O)c3ccc(-c4c5nc(c(-c6c(F)c(F)c(F)c(F)c6F)c6ccc([nH]6)c(-c6c(F)c(F)c(F)c(F)c6F)c6nc(c(-c7c(F)c(F)c(F)c(F)c7F)c7ccc4[nH]7)C=C6)C=C5)cc3)cc2)c1C
REMARK SMILES IDX 19 1 18 2 16 3 17 4 15 5 12 6 13 7 91 8 14 9 90 10 11 11
REMARK SMILES IDX 8 12 9 13 92 14 10 15 93 16 2 17 1 18 3 19 4 20 5 22 7 23
REMARK SMILES IDX 6 24 20 27 21 28 22 29 23 30 24 31 25 32 26 33 27 34 28 35
REMARK SMILES IDX 89 36 29 37 88 38 30 39 31 40 32 41 82 42 33 43 87 44 81 45
REMARK SMILES IDX 83 46 34 47 86 48 80 49 79 50 35 52 67 53 47 54 66 55 48 56
REMARK SMILES IDX 51 57 65 58 84 59 49 60 50 61 64 63 85 64 52 65 36 66 37 67
REMARK SMILES IDX 45 68 38 69 39 70 43 71 46 72 40 73 41 74 44 75 42 76 68 77
REMARK SMILES IDX 69 78 77 79 70 80 71 81 75 82 78 83 72 84 73 85 76 86 74 87
REMARK SMILES IDX 53 88 54 89 62 90 55 91 56 92 60 93 63 94 57 95 58 96 61 97
REMARK SMILES IDX 59 98
REMARK H PARENT 4 21 6 25 6 26 83 51 51 62
REMARK Flexibility Score: inf
ROOT
ATOM      1  C   UNL A   1      33.969  32.269  28.396  1.00  0.00     0.261 C 
ENDROOT
BRANCH   1   2
ATOM      2  O   UNL A   1      33.819  31.458  27.220  1.00  0.00    -0.460 OA
BRANCH   2   3
ATOM      3  C   UNL A   1      32.538  31.140  26.912  1.00  0.00     0.338 C 
ATOM      4  O   UNL A   1      31.576  31.887  26.898  1.00  0.00    -0.246 OA
BRANCH   3   5
ATOM      5  C   UNL A   1      32.462  29.737  26.446  1.00  0.00     0.060 A 
ATOM      6  C   UNL A   1      32.627  27.031  25.882  1.00  0.00     0.067 A 
ATOM      7  C   UNL A   1      31.824  27.450  26.949  1.00  0.00     0.029 A 
ATOM      8  C   UNL A   1      33.217  27.958  25.014  1.00  0.00     0.029 A 
ATOM      9  C   UNL A   1      31.769  28.811  27.244  1.00  0.00     0.018 A 
ATOM     10  C   UNL A   1      33.126  29.320  25.290  1.00  0.00     0.018 A 
BRANCH   6  11
ATOM     11  N   UNL A   1      33.040  25.684  25.832  1.00  0.00    -0.217 N 
ATOM     12  C   UNL A   1      33.106  23.558  25.360  1.00  0.00     0.132 A 
ATOM     13  N   UNL A   1      34.389  24.022  25.485  1.00  0.00    -0.128 NA
ATOM     14  C   UNL A   1      32.220  24.598  25.568  1.00  0.00     0.071 A 
ATOM     15  N   UNL A   1      34.337  25.330  25.704  1.00  0.00    -0.061 NA
ATOM     16  C   UNL A   1      30.758  24.672  25.324  1.00  0.00     0.069 C 
BRANCH  12  17
ATOM     17  C   UNL A   1      32.799  22.257  24.791  1.00  0.00     0.087 C 
ATOM     18  C   UNL A   1      33.087  22.123  23.321  1.00  0.00     0.071 C 
ATOM     19  N   UNL A   1      32.338  21.372  25.624  1.00  0.00    -0.176 NA
BRANCH  19  20
ATOM     20  N   UNL A   1      32.069  20.076  25.289  1.00  0.00    -0.254 N 
ATOM     21  H   UNL A   1      31.157  19.924  24.947  1.00  0.00     0.193 HD
BRANCH  20  22
ATOM     22  C   UNL A   1      32.854  18.943  25.349  1.00  0.00     0.184 C 
ATOM     23  S   UNL A   1      33.743  18.182  24.170  1.00  0.00    -0.040 S 
BRANCH  22  24
ATOM     24  N   UNL A   1      32.853  18.390  26.604  1.00  0.00    -0.375 N 
ATOM     25  H   UNL A   1      33.400  17.593  26.791  1.00  0.00     0.159 HD
ATOM     26  H   UNL A   1      32.307  18.790  27.317  1.00  0.00     0.159 HD
ENDBRANCH  22  24
ENDBRANCH  20  22
ENDBRANCH  19  20
ENDBRANCH  12  17
ENDBRANCH   6  11
ENDBRANCH   3   5
ENDBRANCH   2   3
ENDBRANCH   1   2
BRANCH   1  27
ATOM     27  C   UNL A   1      33.956  33.766  28.077  1.00  0.00     0.202 C 
BRANCH  27  28
ATOM     28  O   UNL A   1      32.951  34.571  28.690  1.00  0.00    -0.374 OA
BRANCH  28  29
ATOM     29  C   UNL A   1      33.315  35.791  29.322  1.00  0.00     0.202 C 
BRANCH  29  30
ATOM     30  C   UNL A   1      32.553  36.222  30.565  1.00  0.00     0.261 C 
BRANCH  30  31
ATOM     31  O   UNL A   1      32.582  35.263  31.615  1.00  0.00    -0.460 OA
BRANCH  31  32
ATOM     32  C   UNL A   1      33.350  35.653  32.661  1.00  0.00     0.338 C 
ATOM     33  O   UNL A   1      33.286  36.703  33.268  1.00  0.00    -0.246 OA
BRANCH  32  34
ATOM     34  C   UNL A   1      34.448  34.693  32.824  1.00  0.00     0.060 A 
ATOM     35  C   UNL A   1      35.724  35.239  32.963  1.00  0.00     0.016 A 
ATOM     36  C   UNL A   1      34.252  33.326  32.573  1.00  0.00     0.016 A 
ATOM     37  C   UNL A   1      36.810  34.442  32.673  1.00  0.00     0.010 A 
ATOM     38  C   UNL A   1      35.339  32.531  32.280  1.00  0.00     0.010 A 
ATOM     39  C   UNL A   1      36.601  33.114  32.267  1.00  0.00    -0.014 A 
BRANCH  39  40
ATOM     40  C   UNL A   1      37.777  32.296  32.053  1.00  0.00     0.031 A 
ATOM     41  C   UNL A   1      38.481  32.059  33.328  1.00  0.00     0.074 A 
ATOM     42  C   UNL A   1      38.171  31.801  30.865  1.00  0.00     0.049 A 
ATOM     43  N   UNL A   1      39.547  32.667  33.724  1.00  0.00    -0.248 NA
ATOM     44  C   UNL A   1      37.821  31.261  34.373  1.00  0.00     0.031 C 
ATOM     45  C   UNL A   1      37.430  31.791  29.604  1.00  0.00     0.029 A 
ATOM     46  N   UNL A   1      39.319  31.130  30.552  1.00  0.00    -0.354 N 
ATOM     47  C   UNL A   1      39.836  32.134  34.972  1.00  0.00     0.074 A 
ATOM     48  C   UNL A   1      38.644  31.455  35.407  1.00  0.00     0.031 C 
ATOM     49  C   UNL A   1      38.041  30.954  28.732  1.00  0.00     0.029 A 
ATOM     50  C   UNL A   1      39.285  30.485  29.319  1.00  0.00     0.049 A 
ATOM     51  H   UNL A   1      40.103  31.104  31.147  1.00  0.00     0.167 HD
ATOM     52  C   UNL A   1      41.138  31.996  35.336  1.00  0.00     0.037 A 
ATOM     53  C   UNL A   1      40.207  29.607  28.845  1.00  0.00     0.037 A 
ATOM     54  C   UNL A   1      41.976  32.823  34.497  1.00  0.00     0.049 A 
ATOM     55  C   UNL A   1      41.478  29.895  29.546  1.00  0.00     0.074 A 
ATOM     56  C   UNL A   1      42.191  34.171  34.302  1.00  0.00     0.029 A 
ATOM     57  N   UNL A   1      42.415  32.178  33.373  1.00  0.00    -0.354 N 
ATOM     58  N   UNL A   1      42.172  30.982  29.352  1.00  0.00    -0.248 NA
ATOM     59  C   UNL A   1      41.816  29.144  30.749  1.00  0.00     0.031 C 
ATOM     60  C   UNL A   1      42.602  34.314  32.940  1.00  0.00     0.029 A 
ATOM     61  C   UNL A   1      42.685  33.049  32.359  1.00  0.00     0.049 A 
ATOM     62  H   UNL A   1      42.524  31.202  33.303  1.00  0.00     0.167 HD
ATOM     63  C   UNL A   1      42.673  31.288  30.601  1.00  0.00     0.074 A 
ATOM     64  C   UNL A   1      42.589  30.045  31.360  1.00  0.00     0.031 C 
ATOM     65  C   UNL A   1      42.786  32.591  30.992  1.00  0.00     0.037 A 
BRANCH  52  66
ATOM     66  C   UNL A   1      41.697  30.727  35.960  1.00  0.00     0.064 A 
ATOM     67  C   UNL A   1      42.719  30.854  36.926  1.00  0.00     0.173 A 
ATOM     68  C   UNL A   1      41.546  29.432  35.411  1.00  0.00     0.173 A 
ATOM     69  F   UNL A   1      42.973  32.041  37.497  1.00  0.00    -0.203 F 
ATOM     70  C   UNL A   1      43.573  29.794  37.243  1.00  0.00     0.198 A 
ATOM     71  C   UNL A   1      42.370  28.367  35.767  1.00  0.00     0.198 A 
ATOM     72  F   UNL A   1      40.687  29.160  34.425  1.00  0.00    -0.203 F 
ATOM     73  F   UNL A   1      44.612  30.000  38.063  1.00  0.00    -0.200 F 
ATOM     74  C   UNL A   1      43.403  28.554  36.657  1.00  0.00     0.200 A 
ATOM     75  F   UNL A   1      42.206  27.182  35.162  1.00  0.00    -0.200 F 
ATOM     76  F   UNL A   1      44.258  27.554  36.908  1.00  0.00    -0.200 F 
ENDBRANCH  52  66
BRANCH  53  77
ATOM     77  C   UNL A   1      40.023  28.371  28.039  1.00  0.00     0.064 A 
ATOM     78  C   UNL A   1      40.736  28.180  26.840  1.00  0.00     0.173 A 
ATOM     79  C   UNL A   1      39.401  27.230  28.579  1.00  0.00     0.173 A 
ATOM     80  F   UNL A   1      41.386  29.203  26.267  1.00  0.00    -0.203 F 
ATOM     81  C   UNL A   1      40.873  26.915  26.255  1.00  0.00     0.198 A 
ATOM     82  C   UNL A   1      39.534  25.969  27.991  1.00  0.00     0.198 A 
ATOM     83  F   UNL A   1      38.741  27.292  29.743  1.00  0.00    -0.203 F 
ATOM     84  F   UNL A   1      41.633  26.761  25.161  1.00  0.00    -0.200 F 
ATOM     85  C   UNL A   1      40.286  25.808  26.842  1.00  0.00     0.200 A 
ATOM     86  F   UNL A   1      38.988  24.900  28.588  1.00  0.00    -0.200 F 
ATOM     87  F   UNL A   1      40.482  24.584  26.330  1.00  0.00    -0.200 F 
ENDBRANCH  53  77
BRANCH  65  88
ATOM     88  C   UNL A   1      42.883  33.625  29.912  1.00  0.00     0.064 A 
ATOM     89  C   UNL A   1      44.040  33.907  29.168  1.00  0.00     0.173 A 
ATOM     90  C   UNL A   1      41.709  34.314  29.575  1.00  0.00     0.173 A 
ATOM     91  F   UNL A   1      45.178  33.233  29.377  1.00  0.00    -0.203 F 
ATOM     92  C   UNL A   1      44.025  34.870  28.161  1.00  0.00     0.198 A 
ATOM     93  C   UNL A   1      41.687  35.243  28.544  1.00  0.00     0.198 A 
ATOM     94  F   UNL A   1      40.567  34.054  30.231  1.00  0.00    -0.203 F 
ATOM     95  F   UNL A   1      45.146  35.144  27.477  1.00  0.00    -0.200 F 
ATOM     96  C   UNL A   1      42.848  35.531  27.845  1.00  0.00     0.200 A 
ATOM     97  F   UNL A   1      40.537  35.846  28.216  1.00  0.00    -0.200 F 
ATOM     98  F   UNL A   1      42.826  36.433  26.853  1.00  0.00    -0.200 F 
ENDBRANCH  65  88
ENDBRANCH  39  40
ENDBRANCH  32  34
ENDBRANCH  31  32
ENDBRANCH  30  31
ENDBRANCH  29  30
ENDBRANCH  28  29
ENDBRANCH  27  28
ENDBRANCH   1  27
TORSDOF 19
ENDMDL
MODEL 2
REMARK VINA RESULT:     -11.9      5.260     10.556
REMARK SMILES C/C(=N\NC(N)=S)c1nnn(-c2ccc(C(=O)OCCOCCOC(=O)c3ccc(-c4c5nc(c(-c6c(F)c(F)c(F)c(F)c6F)c6ccc([nH]6)c(-c6c(F)c(F)c(F)c(F)c6F)c6nc(c(-c7c(F)c(F)c(F)c(F)c7F)c7ccc4[nH]7)C=C6)C=C5)cc3)cc2)c1C
REMARK SMILES IDX 19 1 18 2 16 3 17 4 15 5 12 6 13 7 91 8 14 9 90 10 11 11
REMARK SMILES IDX 8 12 9 13 92 14 10 15 93 16 2 17 1 18 3 19 4 20 5 22 7 23
REMARK SMILES IDX 6 24 20 27 21 28 22 29 23 30 24 31 25 32 26 33 27 34 28 35
REMARK SMILES IDX 89 36 29 37 88 38 30 39 31 40 32 41 82 42 33 43 87 44 81 45
REMARK SMILES IDX 83 46 34 47 86 48 80 49 79 50 35 52 67 53 47 54 66 55 48 56
REMARK SMILES IDX 51 57 65 58 84 59 49 60 50 61 64 63 85 64 52 65 36 66 37 67
REMARK SMILES IDX 45 68 38 69 39 70 43 71 46 72 40 73 41 74 44 75 42 76 68 77
REMARK SMILES IDX 69 78 77 79 70 80 71 81 75 82 78 83 72 84 73 85 76 86 74 87
REMARK SMILES IDX 53 88 54 89 62 90 55 91 56 92 60 93 63 94 57 95 58 96 61 97
REMARK SMILES IDX 59 98
REMARK H PARENT 4 21 6 25 6 26 83 51 51 62
REMARK Flexibility Score: inf
ROOT
ATOM      1  C   UNL A   1      42.035  19.722  26.180  1.00  0.00     0.261 C 
ENDROOT
BRANCH   1   2
ATOM      2  O   UNL A   1      40.674  19.914  26.596  1.00  0.00    -0.460 OA
BRANCH   2   3
ATOM      3  C   UNL A   1      40.376  21.176  26.990  1.00  0.00     0.338 C 
ATOM      4  O   UNL A   1      40.971  21.852  27.810  1.00  0.00    -0.246 OA
BRANCH   3   5
ATOM      5  C   UNL A   1      39.264  21.713  26.174  1.00  0.00     0.060 A 
ATOM      6  C   UNL A   1      36.952  22.707  25.021  1.00  0.00     0.067 A 
ATOM      7  C   UNL A   1      37.798  23.589  25.702  1.00  0.00     0.029 A 
ATOM      8  C   UNL A   1      37.329  21.379  24.785  1.00  0.00     0.029 A 
ATOM      9  C   UNL A   1      38.946  23.076  26.304  1.00  0.00     0.018 A 
ATOM     10  C   UNL A   1      38.497  20.881  25.356  1.00  0.00     0.018 A 
BRANCH   6  11
ATOM     11  N   UNL A   1      35.615  23.093  24.788  1.00  0.00    -0.217 N 
ATOM     12  C   UNL A   1      33.603  23.867  25.101  1.00  0.00     0.132 A 
ATOM     13  N   UNL A   1      33.977  24.119  23.807  1.00  0.00    -0.128 NA
ATOM     14  C   UNL A   1      34.632  23.220  25.758  1.00  0.00     0.071 A 
ATOM     15  N   UNL A   1      35.227  23.705  23.648  1.00  0.00    -0.061 NA
ATOM     16  C   UNL A   1      34.817  22.939  27.202  1.00  0.00     0.069 C 
BRANCH  12  17
ATOM     17  C   UNL A   1      32.437  24.485  25.710  1.00  0.00     0.087 C 
ATOM     18  C   UNL A   1      31.317  23.537  26.041  1.00  0.00     0.071 C 
ATOM     19  N   UNL A   1      32.518  25.766  25.911  1.00  0.00    -0.176 NA
BRANCH  19  20
ATOM     20  N   UNL A   1      31.557  26.502  26.541  1.00  0.00    -0.254 N 
ATOM     21  H   UNL A   1      30.730  26.006  26.744  1.00  0.00     0.193 HD
BRANCH  20  22
ATOM     22  C   UNL A   1      31.545  27.823  26.942  1.00  0.00     0.184 C 
ATOM     23  S   UNL A   1      31.754  29.219  26.067  1.00  0.00    -0.040 S 
BRANCH  22  24
ATOM     24  N   UNL A   1      31.338  27.942  28.293  1.00  0.00    -0.375 N 
ATOM     25  H   UNL A   1      31.358  28.830  28.717  1.00  0.00     0.159 HD
ATOM     26  H   UNL A   1      31.169  27.139  28.837  1.00  0.00     0.159 HD
ENDBRANCH  22  24
ENDBRANCH  20  22
ENDBRANCH  19  20
ENDBRANCH  12  17
ENDBRANCH   6  11
ENDBRANCH   3   5
ENDBRANCH   2   3
ENDBRANCH   1   2
BRANCH   1  27
ATOM     27  C   UNL A   1      42.540  18.308  26.473  1.00  0.00     0.202 C 
BRANCH  27  28
ATOM     28  O   UNL A   1      43.896  18.002  26.152  1.00  0.00    -0.374 OA
BRANCH  28  29
ATOM     29  C   UNL A   1      44.564  18.744  25.141  1.00  0.00     0.202 C 
BRANCH  29  30
ATOM     30  C   UNL A   1      45.984  19.221  25.407  1.00  0.00     0.261 C 
BRANCH  30  31
ATOM     31  O   UNL A   1      46.252  20.525  24.907  1.00  0.00    -0.460 OA
BRANCH  31  32
ATOM     32  C   UNL A   1      45.152  21.127  24.393  1.00  0.00     0.338 C 
ATOM     33  O   UNL A   1      44.701  21.001  23.272  1.00  0.00    -0.246 OA
BRANCH  32  34
ATOM     34  C   UNL A   1      44.692  22.154  25.337  1.00  0.00     0.060 A 
ATOM     35  C   UNL A   1      43.457  22.736  25.056  1.00  0.00     0.016 A 
ATOM     36  C   UNL A   1      45.568  22.700  26.289  1.00  0.00     0.016 A 
ATOM     37  C   UNL A   1      43.177  23.969  25.602  1.00  0.00     0.010 A 
ATOM     38  C   UNL A   1      45.288  23.935  26.832  1.00  0.00     0.010 A 
ATOM     39  C   UNL A   1      44.127  24.587  26.432  1.00  0.00    -0.014 A 
BRANCH  39  40
ATOM     40  C   UNL A   1      43.750  25.843  27.046  1.00  0.00     0.031 A 
ATOM     41  C   UNL A   1      44.702  26.908  26.675  1.00  0.00     0.074 A 
ATOM     42  C   UNL A   1      42.673  26.028  27.832  1.00  0.00     0.049 A 
ATOM     43  N   UNL A   1      45.651  27.363  27.421  1.00  0.00    -0.248 NA
ATOM     44  C   UNL A   1      44.781  27.341  25.272  1.00  0.00     0.031 C 
ATOM     45  C   UNL A   1      41.562  25.105  28.069  1.00  0.00     0.029 A 
ATOM     46  N   UNL A   1      42.309  27.135  28.545  1.00  0.00    -0.354 N 
ATOM     47  C   UNL A   1      46.288  28.332  26.659  1.00  0.00     0.074 A 
ATOM     48  C   UNL A   1      45.865  28.121  25.301  1.00  0.00     0.031 C 
ATOM     49  C   UNL A   1      40.551  25.769  28.679  1.00  0.00     0.029 A 
ATOM     50  C   UNL A   1      40.994  27.115  29.001  1.00  0.00     0.049 A 
ATOM     51  H   UNL A   1      42.924  27.883  28.721  1.00  0.00     0.167 HD
ATOM     52  C   UNL A   1      46.796  29.424  27.289  1.00  0.00     0.037 A 
ATOM     53  C   UNL A   1      40.325  28.151  29.570  1.00  0.00     0.037 A 
ATOM     54  C   UNL A   1      46.931  29.161  28.704  1.00  0.00     0.049 A 
ATOM     55  C   UNL A   1      41.342  29.057  30.147  1.00  0.00     0.074 A 
ATOM     56  C   UNL A   1      47.708  28.357  29.511  1.00  0.00     0.029 A 
ATOM     57  N   UNL A   1      45.816  29.497  29.422  1.00  0.00    -0.354 N 
ATOM     58  N   UNL A   1      42.074  28.747  31.181  1.00  0.00    -0.248 NA
ATOM     59  C   UNL A   1      41.820  30.187  29.359  1.00  0.00     0.031 C 
ATOM     60  C   UNL A   1      46.917  28.076  30.669  1.00  0.00     0.029 A 
ATOM     61  C   UNL A   1      45.708  28.763  30.566  1.00  0.00     0.049 A 
ATOM     62  H   UNL A   1      45.169  30.186  29.147  1.00  0.00     0.167 HD
ATOM     63  C   UNL A   1      43.303  29.310  30.903  1.00  0.00     0.074 A 
ATOM     64  C   UNL A   1      43.037  30.326  29.891  1.00  0.00     0.031 C 
ATOM     65  C   UNL A   1      44.449  28.665  31.271  1.00  0.00     0.037 A 
BRANCH  52  66
ATOM     66  C   UNL A   1      46.580  30.845  26.792  1.00  0.00     0.064 A 
ATOM     67  C   UNL A   1      47.669  31.742  26.845  1.00  0.00     0.173 A 
ATOM     68  C   UNL A   1      45.312  31.448  26.623  1.00  0.00     0.173 A 
ATOM     69  F   UNL A   1      48.918  31.287  27.030  1.00  0.00    -0.203 F 
ATOM     70  C   UNL A   1      47.488  33.128  26.820  1.00  0.00     0.198 A 
ATOM     71  C   UNL A   1      45.143  32.829  26.551  1.00  0.00     0.198 A 
ATOM     72  F   UNL A   1      44.172  30.752  26.640  1.00  0.00    -0.203 F 
ATOM     73  F   UNL A   1      48.538  33.939  27.009  1.00  0.00    -0.200 F 
ATOM     74  C   UNL A   1      46.224  33.670  26.681  1.00  0.00     0.200 A 
ATOM     75  F   UNL A   1      43.904  33.332  26.448  1.00  0.00    -0.200 F 
ATOM     76  F   UNL A   1      46.040  34.996  26.724  1.00  0.00    -0.200 F 
ENDBRANCH  52  66
BRANCH  53  77
ATOM     77  C   UNL A   1      38.903  28.562  29.429  1.00  0.00     0.064 A 
ATOM     78  C   UNL A   1      38.092  28.755  30.564  1.00  0.00     0.173 A 
ATOM     79  C   UNL A   1      38.407  29.079  28.218  1.00  0.00     0.173 A 
ATOM     80  F   UNL A   1      38.497  28.324  31.768  1.00  0.00    -0.203 F 
ATOM     81  C   UNL A   1      36.894  29.477  30.502  1.00  0.00     0.198 A 
ATOM     82  C   UNL A   1      37.208  29.794  28.156  1.00  0.00     0.198 A 
ATOM     83  F   UNL A   1      39.122  28.993  27.089  1.00  0.00    -0.203 F 
ATOM     84  F   UNL A   1      36.196  29.713  31.622  1.00  0.00    -0.200 F 
ATOM     85  C   UNL A   1      36.462  30.011  29.301  1.00  0.00     0.200 A 
ATOM     86  F   UNL A   1      36.817  30.334  26.993  1.00  0.00    -0.200 F 
ATOM     87  F   UNL A   1      35.359  30.770  29.253  1.00  0.00    -0.200 F 
ENDBRANCH  53  77
BRANCH  65  88
ATOM     88  C   UNL A   1      44.353  27.685  32.400  1.00  0.00     0.064 A 
ATOM     89  C   UNL A   1      44.134  26.306  32.251  1.00  0.00     0.173 A 
ATOM     90  C   UNL A   1      44.566  28.174  33.696  1.00  0.00     0.173 A 
ATOM     91  F   UNL A   1      44.003  25.752  31.039  1.00  0.00    -0.203 F 
ATOM     92  C   UNL A   1      44.089  25.466  33.363  1.00  0.00     0.198 A 
ATOM     93  C   UNL A   1      44.560  27.329  34.797  1.00  0.00     0.198 A 
ATOM     94  F   UNL A   1      44.816  29.479  33.888  1.00  0.00    -0.203 F 
ATOM     95  F   UNL A   1      43.854  24.155  33.205  1.00  0.00    -0.200 F 
ATOM     96  C   UNL A   1      44.308  25.977  34.633  1.00  0.00     0.200 A 
ATOM     97  F   UNL A   1      44.817  27.823  36.016  1.00  0.00    -0.200 F 
ATOM     98  F   UNL A   1      44.299  25.163  35.698  1.00  0.00    -0.200 F 
ENDBRANCH  65  88
ENDBRANCH  39  40
ENDBRANCH  32  34
ENDBRANCH  31  32
ENDBRANCH  30  31
ENDBRANCH  29  30
ENDBRANCH  28  29
ENDBRANCH  27  28
ENDBRANCH   1  27
TORSDOF 19
ENDMDL
MODEL 3
REMARK VINA RESULT:     -11.9      5.267     10.600
REMARK SMILES C/C(=N\NC(N)=S)c1nnn(-c2ccc(C(=O)OCCOCCOC(=O)c3ccc(-c4c5nc(c(-c6c(F)c(F)c(F)c(F)c6F)c6ccc([nH]6)c(-c6c(F)c(F)c(F)c(F)c6F)c6nc(c(-c7c(F)c(F)c(F)c(F)c7F)c7ccc4[nH]7)C=C6)C=C5)cc3)cc2)c1C
REMARK SMILES IDX 19 1 18 2 16 3 17 4 15 5 12 6 13 7 91 8 14 9 90 10 11 11
REMARK SMILES IDX 8 12 9 13 92 14 10 15 93 16 2 17 1 18 3 19 4 20 5 22 7 23
REMARK SMILES IDX 6 24 20 27 21 28 22 29 23 30 24 31 25 32 26 33 27 34 28 35
REMARK SMILES IDX 89 36 29 37 88 38 30 39 31 40 32 41 82 42 33 43 87 44 81 45
REMARK SMILES IDX 83 46 34 47 86 48 80 49 79 50 35 52 67 53 47 54 66 55 48 56
REMARK SMILES IDX 51 57 65 58 84 59 49 60 50 61 64 63 85 64 52 65 36 66 37 67
REMARK SMILES IDX 45 68 38 69 39 70 43 71 46 72 40 73 41 74 44 75 42 76 68 77
REMARK SMILES IDX 69 78 77 79 70 80 71 81 75 82 78 83 72 84 73 85 76 86 74 87
REMARK SMILES IDX 53 88 54 89 62 90 55 91 56 92 60 93 63 94 57 95 58 96 61 97
REMARK SMILES IDX 59 98
REMARK H PARENT 4 21 6 25 6 26 83 51 51 62
REMARK Flexibility Score: inf
ROOT
ATOM      1  C   UNL A   1      39.971  21.840  26.105  1.00  0.00     0.261 C 
ENDROOT
BRANCH   1   2
ATOM      2  O   UNL A   1      38.547  21.661  26.142  1.00  0.00    -0.460 OA
BRANCH   2   3
ATOM      3  C   UNL A   1      38.068  20.746  25.263  1.00  0.00     0.338 C 
ATOM      4  O   UNL A   1      38.522  19.639  25.032  1.00  0.00    -0.246 OA
BRANCH   3   5
ATOM      5  C   UNL A   1      36.792  21.219  24.683  1.00  0.00     0.060 A 
ATOM      6  C   UNL A   1      34.423  22.422  23.904  1.00  0.00     0.067 A 
ATOM      7  C   UNL A   1      35.632  22.950  23.439  1.00  0.00     0.029 A 
ATOM      8  C   UNL A   1      34.387  21.220  24.623  1.00  0.00     0.029 A 
ATOM      9  C   UNL A   1      36.821  22.356  23.859  1.00  0.00     0.018 A 
ATOM     10  C   UNL A   1      35.577  20.608  25.006  1.00  0.00     0.018 A 
BRANCH   6  11
ATOM     11  N   UNL A   1      33.268  23.230  23.861  1.00  0.00    -0.217 N 
ATOM     12  C   UNL A   1      31.856  24.841  24.259  1.00  0.00     0.132 A 
ATOM     13  N   UNL A   1      31.712  24.440  22.957  1.00  0.00    -0.128 NA
ATOM     14  C   UNL A   1      32.848  24.093  24.862  1.00  0.00     0.071 A 
ATOM     15  N   UNL A   1      32.622  23.508  22.707  1.00  0.00    -0.061 NA
ATOM     16  C   UNL A   1      33.533  24.286  26.164  1.00  0.00     0.069 C 
BRANCH  12  17
ATOM     17  C   UNL A   1      31.260  26.064  24.768  1.00  0.00     0.087 C 
ATOM     18  C   UNL A   1      30.093  25.864  25.696  1.00  0.00     0.071 C 
ATOM     19  N   UNL A   1      31.821  27.170  24.377  1.00  0.00    -0.176 NA
BRANCH  19  20
ATOM     20  N   UNL A   1      31.451  28.409  24.812  1.00  0.00    -0.254 N 
ATOM     21  H   UNL A   1      30.477  28.557  24.841  1.00  0.00     0.193 HD
BRANCH  20  22
ATOM     22  C   UNL A   1      32.206  29.491  25.216  1.00  0.00     0.184 C 
ATOM     23  S   UNL A   1      32.003  30.533  26.494  1.00  0.00    -0.040 S 
BRANCH  22  24
ATOM     24  N   UNL A   1      33.276  29.702  24.385  1.00  0.00    -0.375 N 
ATOM     25  H   UNL A   1      33.980  29.019  24.305  1.00  0.00     0.159 HD
ATOM     26  H   UNL A   1      33.340  30.537  23.867  1.00  0.00     0.159 HD
ENDBRANCH  22  24
ENDBRANCH  20  22
ENDBRANCH  19  20
ENDBRANCH  12  17
ENDBRANCH   6  11
ENDBRANCH   3   5
ENDBRANCH   2   3
ENDBRANCH   1   2
BRANCH   1  27
ATOM     27  C   UNL A   1      40.721  20.682  26.768  1.00  0.00     0.202 C 
BRANCH  27  28
ATOM     28  O   UNL A   1      41.992  20.315  26.233  1.00  0.00    -0.374 OA
BRANCH  28  29
ATOM     29  C   UNL A   1      42.304  18.943  26.040  1.00  0.00     0.202 C 
BRANCH  29  30
ATOM     30  C   UNL A   1      43.633  18.583  25.392  1.00  0.00     0.261 C 
BRANCH  30  31
ATOM     31  O   UNL A   1      44.651  19.554  25.600  1.00  0.00    -0.460 OA
BRANCH  31  32
ATOM     32  C   UNL A   1      44.899  20.300  24.496  1.00  0.00     0.338 C 
ATOM     33  O   UNL A   1      45.315  19.909  23.424  1.00  0.00    -0.246 OA
BRANCH  32  34
ATOM     34  C   UNL A   1      44.804  21.720  24.855  1.00  0.00     0.060 A 
ATOM     35  C   UNL A   1      45.552  22.125  25.960  1.00  0.00     0.016 A 
ATOM     36  C   UNL A   1      43.811  22.539  24.294  1.00  0.00     0.016 A 
ATOM     37  C   UNL A   1      45.181  23.280  26.612  1.00  0.00     0.010 A 
ATOM     38  C   UNL A   1      43.439  23.693  24.950  1.00  0.00     0.010 A 
ATOM     39  C   UNL A   1      44.082  24.016  26.139  1.00  0.00    -0.014 A 
BRANCH  39  40
ATOM     40  C   UNL A   1      43.785  25.265  26.811  1.00  0.00     0.031 A 
ATOM     41  C   UNL A   1      44.797  26.286  26.477  1.00  0.00     0.074 A 
ATOM     42  C   UNL A   1      42.726  25.479  27.614  1.00  0.00     0.049 A 
ATOM     43  N   UNL A   1      45.776  26.651  27.232  1.00  0.00    -0.248 NA
ATOM     44  C   UNL A   1      44.891  26.775  25.093  1.00  0.00     0.031 C 
ATOM     45  C   UNL A   1      41.565  24.614  27.822  1.00  0.00     0.029 A 
ATOM     46  N   UNL A   1      42.435  26.573  28.378  1.00  0.00    -0.354 N 
ATOM     47  C   UNL A   1      46.465  27.612  26.507  1.00  0.00     0.074 A 
ATOM     48  C   UNL A   1      46.020  27.487  25.145  1.00  0.00     0.031 C 
ATOM     49  C   UNL A   1      40.599  25.309  28.469  1.00  0.00     0.029 A 
ATOM     50  C   UNL A   1      41.124  26.611  28.845  1.00  0.00     0.049 A 
ATOM     51  H   UNL A   1      43.095  27.275  28.580  1.00  0.00     0.167 HD
ATOM     52  C   UNL A   1      47.042  28.644  27.178  1.00  0.00     0.037 A 
ATOM     53  C   UNL A   1      40.522  27.659  29.465  1.00  0.00     0.037 A 
ATOM     54  C   UNL A   1      47.171  28.312  28.580  1.00  0.00     0.049 A 
ATOM     55  C   UNL A   1      41.596  28.477  30.071  1.00  0.00     0.074 A 
ATOM     56  C   UNL A   1      47.903  27.429  29.343  1.00  0.00     0.029 A 
ATOM     57  N   UNL A   1      46.083  28.682  29.322  1.00  0.00    -0.354 N 
ATOM     58  N   UNL A   1      42.315  28.079  31.082  1.00  0.00    -0.248 NA
ATOM     59  C   UNL A   1      42.134  29.611  29.328  1.00  0.00     0.031 C 
ATOM     60  C   UNL A   1      47.105  27.145  30.495  1.00  0.00     0.029 A 
ATOM     61  C   UNL A   1      45.939  27.906  30.434  1.00  0.00     0.049 A 
ATOM     62  H   UNL A   1      45.476  29.420  29.083  1.00  0.00     0.167 HD
ATOM     63  C   UNL A   1      43.574  28.580  30.817  1.00  0.00     0.074 A 
ATOM     64  C   UNL A   1      43.362  29.654  29.853  1.00  0.00     0.031 C 
ATOM     65  C   UNL A   1      44.682  27.853  31.146  1.00  0.00     0.037 A 
BRANCH  52  66
ATOM     66  C   UNL A   1      46.907  30.096  26.745  1.00  0.00     0.064 A 
ATOM     67  C   UNL A   1      48.030  30.939  26.886  1.00  0.00     0.173 A 
ATOM     68  C   UNL A   1      45.674  30.763  26.557  1.00  0.00     0.173 A 
ATOM     69  F   UNL A   1      49.249  30.421  27.097  1.00  0.00    -0.203 F 
ATOM     70  C   UNL A   1      47.910  32.332  26.924  1.00  0.00     0.198 A 
ATOM     71  C   UNL A   1      45.568  32.151  26.547  1.00  0.00     0.198 A 
ATOM     72  F   UNL A   1      44.505  30.119  26.494  1.00  0.00    -0.203 F 
ATOM     73  F   UNL A   1      48.984  33.085  27.195  1.00  0.00    -0.200 F 
ATOM     74  C   UNL A   1      46.677  32.936  26.763  1.00  0.00     0.200 A 
ATOM     75  F   UNL A   1      44.357  32.714  26.421  1.00  0.00    -0.200 F 
ATOM     76  F   UNL A   1      46.548  34.265  26.864  1.00  0.00    -0.200 F 
ENDBRANCH  52  66
BRANCH  53  77
ATOM     77  C   UNL A   1      39.127  28.160  29.355  1.00  0.00     0.064 A 
ATOM     78  C   UNL A   1      38.338  28.354  30.506  1.00  0.00     0.173 A 
ATOM     79  C   UNL A   1      38.653  28.754  28.172  1.00  0.00     0.173 A 
ATOM     80  F   UNL A   1      38.725  27.850  31.686  1.00  0.00    -0.203 F 
ATOM     81  C   UNL A   1      37.185  29.148  30.486  1.00  0.00     0.198 A 
ATOM     82  C   UNL A   1      37.498  29.541  28.151  1.00  0.00     0.198 A 
ATOM     83  F   UNL A   1      39.352  28.673  27.032  1.00  0.00    -0.203 F 
ATOM     84  F   UNL A   1      36.511  29.379  31.622  1.00  0.00    -0.200 F 
ATOM     85  C   UNL A   1      36.776  29.756  29.312  1.00  0.00     0.200 A 
ATOM     86  F   UNL A   1      37.131  30.151  27.015  1.00  0.00    -0.200 F 
ATOM     87  F   UNL A   1      35.719  30.580  29.306  1.00  0.00    -0.200 F 
ENDBRANCH  53  77
BRANCH  65  88
ATOM     88  C   UNL A   1      44.535  26.832  32.232  1.00  0.00     0.064 A 
ATOM     89  C   UNL A   1      44.481  27.119  33.606  1.00  0.00     0.173 A 
ATOM     90  C   UNL A   1      44.370  25.496  31.841  1.00  0.00     0.173 A 
ATOM     91  F   UNL A   1      44.550  28.380  34.052  1.00  0.00    -0.203 F 
ATOM     92  C   UNL A   1      44.313  26.101  34.543  1.00  0.00     0.198 A 
ATOM     93  C   UNL A   1      44.161  24.490  32.774  1.00  0.00     0.198 A 
ATOM     94  F   UNL A   1      44.375  25.173  30.538  1.00  0.00    -0.203 F 
ATOM     95  F   UNL A   1      44.290  26.391  35.853  1.00  0.00    -0.200 F 
ATOM     96  C   UNL A   1      44.147  24.790  34.127  1.00  0.00     0.200 A 
ATOM     97  F   UNL A   1      43.958  23.232  32.362  1.00  0.00    -0.200 F 
ATOM     98  F   UNL A   1      43.951  23.816  35.026  1.00  0.00    -0.200 F 
ENDBRANCH  65  88
ENDBRANCH  39  40
ENDBRANCH  32  34
ENDBRANCH  31  32
ENDBRANCH  30  31
ENDBRANCH  29  30
ENDBRANCH  28  29
ENDBRANCH  27  28
ENDBRANCH   1  27
TORSDOF 19
ENDMDL
