MODEL 1
REMARK VINA RESULT:     -11.5      0.000      0.000
REMARK SMILES Cc1cc(-n2cnc(C(=O)OCCOCCOC(=O)c3ccc(-c4c5nc(c(-c6c(F)c(F)c(F)c(F)c6F)c6ccc([nH]6)c(-c6c(F)c(F)c(F)c(F)c6F)c6nc(c(-c7c(F)c(F)c(F)c(F)c7F)c7ccc4[nH]7)C=C6)C=C5)cc3)c2)nc(Cl)n1
REMARK SMILES IDX 15 1 14 2 13 3 12 4 11 5 9 6 10 7 8 8 5 9 6 10 83 11 7 12
REMARK SMILES IDX 4 13 1 14 2 15 3 16 87 17 85 18 84 19 86 20 16 21 17 22
REMARK SMILES IDX 18 23 19 24 20 25 21 26 82 27 22 28 81 29 23 30 24 31 25 32
REMARK SMILES IDX 75 33 26 34 80 35 74 36 76 37 27 38 79 39 73 40 72 41 28 43
REMARK SMILES IDX 60 44 40 45 59 46 41 47 44 48 58 49 77 50 42 51 43 52 57 54
REMARK SMILES IDX 78 55 45 56 29 57 30 58 38 59 31 60 32 61 36 62 39 63 33 64
REMARK SMILES IDX 34 65 37 66 35 67 61 68 62 69 70 70 63 71 64 72 68 73 71 74
REMARK SMILES IDX 65 75 66 76 69 77 67 78 46 79 47 80 55 81 48 82 49 83 53 84
REMARK SMILES IDX 56 85 50 86 51 87 54 88 52 89
REMARK H PARENT 76 42 44 53
REMARK Flexibility Score: inf
ROOT
ATOM      1  C   UNL A   1      42.015  20.879  26.483  1.00  0.00     0.202 C 
ENDROOT
BRANCH   1   2
ATOM      2  O   UNL A   1      42.135  19.682  27.249  1.00  0.00    -0.374 OA
BRANCH   2   3
ATOM      3  C   UNL A   1      42.724  18.507  26.695  1.00  0.00     0.202 C 
BRANCH   3   4
ATOM      4  C   UNL A   1      43.542  18.614  25.407  1.00  0.00     0.261 C 
BRANCH   4   5
ATOM      5  O   UNL A   1      44.926  18.896  25.661  1.00  0.00    -0.458 OA
BRANCH   5   6
ATOM      6  C   UNL A   1      45.573  19.540  24.635  1.00  0.00     0.358 C 
ATOM      7  O   UNL A   1      46.245  18.994  23.785  1.00  0.00    -0.244 OA
BRANCH   6   8
ATOM      8  C   UNL A   1      45.232  20.964  24.609  1.00  0.00     0.166 A 
ATOM      9  N   UNL A   1      44.981  23.090  25.098  1.00  0.00    -0.289 N 
ATOM     10  C   UNL A   1      44.289  22.786  23.954  1.00  0.00     0.206 A 
ATOM     11  C   UNL A   1      45.515  21.914  25.568  1.00  0.00     0.130 A 
ATOM     12  N   UNL A   1      44.469  21.532  23.602  1.00  0.00    -0.229 NA
BRANCH   9  13
ATOM     13  C   UNL A   1      45.161  24.384  25.628  1.00  0.00     0.143 A 
ATOM     14  C   UNL A   1      45.024  26.085  28.948  1.00  0.00     0.067 C 
ATOM     15  C   UNL A   1      45.134  25.831  27.475  1.00  0.00     0.044 A 
ATOM     16  C   UNL A   1      44.838  24.588  26.958  1.00  0.00     0.071 A 
ATOM     17  N   UNL A   1      45.623  26.827  26.711  1.00  0.00    -0.223 NA
ATOM     18  C   UNL A   1      45.871  26.520  25.430  1.00  0.00     0.224 A 
ATOM     19  N   UNL A   1      45.713  25.327  24.842  1.00  0.00    -0.200 NA
ATOM     20  Cl  UNL A   1      46.409  27.794  24.432  1.00  0.00    -0.041 Cl
ENDBRANCH   9  13
ENDBRANCH   6   8
ENDBRANCH   5   6
ENDBRANCH   4   5
ENDBRANCH   3   4
ENDBRANCH   2   3
ENDBRANCH   1   2
BRANCH   1  21
ATOM     21  C   UNL A   1      40.629  21.424  26.168  1.00  0.00     0.261 C 
BRANCH  21  22
ATOM     22  O   UNL A   1      40.095  22.146  27.265  1.00  0.00    -0.460 OA
BRANCH  22  23
ATOM     23  C   UNL A   1      39.612  23.357  26.905  1.00  0.00     0.338 C 
ATOM     24  O   UNL A   1      38.483  23.628  26.533  1.00  0.00    -0.246 OA
BRANCH  23  25
ATOM     25  C   UNL A   1      40.711  24.334  26.928  1.00  0.00     0.060 A 
ATOM     26  C   UNL A   1      41.348  24.424  28.165  1.00  0.00     0.016 A 
ATOM     27  C   UNL A   1      40.582  25.424  26.062  1.00  0.00     0.016 A 
ATOM     28  C   UNL A   1      41.458  25.675  28.715  1.00  0.00     0.010 A 
ATOM     29  C   UNL A   1      40.651  26.667  26.626  1.00  0.00     0.010 A 
ATOM     30  C   UNL A   1      40.975  26.760  27.978  1.00  0.00    -0.014 A 
BRANCH  30  31
ATOM     31  C   UNL A   1      40.933  28.050  28.616  1.00  0.00     0.031 A 
ATOM     32  C   UNL A   1      42.071  28.883  28.188  1.00  0.00     0.074 A 
ATOM     33  C   UNL A   1      39.930  28.441  29.421  1.00  0.00     0.049 A 
ATOM     34  N   UNL A   1      43.137  29.152  28.863  1.00  0.00    -0.248 NA
ATOM     35  C   UNL A   1      42.151  29.238  26.760  1.00  0.00     0.031 C 
ATOM     36  C   UNL A   1      38.647  27.790  29.699  1.00  0.00     0.029 A 
ATOM     37  N   UNL A   1      39.841  29.600  30.128  1.00  0.00    -0.354 N 
ATOM     38  C   UNL A   1      43.925  29.895  27.998  1.00  0.00     0.074 A 
ATOM     39  C   UNL A   1      43.402  29.685  26.676  1.00  0.00     0.031 C 
ATOM     40  C   UNL A   1      37.828  28.667  30.330  1.00  0.00     0.029 A 
ATOM     41  C   UNL A   1      38.570  29.882  30.620  1.00  0.00     0.049 A 
ATOM     42  H   UNL A   1      40.613  30.191  30.280  1.00  0.00     0.167 HD
ATOM     43  C   UNL A   1      44.740  30.876  28.463  1.00  0.00     0.037 A 
ATOM     44  C   UNL A   1      38.195  31.083  31.135  1.00  0.00     0.037 A 
ATOM     45  C   UNL A   1      44.996  30.725  29.872  1.00  0.00     0.049 A 
ATOM     46  C   UNL A   1      39.448  31.799  31.513  1.00  0.00     0.074 A 
ATOM     47  C   UNL A   1      45.584  29.737  30.640  1.00  0.00     0.029 A 
ATOM     48  N   UNL A   1      44.244  31.475  30.743  1.00  0.00    -0.354 N 
ATOM     49  N   UNL A   1      40.231  31.414  32.483  1.00  0.00    -0.248 NA
ATOM     50  C   UNL A   1      40.074  32.629  30.492  1.00  0.00     0.031 C 
ATOM     51  C   UNL A   1      44.787  29.655  31.819  1.00  0.00     0.029 A 
ATOM     52  C   UNL A   1      43.805  30.643  31.744  1.00  0.00     0.049 A 
ATOM     53  H   UNL A   1      44.054  32.437  30.664  1.00  0.00     0.167 HD
ATOM     54  C   UNL A   1      41.516  31.588  31.990  1.00  0.00     0.074 A 
ATOM     55  C   UNL A   1      41.356  32.383  30.774  1.00  0.00     0.031 C 
ATOM     56  C   UNL A   1      42.553  30.824  32.442  1.00  0.00     0.037 A 
BRANCH  43  57
ATOM     57  C   UNL A   1      44.976  32.152  27.705  1.00  0.00     0.064 A 
ATOM     58  C   UNL A   1      46.181  32.332  27.011  1.00  0.00     0.173 A 
ATOM     59  C   UNL A   1      44.163  33.304  27.829  1.00  0.00     0.173 A 
ATOM     60  F   UNL A   1      47.052  31.319  26.886  1.00  0.00    -0.203 F 
ATOM     61  C   UNL A   1      46.550  33.576  26.493  1.00  0.00     0.198 A 
ATOM     62  C   UNL A   1      44.500  34.523  27.254  1.00  0.00     0.198 A 
ATOM     63  F   UNL A   1      43.072  33.330  28.603  1.00  0.00    -0.203 F 
ATOM     64  F   UNL A   1      47.755  33.730  25.930  1.00  0.00    -0.200 F 
ATOM     65  C   UNL A   1      45.705  34.668  26.606  1.00  0.00     0.200 A 
ATOM     66  F   UNL A   1      43.675  35.570  27.400  1.00  0.00    -0.200 F 
ATOM     67  F   UNL A   1      46.072  35.868  26.140  1.00  0.00    -0.200 F 
ENDBRANCH  43  57
BRANCH  44  68
ATOM     68  C   UNL A   1      36.915  31.816  30.952  1.00  0.00     0.064 A 
ATOM     69  C   UNL A   1      36.087  32.097  32.055  1.00  0.00     0.173 A 
ATOM     70  C   UNL A   1      36.642  32.529  29.771  1.00  0.00     0.173 A 
ATOM     71  F   UNL A   1      36.304  31.494  33.233  1.00  0.00    -0.203 F 
ATOM     72  C   UNL A   1      35.075  33.063  31.988  1.00  0.00     0.198 A 
ATOM     73  C   UNL A   1      35.631  33.490  29.705  1.00  0.00     0.198 A 
ATOM     74  F   UNL A   1      37.416  32.384  28.686  1.00  0.00    -0.203 F 
ATOM     75  F   UNL A   1      34.357  33.356  33.081  1.00  0.00    -0.200 F 
ATOM     76  C   UNL A   1      34.860  33.770  30.818  1.00  0.00     0.200 A 
ATOM     77  F   UNL A   1      35.458  34.196  28.578  1.00  0.00    -0.200 F 
ATOM     78  F   UNL A   1      33.945  34.748  30.774  1.00  0.00    -0.200 F 
ENDBRANCH  44  68
BRANCH  56  79
ATOM     79  C   UNL A   1      42.301  29.941  33.636  1.00  0.00     0.064 A 
ATOM     80  C   UNL A   1      41.794  28.631  33.557  1.00  0.00     0.173 A 
ATOM     81  C   UNL A   1      42.721  30.391  34.894  1.00  0.00     0.173 A 
ATOM     82  F   UNL A   1      41.461  28.092  32.377  1.00  0.00    -0.203 F 
ATOM     83  C   UNL A   1      41.679  27.827  34.692  1.00  0.00     0.198 A 
ATOM     84  C   UNL A   1      42.640  29.574  36.019  1.00  0.00     0.198 A 
ATOM     85  F   UNL A   1      43.262  31.612  35.022  1.00  0.00    -0.203 F 
ATOM     86  F   UNL A   1      41.184  26.584  34.591  1.00  0.00    -0.200 F 
ATOM     87  C   UNL A   1      42.110  28.298  35.921  1.00  0.00     0.200 A 
ATOM     88  F   UNL A   1      43.105  30.017  37.196  1.00  0.00    -0.200 F 
ATOM     89  F   UNL A   1      42.041  27.513  37.006  1.00  0.00    -0.200 F 
ENDBRANCH  56  79
ENDBRANCH  30  31
ENDBRANCH  23  25
ENDBRANCH  22  23
ENDBRANCH  21  22
ENDBRANCH   1  21
TORSDOF 15
ENDMDL
MODEL 2
REMARK VINA RESULT:     -11.3      4.689     11.932
REMARK SMILES Cc1cc(-n2cnc(C(=O)OCCOCCOC(=O)c3ccc(-c4c5nc(c(-c6c(F)c(F)c(F)c(F)c6F)c6ccc([nH]6)c(-c6c(F)c(F)c(F)c(F)c6F)c6nc(c(-c7c(F)c(F)c(F)c(F)c7F)c7ccc4[nH]7)C=C6)C=C5)cc3)c2)nc(Cl)n1
REMARK SMILES IDX 15 1 14 2 13 3 12 4 11 5 9 6 10 7 8 8 5 9 6 10 83 11 7 12
REMARK SMILES IDX 4 13 1 14 2 15 3 16 87 17 85 18 84 19 86 20 16 21 17 22
REMARK SMILES IDX 18 23 19 24 20 25 21 26 82 27 22 28 81 29 23 30 24 31 25 32
REMARK SMILES IDX 75 33 26 34 80 35 74 36 76 37 27 38 79 39 73 40 72 41 28 43
REMARK SMILES IDX 60 44 40 45 59 46 41 47 44 48 58 49 77 50 42 51 43 52 57 54
REMARK SMILES IDX 78 55 45 56 29 57 30 58 38 59 31 60 32 61 36 62 39 63 33 64
REMARK SMILES IDX 34 65 37 66 35 67 61 68 62 69 70 70 63 71 64 72 68 73 71 74
REMARK SMILES IDX 65 75 66 76 69 77 67 78 46 79 47 80 55 81 48 82 49 83 53 84
REMARK SMILES IDX 56 85 50 86 51 87 54 88 52 89
REMARK H PARENT 76 42 44 53
REMARK Flexibility Score: inf
ROOT
ATOM      1  C   UNL A   1      33.396  33.628  28.410  1.00  0.00     0.202 C 
ENDROOT
BRANCH   1   2
ATOM      2  O   UNL A   1      32.856  34.797  29.022  1.00  0.00    -0.374 OA
BRANCH   2   3
ATOM      3  C   UNL A   1      33.237  36.102  28.589  1.00  0.00     0.202 C 
BRANCH   3   4
ATOM      4  C   UNL A   1      33.327  37.234  29.613  1.00  0.00     0.261 C 
BRANCH   4   5
ATOM      5  O   UNL A   1      32.527  36.983  30.778  1.00  0.00    -0.458 OA
BRANCH   5   6
ATOM      6  C   UNL A   1      33.198  37.119  31.968  1.00  0.00     0.358 C 
ATOM      7  O   UNL A   1      33.295  38.152  32.597  1.00  0.00    -0.244 OA
BRANCH   6   8
ATOM      8  C   UNL A   1      33.662  35.821  32.462  1.00  0.00     0.166 A 
ATOM      9  N   UNL A   1      34.857  34.174  33.288  1.00  0.00    -0.289 N 
ATOM     10  C   UNL A   1      33.656  33.699  32.829  1.00  0.00     0.206 A 
ATOM     11  C   UNL A   1      34.902  35.513  32.981  1.00  0.00     0.130 A 
ATOM     12  N   UNL A   1      32.893  34.671  32.383  1.00  0.00    -0.229 NA
BRANCH   9  13
ATOM     13  C   UNL A   1      35.814  33.428  34.008  1.00  0.00     0.143 A 
ATOM     14  C   UNL A   1      38.300  30.718  33.364  1.00  0.00     0.067 C 
ATOM     15  C   UNL A   1      37.435  31.732  34.051  1.00  0.00     0.044 A 
ATOM     16  C   UNL A   1      36.424  32.367  33.361  1.00  0.00     0.071 A 
ATOM     17  N   UNL A   1      37.753  32.059  35.318  1.00  0.00    -0.223 NA
ATOM     18  C   UNL A   1      37.074  33.085  35.850  1.00  0.00     0.224 A 
ATOM     19  N   UNL A   1      36.143  33.835  35.248  1.00  0.00    -0.200 NA
ATOM     20  Cl  UNL A   1      37.408  33.453  37.483  1.00  0.00    -0.041 Cl
ENDBRANCH   9  13
ENDBRANCH   6   8
ENDBRANCH   5   6
ENDBRANCH   4   5
ENDBRANCH   3   4
ENDBRANCH   2   3
ENDBRANCH   1   2
BRANCH   1  21
ATOM     21  C   UNL A   1      34.406  32.787  29.179  1.00  0.00     0.261 C 
BRANCH  21  22
ATOM     22  O   UNL A   1      35.550  32.503  28.391  1.00  0.00    -0.460 OA
BRANCH  22  23
ATOM     23  C   UNL A   1      35.852  31.184  28.367  1.00  0.00     0.338 C 
ATOM     24  O   UNL A   1      35.441  30.341  27.589  1.00  0.00    -0.246 OA
BRANCH  23  25
ATOM     25  C   UNL A   1      36.704  30.871  29.524  1.00  0.00     0.060 A 
ATOM     26  C   UNL A   1      37.878  31.622  29.568  1.00  0.00     0.016 A 
ATOM     27  C   UNL A   1      36.626  29.561  30.006  1.00  0.00     0.016 A 
ATOM     28  C   UNL A   1      39.055  30.928  29.684  1.00  0.00     0.010 A 
ATOM     29  C   UNL A   1      37.798  28.862  30.079  1.00  0.00     0.010 A 
ATOM     30  C   UNL A   1      38.985  29.536  29.799  1.00  0.00    -0.014 A 
BRANCH  30  31
ATOM     31  C   UNL A   1      40.215  28.789  29.751  1.00  0.00     0.031 A 
ATOM     32  C   UNL A   1      40.769  28.605  31.106  1.00  0.00     0.074 A 
ATOM     33  C   UNL A   1      40.717  28.268  28.618  1.00  0.00     0.049 A 
ATOM     34  N   UNL A   1      41.767  29.232  31.630  1.00  0.00    -0.248 NA
ATOM     35  C   UNL A   1      39.964  27.831  32.067  1.00  0.00     0.031 C 
ATOM     36  C   UNL A   1      40.117  28.180  27.285  1.00  0.00     0.029 A 
ATOM     37  N   UNL A   1      41.903  27.622  28.460  1.00  0.00    -0.354 N 
ATOM     38  C   UNL A   1      41.834  28.761  32.933  1.00  0.00     0.074 A 
ATOM     39  C   UNL A   1      40.573  28.131  33.212  1.00  0.00     0.031 C 
ATOM     40  C   UNL A   1      40.843  27.326  26.523  1.00  0.00     0.029 A 
ATOM     41  C   UNL A   1      42.025  26.920  27.264  1.00  0.00     0.049 A 
ATOM     42  H   UNL A   1      42.618  27.648  29.137  1.00  0.00     0.167 HD
ATOM     43  C   UNL A   1      43.027  28.638  33.570  1.00  0.00     0.037 A 
ATOM     44  C   UNL A   1      43.004  26.014  27.002  1.00  0.00     0.037 A 
ATOM     45  C   UNL A   1      44.047  29.431  32.936  1.00  0.00     0.049 A 
ATOM     46  C   UNL A   1      44.113  26.290  27.960  1.00  0.00     0.074 A 
ATOM     47  C   UNL A   1      44.203  30.784  32.699  1.00  0.00     0.029 A 
ATOM     48  N   UNL A   1      44.895  28.800  32.057  1.00  0.00    -0.354 N 
ATOM     49  N   UNL A   1      44.842  27.372  27.923  1.00  0.00    -0.248 NA
ATOM     50  C   UNL A   1      44.068  25.607  29.246  1.00  0.00     0.031 C 
ATOM     51  C   UNL A   1      44.760  30.874  31.390  1.00  0.00     0.029 A 
ATOM     52  C   UNL A   1      44.985  29.577  30.928  1.00  0.00     0.049 A 
ATOM     53  H   UNL A   1      45.356  27.944  32.210  1.00  0.00     0.167 HD
ATOM     54  C   UNL A   1      44.999  27.738  29.252  1.00  0.00     0.074 A 
ATOM     55  C   UNL A   1      44.537  26.586  30.024  1.00  0.00     0.031 C 
ATOM     56  C   UNL A   1      45.202  29.041  29.604  1.00  0.00     0.037 A 
BRANCH  43  57
ATOM     57  C   UNL A   1      43.316  27.512  34.522  1.00  0.00     0.064 A 
ATOM     58  C   UNL A   1      43.455  26.207  34.027  1.00  0.00     0.173 A 
ATOM     59  C   UNL A   1      43.227  27.627  35.929  1.00  0.00     0.173 A 
ATOM     60  F   UNL A   1      43.491  25.980  32.706  1.00  0.00    -0.203 F 
ATOM     61  C   UNL A   1      43.486  25.100  34.879  1.00  0.00     0.198 A 
ATOM     62  C   UNL A   1      43.328  26.531  36.778  1.00  0.00     0.198 A 
ATOM     63  F   UNL A   1      42.925  28.781  36.536  1.00  0.00    -0.203 F 
ATOM     64  F   UNL A   1      43.514  23.864  34.362  1.00  0.00    -0.200 F 
ATOM     65  C   UNL A   1      43.433  25.263  36.253  1.00  0.00     0.200 A 
ATOM     66  F   UNL A   1      43.248  26.716  38.104  1.00  0.00    -0.200 F 
ATOM     67  F   UNL A   1      43.429  24.202  37.069  1.00  0.00    -0.200 F 
ENDBRANCH  43  57
BRANCH  44  68
ATOM     68  C   UNL A   1      42.901  24.708  26.300  1.00  0.00     0.064 A 
ATOM     69  C   UNL A   1      43.748  24.408  25.216  1.00  0.00     0.173 A 
ATOM     70  C   UNL A   1      42.212  23.622  26.871  1.00  0.00     0.173 A 
ATOM     71  F   UNL A   1      44.475  25.377  24.641  1.00  0.00    -0.203 F 
ATOM     72  C   UNL A   1      43.925  23.096  24.762  1.00  0.00     0.198 A 
ATOM     73  C   UNL A   1      42.387  22.314  26.415  1.00  0.00     0.198 A 
ATOM     74  F   UNL A   1      41.435  23.792  27.950  1.00  0.00    -0.203 F 
ATOM     75  F   UNL A   1      44.797  22.841  23.777  1.00  0.00    -0.200 F 
ATOM     76  C   UNL A   1      43.257  22.049  25.373  1.00  0.00     0.200 A 
ATOM     77  F   UNL A   1      41.766  21.304  27.039  1.00  0.00    -0.200 F 
ATOM     78  F   UNL A   1      43.484  20.784  24.990  1.00  0.00    -0.200 F 
ENDBRANCH  44  68
BRANCH  56  79
ATOM     79  C   UNL A   1      45.463  30.030  28.499  1.00  0.00     0.064 A 
ATOM     80  C   UNL A   1      44.453  30.706  27.789  1.00  0.00     0.173 A 
ATOM     81  C   UNL A   1      46.787  30.410  28.247  1.00  0.00     0.173 A 
ATOM     82  F   UNL A   1      43.159  30.470  28.041  1.00  0.00    -0.203 F 
ATOM     83  C   UNL A   1      44.761  31.687  26.846  1.00  0.00     0.198 A 
ATOM     84  C   UNL A   1      47.090  31.416  27.333  1.00  0.00     0.198 A 
ATOM     85  F   UNL A   1      47.789  29.838  28.932  1.00  0.00    -0.203 F 
ATOM     86  F   UNL A   1      43.780  32.311  26.176  1.00  0.00    -0.200 F 
ATOM     87  C   UNL A   1      46.080  32.046  26.625  1.00  0.00     0.200 A 
ATOM     88  F   UNL A   1      48.365  31.793  27.159  1.00  0.00    -0.200 F 
ATOM     89  F   UNL A   1      46.377  33.018  25.750  1.00  0.00    -0.200 F 
ENDBRANCH  56  79
ENDBRANCH  30  31
ENDBRANCH  23  25
ENDBRANCH  22  23
ENDBRANCH  21  22
ENDBRANCH   1  21
TORSDOF 15
ENDMDL
MODEL 3
REMARK VINA RESULT:     -11.2      4.623     11.838
REMARK SMILES Cc1cc(-n2cnc(C(=O)OCCOCCOC(=O)c3ccc(-c4c5nc(c(-c6c(F)c(F)c(F)c(F)c6F)c6ccc([nH]6)c(-c6c(F)c(F)c(F)c(F)c6F)c6nc(c(-c7c(F)c(F)c(F)c(F)c7F)c7ccc4[nH]7)C=C6)C=C5)cc3)c2)nc(Cl)n1
REMARK SMILES IDX 15 1 14 2 13 3 12 4 11 5 9 6 10 7 8 8 5 9 6 10 83 11 7 12
REMARK SMILES IDX 4 13 1 14 2 15 3 16 87 17 85 18 84 19 86 20 16 21 17 22
REMARK SMILES IDX 18 23 19 24 20 25 21 26 82 27 22 28 81 29 23 30 24 31 25 32
REMARK SMILES IDX 75 33 26 34 80 35 74 36 76 37 27 38 79 39 73 40 72 41 28 43
REMARK SMILES IDX 60 44 40 45 59 46 41 47 44 48 58 49 77 50 42 51 43 52 57 54
REMARK SMILES IDX 78 55 45 56 29 57 30 58 38 59 31 60 32 61 36 62 39 63 33 64
REMARK SMILES IDX 34 65 37 66 35 67 61 68 62 69 70 70 63 71 64 72 68 73 71 74
REMARK SMILES IDX 65 75 66 76 69 77 67 78 46 79 47 80 55 81 48 82 49 83 53 84
REMARK SMILES IDX 56 85 50 86 51 87 54 88 52 89
REMARK H PARENT 76 42 44 53
REMARK Flexibility Score: inf
ROOT
ATOM      1  C   UNL A   1      34.831  34.381  29.119  1.00  0.00     0.202 C 
ENDROOT
BRANCH   1   2
ATOM      2  O   UNL A   1      34.633  35.517  28.281  1.00  0.00    -0.374 OA
BRANCH   2   3
ATOM      3  C   UNL A   1      33.664  36.513  28.603  1.00  0.00     0.202 C 
BRANCH   3   4
ATOM      4  C   UNL A   1      32.745  36.301  29.807  1.00  0.00     0.261 C 
BRANCH   4   5
ATOM      5  O   UNL A   1      33.177  37.037  30.961  1.00  0.00    -0.458 OA
BRANCH   5   6
ATOM      6  C   UNL A   1      32.727  36.534  32.157  1.00  0.00     0.358 C 
ATOM      7  O   UNL A   1      31.688  36.853  32.698  1.00  0.00    -0.244 OA
BRANCH   6   8
ATOM      8  C   UNL A   1      33.591  35.452  32.633  1.00  0.00     0.166 A 
ATOM      9  N   UNL A   1      35.305  34.238  33.274  1.00  0.00    -0.289 N 
ATOM     10  C   UNL A   1      34.184  33.455  33.179  1.00  0.00     0.206 A 
ATOM     11  C   UNL A   1      34.953  35.496  32.845  1.00  0.00     0.130 A 
ATOM     12  N   UNL A   1      33.126  34.166  32.855  1.00  0.00    -0.229 NA
BRANCH   9  13
ATOM     13  C   UNL A   1      36.551  33.828  33.791  1.00  0.00     0.143 A 
ATOM     14  C   UNL A   1      38.588  30.707  34.016  1.00  0.00     0.067 C 
ATOM     15  C   UNL A   1      38.107  32.117  34.189  1.00  0.00     0.044 A 
ATOM     16  C   UNL A   1      36.838  32.473  33.784  1.00  0.00     0.071 A 
ATOM     17  N   UNL A   1      38.990  33.020  34.656  1.00  0.00    -0.223 NA
ATOM     18  C   UNL A   1      38.590  34.299  34.641  1.00  0.00     0.224 A 
ATOM     19  N   UNL A   1      37.424  34.773  34.185  1.00  0.00    -0.200 NA
ATOM     20  Cl  UNL A   1      39.667  35.441  35.308  1.00  0.00    -0.041 Cl
ENDBRANCH   9  13
ENDBRANCH   6   8
ENDBRANCH   5   6
ENDBRANCH   4   5
ENDBRANCH   3   4
ENDBRANCH   2   3
ENDBRANCH   1   2
BRANCH   1  21
ATOM     21  C   UNL A   1      34.317  33.022  28.662  1.00  0.00     0.261 C 
BRANCH  21  22
ATOM     22  O   UNL A   1      34.790  31.981  29.499  1.00  0.00    -0.460 OA
BRANCH  22  23
ATOM     23  C   UNL A   1      35.895  31.376  29.005  1.00  0.00     0.338 C 
ATOM     24  O   UNL A   1      36.126  31.083  27.844  1.00  0.00    -0.246 OA
BRANCH  23  25
ATOM     25  C   UNL A   1      36.777  31.010  30.123  1.00  0.00     0.060 A 
ATOM     26  C   UNL A   1      37.994  31.691  30.115  1.00  0.00     0.016 A 
ATOM     27  C   UNL A   1      36.643  29.706  30.609  1.00  0.00     0.016 A 
ATOM     28  C   UNL A   1      39.132  30.929  30.179  1.00  0.00     0.010 A 
ATOM     29  C   UNL A   1      37.774  28.939  30.630  1.00  0.00     0.010 A 
ATOM     30  C   UNL A   1      38.985  29.543  30.299  1.00  0.00    -0.014 A 
BRANCH  30  31
ATOM     31  C   UNL A   1      40.166  28.725  30.197  1.00  0.00     0.031 A 
ATOM     32  C   UNL A   1      40.772  28.514  31.524  1.00  0.00     0.074 A 
ATOM     33  C   UNL A   1      40.582  28.172  29.044  1.00  0.00     0.049 A 
ATOM     34  N   UNL A   1      41.829  29.083  31.997  1.00  0.00    -0.248 NA
ATOM     35  C   UNL A   1      39.970  27.791  32.528  1.00  0.00     0.031 C 
ATOM     36  C   UNL A   1      39.914  28.114  27.742  1.00  0.00     0.029 A 
ATOM     37  N   UNL A   1      41.720  27.456  28.834  1.00  0.00    -0.354 N 
ATOM     38  C   UNL A   1      41.931  28.613  33.298  1.00  0.00     0.074 A 
ATOM     39  C   UNL A   1      40.650  28.059  33.641  1.00  0.00     0.031 C 
ATOM     40  C   UNL A   1      40.553  27.217  26.951  1.00  0.00     0.029 A 
ATOM     41  C   UNL A   1      41.742  26.745  27.638  1.00  0.00     0.049 A 
ATOM     42  H   UNL A   1      42.466  27.443  29.476  1.00  0.00     0.167 HD
ATOM     43  C   UNL A   1      43.143  28.423  33.878  1.00  0.00     0.037 A 
ATOM     44  C   UNL A   1      42.653  25.782  27.335  1.00  0.00     0.037 A 
ATOM     45  C   UNL A   1      44.177  29.153  33.192  1.00  0.00     0.049 A 
ATOM     46  C   UNL A   1      43.822  25.996  28.238  1.00  0.00     0.074 A 
ATOM     47  C   UNL A   1      44.400  30.493  32.940  1.00  0.00     0.029 A 
ATOM     48  N   UNL A   1      44.943  28.470  32.278  1.00  0.00    -0.354 N 
ATOM     49  N   UNL A   1      44.610  27.033  28.160  1.00  0.00    -0.248 NA
ATOM     50  C   UNL A   1      43.798  25.321  29.529  1.00  0.00     0.031 C 
ATOM     51  C   UNL A   1      44.898  30.545  31.605  1.00  0.00     0.029 A 
ATOM     52  C   UNL A   1      45.024  29.236  31.141  1.00  0.00     0.049 A 
ATOM     53  H   UNL A   1      45.360  27.589  32.414  1.00  0.00     0.167 HD
ATOM     54  C   UNL A   1      44.851  27.394  29.477  1.00  0.00     0.074 A 
ATOM     55  C   UNL A   1      44.360  26.273  30.278  1.00  0.00     0.031 C 
ATOM     56  C   UNL A   1      45.146  28.684  29.812  1.00  0.00     0.037 A 
BRANCH  43  57
ATOM     57  C   UNL A   1      43.412  27.285  34.822  1.00  0.00     0.064 A 
ATOM     58  C   UNL A   1      43.651  27.552  36.178  1.00  0.00     0.173 A 
ATOM     59  C   UNL A   1      43.679  25.959  34.404  1.00  0.00     0.173 A 
ATOM     60  F   UNL A   1      43.485  28.790  36.667  1.00  0.00    -0.203 F 
ATOM     61  C   UNL A   1      44.135  26.569  37.045  1.00  0.00     0.198 A 
ATOM     62  C   UNL A   1      44.094  24.966  35.282  1.00  0.00     0.198 A 
ATOM     63  F   UNL A   1      43.660  25.598  33.115  1.00  0.00    -0.203 F 
ATOM     64  F   UNL A   1      44.450  26.892  38.306  1.00  0.00    -0.200 F 
ATOM     65  C   UNL A   1      44.347  25.275  36.599  1.00  0.00     0.200 A 
ATOM     66  F   UNL A   1      44.316  23.728  34.818  1.00  0.00    -0.200 F 
ATOM     67  F   UNL A   1      44.842  24.341  37.419  1.00  0.00    -0.200 F 
ENDBRANCH  43  57
BRANCH  44  68
ATOM     68  C   UNL A   1      42.441  24.482  26.647  1.00  0.00     0.064 A 
ATOM     69  C   UNL A   1      43.244  24.111  25.552  1.00  0.00     0.173 A 
ATOM     70  C   UNL A   1      41.684  23.455  27.240  1.00  0.00     0.173 A 
ATOM     71  F   UNL A   1      44.030  25.019  24.955  1.00  0.00    -0.203 F 
ATOM     72  C   UNL A   1      43.315  22.786  25.106  1.00  0.00     0.198 A 
ATOM     73  C   UNL A   1      41.753  22.134  26.792  1.00  0.00     0.198 A 
ATOM     74  F   UNL A   1      40.941  23.690  28.330  1.00  0.00    -0.203 F 
ATOM     75  F   UNL A   1      44.147  22.459  24.109  1.00  0.00    -0.200 F 
ATOM     76  C   UNL A   1      42.582  21.796  25.738  1.00  0.00     0.200 A 
ATOM     77  F   UNL A   1      41.070  21.178  27.437  1.00  0.00    -0.200 F 
ATOM     78  F   UNL A   1      42.706  20.516  25.363  1.00  0.00    -0.200 F 
ENDBRANCH  44  68
BRANCH  56  79
ATOM     79  C   UNL A   1      45.411  29.652  28.689  1.00  0.00     0.064 A 
ATOM     80  C   UNL A   1      44.411  30.392  28.031  1.00  0.00     0.173 A 
ATOM     81  C   UNL A   1      46.742  29.944  28.365  1.00  0.00     0.173 A 
ATOM     82  F   UNL A   1      43.120  30.241  28.353  1.00  0.00    -0.203 F 
ATOM     83  C   UNL A   1      44.731  31.349  27.068  1.00  0.00     0.198 A 
ATOM     84  C   UNL A   1      47.061  30.927  27.430  1.00  0.00     0.198 A 
ATOM     85  F   UNL A   1      47.740  29.310  28.998  1.00  0.00    -0.203 F 
ATOM     86  F   UNL A   1      43.758  32.034  26.448  1.00  0.00    -0.200 F 
ATOM     87  C   UNL A   1      46.057  31.621  26.774  1.00  0.00     0.200 A 
ATOM     88  F   UNL A   1      48.346  31.220  27.187  1.00  0.00    -0.200 F 
ATOM     89  F   UNL A   1      46.369  32.570  25.881  1.00  0.00    -0.200 F 
ENDBRANCH  56  79
ENDBRANCH  30  31
ENDBRANCH  23  25
ENDBRANCH  22  23
ENDBRANCH  21  22
ENDBRANCH   1  21
TORSDOF 15
ENDMDL
