MODEL 1
REMARK VINA RESULT:     -10.6      0.000      0.000
REMARK SMILES CC(C)C[C@H](NC(=O)CNC(=O)[C@@H]([NH3+])C(C)C)C(=O)OCCOCCOC(=O)c1ccc(-c2c3nc(c(-c4c(F)c(F)c(F)c(F)c4F)c4ccc([nH]4)c(-c4c(F)c(F)c(F)c(F)c4F)c4nc(c(-c5c(F)c(F)c(F)c(F)c5F)c5ccc2[nH]5)C=C4)C=C3)cc1
REMARK SMILES IDX 21 1 20 2 18 3 19 4 5 5 4 6 2 7 1 8 3 9 6 10 7 11 8 13 9 14
REMARK SMILES IDX 10 15 11 16 12 18 13 19 14 20 15 24 16 25 17 26 22 27 23 28
REMARK SMILES IDX 24 29 25 30 26 31 27 32 28 33 29 34 30 35 91 36 31 37 90 38
REMARK SMILES IDX 32 39 33 40 34 41 84 42 35 43 89 44 83 45 85 46 36 47 88 48
REMARK SMILES IDX 82 49 81 50 37 52 69 53 49 54 68 55 50 56 53 57 67 58 86 59
REMARK SMILES IDX 51 60 52 61 66 63 87 64 54 65 38 66 39 67 47 68 40 69 41 70
REMARK SMILES IDX 45 71 48 72 42 73 43 74 46 75 44 76 70 77 71 78 79 79 72 80
REMARK SMILES IDX 73 81 77 82 80 83 74 84 75 85 78 86 76 87 55 88 56 89 64 90
REMARK SMILES IDX 57 91 58 92 62 93 65 94 59 95 60 96 63 97 61 98
REMARK H PARENT 6 12 10 17 14 21 14 22 14 23 85 51 53 62
REMARK Flexibility Score: inf
ROOT
ATOM      1  C   UNL A   1      32.159  28.079  25.847  1.00  0.00     0.261 C 
ENDROOT
BRANCH   1   2
ATOM      2  O   UNL A   1      32.750  26.806  26.137  1.00  0.00    -0.462 OA
BRANCH   2   3
ATOM      3  C   UNL A   1      31.937  25.725  25.939  1.00  0.00     0.328 C 
ATOM      4  O   UNL A   1      30.928  25.463  26.579  1.00  0.00    -0.250 OA
BRANCH   3   5
ATOM      5  C   UNL A   1      32.510  24.813  24.855  1.00  0.00     0.192 C 
BRANCH   5   6
ATOM      6  C   UNL A   1      33.972  25.192  24.602  1.00  0.00     0.040 C 
BRANCH   6   7
ATOM      7  C   UNL A   1      35.072  24.127  24.805  1.00  0.00    -0.015 C 
ATOM      8  C   UNL A   1      35.038  23.484  26.196  1.00  0.00     0.007 C 
ATOM      9  C   UNL A   1      34.879  23.006  23.774  1.00  0.00     0.007 C 
ENDBRANCH   6   7
ENDBRANCH   5   6
BRANCH   5  10
ATOM     10  N   UNL A   1      31.685  24.794  23.628  1.00  0.00    -0.341 N 
ATOM     11  C   UNL A   1      32.074  25.500  22.512  1.00  0.00     0.240 C 
ATOM     12  H   UNL A   1      30.850  24.272  23.609  1.00  0.00     0.164 HD
ATOM     13  O   UNL A   1      32.804  24.950  21.686  1.00  0.00    -0.273 OA
BRANCH  11  14
ATOM     14  C   UNL A   1      31.668  26.979  22.377  1.00  0.00     0.216 C 
BRANCH  14  15
ATOM     15  N   UNL A   1      30.303  27.264  22.793  1.00  0.00    -0.342 N 
ATOM     16  C   UNL A   1      29.530  28.373  22.881  1.00  0.00     0.278 C 
ATOM     17  H   UNL A   1      29.827  26.453  23.083  1.00  0.00     0.164 HD
ATOM     18  O   UNL A   1      28.366  28.138  23.235  1.00  0.00    -0.268 OA
BRANCH  16  19
ATOM     19  C   UNL A   1      30.020  29.852  22.716  1.00  0.00     0.273 C 
BRANCH  19  20
ATOM     20  N   UNL A   1      31.162  29.984  21.787  1.00  0.00    -0.347 N 
ATOM     21  H   UNL A   1      31.578  29.066  21.628  1.00  0.00     0.345 HD
ATOM     22  H   UNL A   1      31.859  30.608  22.191  1.00  0.00     0.345 HD
ATOM     23  H   UNL A   1      30.836  30.368  20.900  1.00  0.00     0.345 HD
ENDBRANCH  19  20
BRANCH  19  24
ATOM     24  C   UNL A   1      28.876  30.849  22.380  1.00  0.00     0.051 C 
ATOM     25  C   UNL A   1      27.924  30.304  21.302  1.00  0.00     0.014 C 
ATOM     26  C   UNL A   1      28.018  31.172  23.617  1.00  0.00     0.014 C 
ENDBRANCH  19  24
ENDBRANCH  16  19
ENDBRANCH  14  15
ENDBRANCH  11  14
ENDBRANCH   5  10
ENDBRANCH   3   5
ENDBRANCH   2   3
ENDBRANCH   1   2
BRANCH   1  27
ATOM     27  C   UNL A   1      32.611  29.170  26.815  1.00  0.00     0.202 C 
BRANCH  27  28
ATOM     28  O   UNL A   1      32.688  30.492  26.296  1.00  0.00    -0.374 OA
BRANCH  28  29
ATOM     29  C   UNL A   1      31.551  31.349  26.416  1.00  0.00     0.202 C 
BRANCH  29  30
ATOM     30  C   UNL A   1      31.752  32.684  27.136  1.00  0.00     0.261 C 
BRANCH  30  31
ATOM     31  O   UNL A   1      33.096  33.186  26.988  1.00  0.00    -0.460 OA
BRANCH  31  32
ATOM     32  C   UNL A   1      33.718  33.452  28.161  1.00  0.00     0.338 C 
ATOM     33  O   UNL A   1      33.289  34.093  29.104  1.00  0.00    -0.246 OA
BRANCH  32  34
ATOM     34  C   UNL A   1      34.992  32.724  28.252  1.00  0.00     0.060 A 
ATOM     35  C   UNL A   1      34.936  31.365  28.579  1.00  0.00     0.016 A 
ATOM     36  C   UNL A   1      36.208  33.410  28.237  1.00  0.00     0.016 A 
ATOM     37  C   UNL A   1      36.093  30.701  28.974  1.00  0.00     0.010 A 
ATOM     38  C   UNL A   1      37.370  32.741  28.639  1.00  0.00     0.010 A 
ATOM     39  C   UNL A   1      37.304  31.402  29.064  1.00  0.00    -0.014 A 
BRANCH  39  40
ATOM     40  C   UNL A   1      38.433  30.775  29.795  1.00  0.00     0.031 A 
ATOM     41  C   UNL A   1      38.628  31.102  31.252  1.00  0.00     0.074 A 
ATOM     42  C   UNL A   1      39.221  29.868  29.193  1.00  0.00     0.049 A 
ATOM     43  N   UNL A   1      39.510  30.634  32.099  1.00  0.00    -0.248 NA
ATOM     44  C   UNL A   1      37.702  32.087  31.832  1.00  0.00     0.031 C 
ATOM     45  C   UNL A   1      39.099  29.436  27.804  1.00  0.00     0.029 A 
ATOM     46  N   UNL A   1      40.274  29.138  29.685  1.00  0.00    -0.354 N 
ATOM     47  C   UNL A   1      39.247  31.268  33.306  1.00  0.00     0.074 A 
ATOM     48  C   UNL A   1      38.145  32.177  33.077  1.00  0.00     0.031 C 
ATOM     49  C   UNL A   1      40.039  28.508  27.554  1.00  0.00     0.029 A 
ATOM     50  C   UNL A   1      40.841  28.300  28.758  1.00  0.00     0.049 A 
ATOM     51  H   UNL A   1      40.592  29.209  30.614  1.00  0.00     0.167 HD
ATOM     52  C   UNL A   1      39.863  31.100  34.502  1.00  0.00     0.037 A 
ATOM     53  C   UNL A   1      41.891  27.466  28.873  1.00  0.00     0.037 A 
ATOM     54  C   UNL A   1      40.953  30.189  34.732  1.00  0.00     0.049 A 
ATOM     55  C   UNL A   1      42.598  27.345  30.198  1.00  0.00     0.074 A 
ATOM     56  C   UNL A   1      41.627  29.927  35.911  1.00  0.00     0.029 A 
ATOM     57  N   UNL A   1      41.532  29.393  33.754  1.00  0.00    -0.354 N 
ATOM     58  N   UNL A   1      42.323  27.923  31.341  1.00  0.00    -0.248 NA
ATOM     59  C   UNL A   1      43.759  26.445  30.246  1.00  0.00     0.031 C 
ATOM     60  C   UNL A   1      42.647  29.009  35.638  1.00  0.00     0.029 A 
ATOM     61  C   UNL A   1      42.575  28.660  34.299  1.00  0.00     0.049 A 
ATOM     62  H   UNL A   1      41.245  29.354  32.814  1.00  0.00     0.167 HD
ATOM     63  C   UNL A   1      43.253  27.436  32.250  1.00  0.00     0.074 A 
ATOM     64  C   UNL A   1      44.095  26.506  31.527  1.00  0.00     0.031 C 
ATOM     65  C   UNL A   1      43.396  27.731  33.566  1.00  0.00     0.037 A 
BRANCH  52  66
ATOM     66  C   UNL A   1      39.388  31.945  35.648  1.00  0.00     0.064 A 
ATOM     67  C   UNL A   1      38.404  31.495  36.541  1.00  0.00     0.173 A 
ATOM     68  C   UNL A   1      39.943  33.216  35.867  1.00  0.00     0.173 A 
ATOM     69  F   UNL A   1      37.833  30.294  36.367  1.00  0.00    -0.203 F 
ATOM     70  C   UNL A   1      37.973  32.297  37.596  1.00  0.00     0.198 A 
ATOM     71  C   UNL A   1      39.529  34.003  36.938  1.00  0.00     0.198 A 
ATOM     72  F   UNL A   1      40.889  33.691  35.045  1.00  0.00    -0.203 F 
ATOM     73  F   UNL A   1      37.000  31.867  38.409  1.00  0.00    -0.200 F 
ATOM     74  C   UNL A   1      38.539  33.548  37.796  1.00  0.00     0.200 A 
ATOM     75  F   UNL A   1      40.085  35.206  37.137  1.00  0.00    -0.200 F 
ATOM     76  F   UNL A   1      38.128  34.317  38.814  1.00  0.00    -0.200 F 
ENDBRANCH  52  66
BRANCH  53  77
ATOM     77  C   UNL A   1      42.336  26.669  27.701  1.00  0.00     0.064 A 
ATOM     78  C   UNL A   1      41.793  25.404  27.439  1.00  0.00     0.173 A 
ATOM     79  C   UNL A   1      43.322  27.151  26.827  1.00  0.00     0.173 A 
ATOM     80  F   UNL A   1      40.866  24.891  28.261  1.00  0.00    -0.203 F 
ATOM     81  C   UNL A   1      42.231  24.643  26.358  1.00  0.00     0.198 A 
ATOM     82  C   UNL A   1      43.741  26.400  25.731  1.00  0.00     0.198 A 
ATOM     83  F   UNL A   1      43.874  28.355  27.036  1.00  0.00    -0.203 F 
ATOM     84  F   UNL A   1      41.727  23.418  26.155  1.00  0.00    -0.200 F 
ATOM     85  C   UNL A   1      43.200  25.144  25.501  1.00  0.00     0.200 A 
ATOM     86  F   UNL A   1      44.670  26.892  24.901  1.00  0.00    -0.200 F 
ATOM     87  F   UNL A   1      43.620  24.412  24.459  1.00  0.00    -0.200 F 
ENDBRANCH  53  77
BRANCH  65  88
ATOM     88  C   UNL A   1      44.476  27.009  34.318  1.00  0.00     0.064 A 
ATOM     89  C   UNL A   1      45.768  27.541  34.448  1.00  0.00     0.173 A 
ATOM     90  C   UNL A   1      44.206  25.781  34.942  1.00  0.00     0.173 A 
ATOM     91  F   UNL A   1      46.079  28.705  33.858  1.00  0.00    -0.203 F 
ATOM     92  C   UNL A   1      46.756  26.857  35.151  1.00  0.00     0.198 A 
ATOM     93  C   UNL A   1      45.189  25.114  35.669  1.00  0.00     0.198 A 
ATOM     94  F   UNL A   1      42.986  25.232  34.855  1.00  0.00    -0.203 F 
ATOM     95  F   UNL A   1      47.997  27.361  35.219  1.00  0.00    -0.200 F 
ATOM     96  C   UNL A   1      46.465  25.648  35.765  1.00  0.00     0.200 A 
ATOM     97  F   UNL A   1      44.902  23.952  36.272  1.00  0.00    -0.200 F 
ATOM     98  F   UNL A   1      47.417  24.993  36.442  1.00  0.00    -0.200 F 
ENDBRANCH  65  88
ENDBRANCH  39  40
ENDBRANCH  32  34
ENDBRANCH  31  32
ENDBRANCH  30  31
ENDBRANCH  29  30
ENDBRANCH  28  29
ENDBRANCH  27  28
ENDBRANCH   1  27
TORSDOF 22
ENDMDL
MODEL 2
REMARK VINA RESULT:     -10.5      0.625      2.092
REMARK SMILES CC(C)C[C@H](NC(=O)CNC(=O)[C@@H]([NH3+])C(C)C)C(=O)OCCOCCOC(=O)c1ccc(-c2c3nc(c(-c4c(F)c(F)c(F)c(F)c4F)c4ccc([nH]4)c(-c4c(F)c(F)c(F)c(F)c4F)c4nc(c(-c5c(F)c(F)c(F)c(F)c5F)c5ccc2[nH]5)C=C4)C=C3)cc1
REMARK SMILES IDX 21 1 20 2 18 3 19 4 5 5 4 6 2 7 1 8 3 9 6 10 7 11 8 13 9 14
REMARK SMILES IDX 10 15 11 16 12 18 13 19 14 20 15 24 16 25 17 26 22 27 23 28
REMARK SMILES IDX 24 29 25 30 26 31 27 32 28 33 29 34 30 35 91 36 31 37 90 38
REMARK SMILES IDX 32 39 33 40 34 41 84 42 35 43 89 44 83 45 85 46 36 47 88 48
REMARK SMILES IDX 82 49 81 50 37 52 69 53 49 54 68 55 50 56 53 57 67 58 86 59
REMARK SMILES IDX 51 60 52 61 66 63 87 64 54 65 38 66 39 67 47 68 40 69 41 70
REMARK SMILES IDX 45 71 48 72 42 73 43 74 46 75 44 76 70 77 71 78 79 79 72 80
REMARK SMILES IDX 73 81 77 82 80 83 74 84 75 85 78 86 76 87 55 88 56 89 64 90
REMARK SMILES IDX 57 91 58 92 62 93 65 94 59 95 60 96 63 97 61 98
REMARK H PARENT 6 12 10 17 14 21 14 22 14 23 85 51 53 62
REMARK Flexibility Score: inf
ROOT
ATOM      1  C   UNL A   1      32.282  28.132  25.835  1.00  0.00     0.261 C 
ENDROOT
BRANCH   1   2
ATOM      2  O   UNL A   1      32.769  26.822  26.149  1.00  0.00    -0.462 OA
BRANCH   2   3
ATOM      3  C   UNL A   1      31.873  25.805  25.963  1.00  0.00     0.328 C 
ATOM      4  O   UNL A   1      30.754  25.740  26.452  1.00  0.00    -0.250 OA
BRANCH   3   5
ATOM      5  C   UNL A   1      32.494  24.690  25.123  1.00  0.00     0.192 C 
BRANCH   5   6
ATOM      6  C   UNL A   1      34.014  24.871  25.092  1.00  0.00     0.040 C 
BRANCH   6   7
ATOM      7  C   UNL A   1      34.921  23.621  25.058  1.00  0.00    -0.015 C 
ATOM      8  C   UNL A   1      34.981  22.958  23.677  1.00  0.00     0.007 C 
ATOM      9  C   UNL A   1      36.351  24.031  25.435  1.00  0.00     0.007 C 
ENDBRANCH   6   7
ENDBRANCH   5   6
BRANCH   5  10
ATOM     10  N   UNL A   1      31.885  24.580  23.780  1.00  0.00    -0.341 N 
ATOM     11  C   UNL A   1      32.054  25.582  22.851  1.00  0.00     0.240 C 
ATOM     12  H   UNL A   1      31.355  23.783  23.547  1.00  0.00     0.164 HD
ATOM     13  O   UNL A   1      33.029  25.537  22.099  1.00  0.00    -0.273 OA
BRANCH  11  14
ATOM     14  C   UNL A   1      31.079  26.774  22.843  1.00  0.00     0.216 C 
BRANCH  14  15
ATOM     15  N   UNL A   1      29.848  26.543  23.583  1.00  0.00    -0.342 N 
ATOM     16  C   UNL A   1      28.598  27.066  23.570  1.00  0.00     0.278 C 
ATOM     17  H   UNL A   1      29.948  25.835  24.259  1.00  0.00     0.164 HD
ATOM     18  O   UNL A   1      27.818  26.504  24.352  1.00  0.00    -0.268 OA
BRANCH  16  19
ATOM     19  C   UNL A   1      28.145  28.345  22.788  1.00  0.00     0.273 C 
BRANCH  19  20
ATOM     20  N   UNL A   1      26.695  28.610  22.900  1.00  0.00    -0.347 N 
ATOM     21  H   UNL A   1      26.248  28.441  21.998  1.00  0.00     0.345 HD
ATOM     22  H   UNL A   1      26.546  29.579  23.177  1.00  0.00     0.345 HD
ATOM     23  H   UNL A   1      26.289  27.990  23.602  1.00  0.00     0.345 HD
ENDBRANCH  19  20
BRANCH  19  24
ATOM     24  C   UNL A   1      28.995  29.604  23.116  1.00  0.00     0.051 C 
ATOM     25  C   UNL A   1      29.885  30.032  21.937  1.00  0.00     0.014 C 
ATOM     26  C   UNL A   1      28.112  30.813  23.475  1.00  0.00     0.014 C 
ENDBRANCH  19  24
ENDBRANCH  16  19
ENDBRANCH  14  15
ENDBRANCH  11  14
ENDBRANCH   5  10
ENDBRANCH   3   5
ENDBRANCH   2   3
ENDBRANCH   1   2
BRANCH   1  27
ATOM     27  C   UNL A   1      32.797  29.196  26.803  1.00  0.00     0.202 C 
BRANCH  27  28
ATOM     28  O   UNL A   1      32.805  30.538  26.331  1.00  0.00    -0.374 OA
BRANCH  28  29
ATOM     29  C   UNL A   1      31.639  31.342  26.515  1.00  0.00     0.202 C 
BRANCH  29  30
ATOM     30  C   UNL A   1      31.824  32.703  27.189  1.00  0.00     0.261 C 
BRANCH  30  31
ATOM     31  O   UNL A   1      33.171  33.198  27.053  1.00  0.00    -0.460 OA
BRANCH  31  32
ATOM     32  C   UNL A   1      33.785  33.454  28.233  1.00  0.00     0.338 C 
ATOM     33  O   UNL A   1      33.349  34.083  29.181  1.00  0.00    -0.246 OA
BRANCH  32  34
ATOM     34  C   UNL A   1      35.063  32.731  28.323  1.00  0.00     0.060 A 
ATOM     35  C   UNL A   1      35.010  31.367  28.631  1.00  0.00     0.016 A 
ATOM     36  C   UNL A   1      36.275  33.422  28.326  1.00  0.00     0.016 A 
ATOM     37  C   UNL A   1      36.168  30.703  29.024  1.00  0.00     0.010 A 
ATOM     38  C   UNL A   1      37.437  32.753  28.727  1.00  0.00     0.010 A 
ATOM     39  C   UNL A   1      37.375  31.407  29.133  1.00  0.00    -0.014 A 
BRANCH  39  40
ATOM     40  C   UNL A   1      38.501  30.775  29.862  1.00  0.00     0.031 A 
ATOM     41  C   UNL A   1      38.708  31.112  31.315  1.00  0.00     0.074 A 
ATOM     42  C   UNL A   1      39.277  29.856  29.264  1.00  0.00     0.049 A 
ATOM     43  N   UNL A   1      39.589  30.642  32.161  1.00  0.00    -0.248 NA
ATOM     44  C   UNL A   1      37.794  32.110  31.893  1.00  0.00     0.031 C 
ATOM     45  C   UNL A   1      39.143  29.414  27.878  1.00  0.00     0.029 A 
ATOM     46  N   UNL A   1      40.326  29.120  29.756  1.00  0.00    -0.354 N 
ATOM     47  C   UNL A   1      39.339  31.288  33.366  1.00  0.00     0.074 A 
ATOM     48  C   UNL A   1      38.245  32.206  33.135  1.00  0.00     0.031 C 
ATOM     49  C   UNL A   1      40.074  28.476  27.631  1.00  0.00     0.029 A 
ATOM     50  C   UNL A   1      40.879  28.270  28.832  1.00  0.00     0.049 A 
ATOM     51  H   UNL A   1      40.650  29.196  30.683  1.00  0.00     0.167 HD
ATOM     52  C   UNL A   1      39.959  31.124  34.559  1.00  0.00     0.037 A 
ATOM     53  C   UNL A   1      41.922  27.427  28.948  1.00  0.00     0.037 A 
ATOM     54  C   UNL A   1      41.041  30.204  34.791  1.00  0.00     0.049 A 
ATOM     55  C   UNL A   1      42.635  27.309  30.270  1.00  0.00     0.074 A 
ATOM     56  C   UNL A   1      41.719  29.945  35.968  1.00  0.00     0.029 A 
ATOM     57  N   UNL A   1      41.608  29.395  33.816  1.00  0.00    -0.354 N 
ATOM     58  N   UNL A   1      42.372  27.899  31.411  1.00  0.00    -0.248 NA
ATOM     59  C   UNL A   1      43.788  26.398  30.320  1.00  0.00     0.031 C 
ATOM     60  C   UNL A   1      42.728  29.014  35.697  1.00  0.00     0.029 A 
ATOM     61  C   UNL A   1      42.646  28.656  34.361  1.00  0.00     0.049 A 
ATOM     62  H   UNL A   1      41.316  29.351  32.878  1.00  0.00     0.167 HD
ATOM     63  C   UNL A   1      43.302  27.410  32.319  1.00  0.00     0.074 A 
ATOM     64  C   UNL A   1      44.131  26.465  31.598  1.00  0.00     0.031 C 
ATOM     65  C   UNL A   1      43.455  27.713  33.632  1.00  0.00     0.037 A 
BRANCH  52  66
ATOM     66  C   UNL A   1      39.498  31.982  35.701  1.00  0.00     0.064 A 
ATOM     67  C   UNL A   1      40.033  33.259  35.930  1.00  0.00     0.173 A 
ATOM     68  C   UNL A   1      38.490  31.528  36.566  1.00  0.00     0.173 A 
ATOM     69  F   UNL A   1      41.008  33.733  35.141  1.00  0.00    -0.203 F 
ATOM     70  C   UNL A   1      39.595  34.038  36.999  1.00  0.00     0.198 A 
ATOM     71  C   UNL A   1      38.036  32.320  37.616  1.00  0.00     0.198 A 
ATOM     72  F   UNL A   1      37.943  30.316  36.388  1.00  0.00    -0.203 F 
ATOM     73  F   UNL A   1      40.153  35.234  37.226  1.00  0.00    -0.200 F 
ATOM     74  C   UNL A   1      38.594  33.570  37.838  1.00  0.00     0.200 A 
ATOM     75  F   UNL A   1      37.060  31.872  38.419  1.00  0.00    -0.200 F 
ATOM     76  F   UNL A   1      38.171  34.322  38.862  1.00  0.00    -0.200 F 
ENDBRANCH  52  66
BRANCH  53  77
ATOM     77  C   UNL A   1      42.354  26.616  27.781  1.00  0.00     0.064 A 
ATOM     78  C   UNL A   1      43.345  27.081  26.905  1.00  0.00     0.173 A 
ATOM     79  C   UNL A   1      41.775  25.367  27.509  1.00  0.00     0.173 A 
ATOM     80  F   UNL A   1      43.909  28.280  27.109  1.00  0.00    -0.203 F 
ATOM     81  C   UNL A   1      43.729  26.335  25.793  1.00  0.00     0.198 A 
ATOM     82  C   UNL A   1      42.178  24.611  26.412  1.00  0.00     0.198 A 
ATOM     83  F   UNL A   1      40.821  24.880  28.316  1.00  0.00    -0.203 F 
ATOM     84  F   UNL A   1      44.647  26.821  24.948  1.00  0.00    -0.200 F 
ATOM     85  C   UNL A   1      43.149  25.098  25.550  1.00  0.00     0.200 A 
ATOM     86  F   UNL A   1      41.623  23.412  26.186  1.00  0.00    -0.200 F 
ATOM     87  F   UNL A   1      43.521  24.380  24.481  1.00  0.00    -0.200 F 
ENDBRANCH  53  77
BRANCH  65  88
ATOM     88  C   UNL A   1      44.532  26.986  34.384  1.00  0.00     0.064 A 
ATOM     89  C   UNL A   1      44.297  25.744  34.991  1.00  0.00     0.173 A 
ATOM     90  C   UNL A   1      45.824  27.527  34.472  1.00  0.00     0.173 A 
ATOM     91  F   UNL A   1      43.075  25.192  34.947  1.00  0.00    -0.203 F 
ATOM     92  C   UNL A   1      45.308  25.083  35.683  1.00  0.00     0.198 A 
ATOM     93  C   UNL A   1      46.841  26.850  35.140  1.00  0.00     0.198 A 
ATOM     94  F   UNL A   1      46.103  28.709  33.903  1.00  0.00    -0.203 F 
ATOM     95  F   UNL A   1      45.048  23.921  36.299  1.00  0.00    -0.200 F 
ATOM     96  C   UNL A   1      46.580  25.634  35.752  1.00  0.00     0.200 A 
ATOM     97  F   UNL A   1      48.071  27.378  35.194  1.00  0.00    -0.200 F 
ATOM     98  F   UNL A   1      47.553  24.995  36.417  1.00  0.00    -0.200 F 
ENDBRANCH  65  88
ENDBRANCH  39  40
ENDBRANCH  32  34
ENDBRANCH  31  32
ENDBRANCH  30  31
ENDBRANCH  29  30
ENDBRANCH  28  29
ENDBRANCH  27  28
ENDBRANCH   1  27
TORSDOF 22
ENDMDL
MODEL 3
REMARK VINA RESULT:     -10.5      4.347      7.357
REMARK SMILES CC(C)C[C@H](NC(=O)CNC(=O)[C@@H]([NH3+])C(C)C)C(=O)OCCOCCOC(=O)c1ccc(-c2c3nc(c(-c4c(F)c(F)c(F)c(F)c4F)c4ccc([nH]4)c(-c4c(F)c(F)c(F)c(F)c4F)c4nc(c(-c5c(F)c(F)c(F)c(F)c5F)c5ccc2[nH]5)C=C4)C=C3)cc1
REMARK SMILES IDX 21 1 20 2 18 3 19 4 5 5 4 6 2 7 1 8 3 9 6 10 7 11 8 13 9 14
REMARK SMILES IDX 10 15 11 16 12 18 13 19 14 20 15 24 16 25 17 26 22 27 23 28
REMARK SMILES IDX 24 29 25 30 26 31 27 32 28 33 29 34 30 35 91 36 31 37 90 38
REMARK SMILES IDX 32 39 33 40 34 41 84 42 35 43 89 44 83 45 85 46 36 47 88 48
REMARK SMILES IDX 82 49 81 50 37 52 69 53 49 54 68 55 50 56 53 57 67 58 86 59
REMARK SMILES IDX 51 60 52 61 66 63 87 64 54 65 38 66 39 67 47 68 40 69 41 70
REMARK SMILES IDX 45 71 48 72 42 73 43 74 46 75 44 76 70 77 71 78 79 79 72 80
REMARK SMILES IDX 73 81 77 82 80 83 74 84 75 85 78 86 76 87 55 88 56 89 64 90
REMARK SMILES IDX 57 91 58 92 62 93 65 94 59 95 60 96 63 97 61 98
REMARK H PARENT 6 12 10 17 14 21 14 22 14 23 85 51 53 62
REMARK Flexibility Score: inf
ROOT
ATOM      1  C   UNL A   1      35.463  22.995  23.258  1.00  0.00     0.261 C 
ENDROOT
BRANCH   1   2
ATOM      2  O   UNL A   1      34.051  22.849  23.453  1.00  0.00    -0.462 OA
BRANCH   2   3
ATOM      3  C   UNL A   1      33.265  23.641  22.662  1.00  0.00     0.328 C 
ATOM      4  O   UNL A   1      33.341  23.733  21.445  1.00  0.00    -0.250 OA
BRANCH   3   5
ATOM      5  C   UNL A   1      32.320  24.484  23.516  1.00  0.00     0.192 C 
BRANCH   5   6
ATOM      6  C   UNL A   1      31.435  23.555  24.352  1.00  0.00     0.040 C 
BRANCH   6   7
ATOM      7  C   UNL A   1      31.471  23.666  25.893  1.00  0.00    -0.015 C 
ATOM      8  C   UNL A   1      32.822  24.151  26.430  1.00  0.00     0.007 C 
ATOM      9  C   UNL A   1      30.406  24.675  26.346  1.00  0.00     0.007 C 
ENDBRANCH   6   7
ENDBRANCH   5   6
BRANCH   5  10
ATOM     10  N   UNL A   1      31.556  25.469  22.721  1.00  0.00    -0.341 N 
ATOM     11  C   UNL A   1      31.561  26.802  23.068  1.00  0.00     0.240 C 
ATOM     12  H   UNL A   1      31.040  25.170  21.938  1.00  0.00     0.164 HD
ATOM     13  O   UNL A   1      32.436  27.534  22.603  1.00  0.00    -0.273 OA
BRANCH  11  14
ATOM     14  C   UNL A   1      30.536  27.317  24.095  1.00  0.00     0.216 C 
BRANCH  14  15
ATOM     15  N   UNL A   1      29.241  27.659  23.528  1.00  0.00    -0.342 N 
ATOM     16  C   UNL A   1      28.726  28.719  22.861  1.00  0.00     0.278 C 
ATOM     17  H   UNL A   1      28.576  26.945  23.663  1.00  0.00     0.164 HD
ATOM     18  O   UNL A   1      27.555  28.551  22.493  1.00  0.00    -0.268 OA
BRANCH  16  19
ATOM     19  C   UNL A   1      29.421  30.109  22.666  1.00  0.00     0.273 C 
BRANCH  19  20
ATOM     20  N   UNL A   1      30.494  30.083  21.650  1.00  0.00    -0.347 N 
ATOM     21  H   UNL A   1      30.968  29.179  21.679  1.00  0.00     0.345 HD
ATOM     22  H   UNL A   1      31.166  30.824  21.845  1.00  0.00     0.345 HD
ATOM     23  H   UNL A   1      30.090  30.225  20.724  1.00  0.00     0.345 HD
ENDBRANCH  19  20
BRANCH  19  24
ATOM     24  C   UNL A   1      28.419  31.273  22.427  1.00  0.00     0.051 C 
ATOM     25  C   UNL A   1      28.995  32.636  22.849  1.00  0.00     0.014 C 
ATOM     26  C   UNL A   1      28.024  31.392  20.944  1.00  0.00     0.014 C 
ENDBRANCH  19  24
ENDBRANCH  16  19
ENDBRANCH  14  15
ENDBRANCH  11  14
ENDBRANCH   5  10
ENDBRANCH   3   5
ENDBRANCH   2   3
ENDBRANCH   1   2
BRANCH   1  27
ATOM     27  C   UNL A   1      36.209  23.278  24.560  1.00  0.00     0.202 C 
BRANCH  27  28
ATOM     28  O   UNL A   1      36.436  22.168  25.420  1.00  0.00    -0.374 OA
BRANCH  28  29
ATOM     29  C   UNL A   1      36.733  20.896  24.842  1.00  0.00     0.202 C 
BRANCH  29  30
ATOM     30  C   UNL A   1      37.998  20.184  25.326  1.00  0.00     0.261 C 
BRANCH  30  31
ATOM     31  O   UNL A   1      39.139  21.066  25.364  1.00  0.00    -0.460 OA
BRANCH  31  32
ATOM     32  C   UNL A   1      39.925  20.902  26.454  1.00  0.00     0.338 C 
ATOM     33  O   UNL A   1      40.462  19.879  26.841  1.00  0.00    -0.246 OA
BRANCH  32  34
ATOM     34  C   UNL A   1      40.205  22.197  27.094  1.00  0.00     0.060 A 
ATOM     35  C   UNL A   1      39.560  23.325  26.574  1.00  0.00     0.016 A 
ATOM     36  C   UNL A   1      41.237  22.324  28.024  1.00  0.00     0.016 A 
ATOM     37  C   UNL A   1      40.002  24.596  26.925  1.00  0.00     0.010 A 
ATOM     38  C   UNL A   1      41.683  23.605  28.372  1.00  0.00     0.010 A 
ATOM     39  C   UNL A   1      41.105  24.741  27.778  1.00  0.00    -0.014 A 
BRANCH  39  40
ATOM     40  C   UNL A   1      41.759  26.070  27.871  1.00  0.00     0.031 A 
ATOM     41  C   UNL A   1      41.062  27.173  28.623  1.00  0.00     0.074 A 
ATOM     42  C   UNL A   1      42.988  26.267  27.366  1.00  0.00     0.049 A 
ATOM     43  N   UNL A   1      41.467  28.391  28.878  1.00  0.00    -0.248 NA
ATOM     44  C   UNL A   1      39.730  26.857  29.164  1.00  0.00     0.031 C 
ATOM     45  C   UNL A   1      43.779  25.263  26.661  1.00  0.00     0.029 A 
ATOM     46  N   UNL A   1      43.788  27.381  27.382  1.00  0.00    -0.354 N 
ATOM     47  C   UNL A   1      40.442  28.987  29.602  1.00  0.00     0.074 A 
ATOM     48  C   UNL A   1      39.383  28.008  29.721  1.00  0.00     0.031 C 
ATOM     49  C   UNL A   1      44.960  25.805  26.315  1.00  0.00     0.029 A 
ATOM     50  C   UNL A   1      44.995  27.198  26.755  1.00  0.00     0.049 A 
ATOM     51  H   UNL A   1      43.522  28.230  27.803  1.00  0.00     0.167 HD
ATOM     52  C   UNL A   1      40.392  30.234  30.130  1.00  0.00     0.037 A 
ATOM     53  C   UNL A   1      46.007  28.064  26.557  1.00  0.00     0.037 A 
ATOM     54  C   UNL A   1      41.449  31.204  30.019  1.00  0.00     0.049 A 
ATOM     55  C   UNL A   1      45.900  29.465  27.100  1.00  0.00     0.074 A 
ATOM     56  C   UNL A   1      41.506  32.484  30.540  1.00  0.00     0.029 A 
ATOM     57  N   UNL A   1      42.637  30.998  29.332  1.00  0.00    -0.354 N 
ATOM     58  N   UNL A   1      44.942  30.009  27.810  1.00  0.00    -0.248 NA
ATOM     59  C   UNL A   1      47.023  30.370  26.817  1.00  0.00     0.031 C 
ATOM     60  C   UNL A   1      42.708  33.071  30.127  1.00  0.00     0.029 A 
ATOM     61  C   UNL A   1      43.421  32.139  29.392  1.00  0.00     0.049 A 
ATOM     62  H   UNL A   1      42.886  30.165  28.871  1.00  0.00     0.167 HD
ATOM     63  C   UNL A   1      45.359  31.305  28.086  1.00  0.00     0.074 A 
ATOM     64  C   UNL A   1      46.662  31.462  27.475  1.00  0.00     0.031 C 
ATOM     65  C   UNL A   1      44.720  32.276  28.786  1.00  0.00     0.037 A 
BRANCH  52  66
ATOM     66  C   UNL A   1      39.136  30.629  30.850  1.00  0.00     0.064 A 
ATOM     67  C   UNL A   1      38.996  30.467  32.237  1.00  0.00     0.173 A 
ATOM     68  C   UNL A   1      38.065  31.199  30.144  1.00  0.00     0.173 A 
ATOM     69  F   UNL A   1      39.985  29.915  32.955  1.00  0.00    -0.203 F 
ATOM     70  C   UNL A   1      37.820  30.836  32.886  1.00  0.00     0.198 A 
ATOM     71  C   UNL A   1      36.902  31.592  30.801  1.00  0.00     0.198 A 
ATOM     72  F   UNL A   1      38.149  31.379  28.818  1.00  0.00    -0.203 F 
ATOM     73  F   UNL A   1      37.690  30.630  34.203  1.00  0.00    -0.200 F 
ATOM     74  C   UNL A   1      36.776  31.402  32.169  1.00  0.00     0.200 A 
ATOM     75  F   UNL A   1      35.899  32.149  30.108  1.00  0.00    -0.200 F 
ATOM     76  F   UNL A   1      35.647  31.761  32.795  1.00  0.00    -0.200 F 
ENDBRANCH  52  66
BRANCH  53  77
ATOM     77  C   UNL A   1      47.219  27.629  25.816  1.00  0.00     0.064 A 
ATOM     78  C   UNL A   1      48.355  27.168  26.496  1.00  0.00     0.173 A 
ATOM     79  C   UNL A   1      47.271  27.678  24.415  1.00  0.00     0.173 A 
ATOM     80  F   UNL A   1      48.362  27.128  27.836  1.00  0.00    -0.203 F 
ATOM     81  C   UNL A   1      49.503  26.789  25.804  1.00  0.00     0.198 A 
ATOM     82  C   UNL A   1      48.410  27.273  23.722  1.00  0.00     0.198 A 
ATOM     83  F   UNL A   1      46.210  28.113  23.718  1.00  0.00    -0.203 F 
ATOM     84  F   UNL A   1      50.590  26.393  26.479  1.00  0.00    -0.200 F 
ATOM     85  C   UNL A   1      49.527  26.836  24.417  1.00  0.00     0.200 A 
ATOM     86  F   UNL A   1      48.425  27.311  22.383  1.00  0.00    -0.200 F 
ATOM     87  F   UNL A   1      50.631  26.468  23.752  1.00  0.00    -0.200 F 
ENDBRANCH  53  77
BRANCH  65  88
ATOM     88  C   UNL A   1      45.441  33.581  28.962  1.00  0.00     0.064 A 
ATOM     89  C   UNL A   1      46.314  33.802  30.039  1.00  0.00     0.173 A 
ATOM     90  C   UNL A   1      45.279  34.613  28.026  1.00  0.00     0.173 A 
ATOM     91  F   UNL A   1      46.491  32.852  30.968  1.00  0.00    -0.203 F 
ATOM     92  C   UNL A   1      46.974  35.018  30.185  1.00  0.00     0.198 A 
ATOM     93  C   UNL A   1      45.964  35.818  28.160  1.00  0.00     0.198 A 
ATOM     94  F   UNL A   1      44.462  34.451  26.975  1.00  0.00    -0.203 F 
ATOM     95  F   UNL A   1      47.764  35.226  31.249  1.00  0.00    -0.200 F 
ATOM     96  C   UNL A   1      46.804  36.023  29.243  1.00  0.00     0.200 A 
ATOM     97  F   UNL A   1      45.807  36.781  27.242  1.00  0.00    -0.200 F 
ATOM     98  F   UNL A   1      47.443  37.192  29.386  1.00  0.00    -0.200 F 
ENDBRANCH  65  88
ENDBRANCH  39  40
ENDBRANCH  32  34
ENDBRANCH  31  32
ENDBRANCH  30  31
ENDBRANCH  29  30
ENDBRANCH  28  29
ENDBRANCH  27  28
ENDBRANCH   1  27
TORSDOF 22
ENDMDL
