MODEL 1
REMARK VINA RESULT:     -11.4      0.000      0.000
REMARK SMILES O=C(CNC(=O)c1ccco1)Nc1cccc(C(=O)OCCOCCOC(=O)c2ccc(-c3c4nc(c(-c5c(F)c(F)c(F)c(F)c5F)c5ccc([nH]5)c(-c5c(F)c(F)c(F)c(F)c5F)c5nc(c(-c6c(F)c(F)c(F)c(F)c6F)c6ccc3[nH]6)C=C5)C=C4)cc2)c1
REMARK SMILES IDX 22 1 21 2 20 3 18 4 19 5 17 6 13 7 14 8 92 9 15 10 16 11
REMARK SMILES IDX 12 12 1 13 2 14 3 16 4 17 5 18 6 20 7 21 8 22 11 23 9 24
REMARK SMILES IDX 10 25 23 26 24 27 25 28 26 29 27 30 28 31 29 32 30 33 91 34
REMARK SMILES IDX 31 35 90 36 32 37 33 38 34 39 84 40 35 41 89 42 83 43 85 44
REMARK SMILES IDX 36 45 88 46 82 47 81 48 37 50 69 51 49 52 68 53 50 54 53 55
REMARK SMILES IDX 67 56 86 57 51 58 52 59 66 61 87 62 54 63 38 64 39 65 47 66
REMARK SMILES IDX 40 67 41 68 45 69 48 70 42 71 43 72 46 73 44 74 70 75 71 76
REMARK SMILES IDX 79 77 72 78 73 79 77 80 80 81 74 82 75 83 78 84 76 85 55 86
REMARK SMILES IDX 56 87 64 88 57 89 58 90 62 91 65 92 59 93 60 94 63 95 61 96
REMARK H PARENT 12 15 4 19 85 49 53 60
REMARK Flexibility Score: inf
ROOT
ATOM      1  C   UNL A   1      40.115  20.989  26.479  1.00  0.00     0.202 C 
ENDROOT
BRANCH   1   2
ATOM      2  C   UNL A   1      38.894  21.218  25.581  1.00  0.00     0.261 C 
BRANCH   2   3
ATOM      3  O   UNL A   1      37.880  21.966  26.271  1.00  0.00    -0.460 OA
BRANCH   3   4
ATOM      4  C   UNL A   1      37.750  23.263  25.904  1.00  0.00     0.338 C 
ATOM      5  O   UNL A   1      38.528  24.177  26.142  1.00  0.00    -0.246 OA
BRANCH   4   6
ATOM      6  C   UNL A   1      36.598  23.403  24.986  1.00  0.00     0.062 A 
ATOM      7  C   UNL A   1      34.328  24.113  24.506  1.00  0.00     0.042 A 
ATOM      8  C   UNL A   1      34.451  23.562  23.223  1.00  0.00     0.026 A 
ATOM      9  C   UNL A   1      35.400  24.000  25.396  1.00  0.00     0.041 A 
ATOM     10  C   UNL A   1      35.645  22.960  22.814  1.00  0.00     0.003 A 
ATOM     11  C   UNL A   1      36.726  22.896  23.690  1.00  0.00     0.016 A 
BRANCH   7  12
ATOM     12  N   UNL A   1      33.120  24.771  24.821  1.00  0.00    -0.325 N 
ATOM     13  O   UNL A   1      32.078  23.205  26.198  1.00  0.00    -0.273 OA
ATOM     14  C   UNL A   1      32.111  24.301  25.645  1.00  0.00     0.243 C 
ATOM     15  H   UNL A   1      32.981  25.656  24.413  1.00  0.00     0.169 HD
BRANCH  14  16
ATOM     16  C   UNL A   1      30.879  25.207  25.686  1.00  0.00     0.216 C 
BRANCH  16  17
ATOM     17  N   UNL A   1      30.882  26.146  26.798  1.00  0.00    -0.340 N 
ATOM     18  C   UNL A   1      31.433  27.403  26.877  1.00  0.00     0.287 C 
ATOM     19  H   UNL A   1      30.424  25.836  27.612  1.00  0.00     0.164 HD
ATOM     20  O   UNL A   1      31.434  27.935  27.987  1.00  0.00    -0.266 OA
BRANCH  18  21
ATOM     21  C   UNL A   1      32.005  28.008  25.694  1.00  0.00     0.191 A 
ATOM     22  C   UNL A   1      33.303  28.295  25.301  1.00  0.00     0.056 A 
ATOM     23  O   UNL A   1      31.145  28.394  24.700  1.00  0.00    -0.459 OA
ATOM     24  C   UNL A   1      33.220  28.933  24.039  1.00  0.00     0.043 A 
ATOM     25  C   UNL A   1      31.886  28.959  23.714  1.00  0.00     0.196 A 
ENDBRANCH  18  21
ENDBRANCH  16  17
ENDBRANCH  14  16
ENDBRANCH   7  12
ENDBRANCH   4   6
ENDBRANCH   3   4
ENDBRANCH   2   3
ENDBRANCH   1   2
BRANCH   1  26
ATOM     26  O   UNL A   1      41.225  21.857  26.251  1.00  0.00    -0.374 OA
BRANCH  26  27
ATOM     27  C   UNL A   1      42.503  21.238  26.097  1.00  0.00     0.202 C 
BRANCH  27  28
ATOM     28  C   UNL A   1      43.532  22.028  25.282  1.00  0.00     0.261 C 
BRANCH  28  29
ATOM     29  O   UNL A   1      42.994  23.276  24.809  1.00  0.00    -0.460 OA
BRANCH  29  30
ATOM     30  C   UNL A   1      43.741  24.363  25.108  1.00  0.00     0.338 C 
ATOM     31  O   UNL A   1      44.811  24.688  24.616  1.00  0.00    -0.246 OA
BRANCH  30  32
ATOM     32  C   UNL A   1      43.007  25.241  26.038  1.00  0.00     0.060 A 
ATOM     33  C   UNL A   1      43.504  26.536  26.229  1.00  0.00     0.016 A 
ATOM     34  C   UNL A   1      41.903  24.790  26.766  1.00  0.00     0.016 A 
ATOM     35  C   UNL A   1      42.936  27.366  27.192  1.00  0.00     0.010 A 
ATOM     36  C   UNL A   1      41.336  25.624  27.737  1.00  0.00     0.010 A 
ATOM     37  C   UNL A   1      41.874  26.901  27.979  1.00  0.00    -0.014 A 
BRANCH  37  38
ATOM     38  C   UNL A   1      41.428  27.702  29.145  1.00  0.00     0.031 A 
ATOM     39  C   UNL A   1      42.196  27.607  30.435  1.00  0.00     0.074 A 
ATOM     40  C   UNL A   1      40.378  28.535  29.045  1.00  0.00     0.049 A 
ATOM     41  N   UNL A   1      41.980  28.208  31.578  1.00  0.00    -0.248 NA
ATOM     42  C   UNL A   1      43.364  26.713  30.436  1.00  0.00     0.031 C 
ATOM     43  C   UNL A   1      39.577  28.741  27.839  1.00  0.00     0.029 A 
ATOM     44  N   UNL A   1      39.805  29.363  29.977  1.00  0.00    -0.354 N 
ATOM     45  C   UNL A   1      42.981  27.763  32.432  1.00  0.00     0.074 A 
ATOM     46  C   UNL A   1      43.783  26.816  31.689  1.00  0.00     0.031 C 
ATOM     47  C   UNL A   1      38.612  29.637  28.107  1.00  0.00     0.029 A 
ATOM     48  C   UNL A   1      38.710  30.044  29.507  1.00  0.00     0.049 A 
ATOM     49  H   UNL A   1      40.147  29.460  30.895  1.00  0.00     0.167 HD
ATOM     50  C   UNL A   1      43.217  28.123  33.718  1.00  0.00     0.037 A 
ATOM     51  C   UNL A   1      37.873  30.887  30.143  1.00  0.00     0.037 A 
ATOM     52  C   UNL A   1      42.419  29.067  34.455  1.00  0.00     0.049 A 
ATOM     53  C   UNL A   1      38.119  31.221  31.592  1.00  0.00     0.074 A 
ATOM     54  C   UNL A   1      42.586  29.509  35.756  1.00  0.00     0.029 A 
ATOM     55  N   UNL A   1      41.298  29.713  33.955  1.00  0.00    -0.354 N 
ATOM     56  N   UNL A   1      39.081  30.815  32.385  1.00  0.00    -0.248 NA
ATOM     57  C   UNL A   1      37.163  32.136  32.232  1.00  0.00     0.031 C 
ATOM     58  C   UNL A   1      41.537  30.383  36.060  1.00  0.00     0.029 A 
ATOM     59  C   UNL A   1      40.748  30.530  34.931  1.00  0.00     0.049 A 
ATOM     60  H   UNL A   1      40.944  29.606  33.043  1.00  0.00     0.167 HD
ATOM     61  C   UNL A   1      38.865  31.447  33.603  1.00  0.00     0.074 A 
ATOM     62  C   UNL A   1      37.687  32.273  33.441  1.00  0.00     0.031 C 
ATOM     63  C   UNL A   1      39.578  31.353  34.752  1.00  0.00     0.037 A 
BRANCH  50  64
ATOM     64  C   UNL A   1      44.375  27.473  34.417  1.00  0.00     0.064 A 
ATOM     65  C   UNL A   1      45.653  28.054  34.423  1.00  0.00     0.173 A 
ATOM     66  C   UNL A   1      44.197  26.271  35.118  1.00  0.00     0.173 A 
ATOM     67  F   UNL A   1      45.879  29.195  33.755  1.00  0.00    -0.203 F 
ATOM     68  C   UNL A   1      46.715  27.441  35.084  1.00  0.00     0.198 A 
ATOM     69  C   UNL A   1      45.254  25.677  35.803  1.00  0.00     0.198 A 
ATOM     70  F   UNL A   1      42.995  25.677  35.148  1.00  0.00    -0.203 F 
ATOM     71  F   UNL A   1      47.937  27.990  35.037  1.00  0.00    -0.200 F 
ATOM     72  C   UNL A   1      46.514  26.258  35.779  1.00  0.00     0.200 A 
ATOM     73  F   UNL A   1      45.055  24.540  36.484  1.00  0.00    -0.200 F 
ATOM     74  F   UNL A   1      47.534  25.673  36.420  1.00  0.00    -0.200 F 
ENDBRANCH  50  64
BRANCH  51  75
ATOM     75  C   UNL A   1      36.719  31.477  29.415  1.00  0.00     0.064 A 
ATOM     76  C   UNL A   1      35.632  30.686  29.020  1.00  0.00     0.173 A 
ATOM     77  C   UNL A   1      36.691  32.839  29.081  1.00  0.00     0.173 A 
ATOM     78  F   UNL A   1      35.625  29.373  29.292  1.00  0.00    -0.203 F 
ATOM     79  C   UNL A   1      34.570  31.231  28.301  1.00  0.00     0.198 A 
ATOM     80  C   UNL A   1      35.616  33.388  28.388  1.00  0.00     0.198 A 
ATOM     81  F   UNL A   1      37.709  33.637  29.433  1.00  0.00    -0.203 F 
ATOM     82  F   UNL A   1      33.567  30.443  27.892  1.00  0.00    -0.200 F 
ATOM     83  C   UNL A   1      34.559  32.583  27.991  1.00  0.00     0.200 A 
ATOM     84  F   UNL A   1      35.605  34.697  28.099  1.00  0.00    -0.200 F 
ATOM     85  F   UNL A   1      33.537  33.106  27.299  1.00  0.00    -0.200 F 
ENDBRANCH  51  75
BRANCH  63  86
ATOM     86  C   UNL A   1      39.130  32.193  35.914  1.00  0.00     0.064 A 
ATOM     87  C   UNL A   1      38.263  31.693  36.897  1.00  0.00     0.173 A 
ATOM     88  C   UNL A   1      39.600  33.507  36.063  1.00  0.00     0.173 A 
ATOM     89  F   UNL A   1      37.773  30.449  36.795  1.00  0.00    -0.203 F 
ATOM     90  C   UNL A   1      37.861  32.486  37.968  1.00  0.00     0.198 A 
ATOM     91  C   UNL A   1      39.222  34.288  37.151  1.00  0.00     0.198 A 
ATOM     92  F   UNL A   1      40.439  34.033  35.156  1.00  0.00    -0.203 F 
ATOM     93  F   UNL A   1      36.990  32.005  38.866  1.00  0.00    -0.200 F 
ATOM     94  C   UNL A   1      38.345  33.779  38.098  1.00  0.00     0.200 A 
ATOM     95  F   UNL A   1      39.703  35.531  37.283  1.00  0.00    -0.200 F 
ATOM     96  F   UNL A   1      37.960  34.540  39.133  1.00  0.00    -0.200 F 
ENDBRANCH  63  86
ENDBRANCH  37  38
ENDBRANCH  30  32
ENDBRANCH  29  30
ENDBRANCH  28  29
ENDBRANCH  27  28
ENDBRANCH  26  27
ENDBRANCH   1  26
TORSDOF 18
ENDMDL
MODEL 2
REMARK VINA RESULT:     -11.0      2.259      3.996
REMARK SMILES O=C(CNC(=O)c1ccco1)Nc1cccc(C(=O)OCCOCCOC(=O)c2ccc(-c3c4nc(c(-c5c(F)c(F)c(F)c(F)c5F)c5ccc([nH]5)c(-c5c(F)c(F)c(F)c(F)c5F)c5nc(c(-c6c(F)c(F)c(F)c(F)c6F)c6ccc3[nH]6)C=C5)C=C4)cc2)c1
REMARK SMILES IDX 22 1 21 2 20 3 18 4 19 5 17 6 13 7 14 8 92 9 15 10 16 11
REMARK SMILES IDX 12 12 1 13 2 14 3 16 4 17 5 18 6 20 7 21 8 22 11 23 9 24
REMARK SMILES IDX 10 25 23 26 24 27 25 28 26 29 27 30 28 31 29 32 30 33 91 34
REMARK SMILES IDX 31 35 90 36 32 37 33 38 34 39 84 40 35 41 89 42 83 43 85 44
REMARK SMILES IDX 36 45 88 46 82 47 81 48 37 50 69 51 49 52 68 53 50 54 53 55
REMARK SMILES IDX 67 56 86 57 51 58 52 59 66 61 87 62 54 63 38 64 39 65 47 66
REMARK SMILES IDX 40 67 41 68 45 69 48 70 42 71 43 72 46 73 44 74 70 75 71 76
REMARK SMILES IDX 79 77 72 78 73 79 77 80 80 81 74 82 75 83 78 84 76 85 55 86
REMARK SMILES IDX 56 87 64 88 57 89 58 90 62 91 65 92 59 93 60 94 63 95 61 96
REMARK H PARENT 12 15 4 19 85 49 53 60
REMARK Flexibility Score: inf
ROOT
ATOM      1  C   UNL A   1      41.867  20.961  25.754  1.00  0.00     0.202 C 
ENDROOT
BRANCH   1   2
ATOM      2  C   UNL A   1      40.741  20.575  26.721  1.00  0.00     0.261 C 
BRANCH   2   3
ATOM      3  O   UNL A   1      39.457  20.929  26.183  1.00  0.00    -0.460 OA
BRANCH   3   4
ATOM      4  C   UNL A   1      39.056  22.204  26.403  1.00  0.00     0.338 C 
ATOM      5  O   UNL A   1      39.711  23.105  26.909  1.00  0.00    -0.246 OA
BRANCH   4   6
ATOM      6  C   UNL A   1      37.741  22.426  25.761  1.00  0.00     0.062 A 
ATOM      7  C   UNL A   1      35.566  21.639  25.030  1.00  0.00     0.042 A 
ATOM      8  C   UNL A   1      35.320  22.902  24.475  1.00  0.00     0.026 A 
ATOM      9  C   UNL A   1      36.798  21.398  25.646  1.00  0.00     0.041 A 
ATOM     10  C   UNL A   1      36.264  23.928  24.584  1.00  0.00     0.003 A 
ATOM     11  C   UNL A   1      37.469  23.695  25.243  1.00  0.00     0.016 A 
BRANCH   7  12
ATOM     12  N   UNL A   1      34.536  20.678  24.946  1.00  0.00    -0.325 N 
ATOM     13  O   UNL A   1      32.636  22.002  25.214  1.00  0.00    -0.273 OA
ATOM     14  C   UNL A   1      33.173  20.916  25.014  1.00  0.00     0.243 C 
ATOM     15  H   UNL A   1      34.816  19.741  24.825  1.00  0.00     0.169 HD
BRANCH  14  16
ATOM     16  C   UNL A   1      32.325  19.642  25.007  1.00  0.00     0.216 C 
BRANCH  16  17
ATOM     17  N   UNL A   1      32.157  19.061  23.683  1.00  0.00    -0.340 N 
ATOM     18  C   UNL A   1      32.703  17.914  23.159  1.00  0.00     0.287 C 
ATOM     19  H   UNL A   1      31.567  19.562  23.076  1.00  0.00     0.164 HD
ATOM     20  O   UNL A   1      32.528  17.721  21.956  1.00  0.00    -0.266 OA
BRANCH  18  21
ATOM     21  C   UNL A   1      33.470  17.032  24.012  1.00  0.00     0.191 A 
ATOM     22  C   UNL A   1      34.811  16.958  24.349  1.00  0.00     0.056 A 
ATOM     23  O   UNL A   1      32.792  16.040  24.671  1.00  0.00    -0.459 OA
ATOM     24  C   UNL A   1      34.961  15.841  25.206  1.00  0.00     0.043 A 
ATOM     25  C   UNL A   1      33.700  15.323  25.378  1.00  0.00     0.196 A 
ENDBRANCH  18  21
ENDBRANCH  16  17
ENDBRANCH  14  16
ENDBRANCH   7  12
ENDBRANCH   4   6
ENDBRANCH   3   4
ENDBRANCH   2   3
ENDBRANCH   1   2
BRANCH   1  26
ATOM     26  O   UNL A   1      42.967  20.053  25.690  1.00  0.00    -0.374 OA
BRANCH  26  27
ATOM     27  C   UNL A   1      44.222  20.592  25.273  1.00  0.00     0.202 C 
BRANCH  27  28
ATOM     28  C   UNL A   1      44.205  22.064  24.845  1.00  0.00     0.261 C 
BRANCH  28  29
ATOM     29  O   UNL A   1      44.626  22.934  25.911  1.00  0.00    -0.460 OA
BRANCH  29  30
ATOM     30  C   UNL A   1      44.723  24.239  25.571  1.00  0.00     0.338 C 
ATOM     31  O   UNL A   1      45.298  24.714  24.603  1.00  0.00    -0.246 OA
BRANCH  30  32
ATOM     32  C   UNL A   1      43.885  25.059  26.465  1.00  0.00     0.060 A 
ATOM     33  C   UNL A   1      44.173  26.427  26.541  1.00  0.00     0.016 A 
ATOM     34  C   UNL A   1      42.891  24.497  27.269  1.00  0.00     0.016 A 
ATOM     35  C   UNL A   1      43.508  27.229  27.465  1.00  0.00     0.010 A 
ATOM     36  C   UNL A   1      42.226  25.304  28.200  1.00  0.00     0.010 A 
ATOM     37  C   UNL A   1      42.558  26.665  28.327  1.00  0.00    -0.014 A 
BRANCH  37  38
ATOM     38  C   UNL A   1      42.023  27.473  29.451  1.00  0.00     0.031 A 
ATOM     39  C   UNL A   1      42.729  27.437  30.778  1.00  0.00     0.074 A 
ATOM     40  C   UNL A   1      40.948  28.261  29.278  1.00  0.00     0.049 A 
ATOM     41  N   UNL A   1      42.433  28.054  31.894  1.00  0.00    -0.248 NA
ATOM     42  C   UNL A   1      43.930  26.591  30.858  1.00  0.00     0.031 C 
ATOM     43  C   UNL A   1      40.201  28.408  28.031  1.00  0.00     0.029 A 
ATOM     44  N   UNL A   1      40.298  29.086  30.162  1.00  0.00    -0.354 N 
ATOM     45  C   UNL A   1      43.407  27.669  32.807  1.00  0.00     0.074 A 
ATOM     46  C   UNL A   1      44.282  26.738  32.127  1.00  0.00     0.031 C 
ATOM     47  C   UNL A   1      39.190  29.270  28.229  1.00  0.00     0.029 A 
ATOM     48  C   UNL A   1      39.201  29.711  29.622  1.00  0.00     0.049 A 
ATOM     49  H   UNL A   1      40.590  29.216  31.093  1.00  0.00     0.167 HD
ATOM     50  C   UNL A   1      43.565  28.066  34.094  1.00  0.00     0.037 A 
ATOM     51  C   UNL A   1      38.302  30.535  30.196  1.00  0.00     0.037 A 
ATOM     52  C   UNL A   1      42.695  28.994  34.768  1.00  0.00     0.049 A 
ATOM     53  C   UNL A   1      38.462  30.909  31.647  1.00  0.00     0.074 A 
ATOM     54  C   UNL A   1      42.779  29.470  36.065  1.00  0.00     0.029 A 
ATOM     55  N   UNL A   1      41.576  29.583  34.199  1.00  0.00    -0.354 N 
ATOM     56  N   UNL A   1      39.398  30.561  32.495  1.00  0.00    -0.248 NA
ATOM     57  C   UNL A   1      37.440  31.800  32.217  1.00  0.00     0.031 C 
ATOM     58  C   UNL A   1      41.683  30.308  36.295  1.00  0.00     0.029 A 
ATOM     59  C   UNL A   1      40.947  30.399  35.126  1.00  0.00     0.049 A 
ATOM     60  H   UNL A   1      41.273  29.442  33.272  1.00  0.00     0.167 HD
ATOM     61  C   UNL A   1      39.098  31.210  33.686  1.00  0.00     0.074 A 
ATOM     62  C   UNL A   1      37.898  31.985  33.446  1.00  0.00     0.031 C 
ATOM     63  C   UNL A   1      39.756  31.170  34.871  1.00  0.00     0.037 A 
BRANCH  50  64
ATOM     64  C   UNL A   1      44.711  27.479  34.864  1.00  0.00     0.064 A 
ATOM     65  C   UNL A   1      44.582  26.276  35.577  1.00  0.00     0.173 A 
ATOM     66  C   UNL A   1      45.965  28.109  34.861  1.00  0.00     0.173 A 
ATOM     67  F   UNL A   1      43.401  25.642  35.622  1.00  0.00    -0.203 F 
ATOM     68  C   UNL A   1      45.659  25.741  36.279  1.00  0.00     0.198 A 
ATOM     69  C   UNL A   1      47.047  27.555  35.540  1.00  0.00     0.198 A 
ATOM     70  F   UNL A   1      46.143  29.257  34.192  1.00  0.00    -0.203 F 
ATOM     71  F   UNL A   1      45.500  24.617  36.991  1.00  0.00    -0.200 F 
ATOM     72  C   UNL A   1      46.892  26.376  36.254  1.00  0.00     0.200 A 
ATOM     73  F   UNL A   1      48.240  28.164  35.506  1.00  0.00    -0.200 F 
ATOM     74  F   UNL A   1      47.929  25.857  36.925  1.00  0.00    -0.200 F 
ENDBRANCH  50  64
BRANCH  51  75
ATOM     75  C   UNL A   1      37.164  31.061  29.399  1.00  0.00     0.064 A 
ATOM     76  C   UNL A   1      37.134  32.396  28.974  1.00  0.00     0.173 A 
ATOM     77  C   UNL A   1      36.073  30.245  29.064  1.00  0.00     0.173 A 
ATOM     78  F   UNL A   1      38.140  33.223  29.293  1.00  0.00    -0.203 F 
ATOM     79  C   UNL A   1      36.047  32.901  28.262  1.00  0.00     0.198 A 
ATOM     80  C   UNL A   1      35.001  30.743  28.327  1.00  0.00     0.198 A 
ATOM     81  F   UNL A   1      36.052  28.961  29.450  1.00  0.00    -0.203 F 
ATOM     82  F   UNL A   1      36.021  34.193  27.911  1.00  0.00    -0.200 F 
ATOM     83  C   UNL A   1      34.984  32.072  27.933  1.00  0.00     0.200 A 
ATOM     84  F   UNL A   1      33.981  29.936  28.004  1.00  0.00    -0.200 F 
ATOM     85  F   UNL A   1      33.940  32.558  27.249  1.00  0.00    -0.200 F 
ENDBRANCH  51  75
BRANCH  63  86
ATOM     86  C   UNL A   1      39.218  32.018  35.988  1.00  0.00     0.064 A 
ATOM     87  C   UNL A   1      38.267  31.527  36.896  1.00  0.00     0.173 A 
ATOM     88  C   UNL A   1      39.685  33.328  36.173  1.00  0.00     0.173 A 
ATOM     89  F   UNL A   1      37.777  30.286  36.755  1.00  0.00    -0.203 F 
ATOM     90  C   UNL A   1      37.782  32.327  37.927  1.00  0.00     0.198 A 
ATOM     91  C   UNL A   1      39.222  34.115  37.224  1.00  0.00     0.198 A 
ATOM     92  F   UNL A   1      40.601  33.844  35.340  1.00  0.00    -0.203 F 
ATOM     93  F   UNL A   1      36.835  31.855  38.750  1.00  0.00    -0.200 F 
ATOM     94  C   UNL A   1      38.264  33.616  38.095  1.00  0.00     0.200 A 
ATOM     95  F   UNL A   1      39.700  35.355  37.393  1.00  0.00    -0.200 F 
ATOM     96  F   UNL A   1      37.800  34.383  39.091  1.00  0.00    -0.200 F 
ENDBRANCH  63  86
ENDBRANCH  37  38
ENDBRANCH  30  32
ENDBRANCH  29  30
ENDBRANCH  28  29
ENDBRANCH  27  28
ENDBRANCH  26  27
ENDBRANCH   1  26
TORSDOF 18
ENDMDL
MODEL 3
REMARK VINA RESULT:     -10.9      1.171      2.503
REMARK SMILES O=C(CNC(=O)c1ccco1)Nc1cccc(C(=O)OCCOCCOC(=O)c2ccc(-c3c4nc(c(-c5c(F)c(F)c(F)c(F)c5F)c5ccc([nH]5)c(-c5c(F)c(F)c(F)c(F)c5F)c5nc(c(-c6c(F)c(F)c(F)c(F)c6F)c6ccc3[nH]6)C=C5)C=C4)cc2)c1
REMARK SMILES IDX 22 1 21 2 20 3 18 4 19 5 17 6 13 7 14 8 92 9 15 10 16 11
REMARK SMILES IDX 12 12 1 13 2 14 3 16 4 17 5 18 6 20 7 21 8 22 11 23 9 24
REMARK SMILES IDX 10 25 23 26 24 27 25 28 26 29 27 30 28 31 29 32 30 33 91 34
REMARK SMILES IDX 31 35 90 36 32 37 33 38 34 39 84 40 35 41 89 42 83 43 85 44
REMARK SMILES IDX 36 45 88 46 82 47 81 48 37 50 69 51 49 52 68 53 50 54 53 55
REMARK SMILES IDX 67 56 86 57 51 58 52 59 66 61 87 62 54 63 38 64 39 65 47 66
REMARK SMILES IDX 40 67 41 68 45 69 48 70 42 71 43 72 46 73 44 74 70 75 71 76
REMARK SMILES IDX 79 77 72 78 73 79 77 80 80 81 74 82 75 83 78 84 76 85 55 86
REMARK SMILES IDX 56 87 64 88 57 89 58 90 62 91 65 92 59 93 60 94 63 95 61 96
REMARK H PARENT 12 15 4 19 85 49 53 60
REMARK Flexibility Score: inf
ROOT
ATOM      1  C   UNL A   1      39.538  21.444  26.491  1.00  0.00     0.202 C 
ENDROOT
BRANCH   1   2
ATOM      2  C   UNL A   1      38.518  21.778  25.397  1.00  0.00     0.261 C 
BRANCH   2   3
ATOM      3  O   UNL A   1      37.243  22.118  25.967  1.00  0.00    -0.460 OA
BRANCH   3   4
ATOM      4  C   UNL A   1      36.385  22.770  25.146  1.00  0.00     0.338 C 
ATOM      5  O   UNL A   1      36.599  23.139  24.000  1.00  0.00    -0.246 OA
BRANCH   4   6
ATOM      6  C   UNL A   1      35.044  22.816  25.771  1.00  0.00     0.062 A 
ATOM      7  C   UNL A   1      32.766  23.643  25.871  1.00  0.00     0.042 A 
ATOM      8  C   UNL A   1      32.573  22.906  27.048  1.00  0.00     0.026 A 
ATOM      9  C   UNL A   1      34.020  23.618  25.254  1.00  0.00     0.041 A 
ATOM     10  C   UNL A   1      33.598  22.110  27.569  1.00  0.00     0.003 A 
ATOM     11  C   UNL A   1      34.829  22.051  26.921  1.00  0.00     0.016 A 
BRANCH   7  12
ATOM     12  N   UNL A   1      31.663  24.363  25.364  1.00  0.00    -0.325 N 
ATOM     13  O   UNL A   1      31.518  26.129  26.880  1.00  0.00    -0.273 OA
ATOM     14  C   UNL A   1      31.139  25.542  25.870  1.00  0.00     0.243 C 
ATOM     15  H   UNL A   1      31.221  23.989  24.568  1.00  0.00     0.169 HD
BRANCH  14  16
ATOM     16  C   UNL A   1      29.867  26.005  25.158  1.00  0.00     0.216 C 
BRANCH  16  17
ATOM     17  N   UNL A   1      30.070  26.332  23.754  1.00  0.00    -0.340 N 
ATOM     18  C   UNL A   1      30.709  27.414  23.195  1.00  0.00     0.287 C 
ATOM     19  H   UNL A   1      29.696  25.687  23.113  1.00  0.00     0.164 HD
ATOM     20  O   UNL A   1      30.610  27.541  21.975  1.00  0.00    -0.266 OA
BRANCH  18  21
ATOM     21  C   UNL A   1      31.414  28.347  24.046  1.00  0.00     0.191 A 
ATOM     22  C   UNL A   1      31.028  29.475  24.752  1.00  0.00     0.056 A 
ATOM     23  O   UNL A   1      32.750  28.126  24.259  1.00  0.00    -0.459 OA
ATOM     24  C   UNL A   1      32.191  29.991  25.373  1.00  0.00     0.043 A 
ATOM     25  C   UNL A   1      33.210  29.128  25.050  1.00  0.00     0.196 A 
ENDBRANCH  18  21
ENDBRANCH  16  17
ENDBRANCH  14  16
ENDBRANCH   7  12
ENDBRANCH   4   6
ENDBRANCH   3   4
ENDBRANCH   2   3
ENDBRANCH   1   2
BRANCH   1  26
ATOM     26  O   UNL A   1      40.522  20.470  26.145  1.00  0.00    -0.374 OA
BRANCH  26  27
ATOM     27  C   UNL A   1      41.805  20.607  26.757  1.00  0.00     0.202 C 
BRANCH  27  28
ATOM     28  C   UNL A   1      42.863  21.343  25.928  1.00  0.00     0.261 C 
BRANCH  28  29
ATOM     29  O   UNL A   1      42.314  22.494  25.263  1.00  0.00    -0.460 OA
BRANCH  29  30
ATOM     30  C   UNL A   1      43.099  23.595  25.296  1.00  0.00     0.338 C 
ATOM     31  O   UNL A   1      44.105  23.811  24.638  1.00  0.00    -0.246 OA
BRANCH  30  32
ATOM     32  C   UNL A   1      42.487  24.627  26.154  1.00  0.00     0.060 A 
ATOM     33  C   UNL A   1      43.038  25.913  26.107  1.00  0.00     0.016 A 
ATOM     34  C   UNL A   1      41.449  24.331  27.041  1.00  0.00     0.016 A 
ATOM     35  C   UNL A   1      42.594  26.895  26.988  1.00  0.00     0.010 A 
ATOM     36  C   UNL A   1      41.006  25.319  27.929  1.00  0.00     0.010 A 
ATOM     37  C   UNL A   1      41.603  26.593  27.931  1.00  0.00    -0.014 A 
BRANCH  37  38
ATOM     38  C   UNL A   1      41.298  27.570  29.006  1.00  0.00     0.031 A 
ATOM     39  C   UNL A   1      42.189  27.626  30.216  1.00  0.00     0.074 A 
ATOM     40  C   UNL A   1      40.267  28.423  28.885  1.00  0.00     0.049 A 
ATOM     41  N   UNL A   1      42.106  28.392  31.275  1.00  0.00    -0.248 NA
ATOM     42  C   UNL A   1      43.326  26.693  30.236  1.00  0.00     0.031 C 
ATOM     43  C   UNL A   1      39.355  28.489  27.745  1.00  0.00     0.029 A 
ATOM     44  N   UNL A   1      39.814  29.399  29.738  1.00  0.00    -0.354 N 
ATOM     45  C   UNL A   1      43.175  28.031  32.085  1.00  0.00     0.074 A 
ATOM     46  C   UNL A   1      43.872  26.955  31.415  1.00  0.00     0.031 C 
ATOM     47  C   UNL A   1      38.447  29.454  27.970  1.00  0.00     0.029 A 
ATOM     48  C   UNL A   1      38.696  30.051  29.281  1.00  0.00     0.049 A 
ATOM     49  H   UNL A   1      40.250  29.610  30.595  1.00  0.00     0.167 HD
ATOM     50  C   UNL A   1      43.549  28.560  33.276  1.00  0.00     0.037 A 
ATOM     51  C   UNL A   1      37.952  31.011  29.864  1.00  0.00     0.037 A 
ATOM     52  C   UNL A   1      42.857  29.632  33.941  1.00  0.00     0.049 A 
ATOM     53  C   UNL A   1      38.352  31.536  31.219  1.00  0.00     0.074 A 
ATOM     54  C   UNL A   1      43.165  30.247  35.142  1.00  0.00     0.029 A 
ATOM     55  N   UNL A   1      41.709  30.247  33.462  1.00  0.00    -0.354 N 
ATOM     56  N   UNL A   1      39.377  31.207  31.967  1.00  0.00    -0.248 NA
ATOM     57  C   UNL A   1      37.490  32.573  31.807  1.00  0.00     0.031 C 
ATOM     58  C   UNL A   1      42.177  31.198  35.414  1.00  0.00     0.029 A 
ATOM     59  C   UNL A   1      41.283  31.217  34.356  1.00  0.00     0.049 A 
ATOM     60  H   UNL A   1      41.263  30.027  32.612  1.00  0.00     0.167 HD
ATOM     61  C   UNL A   1      39.302  32.014  33.095  1.00  0.00     0.074 A 
ATOM     62  C   UNL A   1      38.137  32.858  32.927  1.00  0.00     0.031 C 
ATOM     63  C   UNL A   1      40.124  32.055  34.172  1.00  0.00     0.037 A 
BRANCH  50  64
ATOM     64  C   UNL A   1      44.753  27.968  33.948  1.00  0.00     0.064 A 
ATOM     65  C   UNL A   1      44.647  26.873  34.821  1.00  0.00     0.173 A 
ATOM     66  C   UNL A   1      46.034  28.480  33.690  1.00  0.00     0.173 A 
ATOM     67  F   UNL A   1      43.445  26.356  35.112  1.00  0.00    -0.203 F 
ATOM     68  C   UNL A   1      45.777  26.331  35.430  1.00  0.00     0.198 A 
ATOM     69  C   UNL A   1      47.164  27.916  34.277  1.00  0.00     0.198 A 
ATOM     70  F   UNL A   1      46.191  29.522  32.861  1.00  0.00    -0.203 F 
ATOM     71  F   UNL A   1      45.647  25.316  36.295  1.00  0.00    -0.200 F 
ATOM     72  C   UNL A   1      47.034  26.847  35.152  1.00  0.00     0.200 A 
ATOM     73  F   UNL A   1      48.378  28.409  33.999  1.00  0.00    -0.200 F 
ATOM     74  F   UNL A   1      48.120  26.320  35.732  1.00  0.00    -0.200 F 
ENDBRANCH  50  64
BRANCH  51  75
ATOM     75  C   UNL A   1      36.748  31.539  29.172  1.00  0.00     0.064 A 
ATOM     76  C   UNL A   1      36.701  32.860  28.707  1.00  0.00     0.173 A 
ATOM     77  C   UNL A   1      35.611  30.739  28.980  1.00  0.00     0.173 A 
ATOM     78  F   UNL A   1      37.752  33.672  28.891  1.00  0.00    -0.203 F 
ATOM     79  C   UNL A   1      35.556  33.368  28.095  1.00  0.00     0.198 A 
ATOM     80  C   UNL A   1      34.478  31.239  28.343  1.00  0.00     0.198 A 
ATOM     81  F   UNL A   1      35.604  29.469  29.411  1.00  0.00    -0.203 F 
ATOM     82  F   UNL A   1      35.520  34.648  27.705  1.00  0.00    -0.200 F 
ATOM     83  C   UNL A   1      34.448  32.555  27.907  1.00  0.00     0.200 A 
ATOM     84  F   UNL A   1      33.414  30.447  28.155  1.00  0.00    -0.200 F 
ATOM     85  F   UNL A   1      33.348  33.043  27.319  1.00  0.00    -0.200 F 
ENDBRANCH  51  75
BRANCH  63  86
ATOM     86  C   UNL A   1      39.819  33.070  35.237  1.00  0.00     0.064 A 
ATOM     87  C   UNL A   1      40.258  34.398  35.139  1.00  0.00     0.173 A 
ATOM     88  C   UNL A   1      39.046  32.716  36.354  1.00  0.00     0.173 A 
ATOM     89  F   UNL A   1      41.012  34.785  34.099  1.00  0.00    -0.203 F 
ATOM     90  C   UNL A   1      39.963  35.326  36.134  1.00  0.00     0.198 A 
ATOM     91  C   UNL A   1      38.725  33.653  37.332  1.00  0.00     0.198 A 
ATOM     92  F   UNL A   1      38.592  31.461  36.492  1.00  0.00    -0.203 F 
ATOM     93  F   UNL A   1      40.439  36.576  36.046  1.00  0.00    -0.200 F 
ATOM     94  C   UNL A   1      39.191  34.955  37.225  1.00  0.00     0.200 A 
ATOM     95  F   UNL A   1      37.967  33.296  38.377  1.00  0.00    -0.200 F 
ATOM     96  F   UNL A   1      38.903  35.850  38.180  1.00  0.00    -0.200 F 
ENDBRANCH  63  86
ENDBRANCH  37  38
ENDBRANCH  30  32
ENDBRANCH  29  30
ENDBRANCH  28  29
ENDBRANCH  27  28
ENDBRANCH  26  27
ENDBRANCH   1  26
TORSDOF 18
ENDMDL
