MODEL 1
REMARK VINA RESULT:     -12.0      0.000      0.000
REMARK SMILES O=C(CCC[N@@H+]1CCC[C@]2(CCC(=O)N(CCc3ccccc3)C2)C1)OCCOCCOC(=O)c1ccc(-c2c3nc(c(-c4c(F)c(F)c(F)c(F)c4F)c4ccc([nH]4)c(-c4c(F)c(F)c(F)c(F)c4F)c4nc(c(-c5c(F)c(F)c(F)c(F)c5F)c5ccc2[nH]5)C=C4)C=C3)cc1
REMARK SMILES IDX 27 1 26 2 2 3 1 4 3 5 4 6 5 7 6 8 7 9 25 10 8 12 10 13 9 14
REMARK SMILES IDX 11 15 24 16 12 17 15 18 13 19 14 20 16 21 17 22 18 23 19 24
REMARK SMILES IDX 23 25 20 26 22 27 21 28 28 29 29 30 30 31 31 32 32 33 33 34
REMARK SMILES IDX 34 35 35 36 36 37 97 38 37 39 96 40 38 41 39 42 40 43 90 44
REMARK SMILES IDX 41 45 95 46 89 47 91 48 42 49 94 50 88 51 87 52 43 54 75 55
REMARK SMILES IDX 55 56 74 57 56 58 59 59 73 60 92 61 57 62 58 63 72 65 93 66
REMARK SMILES IDX 60 67 44 68 45 69 53 70 46 71 47 72 51 73 54 74 48 75 49 76
REMARK SMILES IDX 52 77 50 78 76 79 77 80 85 81 78 82 79 83 83 84 86 85 80 86
REMARK SMILES IDX 81 87 84 88 82 89 61 90 62 91 70 92 63 93 64 94 68 95 71 96
REMARK SMILES IDX 65 97 66 98 69 99 67 100
REMARK H PARENT 6 11 91 53 59 64
REMARK Flexibility Score: inf
ROOT
ATOM      1  C   UNL A   1      41.230  20.373  27.134  1.00  0.00     0.261 C 
ENDROOT
BRANCH   1   2
ATOM      2  O   UNL A   1      39.922  20.704  26.645  1.00  0.00    -0.463 OA
BRANCH   2   3
ATOM      3  C   UNL A   1      39.543  21.996  26.670  1.00  0.00     0.306 C 
ATOM      4  O   UNL A   1      40.079  22.812  27.412  1.00  0.00    -0.252 OA
BRANCH   3   5
ATOM      5  C   UNL A   1      38.427  22.361  25.716  1.00  0.00     0.128 C 
BRANCH   5   6
ATOM      6  C   UNL A   1      37.454  21.282  25.247  1.00  0.00     0.073 C 
BRANCH   6   7
ATOM      7  C   UNL A   1      35.938  21.567  25.161  1.00  0.00     0.262 C 
BRANCH   7   8
ATOM      8  N   UNL A   1      35.289  22.738  25.728  1.00  0.00    -0.334 N 
ATOM      9  C   UNL A   1      34.342  22.543  26.808  1.00  0.00     0.262 C 
ATOM     10  C   UNL A   1      35.326  24.099  25.225  1.00  0.00     0.271 C 
ATOM     11  H   UNL A   1      36.308  22.748  25.681  1.00  0.00     0.348 HD
ATOM     12  C   UNL A   1      32.942  22.809  26.278  1.00  0.00     0.062 C 
ATOM     13  C   UNL A   1      33.941  24.569  24.661  1.00  0.00     0.038 C 
ATOM     14  C   UNL A   1      32.824  24.218  25.684  1.00  0.00     0.020 C 
ATOM     15  C   UNL A   1      33.732  23.841  23.306  1.00  0.00     0.024 C 
ATOM     16  C   UNL A   1      33.958  26.120  24.433  1.00  0.00     0.132 C 
ATOM     17  C   UNL A   1      32.726  24.469  22.368  1.00  0.00     0.101 C 
ATOM     18  N   UNL A   1      33.010  26.588  23.417  1.00  0.00    -0.342 N 
ATOM     19  C   UNL A   1      33.137  25.909  22.211  1.00  0.00     0.222 C 
ATOM     20  O   UNL A   1      33.690  26.372  21.223  1.00  0.00    -0.275 OA
BRANCH  18  21
ATOM     21  C   UNL A   1      31.677  27.057  23.808  1.00  0.00     0.124 C 
BRANCH  21  22
ATOM     22  C   UNL A   1      31.439  28.582  23.651  1.00  0.00     0.057 C 
BRANCH  22  23
ATOM     23  C   UNL A   1      30.144  29.023  22.992  1.00  0.00    -0.046 A 
ATOM     24  C   UNL A   1      28.924  28.491  23.437  1.00  0.00     0.004 A 
ATOM     25  C   UNL A   1      30.117  29.965  21.954  1.00  0.00     0.004 A 
ATOM     26  C   UNL A   1      27.710  28.941  22.914  1.00  0.00     0.000 A 
ATOM     27  C   UNL A   1      28.899  30.437  21.450  1.00  0.00     0.000 A 
ATOM     28  C   UNL A   1      27.697  29.930  21.935  1.00  0.00     0.000 A 
ENDBRANCH  22  23
ENDBRANCH  21  22
ENDBRANCH  18  21
ENDBRANCH   7   8
ENDBRANCH   6   7
ENDBRANCH   5   6
ENDBRANCH   3   5
ENDBRANCH   2   3
ENDBRANCH   1   2
BRANCH   1  29
ATOM     29  C   UNL A   1      42.388  20.193  26.151  1.00  0.00     0.202 C 
BRANCH  29  30
ATOM     30  O   UNL A   1      42.631  21.319  25.319  1.00  0.00    -0.374 OA
BRANCH  30  31
ATOM     31  C   UNL A   1      43.968  21.835  25.392  1.00  0.00     0.202 C 
BRANCH  31  32
ATOM     32  C   UNL A   1      44.250  22.919  24.349  1.00  0.00     0.261 C 
BRANCH  32  33
ATOM     33  O   UNL A   1      43.607  24.144  24.740  1.00  0.00    -0.460 OA
BRANCH  33  34
ATOM     34  C   UNL A   1      44.437  25.130  25.176  1.00  0.00     0.338 C 
ATOM     35  O   UNL A   1      45.442  25.532  24.640  1.00  0.00    -0.246 OA
BRANCH  34  36
ATOM     36  C   UNL A   1      43.784  25.815  26.329  1.00  0.00     0.060 A 
ATOM     37  C   UNL A   1      44.193  27.125  26.619  1.00  0.00     0.016 A 
ATOM     38  C   UNL A   1      42.708  25.250  27.022  1.00  0.00     0.016 A 
ATOM     39  C   UNL A   1      43.554  27.855  27.623  1.00  0.00     0.010 A 
ATOM     40  C   UNL A   1      42.066  25.982  28.022  1.00  0.00     0.010 A 
ATOM     41  C   UNL A   1      42.506  27.275  28.348  1.00  0.00    -0.014 A 
BRANCH  41  42
ATOM     42  C   UNL A   1      42.001  27.926  29.578  1.00  0.00     0.031 A 
ATOM     43  C   UNL A   1      40.709  28.687  29.487  1.00  0.00     0.074 A 
ATOM     44  C   UNL A   1      42.674  27.858  30.740  1.00  0.00     0.049 A 
ATOM     45  N   UNL A   1      40.096  29.401  30.395  1.00  0.00    -0.248 NA
ATOM     46  C   UNL A   1      40.021  28.646  28.186  1.00  0.00     0.031 C 
ATOM     47  C   UNL A   1      43.924  27.135  30.956  1.00  0.00     0.029 A 
ATOM     48  N   UNL A   1      42.397  28.428  31.958  1.00  0.00    -0.354 N 
ATOM     49  C   UNL A   1      38.957  29.897  29.773  1.00  0.00     0.074 A 
ATOM     50  C   UNL A   1      38.981  29.435  28.403  1.00  0.00     0.031 C 
ATOM     51  C   UNL A   1      44.317  27.316  32.229  1.00  0.00     0.029 A 
ATOM     52  C   UNL A   1      43.360  28.188  32.908  1.00  0.00     0.049 A 
ATOM     53  H   UNL A   1      41.586  28.957  32.135  1.00  0.00     0.167 HD
ATOM     54  C   UNL A   1      37.974  30.661  30.300  1.00  0.00     0.037 A 
ATOM     55  C   UNL A   1      43.459  28.644  34.173  1.00  0.00     0.037 A 
ATOM     56  C   UNL A   1      37.952  31.120  31.662  1.00  0.00     0.049 A 
ATOM     57  C   UNL A   1      42.377  29.541  34.723  1.00  0.00     0.074 A 
ATOM     58  C   UNL A   1      36.990  31.880  32.302  1.00  0.00     0.029 A 
ATOM     59  N   UNL A   1      38.949  30.864  32.592  1.00  0.00    -0.354 N 
ATOM     60  N   UNL A   1      41.285  29.975  34.141  1.00  0.00    -0.248 NA
ATOM     61  C   UNL A   1      42.544  30.010  36.106  1.00  0.00     0.031 C 
ATOM     62  C   UNL A   1      37.427  32.123  33.608  1.00  0.00     0.029 A 
ATOM     63  C   UNL A   1      38.636  31.472  33.797  1.00  0.00     0.049 A 
ATOM     64  H   UNL A   1      39.758  30.330  32.422  1.00  0.00     0.167 HD
ATOM     65  C   UNL A   1      40.621  30.739  35.093  1.00  0.00     0.074 A 
ATOM     66  C   UNL A   1      41.429  30.703  36.294  1.00  0.00     0.031 C 
ATOM     67  C   UNL A   1      39.449  31.412  34.984  1.00  0.00     0.037 A 
BRANCH  54  68
ATOM     68  C   UNL A   1      36.854  31.062  29.388  1.00  0.00     0.064 A 
ATOM     69  C   UNL A   1      35.844  30.160  29.022  1.00  0.00     0.173 A 
ATOM     70  C   UNL A   1      36.785  32.369  28.881  1.00  0.00     0.173 A 
ATOM     71  F   UNL A   1      35.877  28.894  29.464  1.00  0.00    -0.203 F 
ATOM     72  C   UNL A   1      34.820  30.544  28.159  1.00  0.00     0.198 A 
ATOM     73  C   UNL A   1      35.745  32.756  28.041  1.00  0.00     0.198 A 
ATOM     74  F   UNL A   1      37.728  33.268  29.199  1.00  0.00    -0.203 F 
ATOM     75  F   UNL A   1      33.896  29.650  27.781  1.00  0.00    -0.200 F 
ATOM     76  C   UNL A   1      34.769  31.842  27.675  1.00  0.00     0.200 A 
ATOM     77  F   UNL A   1      35.691  34.013  27.580  1.00  0.00    -0.200 F 
ATOM     78  F   UNL A   1      33.782  32.210  26.847  1.00  0.00    -0.200 F 
ENDBRANCH  54  68
BRANCH  55  79
ATOM     79  C   UNL A   1      44.626  28.266  35.012  1.00  0.00     0.064 A 
ATOM     80  C   UNL A   1      44.592  27.125  35.826  1.00  0.00     0.173 A 
ATOM     81  C   UNL A   1      45.788  29.051  35.040  1.00  0.00     0.173 A 
ATOM     82  F   UNL A   1      43.493  26.357  35.857  1.00  0.00    -0.203 F 
ATOM     83  C   UNL A   1      45.669  26.793  36.648  1.00  0.00     0.198 A 
ATOM     84  C   UNL A   1      46.873  28.705  35.841  1.00  0.00     0.198 A 
ATOM     85  F   UNL A   1      45.869  30.156  34.284  1.00  0.00    -0.203 F 
ATOM     86  F   UNL A   1      45.592  25.723  37.450  1.00  0.00    -0.200 F 
ATOM     87  C   UNL A   1      46.810  27.580  36.651  1.00  0.00     0.200 A 
ATOM     88  F   UNL A   1      47.978  29.464  35.836  1.00  0.00    -0.200 F 
ATOM     89  F   UNL A   1      47.844  27.262  37.441  1.00  0.00    -0.200 F 
ENDBRANCH  55  79
BRANCH  67  90
ATOM     90  C   UNL A   1      38.945  32.128  36.202  1.00  0.00     0.064 A 
ATOM     91  C   UNL A   1      38.111  31.496  37.135  1.00  0.00     0.173 A 
ATOM     92  C   UNL A   1      39.349  33.446  36.466  1.00  0.00     0.173 A 
ATOM     93  F   UNL A   1      37.687  30.242  36.922  1.00  0.00    -0.203 F 
ATOM     94  C   UNL A   1      37.684  32.165  38.280  1.00  0.00     0.198 A 
ATOM     95  C   UNL A   1      38.943  34.101  37.625  1.00  0.00     0.198 A 
ATOM     96  F   UNL A   1      40.154  34.091  35.609  1.00  0.00    -0.203 F 
ATOM     97  F   UNL A   1      36.855  31.556  39.139  1.00  0.00    -0.200 F 
ATOM     98  C   UNL A   1      38.107  33.462  38.527  1.00  0.00     0.200 A 
ATOM     99  F   UNL A   1      39.365  35.349  37.870  1.00  0.00    -0.200 F 
ATOM    100  F   UNL A   1      37.704  34.100  39.635  1.00  0.00    -0.200 F 
ENDBRANCH  67  90
ENDBRANCH  41  42
ENDBRANCH  34  36
ENDBRANCH  33  34
ENDBRANCH  32  33
ENDBRANCH  31  32
ENDBRANCH  30  31
ENDBRANCH  29  30
ENDBRANCH   1  29
TORSDOF 20
ENDMDL
MODEL 2
REMARK VINA RESULT:     -12.0      1.005      7.100
REMARK SMILES O=C(CCC[N@@H+]1CCC[C@]2(CCC(=O)N(CCc3ccccc3)C2)C1)OCCOCCOC(=O)c1ccc(-c2c3nc(c(-c4c(F)c(F)c(F)c(F)c4F)c4ccc([nH]4)c(-c4c(F)c(F)c(F)c(F)c4F)c4nc(c(-c5c(F)c(F)c(F)c(F)c5F)c5ccc2[nH]5)C=C4)C=C3)cc1
REMARK SMILES IDX 27 1 26 2 2 3 1 4 3 5 4 6 5 7 6 8 7 9 25 10 8 12 10 13 9 14
REMARK SMILES IDX 11 15 24 16 12 17 15 18 13 19 14 20 16 21 17 22 18 23 19 24
REMARK SMILES IDX 23 25 20 26 22 27 21 28 28 29 29 30 30 31 31 32 32 33 33 34
REMARK SMILES IDX 34 35 35 36 36 37 97 38 37 39 96 40 38 41 39 42 40 43 90 44
REMARK SMILES IDX 41 45 95 46 89 47 91 48 42 49 94 50 88 51 87 52 43 54 75 55
REMARK SMILES IDX 55 56 74 57 56 58 59 59 73 60 92 61 57 62 58 63 72 65 93 66
REMARK SMILES IDX 60 67 44 68 45 69 53 70 46 71 47 72 51 73 54 74 48 75 49 76
REMARK SMILES IDX 52 77 50 78 76 79 77 80 85 81 78 82 79 83 83 84 86 85 80 86
REMARK SMILES IDX 81 87 84 88 82 89 61 90 62 91 70 92 63 93 64 94 68 95 71 96
REMARK SMILES IDX 65 97 66 98 69 99 67 100
REMARK H PARENT 6 11 91 53 59 64
REMARK Flexibility Score: inf
ROOT
ATOM      1  C   UNL A   1      39.459  20.524  25.934  1.00  0.00     0.261 C 
ENDROOT
BRANCH   1   2
ATOM      2  O   UNL A   1      38.385  20.446  24.987  1.00  0.00    -0.463 OA
BRANCH   2   3
ATOM      3  C   UNL A   1      37.213  21.028  25.307  1.00  0.00     0.306 C 
ATOM      4  O   UNL A   1      37.163  22.149  25.803  1.00  0.00    -0.252 OA
BRANCH   3   5
ATOM      5  C   UNL A   1      35.979  20.209  25.001  1.00  0.00     0.128 C 
BRANCH   5   6
ATOM      6  C   UNL A   1      34.663  20.917  24.692  1.00  0.00     0.073 C 
BRANCH   6   7
ATOM      7  C   UNL A   1      33.689  21.309  25.826  1.00  0.00     0.262 C 
BRANCH   7   8
ATOM      8  N   UNL A   1      33.491  22.667  26.304  1.00  0.00    -0.334 N 
ATOM      9  C   UNL A   1      32.426  22.912  27.257  1.00  0.00     0.262 C 
ATOM     10  C   UNL A   1      34.116  23.879  25.806  1.00  0.00     0.271 C 
ATOM     11  H   UNL A   1      34.430  22.279  26.386  1.00  0.00     0.348 HD
ATOM     12  C   UNL A   1      31.313  23.674  26.554  1.00  0.00     0.062 C 
ATOM     13  C   UNL A   1      33.101  24.821  25.071  1.00  0.00     0.038 C 
ATOM     14  C   UNL A   1      31.827  24.985  25.946  1.00  0.00     0.020 C 
ATOM     15  C   UNL A   1      32.781  24.162  23.703  1.00  0.00     0.024 C 
ATOM     16  C   UNL A   1      33.752  26.229  24.843  1.00  0.00     0.132 C 
ATOM     17  C   UNL A   1      32.217  25.083  22.644  1.00  0.00     0.101 C 
ATOM     18  N   UNL A   1      33.186  26.975  23.714  1.00  0.00    -0.342 N 
ATOM     19  C   UNL A   1      33.174  26.240  22.536  1.00  0.00     0.222 C 
ATOM     20  O   UNL A   1      33.974  26.399  21.624  1.00  0.00    -0.275 OA
BRANCH  18  21
ATOM     21  C   UNL A   1      32.108  27.946  23.933  1.00  0.00     0.124 C 
BRANCH  21  22
ATOM     22  C   UNL A   1      31.545  28.610  22.649  1.00  0.00     0.057 C 
BRANCH  22  23
ATOM     23  C   UNL A   1      30.073  28.984  22.645  1.00  0.00    -0.046 A 
ATOM     24  C   UNL A   1      29.660  30.162  22.001  1.00  0.00     0.004 A 
ATOM     25  C   UNL A   1      29.096  28.183  23.251  1.00  0.00     0.004 A 
ATOM     26  C   UNL A   1      28.306  30.489  21.901  1.00  0.00     0.000 A 
ATOM     27  C   UNL A   1      27.737  28.496  23.125  1.00  0.00     0.000 A 
ATOM     28  C   UNL A   1      27.343  29.645  22.445  1.00  0.00     0.000 A 
ENDBRANCH  22  23
ENDBRANCH  21  22
ENDBRANCH  18  21
ENDBRANCH   7   8
ENDBRANCH   6   7
ENDBRANCH   5   6
ENDBRANCH   3   5
ENDBRANCH   2   3
ENDBRANCH   1   2
BRANCH   1  29
ATOM     29  C   UNL A   1      40.426  19.347  26.087  1.00  0.00     0.202 C 
BRANCH  29  30
ATOM     30  O   UNL A   1      41.765  19.723  26.375  1.00  0.00    -0.374 OA
BRANCH  30  31
ATOM     31  C   UNL A   1      42.019  21.133  26.292  1.00  0.00     0.202 C 
BRANCH  31  32
ATOM     32  C   UNL A   1      43.380  21.461  25.674  1.00  0.00     0.261 C 
BRANCH  32  33
ATOM     33  O   UNL A   1      43.906  22.657  26.273  1.00  0.00    -0.460 OA
BRANCH  33  34
ATOM     34  C   UNL A   1      43.619  23.816  25.619  1.00  0.00     0.338 C 
ATOM     35  O   UNL A   1      43.629  24.008  24.427  1.00  0.00    -0.246 OA
BRANCH  34  36
ATOM     36  C   UNL A   1      43.052  24.781  26.607  1.00  0.00     0.060 A 
ATOM     37  C   UNL A   1      43.607  26.068  26.645  1.00  0.00     0.016 A 
ATOM     38  C   UNL A   1      41.923  24.484  27.378  1.00  0.00     0.016 A 
ATOM     39  C   UNL A   1      43.060  27.046  27.479  1.00  0.00     0.010 A 
ATOM     40  C   UNL A   1      41.372  25.463  28.207  1.00  0.00     0.010 A 
ATOM     41  C   UNL A   1      41.957  26.738  28.284  1.00  0.00    -0.014 A 
BRANCH  41  42
ATOM     42  C   UNL A   1      41.535  27.667  29.357  1.00  0.00     0.031 A 
ATOM     43  C   UNL A   1      42.285  27.620  30.658  1.00  0.00     0.074 A 
ATOM     44  C   UNL A   1      40.508  28.518  29.190  1.00  0.00     0.049 A 
ATOM     45  N   UNL A   1      42.067  28.273  31.770  1.00  0.00    -0.248 NA
ATOM     46  C   UNL A   1      43.431  26.698  30.714  1.00  0.00     0.031 C 
ATOM     47  C   UNL A   1      39.720  28.668  27.970  1.00  0.00     0.029 A 
ATOM     48  N   UNL A   1      39.944  29.409  30.069  1.00  0.00    -0.354 N 
ATOM     49  C   UNL A   1      43.043  27.836  32.656  1.00  0.00     0.074 A 
ATOM     50  C   UNL A   1      43.831  26.838  31.968  1.00  0.00     0.031 C 
ATOM     51  C   UNL A   1      38.762  29.588  28.181  1.00  0.00     0.029 A 
ATOM     52  C   UNL A   1      38.853  30.069  29.559  1.00  0.00     0.049 A 
ATOM     53  H   UNL A   1      40.287  29.559  30.979  1.00  0.00     0.167 HD
ATOM     54  C   UNL A   1      43.269  28.239  33.927  1.00  0.00     0.037 A 
ATOM     55  C   UNL A   1      38.018  30.945  30.151  1.00  0.00     0.037 A 
ATOM     56  C   UNL A   1      42.483  29.231  34.609  1.00  0.00     0.049 A 
ATOM     57  C   UNL A   1      38.256  31.339  31.588  1.00  0.00     0.074 A 
ATOM     58  C   UNL A   1      42.643  29.727  35.890  1.00  0.00     0.029 A 
ATOM     59  N   UNL A   1      41.382  29.872  34.062  1.00  0.00    -0.354 N 
ATOM     60  N   UNL A   1      39.203  30.950  32.408  1.00  0.00    -0.248 NA
ATOM     61  C   UNL A   1      37.307  32.294  32.181  1.00  0.00     0.031 C 
ATOM     62  C   UNL A   1      41.609  30.637  36.135  1.00  0.00     0.029 A 
ATOM     63  C   UNL A   1      40.837  30.745  34.990  1.00  0.00     0.049 A 
ATOM     64  H   UNL A   1      41.039  29.729  33.151  1.00  0.00     0.167 HD
ATOM     65  C   UNL A   1      38.984  31.634  33.598  1.00  0.00     0.074 A 
ATOM     66  C   UNL A   1      37.820  32.468  33.391  1.00  0.00     0.031 C 
ATOM     67  C   UNL A   1      39.684  31.576  34.758  1.00  0.00     0.037 A 
BRANCH  54  68
ATOM     68  C   UNL A   1      44.399  27.586  34.663  1.00  0.00     0.064 A 
ATOM     69  C   UNL A   1      44.214  26.404  35.396  1.00  0.00     0.173 A 
ATOM     70  C   UNL A   1      45.686  28.144  34.626  1.00  0.00     0.173 A 
ATOM     71  F   UNL A   1      42.998  25.845  35.479  1.00  0.00    -0.203 F 
ATOM     72  C   UNL A   1      45.271  25.820  36.090  1.00  0.00     0.198 A 
ATOM     73  C   UNL A   1      46.745  27.541  35.298  1.00  0.00     0.198 A 
ATOM     74  F   UNL A   1      45.914  29.274  33.941  1.00  0.00    -0.203 F 
ATOM     75  F   UNL A   1      45.060  24.722  36.827  1.00  0.00    -0.200 F 
ATOM     76  C   UNL A   1      46.537  26.385  36.034  1.00  0.00     0.200 A 
ATOM     77  F   UNL A   1      47.970  28.083  35.238  1.00  0.00    -0.200 F 
ATOM     78  F   UNL A   1      47.553  25.820  36.700  1.00  0.00    -0.200 F 
ENDBRANCH  54  68
BRANCH  55  79
ATOM     79  C   UNL A   1      36.872  31.513  29.392  1.00  0.00     0.064 A 
ATOM     80  C   UNL A   1      36.842  32.869  29.035  1.00  0.00     0.173 A 
ATOM     81  C   UNL A   1      35.772  30.721  29.032  1.00  0.00     0.173 A 
ATOM     82  F   UNL A   1      37.857  33.674  29.382  1.00  0.00    -0.203 F 
ATOM     83  C   UNL A   1      35.748  33.413  28.363  1.00  0.00     0.198 A 
ATOM     84  C   UNL A   1      34.692  31.259  28.338  1.00  0.00     0.198 A 
ATOM     85  F   UNL A   1      35.750  29.419  29.355  1.00  0.00    -0.203 F 
ATOM     86  F   UNL A   1      35.725  34.721  28.075  1.00  0.00    -0.200 F 
ATOM     87  C   UNL A   1      34.677  32.607  28.010  1.00  0.00     0.200 A 
ATOM     88  F   UNL A   1      33.662  30.475  27.991  1.00  0.00    -0.200 F 
ATOM     89  F   UNL A   1      33.626  33.130  27.364  1.00  0.00    -0.200 F 
ENDBRANCH  55  79
BRANCH  67  90
ATOM     90  C   UNL A   1      39.238  32.467  35.881  1.00  0.00     0.064 A 
ATOM     91  C   UNL A   1      38.342  32.020  36.863  1.00  0.00     0.173 A 
ATOM     92  C   UNL A   1      39.758  33.764  36.005  1.00  0.00     0.173 A 
ATOM     93  F   UNL A   1      37.807  30.792  36.781  1.00  0.00    -0.203 F 
ATOM     94  C   UNL A   1      37.968  32.847  37.918  1.00  0.00     0.198 A 
ATOM     95  C   UNL A   1      39.404  34.577  37.077  1.00  0.00     0.198 A 
ATOM     96  F   UNL A   1      40.625  34.235  35.097  1.00  0.00    -0.203 F 
ATOM     97  F   UNL A   1      37.081  32.414  38.824  1.00  0.00    -0.200 F 
ATOM     98  C   UNL A   1      38.506  34.121  38.029  1.00  0.00     0.200 A 
ATOM     99  F   UNL A   1      39.936  35.802  37.191  1.00  0.00    -0.200 F 
ATOM    100  F   UNL A   1      38.153  34.912  39.052  1.00  0.00    -0.200 F 
ENDBRANCH  67  90
ENDBRANCH  41  42
ENDBRANCH  34  36
ENDBRANCH  33  34
ENDBRANCH  32  33
ENDBRANCH  31  32
ENDBRANCH  30  31
ENDBRANCH  29  30
ENDBRANCH   1  29
TORSDOF 20
ENDMDL
MODEL 3
REMARK VINA RESULT:     -11.4      1.458      7.228
REMARK SMILES O=C(CCC[N@@H+]1CCC[C@]2(CCC(=O)N(CCc3ccccc3)C2)C1)OCCOCCOC(=O)c1ccc(-c2c3nc(c(-c4c(F)c(F)c(F)c(F)c4F)c4ccc([nH]4)c(-c4c(F)c(F)c(F)c(F)c4F)c4nc(c(-c5c(F)c(F)c(F)c(F)c5F)c5ccc2[nH]5)C=C4)C=C3)cc1
REMARK SMILES IDX 27 1 26 2 2 3 1 4 3 5 4 6 5 7 6 8 7 9 25 10 8 12 10 13 9 14
REMARK SMILES IDX 11 15 24 16 12 17 15 18 13 19 14 20 16 21 17 22 18 23 19 24
REMARK SMILES IDX 23 25 20 26 22 27 21 28 28 29 29 30 30 31 31 32 32 33 33 34
REMARK SMILES IDX 34 35 35 36 36 37 97 38 37 39 96 40 38 41 39 42 40 43 90 44
REMARK SMILES IDX 41 45 95 46 89 47 91 48 42 49 94 50 88 51 87 52 43 54 75 55
REMARK SMILES IDX 55 56 74 57 56 58 59 59 73 60 92 61 57 62 58 63 72 65 93 66
REMARK SMILES IDX 60 67 44 68 45 69 53 70 46 71 47 72 51 73 54 74 48 75 49 76
REMARK SMILES IDX 52 77 50 78 76 79 77 80 85 81 78 82 79 83 83 84 86 85 80 86
REMARK SMILES IDX 81 87 84 88 82 89 61 90 62 91 70 92 63 93 64 94 68 95 71 96
REMARK SMILES IDX 65 97 66 98 69 99 67 100
REMARK H PARENT 6 11 91 53 59 64
REMARK Flexibility Score: inf
ROOT
ATOM      1  C   UNL A   1      42.358  21.692  25.790  1.00  0.00     0.261 C 
ENDROOT
BRANCH   1   2
ATOM      2  O   UNL A   1      41.043  22.075  26.215  1.00  0.00    -0.463 OA
BRANCH   2   3
ATOM      3  C   UNL A   1      40.037  21.198  26.036  1.00  0.00     0.306 C 
ATOM      4  O   UNL A   1      40.213  19.987  26.121  1.00  0.00    -0.252 OA
BRANCH   3   5
ATOM      5  C   UNL A   1      38.688  21.813  25.737  1.00  0.00     0.128 C 
BRANCH   5   6
ATOM      6  C   UNL A   1      37.786  21.176  24.683  1.00  0.00     0.073 C 
BRANCH   6   7
ATOM      7  C   UNL A   1      36.328  20.789  25.018  1.00  0.00     0.262 C 
BRANCH   7   8
ATOM      8  N   UNL A   1      35.358  21.689  25.620  1.00  0.00    -0.334 N 
ATOM      9  C   UNL A   1      34.340  21.124  26.484  1.00  0.00     0.262 C 
ATOM     10  C   UNL A   1      35.153  23.095  25.321  1.00  0.00     0.271 C 
ATOM     11  H   UNL A   1      36.343  21.914  25.751  1.00  0.00     0.348 HD
ATOM     12  C   UNL A   1      33.003  21.186  25.762  1.00  0.00     0.062 C 
ATOM     13  C   UNL A   1      33.789  23.363  24.596  1.00  0.00     0.038 C 
ATOM     14  C   UNL A   1      32.650  22.623  25.355  1.00  0.00     0.020 C 
ATOM     15  C   UNL A   1      33.940  22.849  23.140  1.00  0.00     0.024 C 
ATOM     16  C   UNL A   1      33.484  24.900  24.589  1.00  0.00     0.132 C 
ATOM     17  C   UNL A   1      32.958  23.411  22.137  1.00  0.00     0.101 C 
ATOM     18  N   UNL A   1      32.603  25.332  23.498  1.00  0.00    -0.342 N 
ATOM     19  C   UNL A   1      33.047  24.910  22.251  1.00  0.00     0.222 C 
ATOM     20  O   UNL A   1      33.611  25.637  21.446  1.00  0.00    -0.275 OA
BRANCH  18  21
ATOM     21  C   UNL A   1      31.157  25.447  23.714  1.00  0.00     0.124 C 
BRANCH  21  22
ATOM     22  C   UNL A   1      30.610  26.897  23.779  1.00  0.00     0.057 C 
BRANCH  22  23
ATOM     23  C   UNL A   1      31.080  27.769  24.930  1.00  0.00    -0.046 A 
ATOM     24  C   UNL A   1      31.396  29.116  24.693  1.00  0.00     0.004 A 
ATOM     25  C   UNL A   1      31.196  27.281  26.239  1.00  0.00     0.004 A 
ATOM     26  C   UNL A   1      31.744  29.968  25.744  1.00  0.00     0.000 A 
ATOM     27  C   UNL A   1      31.517  28.142  27.296  1.00  0.00     0.000 A 
ATOM     28  C   UNL A   1      31.784  29.485  27.049  1.00  0.00     0.000 A 
ENDBRANCH  22  23
ENDBRANCH  21  22
ENDBRANCH  18  21
ENDBRANCH   7   8
ENDBRANCH   6   7
ENDBRANCH   5   6
ENDBRANCH   3   5
ENDBRANCH   2   3
ENDBRANCH   1   2
BRANCH   1  29
ATOM     29  C   UNL A   1      43.384  22.767  25.424  1.00  0.00     0.202 C 
BRANCH  29  30
ATOM     30  O   UNL A   1      44.736  22.344  25.521  1.00  0.00    -0.374 OA
BRANCH  30  31
ATOM     31  C   UNL A   1      45.505  22.530  24.324  1.00  0.00     0.202 C 
BRANCH  31  32
ATOM     32  C   UNL A   1      46.523  23.669  24.437  1.00  0.00     0.261 C 
BRANCH  32  33
ATOM     33  O   UNL A   1      45.835  24.912  24.657  1.00  0.00    -0.460 OA
BRANCH  33  34
ATOM     34  C   UNL A   1      46.564  25.887  25.263  1.00  0.00     0.338 C 
ATOM     35  O   UNL A   1      47.651  26.301  24.937  1.00  0.00    -0.246 OA
BRANCH  34  36
ATOM     36  C   UNL A   1      45.701  26.548  26.286  1.00  0.00     0.060 A 
ATOM     37  C   UNL A   1      45.600  27.946  26.240  1.00  0.00     0.016 A 
ATOM     38  C   UNL A   1      44.906  25.818  27.177  1.00  0.00     0.016 A 
ATOM     39  C   UNL A   1      44.735  28.617  27.107  1.00  0.00     0.010 A 
ATOM     40  C   UNL A   1      44.037  26.489  28.039  1.00  0.00     0.010 A 
ATOM     41  C   UNL A   1      43.971  27.892  28.029  1.00  0.00    -0.014 A 
BRANCH  41  42
ATOM     42  C   UNL A   1      43.259  28.593  29.123  1.00  0.00     0.031 A 
ATOM     43  C   UNL A   1      43.956  28.710  30.449  1.00  0.00     0.074 A 
ATOM     44  C   UNL A   1      42.025  29.098  28.951  1.00  0.00     0.049 A 
ATOM     45  N   UNL A   1      43.521  29.209  31.577  1.00  0.00    -0.248 NA
ATOM     46  C   UNL A   1      45.327  28.180  30.511  1.00  0.00     0.031 C 
ATOM     47  C   UNL A   1      41.258  29.062  27.709  1.00  0.00     0.029 A 
ATOM     48  N   UNL A   1      41.194  29.728  29.844  1.00  0.00    -0.354 N 
ATOM     49  C   UNL A   1      44.563  29.045  32.481  1.00  0.00     0.074 A 
ATOM     50  C   UNL A   1      45.635  28.371  31.784  1.00  0.00     0.031 C 
ATOM     51  C   UNL A   1      40.060  29.635  27.921  1.00  0.00     0.029 A 
ATOM     52  C   UNL A   1      39.967  30.051  29.320  1.00  0.00     0.049 A 
ATOM     53  H   UNL A   1      41.453  29.930  30.772  1.00  0.00     0.167 HD
ATOM     54  C   UNL A   1      44.624  29.433  33.776  1.00  0.00     0.037 A 
ATOM     55  C   UNL A   1      38.889  30.600  29.914  1.00  0.00     0.037 A 
ATOM     56  C   UNL A   1      43.557  30.103  34.467  1.00  0.00     0.049 A 
ATOM     57  C   UNL A   1      38.961  30.973  31.374  1.00  0.00     0.074 A 
ATOM     58  C   UNL A   1      43.526  30.559  35.772  1.00  0.00     0.029 A 
ATOM     59  N   UNL A   1      42.325  30.405  33.905  1.00  0.00    -0.354 N 
ATOM     60  N   UNL A   1      39.961  30.851  32.214  1.00  0.00    -0.248 NA
ATOM     61  C   UNL A   1      37.752  31.563  31.969  1.00  0.00     0.031 C 
ATOM     62  C   UNL A   1      42.258  31.097  36.015  1.00  0.00     0.029 A 
ATOM     63  C   UNL A   1      41.517  31.022  34.846  1.00  0.00     0.049 A 
ATOM     64  H   UNL A   1      42.064  30.211  32.976  1.00  0.00     0.167 HD
ATOM     65  C   UNL A   1      39.515  31.374  33.421  1.00  0.00     0.074 A 
ATOM     66  C   UNL A   1      38.157  31.824  33.204  1.00  0.00     0.031 C 
ATOM     67  C   UNL A   1      40.171  31.474  34.604  1.00  0.00     0.037 A 
BRANCH  54  68
ATOM     68  C   UNL A   1      45.882  29.119  34.527  1.00  0.00     0.064 A 
ATOM     69  C   UNL A   1      46.007  27.954  35.298  1.00  0.00     0.173 A 
ATOM     70  C   UNL A   1      46.980  29.989  34.467  1.00  0.00     0.173 A 
ATOM     71  F   UNL A   1      44.977  27.101  35.404  1.00  0.00    -0.203 F 
ATOM     72  C   UNL A   1      47.176  27.685  36.005  1.00  0.00     0.198 A 
ATOM     73  C   UNL A   1      48.157  29.704  35.153  1.00  0.00     0.198 A 
ATOM     74  F   UNL A   1      46.911  31.118  33.745  1.00  0.00    -0.203 F 
ATOM     75  F   UNL A   1      47.253  26.594  36.778  1.00  0.00    -0.200 F 
ATOM     76  C   UNL A   1      48.252  28.557  35.927  1.00  0.00     0.200 A 
ATOM     77  F   UNL A   1      49.199  30.542  35.070  1.00  0.00    -0.200 F 
ATOM     78  F   UNL A   1      49.377  28.297  36.606  1.00  0.00    -0.200 F 
ENDBRANCH  54  68
BRANCH  55  79
ATOM     79  C   UNL A   1      37.643  30.829  29.136  1.00  0.00     0.064 A 
ATOM     80  C   UNL A   1      37.299  32.111  28.683  1.00  0.00     0.173 A 
ATOM     81  C   UNL A   1      36.758  29.779  28.853  1.00  0.00     0.173 A 
ATOM     82  F   UNL A   1      38.099  33.153  28.954  1.00  0.00    -0.203 F 
ATOM     83  C   UNL A   1      36.110  32.336  27.992  1.00  0.00     0.198 A 
ATOM     84  C   UNL A   1      35.582  30.000  28.139  1.00  0.00     0.198 A 
ATOM     85  F   UNL A   1      37.038  28.535  29.268  1.00  0.00    -0.203 F 
ATOM     86  F   UNL A   1      35.784  33.578  27.611  1.00  0.00    -0.200 F 
ATOM     87  C   UNL A   1      35.255  31.280  27.716  1.00  0.00     0.200 A 
ATOM     88  F   UNL A   1      34.762  28.976  27.868  1.00  0.00    -0.200 F 
ATOM     89  F   UNL A   1      34.112  31.496  27.052  1.00  0.00    -0.200 F 
ENDBRANCH  55  79
BRANCH  67  90
ATOM     90  C   UNL A   1      39.447  32.128  35.744  1.00  0.00     0.064 A 
ATOM     91  C   UNL A   1      38.596  31.401  36.589  1.00  0.00     0.173 A 
ATOM     92  C   UNL A   1      39.652  33.487  36.027  1.00  0.00     0.173 A 
ATOM     93  F   UNL A   1      38.357  30.102  36.353  1.00  0.00    -0.203 F 
ATOM     94  C   UNL A   1      37.962  32.016  37.665  1.00  0.00     0.198 A 
ATOM     95  C   UNL A   1      39.039  34.091  37.120  1.00  0.00     0.198 A 
ATOM     96  F   UNL A   1      40.464  34.223  35.254  1.00  0.00    -0.203 F 
ATOM     97  F   UNL A   1      37.122  31.312  38.437  1.00  0.00    -0.200 F 
ATOM     98  C   UNL A   1      38.190  33.358  37.934  1.00  0.00     0.200 A 
ATOM     99  F   UNL A   1      39.273  35.383  37.388  1.00  0.00    -0.200 F 
ATOM    100  F   UNL A   1      37.588  33.946  38.978  1.00  0.00    -0.200 F 
ENDBRANCH  67  90
ENDBRANCH  41  42
ENDBRANCH  34  36
ENDBRANCH  33  34
ENDBRANCH  32  33
ENDBRANCH  31  32
ENDBRANCH  30  31
ENDBRANCH  29  30
ENDBRANCH   1  29
TORSDOF 20
ENDMDL
