MODEL 1
REMARK VINA RESULT:     -11.4      0.000      0.000
REMARK SMILES C[C@@H](C(=O)OCCOCCOC(=O)c1ccc(-c2c3nc(c(-c4c(F)c(F)c(F)c(F)c4F)c4ccc([nH]4)c(-c4c(F)c(F)c(F)c(F)c4F)c4nc(c(-c5c(F)c(F)c(F)c(F)c5F)c5ccc2[nH]5)C=C4)C=C3)cc1)c1ccc(C[C@@H]2CCC[C@@H]2O)cc1
REMARK SMILES IDX 7 1 6 2 5 3 3 4 4 5 2 6 1 7 77 8 78 9 89 10 79 11 88 12
REMARK SMILES IDX 80 13 81 14 82 15 83 16 86 17 84 18 85 19 87 20 8 22 9 23
REMARK SMILES IDX 10 24 11 25 12 26 13 27 14 28 15 29 76 30 16 31 75 32 17 33
REMARK SMILES IDX 18 34 19 35 69 36 20 37 74 38 68 39 70 40 21 41 73 42 67 43
REMARK SMILES IDX 66 44 22 46 54 47 34 48 53 49 35 50 38 51 52 52 71 53 36 54
REMARK SMILES IDX 37 55 51 57 72 58 39 59 23 60 24 61 32 62 25 63 26 64 30 65
REMARK SMILES IDX 33 66 27 67 28 68 31 69 29 70 55 71 56 72 64 73 57 74 58 75
REMARK SMILES IDX 62 76 65 77 59 78 60 79 63 80 61 81 40 82 41 83 49 84 42 85
REMARK SMILES IDX 43 86 47 87 50 88 44 89 45 90 48 91 46 92
REMARK H PARENT 87 21 70 45 38 56
REMARK Flexibility Score: inf
ROOT
ATOM      1  C   UNL A   1      33.783  21.405  26.073  1.00  0.00     0.202 C 
ENDROOT
BRANCH   1   2
ATOM      2  C   UNL A   1      33.283  22.534  26.979  1.00  0.00     0.261 C 
BRANCH   2   3
ATOM      3  O   UNL A   1      32.114  23.141  26.415  1.00  0.00    -0.463 OA
BRANCH   3   4
ATOM      4  C   UNL A   1      32.340  23.993  25.378  1.00  0.00     0.313 C 
ATOM      5  O   UNL A   1      33.312  24.736  25.299  1.00  0.00    -0.252 OA
BRANCH   4   6
ATOM      6  C   UNL A   1      31.309  23.823  24.258  1.00  0.00     0.126 C 
ATOM      7  C   UNL A   1      31.754  22.755  23.248  1.00  0.00     0.025 C 
BRANCH   6   8
ATOM      8  C   UNL A   1      30.861  25.140  23.610  1.00  0.00    -0.034 A 
ATOM      9  C   UNL A   1      31.580  25.739  22.564  1.00  0.00     0.005 A 
ATOM     10  C   UNL A   1      29.762  25.849  24.121  1.00  0.00     0.005 A 
ATOM     11  C   UNL A   1      31.262  27.022  22.103  1.00  0.00     0.004 A 
ATOM     12  C   UNL A   1      29.444  27.133  23.658  1.00  0.00     0.004 A 
ATOM     13  C   UNL A   1      30.239  27.764  22.696  1.00  0.00    -0.048 A 
BRANCH  13  14
ATOM     14  C   UNL A   1      30.032  29.220  22.350  1.00  0.00     0.041 C 
BRANCH  14  15
ATOM     15  C   UNL A   1      28.798  29.945  22.951  1.00  0.00     0.022 C 
ATOM     16  C   UNL A   1      27.720  30.362  21.942  1.00  0.00     0.007 C 
ATOM     17  C   UNL A   1      29.036  31.255  23.712  1.00  0.00     0.117 C 
ATOM     18  C   UNL A   1      27.950  31.847  21.638  1.00  0.00     0.003 C 
ATOM     19  C   UNL A   1      28.982  32.344  22.647  1.00  0.00     0.032 C 
BRANCH  17  20
ATOM     20  O   UNL A   1      30.223  31.269  24.475  1.00  0.00    -0.393 OA
ATOM     21  H   UNL A   1      30.076  31.771  25.293  1.00  0.00     0.210 HD
ENDBRANCH  17  20
ENDBRANCH  14  15
ENDBRANCH  13  14
ENDBRANCH   6   8
ENDBRANCH   4   6
ENDBRANCH   3   4
ENDBRANCH   2   3
ENDBRANCH   1   2
BRANCH   1  22
ATOM     22  O   UNL A   1      35.195  21.194  26.057  1.00  0.00    -0.374 OA
BRANCH  22  23
ATOM     23  C   UNL A   1      35.743  20.418  24.989  1.00  0.00     0.202 C 
BRANCH  23  24
ATOM     24  C   UNL A   1      37.273  20.369  24.888  1.00  0.00     0.261 C 
BRANCH  24  25
ATOM     25  O   UNL A   1      37.902  21.559  25.406  1.00  0.00    -0.460 OA
BRANCH  25  26
ATOM     26  C   UNL A   1      39.066  21.343  26.063  1.00  0.00     0.338 C 
ATOM     27  O   UNL A   1      39.761  20.337  26.034  1.00  0.00    -0.246 OA
BRANCH  26  28
ATOM     28  C   UNL A   1      39.517  22.574  26.735  1.00  0.00     0.060 A 
ATOM     29  C   UNL A   1      38.882  23.772  26.382  1.00  0.00     0.016 A 
ATOM     30  C   UNL A   1      40.613  22.580  27.600  1.00  0.00     0.016 A 
ATOM     31  C   UNL A   1      39.370  24.988  26.858  1.00  0.00     0.010 A 
ATOM     32  C   UNL A   1      41.108  23.803  28.069  1.00  0.00     0.010 A 
ATOM     33  C   UNL A   1      40.512  25.014  27.671  1.00  0.00    -0.014 A 
BRANCH  33  34
ATOM     34  C   UNL A   1      41.157  26.315  27.976  1.00  0.00     0.031 A 
ATOM     35  C   UNL A   1      42.574  26.552  27.530  1.00  0.00     0.074 A 
ATOM     36  C   UNL A   1      40.478  27.290  28.605  1.00  0.00     0.049 A 
ATOM     37  N   UNL A   1      43.334  27.604  27.700  1.00  0.00    -0.248 NA
ATOM     38  C   UNL A   1      43.219  25.456  26.792  1.00  0.00     0.031 C 
ATOM     39  C   UNL A   1      39.090  27.197  29.051  1.00  0.00     0.029 A 
ATOM     40  N   UNL A   1      40.870  28.551  28.979  1.00  0.00    -0.354 N 
ATOM     41  C   UNL A   1      44.543  27.298  27.090  1.00  0.00     0.074 A 
ATOM     42  C   UNL A   1      44.429  25.951  26.574  1.00  0.00     0.031 C 
ATOM     43  C   UNL A   1      38.748  28.351  29.651  1.00  0.00     0.029 A 
ATOM     44  C   UNL A   1      39.901  29.250  29.655  1.00  0.00     0.049 A 
ATOM     45  H   UNL A   1      41.762  28.919  28.782  1.00  0.00     0.167 HD
ATOM     46  C   UNL A   1      45.646  28.074  26.962  1.00  0.00     0.037 A 
ATOM     47  C   UNL A   1      39.948  30.469  30.228  1.00  0.00     0.037 A 
ATOM     48  C   UNL A   1      45.764  29.412  27.477  1.00  0.00     0.049 A 
ATOM     49  C   UNL A   1      41.211  31.286  30.131  1.00  0.00     0.074 A 
ATOM     50  C   UNL A   1      46.838  30.281  27.390  1.00  0.00     0.029 A 
ATOM     51  N   UNL A   1      44.770  30.074  28.183  1.00  0.00    -0.354 N 
ATOM     52  N   UNL A   1      42.341  30.996  29.535  1.00  0.00    -0.248 NA
ATOM     53  C   UNL A   1      41.200  32.603  30.786  1.00  0.00     0.031 C 
ATOM     54  C   UNL A   1      46.511  31.453  28.080  1.00  0.00     0.029 A 
ATOM     55  C   UNL A   1      45.216  31.333  28.556  1.00  0.00     0.049 A 
ATOM     56  H   UNL A   1      43.881  29.706  28.388  1.00  0.00     0.167 HD
ATOM     57  C   UNL A   1      43.165  32.099  29.719  1.00  0.00     0.074 A 
ATOM     58  C   UNL A   1      42.400  33.070  30.472  1.00  0.00     0.031 C 
ATOM     59  C   UNL A   1      44.440  32.291  29.302  1.00  0.00     0.037 A 
BRANCH  46  60
ATOM     60  C   UNL A   1      46.828  27.482  26.251  1.00  0.00     0.064 A 
ATOM     61  C   UNL A   1      46.996  27.622  24.865  1.00  0.00     0.173 A 
ATOM     62  C   UNL A   1      47.821  26.799  26.968  1.00  0.00     0.173 A 
ATOM     63  F   UNL A   1      46.068  28.256  24.133  1.00  0.00    -0.203 F 
ATOM     64  C   UNL A   1      48.104  27.079  24.221  1.00  0.00     0.198 A 
ATOM     65  C   UNL A   1      48.940  26.279  26.324  1.00  0.00     0.198 A 
ATOM     66  F   UNL A   1      47.708  26.641  28.296  1.00  0.00    -0.203 F 
ATOM     67  F   UNL A   1      48.225  27.188  22.891  1.00  0.00    -0.200 F 
ATOM     68  C   UNL A   1      49.078  26.414  24.952  1.00  0.00     0.200 A 
ATOM     69  F   UNL A   1      49.886  25.646  27.032  1.00  0.00    -0.200 F 
ATOM     70  F   UNL A   1      50.148  25.897  24.330  1.00  0.00    -0.200 F 
ENDBRANCH  46  60
BRANCH  47  71
ATOM     71  C   UNL A   1      38.764  30.988  30.959  1.00  0.00     0.064 A 
ATOM     72  C   UNL A   1      38.622  30.797  32.340  1.00  0.00     0.173 A 
ATOM     73  C   UNL A   1      37.741  31.672  30.285  1.00  0.00     0.173 A 
ATOM     74  F   UNL A   1      39.560  30.125  33.022  1.00  0.00    -0.203 F 
ATOM     75  C   UNL A   1      37.494  31.256  33.017  1.00  0.00     0.198 A 
ATOM     76  C   UNL A   1      36.626  32.154  30.968  1.00  0.00     0.198 A 
ATOM     77  F   UNL A   1      37.828  31.878  28.963  1.00  0.00    -0.203 F 
ATOM     78  F   UNL A   1      37.361  31.020  34.329  1.00  0.00    -0.200 F 
ATOM     79  C   UNL A   1      36.500  31.939  32.331  1.00  0.00     0.200 A 
ATOM     80  F   UNL A   1      35.673  32.821  30.303  1.00  0.00    -0.200 F 
ATOM     81  F   UNL A   1      35.417  32.381  32.984  1.00  0.00    -0.200 F 
ENDBRANCH  47  71
BRANCH  59  82
ATOM     82  C   UNL A   1      45.081  33.610  29.621  1.00  0.00     0.064 A 
ATOM     83  C   UNL A   1      44.966  34.711  28.761  1.00  0.00     0.173 A 
ATOM     84  C   UNL A   1      45.781  33.786  30.826  1.00  0.00     0.173 A 
ATOM     85  F   UNL A   1      44.320  34.590  27.593  1.00  0.00    -0.203 F 
ATOM     86  C   UNL A   1      45.548  35.935  29.084  1.00  0.00     0.198 A 
ATOM     87  C   UNL A   1      46.338  35.017  31.157  1.00  0.00     0.198 A 
ATOM     88  F   UNL A   1      45.913  32.765  31.686  1.00  0.00    -0.203 F 
ATOM     89  F   UNL A   1      45.462  36.962  28.227  1.00  0.00    -0.200 F 
ATOM     90  C   UNL A   1      46.227  36.089  30.284  1.00  0.00     0.200 A 
ATOM     91  F   UNL A   1      46.983  35.169  32.323  1.00  0.00    -0.200 F 
ATOM     92  F   UNL A   1      46.780  37.269  30.595  1.00  0.00    -0.200 F 
ENDBRANCH  59  82
ENDBRANCH  33  34
ENDBRANCH  26  28
ENDBRANCH  25  26
ENDBRANCH  24  25
ENDBRANCH  23  24
ENDBRANCH  22  23
ENDBRANCH   1  22
TORSDOF 18
ENDMDL
MODEL 2
REMARK VINA RESULT:     -11.4      4.157     10.195
REMARK SMILES C[C@@H](C(=O)OCCOCCOC(=O)c1ccc(-c2c3nc(c(-c4c(F)c(F)c(F)c(F)c4F)c4ccc([nH]4)c(-c4c(F)c(F)c(F)c(F)c4F)c4nc(c(-c5c(F)c(F)c(F)c(F)c5F)c5ccc2[nH]5)C=C4)C=C3)cc1)c1ccc(C[C@@H]2CCC[C@@H]2O)cc1
REMARK SMILES IDX 7 1 6 2 5 3 3 4 4 5 2 6 1 7 77 8 78 9 89 10 79 11 88 12
REMARK SMILES IDX 80 13 81 14 82 15 83 16 86 17 84 18 85 19 87 20 8 22 9 23
REMARK SMILES IDX 10 24 11 25 12 26 13 27 14 28 15 29 76 30 16 31 75 32 17 33
REMARK SMILES IDX 18 34 19 35 69 36 20 37 74 38 68 39 70 40 21 41 73 42 67 43
REMARK SMILES IDX 66 44 22 46 54 47 34 48 53 49 35 50 38 51 52 52 71 53 36 54
REMARK SMILES IDX 37 55 51 57 72 58 39 59 23 60 24 61 32 62 25 63 26 64 30 65
REMARK SMILES IDX 33 66 27 67 28 68 31 69 29 70 55 71 56 72 64 73 57 74 58 75
REMARK SMILES IDX 62 76 65 77 59 78 60 79 63 80 61 81 40 82 41 83 49 84 42 85
REMARK SMILES IDX 43 86 47 87 50 88 44 89 45 90 48 91 46 92
REMARK H PARENT 87 21 70 45 38 56
REMARK Flexibility Score: inf
ROOT
ATOM      1  C   UNL A   1      32.032  28.322  24.747  1.00  0.00     0.202 C 
ENDROOT
BRANCH   1   2
ATOM      2  C   UNL A   1      31.321  27.504  25.828  1.00  0.00     0.261 C 
BRANCH   2   3
ATOM      3  O   UNL A   1      32.034  26.285  26.076  1.00  0.00    -0.463 OA
BRANCH   3   4
ATOM      4  C   UNL A   1      31.357  25.142  25.782  1.00  0.00     0.313 C 
ATOM      5  O   UNL A   1      30.625  24.554  26.571  1.00  0.00    -0.252 OA
BRANCH   4   6
ATOM      6  C   UNL A   1      31.510  24.745  24.311  1.00  0.00     0.126 C 
ATOM      7  C   UNL A   1      30.273  25.142  23.493  1.00  0.00     0.025 C 
BRANCH   6   8
ATOM      8  C   UNL A   1      31.955  23.292  24.094  1.00  0.00    -0.034 A 
ATOM      9  C   UNL A   1      31.771  22.630  22.870  1.00  0.00     0.005 A 
ATOM     10  C   UNL A   1      32.472  22.537  25.160  1.00  0.00     0.005 A 
ATOM     11  C   UNL A   1      32.017  21.258  22.740  1.00  0.00     0.004 A 
ATOM     12  C   UNL A   1      32.720  21.164  25.028  1.00  0.00     0.004 A 
ATOM     13  C   UNL A   1      32.422  20.495  23.837  1.00  0.00    -0.048 A 
BRANCH  13  14
ATOM     14  C   UNL A   1      32.483  18.987  23.756  1.00  0.00     0.041 C 
BRANCH  14  15
ATOM     15  C   UNL A   1      33.689  18.269  24.419  1.00  0.00     0.022 C 
ATOM     16  C   UNL A   1      34.353  17.175  23.573  1.00  0.00     0.007 C 
ATOM     17  C   UNL A   1      33.446  17.535  25.744  1.00  0.00     0.117 C 
ATOM     18  C   UNL A   1      33.792  15.836  24.063  1.00  0.00     0.003 C 
ATOM     19  C   UNL A   1      33.011  16.131  25.341  1.00  0.00     0.032 C 
BRANCH  17  20
ATOM     20  O   UNL A   1      32.535  18.186  26.603  1.00  0.00    -0.393 OA
ATOM     21  H   UNL A   1      32.525  19.135  26.403  1.00  0.00     0.210 HD
ENDBRANCH  17  20
ENDBRANCH  14  15
ENDBRANCH  13  14
ENDBRANCH   6   8
ENDBRANCH   4   6
ENDBRANCH   3   4
ENDBRANCH   2   3
ENDBRANCH   1   2
BRANCH   1  22
ATOM     22  O   UNL A   1      32.359  29.668  25.095  1.00  0.00    -0.374 OA
BRANCH  22  23
ATOM     23  C   UNL A   1      31.294  30.532  25.497  1.00  0.00     0.202 C 
BRANCH  23  24
ATOM     24  C   UNL A   1      31.629  31.594  26.551  1.00  0.00     0.261 C 
BRANCH  24  25
ATOM     25  O   UNL A   1      32.791  31.253  27.334  1.00  0.00    -0.460 OA
BRANCH  25  26
ATOM     26  C   UNL A   1      33.621  32.289  27.598  1.00  0.00     0.338 C 
ATOM     27  O   UNL A   1      33.330  33.476  27.670  1.00  0.00    -0.246 OA
BRANCH  26  28
ATOM     28  C   UNL A   1      34.961  31.800  27.965  1.00  0.00     0.060 A 
ATOM     29  C   UNL A   1      35.112  30.422  28.170  1.00  0.00     0.016 A 
ATOM     30  C   UNL A   1      36.019  32.675  28.219  1.00  0.00     0.016 A 
ATOM     31  C   UNL A   1      36.308  29.917  28.675  1.00  0.00     0.010 A 
ATOM     32  C   UNL A   1      37.217  32.167  28.737  1.00  0.00     0.010 A 
ATOM     33  C   UNL A   1      37.354  30.792  29.001  1.00  0.00    -0.014 A 
BRANCH  33  34
ATOM     34  C   UNL A   1      38.525  30.275  29.753  1.00  0.00     0.031 A 
ATOM     35  C   UNL A   1      38.740  30.724  31.172  1.00  0.00     0.074 A 
ATOM     36  C   UNL A   1      39.364  29.386  29.194  1.00  0.00     0.049 A 
ATOM     37  N   UNL A   1      39.699  30.411  32.007  1.00  0.00    -0.248 NA
ATOM     38  C   UNL A   1      37.738  31.647  31.725  1.00  0.00     0.031 C 
ATOM     39  C   UNL A   1      39.241  28.845  27.843  1.00  0.00     0.029 A 
ATOM     40  N   UNL A   1      40.491  28.784  29.698  1.00  0.00    -0.354 N 
ATOM     41  C   UNL A   1      39.415  31.096  33.181  1.00  0.00     0.074 A 
ATOM     42  C   UNL A   1      38.213  31.866  32.942  1.00  0.00     0.031 C 
ATOM     43  C   UNL A   1      40.261  27.997  27.619  1.00  0.00     0.029 A 
ATOM     44  C   UNL A   1      41.121  27.959  28.801  1.00  0.00     0.049 A 
ATOM     45  H   UNL A   1      40.815  28.931  30.616  1.00  0.00     0.167 HD
ATOM     46  C   UNL A   1      40.089  31.077  34.356  1.00  0.00     0.037 A 
ATOM     47  C   UNL A   1      42.272  27.268  28.915  1.00  0.00     0.037 A 
ATOM     48  C   UNL A   1      41.286  30.314  34.595  1.00  0.00     0.049 A 
ATOM     49  C   UNL A   1      43.041  27.317  30.210  1.00  0.00     0.074 A 
ATOM     50  C   UNL A   1      42.036  30.223  35.754  1.00  0.00     0.029 A 
ATOM     51  N   UNL A   1      41.911  29.514  33.650  1.00  0.00    -0.354 N 
ATOM     52  N   UNL A   1      42.754  27.951  31.321  1.00  0.00    -0.248 NA
ATOM     53  C   UNL A   1      44.294  26.549  30.266  1.00  0.00     0.031 C 
ATOM     54  C   UNL A   1      43.139  29.402  35.499  1.00  0.00     0.029 A 
ATOM     55  C   UNL A   1      43.051  28.943  34.195  1.00  0.00     0.049 A 
ATOM     56  H   UNL A   1      41.593  29.372  32.730  1.00  0.00     0.167 HD
ATOM     57  C   UNL A   1      43.772  27.640  32.214  1.00  0.00     0.074 A 
ATOM     58  C   UNL A   1      44.678  26.750  31.519  1.00  0.00     0.031 C 
ATOM     59  C   UNL A   1      43.940  28.054  33.493  1.00  0.00     0.037 A 
BRANCH  46  60
ATOM     60  C   UNL A   1      39.556  31.926  35.472  1.00  0.00     0.064 A 
ATOM     61  C   UNL A   1      38.609  31.433  36.382  1.00  0.00     0.173 A 
ATOM     62  C   UNL A   1      40.024  33.235  35.655  1.00  0.00     0.173 A 
ATOM     63  F   UNL A   1      38.121  30.191  36.242  1.00  0.00    -0.203 F 
ATOM     64  C   UNL A   1      38.133  32.228  37.421  1.00  0.00     0.198 A 
ATOM     65  C   UNL A   1      39.564  34.020  36.710  1.00  0.00     0.198 A 
ATOM     66  F   UNL A   1      40.932  33.753  34.814  1.00  0.00    -0.203 F 
ATOM     67  F   UNL A   1      37.198  31.751  38.254  1.00  0.00    -0.200 F 
ATOM     68  C   UNL A   1      38.616  33.518  37.588  1.00  0.00     0.200 A 
ATOM     69  F   UNL A   1      40.039  35.262  36.876  1.00  0.00    -0.200 F 
ATOM     70  F   UNL A   1      38.161  34.280  38.592  1.00  0.00    -0.200 F 
ENDBRANCH  46  60
BRANCH  47  71
ATOM     71  C   UNL A   1      42.779  26.479  27.763  1.00  0.00     0.064 A 
ATOM     72  C   UNL A   1      42.435  25.130  27.600  1.00  0.00     0.173 A 
ATOM     73  C   UNL A   1      43.632  27.055  26.811  1.00  0.00     0.173 A 
ATOM     74  F   UNL A   1      41.644  24.527  28.500  1.00  0.00    -0.203 F 
ATOM     75  C   UNL A   1      42.939  24.383  26.538  1.00  0.00     0.198 A 
ATOM     76  C   UNL A   1      44.114  26.314  25.734  1.00  0.00     0.198 A 
ATOM     77  F   UNL A   1      43.993  28.341  26.924  1.00  0.00    -0.203 F 
ATOM     78  F   UNL A   1      42.632  23.083  26.430  1.00  0.00    -0.200 F 
ATOM     79  C   UNL A   1      43.773  24.978  25.602  1.00  0.00     0.200 A 
ATOM     80  F   UNL A   1      44.911  26.896  24.828  1.00  0.00    -0.200 F 
ATOM     81  F   UNL A   1      44.255  24.258  24.580  1.00  0.00    -0.200 F 
ENDBRANCH  47  71
BRANCH  59  82
ATOM     82  C   UNL A   1      45.132  27.527  34.239  1.00  0.00     0.064 A 
ATOM     83  C   UNL A   1      46.379  28.163  34.175  1.00  0.00     0.173 A 
ATOM     84  C   UNL A   1      45.011  26.396  35.062  1.00  0.00     0.173 A 
ATOM     85  F   UNL A   1      46.550  29.238  33.392  1.00  0.00    -0.203 F 
ATOM     86  C   UNL A   1      47.469  27.674  34.891  1.00  0.00     0.198 A 
ATOM     87  C   UNL A   1      46.094  25.926  35.797  1.00  0.00     0.198 A 
ATOM     88  F   UNL A   1      43.836  25.756  35.162  1.00  0.00    -0.203 F 
ATOM     89  F   UNL A   1      48.663  28.273  34.783  1.00  0.00    -0.200 F 
ATOM     90  C   UNL A   1      47.324  26.560  35.707  1.00  0.00     0.200 A 
ATOM     91  F   UNL A   1      45.951  24.858  36.594  1.00  0.00    -0.200 F 
ATOM     92  F   UNL A   1      48.372  26.096  36.400  1.00  0.00    -0.200 F 
ENDBRANCH  59  82
ENDBRANCH  33  34
ENDBRANCH  26  28
ENDBRANCH  25  26
ENDBRANCH  24  25
ENDBRANCH  23  24
ENDBRANCH  22  23
ENDBRANCH   1  22
TORSDOF 18
ENDMDL
MODEL 3
REMARK VINA RESULT:     -11.4      4.949     10.729
REMARK SMILES C[C@@H](C(=O)OCCOCCOC(=O)c1ccc(-c2c3nc(c(-c4c(F)c(F)c(F)c(F)c4F)c4ccc([nH]4)c(-c4c(F)c(F)c(F)c(F)c4F)c4nc(c(-c5c(F)c(F)c(F)c(F)c5F)c5ccc2[nH]5)C=C4)C=C3)cc1)c1ccc(C[C@@H]2CCC[C@@H]2O)cc1
REMARK SMILES IDX 7 1 6 2 5 3 3 4 4 5 2 6 1 7 77 8 78 9 89 10 79 11 88 12
REMARK SMILES IDX 80 13 81 14 82 15 83 16 86 17 84 18 85 19 87 20 8 22 9 23
REMARK SMILES IDX 10 24 11 25 12 26 13 27 14 28 15 29 76 30 16 31 75 32 17 33
REMARK SMILES IDX 18 34 19 35 69 36 20 37 74 38 68 39 70 40 21 41 73 42 67 43
REMARK SMILES IDX 66 44 22 46 54 47 34 48 53 49 35 50 38 51 52 52 71 53 36 54
REMARK SMILES IDX 37 55 51 57 72 58 39 59 23 60 24 61 32 62 25 63 26 64 30 65
REMARK SMILES IDX 33 66 27 67 28 68 31 69 29 70 55 71 56 72 64 73 57 74 58 75
REMARK SMILES IDX 62 76 65 77 59 78 60 79 63 80 61 81 40 82 41 83 49 84 42 85
REMARK SMILES IDX 43 86 47 87 50 88 44 89 45 90 48 91 46 92
REMARK H PARENT 87 21 70 45 38 56
REMARK Flexibility Score: inf
ROOT
ATOM      1  C   UNL A   1      34.097  34.713  30.498  1.00  0.00     0.202 C 
ENDROOT
BRANCH   1   2
ATOM      2  C   UNL A   1      34.051  34.813  32.025  1.00  0.00     0.261 C 
BRANCH   2   3
ATOM      3  O   UNL A   1      35.377  34.745  32.566  1.00  0.00    -0.463 OA
BRANCH   3   4
ATOM      4  C   UNL A   1      35.701  33.573  33.174  1.00  0.00     0.313 C 
ATOM      5  O   UNL A   1      35.436  33.308  34.342  1.00  0.00    -0.252 OA
BRANCH   4   6
ATOM      6  C   UNL A   1      36.318  32.568  32.196  1.00  0.00     0.126 C 
ATOM      7  C   UNL A   1      36.668  31.248  32.899  1.00  0.00     0.025 C 
BRANCH   6   8
ATOM      8  C   UNL A   1      37.460  33.138  31.346  1.00  0.00    -0.034 A 
ATOM      9  C   UNL A   1      38.472  33.941  31.896  1.00  0.00     0.005 A 
ATOM     10  C   UNL A   1      37.472  32.958  29.953  1.00  0.00     0.005 A 
ATOM     11  C   UNL A   1      39.404  34.597  31.084  1.00  0.00     0.004 A 
ATOM     12  C   UNL A   1      38.407  33.614  29.141  1.00  0.00     0.004 A 
ATOM     13  C   UNL A   1      39.335  34.502  29.692  1.00  0.00    -0.048 A 
BRANCH  13  14
ATOM     14  C   UNL A   1      40.200  35.372  28.809  1.00  0.00     0.041 C 
BRANCH  14  15
ATOM     15  C   UNL A   1      41.688  34.972  28.623  1.00  0.00     0.022 C 
ATOM     16  C   UNL A   1      42.522  34.915  29.909  1.00  0.00     0.007 C 
ATOM     17  C   UNL A   1      42.561  35.856  27.724  1.00  0.00     0.117 C 
ATOM     18  C   UNL A   1      43.297  36.235  29.992  1.00  0.00     0.003 C 
ATOM     19  C   UNL A   1      43.111  36.935  28.648  1.00  0.00     0.032 C 
BRANCH  17  20
ATOM     20  O   UNL A   1      41.888  36.368  26.594  1.00  0.00    -0.393 OA
ATOM     21  H   UNL A   1      42.520  36.480  25.865  1.00  0.00     0.210 HD
ENDBRANCH  17  20
ENDBRANCH  14  15
ENDBRANCH  13  14
ENDBRANCH   6   8
ENDBRANCH   4   6
ENDBRANCH   3   4
ENDBRANCH   2   3
ENDBRANCH   1   2
BRANCH   1  22
ATOM     22  O   UNL A   1      33.875  33.413  29.949  1.00  0.00    -0.374 OA
BRANCH  22  23
ATOM     23  C   UNL A   1      34.117  33.226  28.553  1.00  0.00     0.202 C 
BRANCH  23  24
ATOM     24  C   UNL A   1      33.590  31.926  27.930  1.00  0.00     0.261 C 
BRANCH  24  25
ATOM     25  O   UNL A   1      34.618  31.182  27.246  1.00  0.00    -0.460 OA
BRANCH  25  26
ATOM     26  C   UNL A   1      34.848  29.944  27.745  1.00  0.00     0.338 C 
ATOM     27  O   UNL A   1      34.121  28.963  27.663  1.00  0.00    -0.246 OA
BRANCH  26  28
ATOM     28  C   UNL A   1      36.212  29.851  28.293  1.00  0.00     0.060 A 
ATOM     29  C   UNL A   1      37.275  30.150  27.431  1.00  0.00     0.016 A 
ATOM     30  C   UNL A   1      36.455  29.371  29.580  1.00  0.00     0.016 A 
ATOM     31  C   UNL A   1      38.589  29.925  27.838  1.00  0.00     0.010 A 
ATOM     32  C   UNL A   1      37.775  29.135  29.984  1.00  0.00     0.010 A 
ATOM     33  C   UNL A   1      38.846  29.376  29.103  1.00  0.00    -0.014 A 
BRANCH  33  34
ATOM     34  C   UNL A   1      40.220  28.924  29.433  1.00  0.00     0.031 A 
ATOM     35  C   UNL A   1      41.082  29.786  30.314  1.00  0.00     0.074 A 
ATOM     36  C   UNL A   1      40.680  27.742  28.990  1.00  0.00     0.049 A 
ATOM     37  N   UNL A   1      42.312  29.593  30.717  1.00  0.00    -0.248 NA
ATOM     38  C   UNL A   1      40.475  31.032  30.806  1.00  0.00     0.031 C 
ATOM     39  C   UNL A   1      39.929  26.799  28.165  1.00  0.00     0.029 A 
ATOM     40  N   UNL A   1      41.898  27.134  29.174  1.00  0.00    -0.354 N 
ATOM     41  C   UNL A   1      42.625  30.689  31.511  1.00  0.00     0.074 A 
ATOM     42  C   UNL A   1      41.468  31.559  31.506  1.00  0.00     0.031 C 
ATOM     43  C   UNL A   1      40.706  25.734  27.902  1.00  0.00     0.029 A 
ATOM     44  C   UNL A   1      42.018  25.934  28.518  1.00  0.00     0.049 A 
ATOM     45  H   UNL A   1      42.617  27.522  29.724  1.00  0.00     0.167 HD
ATOM     46  C   UNL A   1      43.768  30.943  32.191  1.00  0.00     0.037 A 
ATOM     47  C   UNL A   1      43.073  25.103  28.410  1.00  0.00     0.037 A 
ATOM     48  C   UNL A   1      44.921  30.080  32.195  1.00  0.00     0.049 A 
ATOM     49  C   UNL A   1      44.358  25.442  29.121  1.00  0.00     0.074 A 
ATOM     50  C   UNL A   1      46.123  30.247  32.860  1.00  0.00     0.029 A 
ATOM     51  N   UNL A   1      45.014  28.888  31.492  1.00  0.00    -0.354 N 
ATOM     52  N   UNL A   1      44.637  26.469  29.885  1.00  0.00    -0.248 NA
ATOM     53  C   UNL A   1      45.475  24.499  28.955  1.00  0.00     0.031 C 
ATOM     54  C   UNL A   1      46.961  29.178  32.526  1.00  0.00     0.029 A 
ATOM     55  C   UNL A   1      46.263  28.320  31.691  1.00  0.00     0.049 A 
ATOM     56  H   UNL A   1      44.301  28.502  30.936  1.00  0.00     0.167 HD
ATOM     57  C   UNL A   1      45.947  26.286  30.310  1.00  0.00     0.074 A 
ATOM     58  C   UNL A   1      46.404  25.041  29.730  1.00  0.00     0.031 C 
ATOM     59  C   UNL A   1      46.702  27.077  31.110  1.00  0.00     0.037 A 
BRANCH  46  60
ATOM     60  C   UNL A   1      43.838  32.220  32.975  1.00  0.00     0.064 A 
ATOM     61  C   UNL A   1      44.461  33.366  32.457  1.00  0.00     0.173 A 
ATOM     62  C   UNL A   1      43.244  32.310  34.242  1.00  0.00     0.173 A 
ATOM     63  F   UNL A   1      45.055  33.327  31.255  1.00  0.00    -0.203 F 
ATOM     64  C   UNL A   1      44.506  34.548  33.191  1.00  0.00     0.198 A 
ATOM     65  C   UNL A   1      43.269  33.502  34.962  1.00  0.00     0.198 A 
ATOM     66  F   UNL A   1      42.633  31.244  34.780  1.00  0.00    -0.203 F 
ATOM     67  F   UNL A   1      45.142  35.619  32.695  1.00  0.00    -0.200 F 
ATOM     68  C   UNL A   1      43.905  34.617  34.439  1.00  0.00     0.200 A 
ATOM     69  F   UNL A   1      42.679  33.570  36.163  1.00  0.00    -0.200 F 
ATOM     70  F   UNL A   1      43.944  35.758  35.141  1.00  0.00    -0.200 F 
ENDBRANCH  46  60
BRANCH  47  71
ATOM     71  C   UNL A   1      42.965  23.873  27.584  1.00  0.00     0.064 A 
ATOM     72  C   UNL A   1      43.337  23.871  26.234  1.00  0.00     0.173 A 
ATOM     73  C   UNL A   1      42.470  22.678  28.128  1.00  0.00     0.173 A 
ATOM     74  F   UNL A   1      43.790  24.997  25.662  1.00  0.00    -0.203 F 
ATOM     75  C   UNL A   1      43.203  22.725  25.452  1.00  0.00     0.198 A 
ATOM     76  C   UNL A   1      42.361  21.526  27.353  1.00  0.00     0.198 A 
ATOM     77  F   UNL A   1      42.097  22.630  29.415  1.00  0.00    -0.203 F 
ATOM     78  F   UNL A   1      43.523  22.762  24.152  1.00  0.00    -0.200 F 
ATOM     79  C   UNL A   1      42.720  21.552  26.015  1.00  0.00     0.200 A 
ATOM     80  F   UNL A   1      41.903  20.393  27.903  1.00  0.00    -0.200 F 
ATOM     81  F   UNL A   1      42.593  20.451  25.263  1.00  0.00    -0.200 F 
ENDBRANCH  47  71
BRANCH  59  82
ATOM     82  C   UNL A   1      48.092  26.609  31.432  1.00  0.00     0.064 A 
ATOM     83  C   UNL A   1      48.349  25.763  32.520  1.00  0.00     0.173 A 
ATOM     84  C   UNL A   1      49.172  26.975  30.614  1.00  0.00     0.173 A 
ATOM     85  F   UNL A   1      47.353  25.396  33.340  1.00  0.00    -0.203 F 
ATOM     86  C   UNL A   1      49.641  25.319  32.792  1.00  0.00     0.198 A 
ATOM     87  C   UNL A   1      50.457  26.508  30.872  1.00  0.00     0.198 A 
ATOM     88  F   UNL A   1      48.977  27.777  29.556  1.00  0.00    -0.203 F 
ATOM     89  F   UNL A   1      49.871  24.546  33.862  1.00  0.00    -0.200 F 
ATOM     90  C   UNL A   1      50.692  25.687  31.964  1.00  0.00     0.200 A 
ATOM     91  F   UNL A   1      51.470  26.854  30.065  1.00  0.00    -0.200 F 
ATOM     92  F   UNL A   1      51.933  25.253  32.224  1.00  0.00    -0.200 F 
ENDBRANCH  59  82
ENDBRANCH  33  34
ENDBRANCH  26  28
ENDBRANCH  25  26
ENDBRANCH  24  25
ENDBRANCH  23  24
ENDBRANCH  22  23
ENDBRANCH   1  22
TORSDOF 18
ENDMDL
