MODEL 1
REMARK VINA RESULT:      -9.9      0.000      0.000
REMARK SMILES CC(C)C[C@H](NC(=O)[C@H](C)NC(=O)[C@@H](NC(=O)CNC(=O)OCc1ccccc1)C(C)C)C(=O)OCCOCCOC(=O)c1ccc(-c2c3nc(c(-c4c(F)c(F)c(F)c(F)c4F)c4ccc([nH]4)c(-c4c(F)c(F)c(F)c(F)c4F)c4nc(c(-c5c(F)c(F)c(F)c(F)c5F)c5ccc2[nH]5)C=C4)C=C3)cc1
REMARK SMILES IDX 33 1 34 2 5 3 4 4 2 5 1 6 3 7 6 8 7 9 8 11 9 12 10 13 11 14
REMARK SMILES IDX 12 15 13 17 14 18 15 19 16 20 17 22 18 23 19 24 20 25 21 27
REMARK SMILES IDX 22 28 23 29 24 30 25 31 29 32 26 33 28 34 27 35 30 36 31 37
REMARK SMILES IDX 32 38 35 39 36 40 37 41 38 42 39 43 40 44 41 45 42 46 43 47
REMARK SMILES IDX 44 48 45 49 106 50 46 51 105 52 47 53 48 54 49 55 99 56
REMARK SMILES IDX 50 57 104 58 98 59 100 60 51 61 103 62 97 63 96 64 52 66
REMARK SMILES IDX 84 67 64 68 83 69 65 70 68 71 82 72 101 73 66 74 67 75 81 77
REMARK SMILES IDX 102 78 69 79 53 80 54 81 62 82 55 83 56 84 60 85 63 86 57 87
REMARK SMILES IDX 58 88 61 89 59 90 85 91 86 92 94 93 87 94 88 95 92 96 95 97
REMARK SMILES IDX 89 98 90 99 93 100 91 101 70 102 71 103 79 104 72 105 73 106
REMARK SMILES IDX 77 107 80 108 74 109 75 110 78 111 76 112
REMARK H PARENT 6 10 11 16 15 21 19 26 100 65 68 76
REMARK Flexibility Score: inf
ROOT
ATOM      1  C   UNL A   1      34.889  20.627  25.392  1.00  0.00     0.328 C 
ATOM      2  O   UNL A   1      35.247  21.457  26.225  1.00  0.00    -0.250 OA
ENDROOT
BRANCH   1   3
ATOM      3  C   UNL A   1      33.359  20.031  25.356  1.00  0.00     0.192 C 
BRANCH   3   4
ATOM      4  C   UNL A   1      33.213  19.258  23.989  1.00  0.00     0.040 C 
BRANCH   4   5
ATOM      5  C   UNL A   1      33.041  17.716  23.949  1.00  0.00    -0.015 C 
ATOM      6  C   UNL A   1      34.246  16.873  23.525  1.00  0.00     0.007 C 
ATOM      7  C   UNL A   1      32.641  17.256  25.363  1.00  0.00     0.007 C 
ENDBRANCH   4   5
ENDBRANCH   3   4
BRANCH   3   8
ATOM      8  N   UNL A   1      32.106  20.872  25.397  1.00  0.00    -0.341 N 
ATOM      9  C   UNL A   1      31.745  22.107  25.862  1.00  0.00     0.242 C 
ATOM     10  H   UNL A   1      31.346  20.407  24.978  1.00  0.00     0.164 HD
ATOM     11  O   UNL A   1      30.582  22.495  25.871  1.00  0.00    -0.273 OA
BRANCH   9  12
ATOM     12  C   UNL A   1      32.845  22.828  26.543  1.00  0.00     0.168 C 
ATOM     13  C   UNL A   1      32.432  22.516  28.018  1.00  0.00     0.041 C 
BRANCH  12  14
ATOM     14  N   UNL A   1      33.233  24.201  26.284  1.00  0.00    -0.343 N 
ATOM     15  C   UNL A   1      33.945  24.763  25.260  1.00  0.00     0.243 C 
ATOM     16  H   UNL A   1      32.929  24.843  26.966  1.00  0.00     0.164 HD
ATOM     17  O   UNL A   1      34.922  25.469  25.545  1.00  0.00    -0.273 OA
BRANCH  15  18
ATOM     18  C   UNL A   1      33.679  24.688  23.762  1.00  0.00     0.174 C 
BRANCH  18  19
ATOM     19  N   UNL A   1      33.880  25.931  23.029  1.00  0.00    -0.343 N 
ATOM     20  C   UNL A   1      33.101  26.989  22.693  1.00  0.00     0.240 C 
ATOM     21  H   UNL A   1      34.803  26.027  22.700  1.00  0.00     0.164 HD
ATOM     22  O   UNL A   1      33.719  27.964  22.246  1.00  0.00    -0.273 OA
BRANCH  20  23
ATOM     23  C   UNL A   1      31.584  27.123  22.990  1.00  0.00     0.219 C 
BRANCH  23  24
ATOM     24  N   UNL A   1      30.972  26.259  23.984  1.00  0.00    -0.312 N 
ATOM     25  C   UNL A   1      30.587  26.514  25.278  1.00  0.00     0.407 C 
ATOM     26  H   UNL A   1      30.806  25.337  23.681  1.00  0.00     0.167 HD
ATOM     27  O   UNL A   1      30.012  25.629  25.901  1.00  0.00    -0.225 OA
BRANCH  25  28
ATOM     28  O   UNL A   1      31.009  27.695  25.802  1.00  0.00    -0.445 OA
BRANCH  28  29
ATOM     29  C   UNL A   1      31.932  27.635  26.930  1.00  0.00     0.270 C 
BRANCH  29  30
ATOM     30  C   UNL A   1      32.955  28.735  27.014  1.00  0.00    -0.011 A 
ATOM     31  C   UNL A   1      34.333  28.454  27.020  1.00  0.00     0.007 A 
ATOM     32  C   UNL A   1      32.518  30.050  27.186  1.00  0.00     0.007 A 
ATOM     33  C   UNL A   1      35.252  29.476  27.258  1.00  0.00     0.000 A 
ATOM     34  C   UNL A   1      33.436  31.061  27.442  1.00  0.00     0.000 A 
ATOM     35  C   UNL A   1      34.800  30.775  27.488  1.00  0.00     0.000 A 
ENDBRANCH  29  30
ENDBRANCH  28  29
ENDBRANCH  25  28
ENDBRANCH  23  24
ENDBRANCH  20  23
ENDBRANCH  18  19
BRANCH  18  36
ATOM     36  C   UNL A   1      33.941  23.418  23.010  1.00  0.00     0.015 C 
ATOM     37  C   UNL A   1      33.193  23.248  21.716  1.00  0.00     0.010 C 
ATOM     38  C   UNL A   1      35.440  23.139  22.964  1.00  0.00     0.010 C 
ENDBRANCH  18  36
ENDBRANCH  15  18
ENDBRANCH  12  14
ENDBRANCH   9  12
ENDBRANCH   3   8
ENDBRANCH   1   3
BRANCH   1  39
ATOM     39  O   UNL A   1      35.782  20.161  24.430  1.00  0.00    -0.462 OA
BRANCH  39  40
ATOM     40  C   UNL A   1      36.948  19.484  25.000  1.00  0.00     0.261 C 
BRANCH  40  41
ATOM     41  C   UNL A   1      38.346  20.198  25.108  1.00  0.00     0.202 C 
BRANCH  41  42
ATOM     42  O   UNL A   1      38.456  21.598  25.409  1.00  0.00    -0.374 OA
BRANCH  42  43
ATOM     43  C   UNL A   1      39.366  22.007  26.413  1.00  0.00     0.202 C 
BRANCH  43  44
ATOM     44  C   UNL A   1      40.924  21.723  26.169  1.00  0.00     0.261 C 
BRANCH  44  45
ATOM     45  O   UNL A   1      41.698  22.650  25.323  1.00  0.00    -0.460 OA
BRANCH  45  46
ATOM     46  C   UNL A   1      42.836  23.294  25.751  1.00  0.00     0.338 C 
ATOM     47  O   UNL A   1      43.956  22.809  25.681  1.00  0.00    -0.246 OA
BRANCH  46  48
ATOM     48  C   UNL A   1      42.548  24.577  26.539  1.00  0.00     0.060 A 
ATOM     49  C   UNL A   1      42.564  25.852  25.950  1.00  0.00     0.016 A 
ATOM     50  C   UNL A   1      42.118  24.507  27.883  1.00  0.00     0.016 A 
ATOM     51  C   UNL A   1      42.112  27.011  26.639  1.00  0.00     0.010 A 
ATOM     52  C   UNL A   1      41.687  25.672  28.588  1.00  0.00     0.010 A 
ATOM     53  C   UNL A   1      41.677  26.950  27.976  1.00  0.00    -0.014 A 
BRANCH  53  54
ATOM     54  C   UNL A   1      41.663  28.212  28.816  1.00  0.00     0.031 A 
ATOM     55  C   UNL A   1      43.011  28.590  29.353  1.00  0.00     0.074 A 
ATOM     56  C   UNL A   1      40.619  29.026  29.111  1.00  0.00     0.049 A 
ATOM     57  N   UNL A   1      43.349  29.534  30.187  1.00  0.00    -0.248 NA
ATOM     58  C   UNL A   1      44.121  27.716  28.942  1.00  0.00     0.031 C 
ATOM     59  C   UNL A   1      39.243  28.779  28.746  1.00  0.00     0.029 A 
ATOM     60  N   UNL A   1      40.531  30.234  29.784  1.00  0.00    -0.354 N 
ATOM     61  C   UNL A   1      44.694  29.317  30.439  1.00  0.00     0.074 A 
ATOM     62  C   UNL A   1      45.082  28.114  29.748  1.00  0.00     0.031 C 
ATOM     63  C   UNL A   1      38.458  29.820  29.075  1.00  0.00     0.029 A 
ATOM     64  C   UNL A   1      39.265  30.799  29.792  1.00  0.00     0.049 A 
ATOM     65  H   UNL A   1      41.305  30.656  30.221  1.00  0.00     0.167 HD
ATOM     66  C   UNL A   1      45.552  30.071  31.157  1.00  0.00     0.037 A 
ATOM     67  C   UNL A   1      38.808  31.952  30.339  1.00  0.00     0.037 A 
ATOM     68  C   UNL A   1      45.177  31.281  31.819  1.00  0.00     0.049 A 
ATOM     69  C   UNL A   1      39.784  32.781  31.146  1.00  0.00     0.074 A 
ATOM     70  C   UNL A   1      45.959  32.120  32.586  1.00  0.00     0.029 A 
ATOM     71  N   UNL A   1      43.901  31.828  31.786  1.00  0.00    -0.354 N 
ATOM     72  N   UNL A   1      41.058  32.565  31.373  1.00  0.00    -0.248 NA
ATOM     73  C   UNL A   1      39.264  33.995  31.794  1.00  0.00     0.031 C 
ATOM     74  C   UNL A   1      45.145  33.157  33.053  1.00  0.00     0.029 A 
ATOM     75  C   UNL A   1      43.875  33.000  32.518  1.00  0.00     0.049 A 
ATOM     76  H   UNL A   1      43.131  31.438  31.312  1.00  0.00     0.167 HD
ATOM     77  C   UNL A   1      41.497  33.629  32.149  1.00  0.00     0.074 A 
ATOM     78  C   UNL A   1      40.357  34.499  32.347  1.00  0.00     0.031 C 
ATOM     79  C   UNL A   1      42.732  33.864  32.659  1.00  0.00     0.037 A 
BRANCH  66  80
ATOM     80  C   UNL A   1      46.950  29.543  31.264  1.00  0.00     0.064 A 
ATOM     81  C   UNL A   1      47.345  28.707  32.323  1.00  0.00     0.173 A 
ATOM     82  C   UNL A   1      47.935  29.990  30.375  1.00  0.00     0.173 A 
ATOM     83  F   UNL A   1      46.446  28.297  33.232  1.00  0.00    -0.203 F 
ATOM     84  C   UNL A   1      48.686  28.398  32.526  1.00  0.00     0.198 A 
ATOM     85  C   UNL A   1      49.268  29.637  30.553  1.00  0.00     0.198 A 
ATOM     86  F   UNL A   1      47.612  30.804  29.359  1.00  0.00    -0.203 F 
ATOM     87  F   UNL A   1      49.054  27.703  33.611  1.00  0.00    -0.200 F 
ATOM     88  C   UNL A   1      49.645  28.859  31.638  1.00  0.00     0.200 A 
ATOM     89  F   UNL A   1      50.195  30.081  29.693  1.00  0.00    -0.200 F 
ATOM     90  F   UNL A   1      50.938  28.576  31.844  1.00  0.00    -0.200 F 
ENDBRANCH  66  80
BRANCH  67  91
ATOM     91  C   UNL A   1      37.385  32.419  30.191  1.00  0.00     0.064 A 
ATOM     92  C   UNL A   1      37.005  33.270  29.134  1.00  0.00     0.173 A 
ATOM     93  C   UNL A   1      36.395  32.116  31.138  1.00  0.00     0.173 A 
ATOM     94  F   UNL A   1      37.910  33.638  28.214  1.00  0.00    -0.203 F 
ATOM     95  C   UNL A   1      35.720  33.814  29.051  1.00  0.00     0.198 A 
ATOM     96  C   UNL A   1      35.098  32.633  31.035  1.00  0.00     0.198 A 
ATOM     97  F   UNL A   1      36.685  31.329  32.184  1.00  0.00    -0.203 F 
ATOM     98  F   UNL A   1      35.419  34.679  28.071  1.00  0.00    -0.200 F 
ATOM     99  C   UNL A   1      34.764  33.490  29.999  1.00  0.00     0.200 A 
ATOM    100  F   UNL A   1      34.176  32.312  31.954  1.00  0.00    -0.200 F 
ATOM    101  F   UNL A   1      33.532  34.016  29.925  1.00  0.00    -0.200 F 
ENDBRANCH  67  91
BRANCH  79 102
ATOM    102  C   UNL A   1      42.943  35.156  33.390  1.00  0.00     0.064 A 
ATOM    103  C   UNL A   1      42.711  35.286  34.765  1.00  0.00     0.173 A 
ATOM    104  C   UNL A   1      43.450  36.268  32.699  1.00  0.00     0.173 A 
ATOM    105  F   UNL A   1      42.217  34.254  35.469  1.00  0.00    -0.203 F 
ATOM    106  C   UNL A   1      42.948  36.492  35.418  1.00  0.00     0.198 A 
ATOM    107  C   UNL A   1      43.723  37.460  33.361  1.00  0.00     0.198 A 
ATOM    108  F   UNL A   1      43.701  36.190  31.383  1.00  0.00    -0.203 F 
ATOM    109  F   UNL A   1      42.668  36.613  36.722  1.00  0.00    -0.200 F 
ATOM    110  C   UNL A   1      43.463  37.573  34.717  1.00  0.00     0.200 A 
ATOM    111  F   UNL A   1      44.242  38.495  32.685  1.00  0.00    -0.200 F 
ATOM    112  F   UNL A   1      43.703  38.730  35.349  1.00  0.00    -0.200 F 
ENDBRANCH  79 102
ENDBRANCH  53  54
ENDBRANCH  46  48
ENDBRANCH  45  46
ENDBRANCH  44  45
ENDBRANCH  43  44
ENDBRANCH  42  43
ENDBRANCH  41  42
ENDBRANCH  40  41
ENDBRANCH  39  40
ENDBRANCH   1  39
TORSDOF 27
ENDMDL
MODEL 2
REMARK VINA RESULT:      -9.8      6.391     10.391
REMARK SMILES CC(C)C[C@H](NC(=O)[C@H](C)NC(=O)[C@@H](NC(=O)CNC(=O)OCc1ccccc1)C(C)C)C(=O)OCCOCCOC(=O)c1ccc(-c2c3nc(c(-c4c(F)c(F)c(F)c(F)c4F)c4ccc([nH]4)c(-c4c(F)c(F)c(F)c(F)c4F)c4nc(c(-c5c(F)c(F)c(F)c(F)c5F)c5ccc2[nH]5)C=C4)C=C3)cc1
REMARK SMILES IDX 33 1 34 2 5 3 4 4 2 5 1 6 3 7 6 8 7 9 8 11 9 12 10 13 11 14
REMARK SMILES IDX 12 15 13 17 14 18 15 19 16 20 17 22 18 23 19 24 20 25 21 27
REMARK SMILES IDX 22 28 23 29 24 30 25 31 29 32 26 33 28 34 27 35 30 36 31 37
REMARK SMILES IDX 32 38 35 39 36 40 37 41 38 42 39 43 40 44 41 45 42 46 43 47
REMARK SMILES IDX 44 48 45 49 106 50 46 51 105 52 47 53 48 54 49 55 99 56
REMARK SMILES IDX 50 57 104 58 98 59 100 60 51 61 103 62 97 63 96 64 52 66
REMARK SMILES IDX 84 67 64 68 83 69 65 70 68 71 82 72 101 73 66 74 67 75 81 77
REMARK SMILES IDX 102 78 69 79 53 80 54 81 62 82 55 83 56 84 60 85 63 86 57 87
REMARK SMILES IDX 58 88 61 89 59 90 85 91 86 92 94 93 87 94 88 95 92 96 95 97
REMARK SMILES IDX 89 98 90 99 93 100 91 101 70 102 71 103 79 104 72 105 73 106
REMARK SMILES IDX 77 107 80 108 74 109 75 110 78 111 76 112
REMARK H PARENT 6 10 11 16 15 21 19 26 100 65 68 76
REMARK Flexibility Score: inf
ROOT
ATOM      1  C   UNL A   1      34.456  21.233  25.511  1.00  0.00     0.328 C 
ATOM      2  O   UNL A   1      34.794  21.542  26.652  1.00  0.00    -0.250 OA
ENDROOT
BRANCH   1   3
ATOM      3  C   UNL A   1      32.889  20.953  25.110  1.00  0.00     0.192 C 
BRANCH   3   4
ATOM      4  C   UNL A   1      32.888  19.686  24.172  1.00  0.00     0.040 C 
BRANCH   4   5
ATOM      5  C   UNL A   1      33.482  18.332  24.645  1.00  0.00    -0.015 C 
ATOM      6  C   UNL A   1      32.674  17.510  25.652  1.00  0.00     0.007 C 
ATOM      7  C   UNL A   1      33.682  17.451  23.398  1.00  0.00     0.007 C 
ENDBRANCH   4   5
ENDBRANCH   3   4
BRANCH   3   8
ATOM      8  N   UNL A   1      32.006  21.922  24.360  1.00  0.00    -0.341 N 
ATOM      9  C   UNL A   1      31.500  23.177  24.563  1.00  0.00     0.242 C 
ATOM     10  H   UNL A   1      31.717  21.552  23.495  1.00  0.00     0.164 HD
ATOM     11  O   UNL A   1      30.677  23.686  23.810  1.00  0.00    -0.273 OA
BRANCH   9  12
ATOM     12  C   UNL A   1      31.870  23.760  25.873  1.00  0.00     0.168 C 
ATOM     13  C   UNL A   1      30.577  24.605  26.110  1.00  0.00     0.041 C 
BRANCH  12  14
ATOM     14  N   UNL A   1      33.117  24.439  26.166  1.00  0.00    -0.343 N 
ATOM     15  C   UNL A   1      34.104  24.913  25.346  1.00  0.00     0.243 C 
ATOM     16  H   UNL A   1      33.284  24.585  27.125  1.00  0.00     0.164 HD
ATOM     17  O   UNL A   1      35.270  24.556  25.564  1.00  0.00    -0.273 OA
BRANCH  15  18
ATOM     18  C   UNL A   1      33.987  25.894  24.186  1.00  0.00     0.174 C 
BRANCH  18  19
ATOM     19  N   UNL A   1      33.813  25.289  22.871  1.00  0.00    -0.343 N 
ATOM     20  C   UNL A   1      32.960  25.470  21.832  1.00  0.00     0.240 C 
ATOM     21  H   UNL A   1      34.473  24.581  22.694  1.00  0.00     0.164 HD
ATOM     22  O   UNL A   1      33.291  24.894  20.788  1.00  0.00    -0.273 OA
BRANCH  20  23
ATOM     23  C   UNL A   1      31.758  26.450  21.811  1.00  0.00     0.219 C 
BRANCH  23  24
ATOM     24  N   UNL A   1      30.737  26.351  22.840  1.00  0.00    -0.312 N 
ATOM     25  C   UNL A   1      29.650  27.148  23.102  1.00  0.00     0.407 C 
ATOM     26  H   UNL A   1      30.842  25.586  23.450  1.00  0.00     0.167 HD
ATOM     27  O   UNL A   1      28.878  26.807  23.992  1.00  0.00    -0.225 OA
BRANCH  25  28
ATOM     28  O   UNL A   1      29.604  28.330  22.435  1.00  0.00    -0.445 OA
BRANCH  28  29
ATOM     29  C   UNL A   1      28.318  29.018  22.378  1.00  0.00     0.270 C 
BRANCH  29  30
ATOM     30  C   UNL A   1      28.354  30.514  22.537  1.00  0.00    -0.011 A 
ATOM     31  C   UNL A   1      27.844  31.367  21.542  1.00  0.00     0.007 A 
ATOM     32  C   UNL A   1      28.992  31.058  23.653  1.00  0.00     0.007 A 
ATOM     33  C   UNL A   1      28.033  32.746  21.643  1.00  0.00     0.000 A 
ATOM     34  C   UNL A   1      29.196  32.430  23.739  1.00  0.00     0.000 A 
ATOM     35  C   UNL A   1      28.726  33.273  22.733  1.00  0.00     0.000 A 
ENDBRANCH  29  30
ENDBRANCH  28  29
ENDBRANCH  25  28
ENDBRANCH  23  24
ENDBRANCH  20  23
ENDBRANCH  18  19
BRANCH  18  36
ATOM     36  C   UNL A   1      33.355  27.237  24.392  1.00  0.00     0.015 C 
ATOM     37  C   UNL A   1      32.998  27.591  25.810  1.00  0.00     0.010 C 
ATOM     38  C   UNL A   1      34.115  28.299  23.604  1.00  0.00     0.010 C 
ENDBRANCH  18  36
ENDBRANCH  15  18
ENDBRANCH  12  14
ENDBRANCH   9  12
ENDBRANCH   3   8
ENDBRANCH   1   3
BRANCH   1  39
ATOM     39  O   UNL A   1      35.409  21.112  24.502  1.00  0.00    -0.462 OA
BRANCH  39  40
ATOM     40  C   UNL A   1      36.753  20.821  25.004  1.00  0.00     0.261 C 
BRANCH  40  41
ATOM     41  C   UNL A   1      37.849  21.943  25.126  1.00  0.00     0.202 C 
BRANCH  41  42
ATOM     42  O   UNL A   1      38.928  21.843  26.068  1.00  0.00    -0.374 OA
BRANCH  42  43
ATOM     43  C   UNL A   1      39.347  23.014  26.747  1.00  0.00     0.202 C 
BRANCH  43  44
ATOM     44  C   UNL A   1      40.884  23.108  27.189  1.00  0.00     0.261 C 
BRANCH  44  45
ATOM     45  O   UNL A   1      41.838  23.822  26.320  1.00  0.00    -0.460 OA
BRANCH  45  46
ATOM     46  C   UNL A   1      42.762  23.184  25.525  1.00  0.00     0.338 C 
ATOM     47  O   UNL A   1      42.603  22.061  25.069  1.00  0.00    -0.246 OA
BRANCH  46  48
ATOM     48  C   UNL A   1      44.109  23.912  25.456  1.00  0.00     0.060 A 
ATOM     49  C   UNL A   1      45.325  23.244  25.236  1.00  0.00     0.016 A 
ATOM     50  C   UNL A   1      44.159  25.323  25.482  1.00  0.00     0.016 A 
ATOM     51  C   UNL A   1      46.538  23.943  24.986  1.00  0.00     0.010 A 
ATOM     52  C   UNL A   1      45.380  26.030  25.257  1.00  0.00     0.010 A 
ATOM     53  C   UNL A   1      46.597  25.348  25.003  1.00  0.00    -0.014 A 
BRANCH  53  54
ATOM     54  C   UNL A   1      47.930  26.040  25.212  1.00  0.00     0.031 A 
ATOM     55  C   UNL A   1      48.398  26.021  26.636  1.00  0.00     0.074 A 
ATOM     56  C   UNL A   1      48.734  26.630  24.294  1.00  0.00     0.049 A 
ATOM     57  N   UNL A   1      49.426  26.603  27.191  1.00  0.00    -0.248 NA
ATOM     58  C   UNL A   1      47.526  25.303  27.578  1.00  0.00     0.031 C 
ATOM     59  C   UNL A   1      48.410  26.809  22.897  1.00  0.00     0.029 A 
ATOM     60  N   UNL A   1      49.995  27.198  24.377  1.00  0.00    -0.354 N 
ATOM     61  C   UNL A   1      49.276  26.366  28.547  1.00  0.00     0.074 A 
ATOM     62  C   UNL A   1      48.026  25.674  28.737  1.00  0.00     0.031 C 
ATOM     63  C   UNL A   1      49.453  27.321  22.218  1.00  0.00     0.029 A 
ATOM     64  C   UNL A   1      50.519  27.622  23.165  1.00  0.00     0.049 A 
ATOM     65  H   UNL A   1      50.481  27.291  25.228  1.00  0.00     0.167 HD
ATOM     66  C   UNL A   1      50.119  26.665  29.556  1.00  0.00     0.037 A 
ATOM     67  C   UNL A   1      51.702  28.209  22.862  1.00  0.00     0.037 A 
ATOM     68  C   UNL A   1      51.374  27.326  29.368  1.00  0.00     0.049 A 
ATOM     69  C   UNL A   1      52.633  28.543  24.009  1.00  0.00     0.074 A 
ATOM     70  C   UNL A   1      52.304  27.691  30.318  1.00  0.00     0.029 A 
ATOM     71  N   UNL A   1      51.874  27.716  28.133  1.00  0.00    -0.354 N 
ATOM     72  N   UNL A   1      52.479  28.308  25.290  1.00  0.00    -0.248 NA
ATOM     73  C   UNL A   1      53.885  29.242  23.680  1.00  0.00     0.031 C 
ATOM     74  C   UNL A   1      53.353  28.343  29.662  1.00  0.00     0.029 A 
ATOM     75  C   UNL A   1      53.107  28.318  28.297  1.00  0.00     0.049 A 
ATOM     76  H   UNL A   1      51.418  27.584  27.270  1.00  0.00     0.167 HD
ATOM     77  C   UNL A   1      53.624  28.790  25.910  1.00  0.00     0.074 A 
ATOM     78  C   UNL A   1      54.472  29.321  24.865  1.00  0.00     0.031 C 
ATOM     79  C   UNL A   1      53.945  28.798  27.229  1.00  0.00     0.037 A 
BRANCH  66  80
ATOM     80  C   UNL A   1      49.648  26.298  30.930  1.00  0.00     0.064 A 
ATOM     81  C   UNL A   1      48.923  27.199  31.728  1.00  0.00     0.173 A 
ATOM     82  C   UNL A   1      50.046  25.083  31.503  1.00  0.00     0.173 A 
ATOM     83  F   UNL A   1      48.567  28.398  31.240  1.00  0.00    -0.203 F 
ATOM     84  C   UNL A   1      48.676  26.925  33.069  1.00  0.00     0.198 A 
ATOM     85  C   UNL A   1      49.754  24.792  32.830  1.00  0.00     0.198 A 
ATOM     86  F   UNL A   1      50.756  24.197  30.788  1.00  0.00    -0.203 F 
ATOM     87  F   UNL A   1      48.092  27.851  33.843  1.00  0.00    -0.200 F 
ATOM     88  C   UNL A   1      49.087  25.720  33.617  1.00  0.00     0.200 A 
ATOM     89  F   UNL A   1      50.149  23.626  33.360  1.00  0.00    -0.200 F 
ATOM     90  F   UNL A   1      48.865  25.465  34.913  1.00  0.00    -0.200 F 
ENDBRANCH  66  80
BRANCH  67  91
ATOM     91  C   UNL A   1      52.108  28.552  21.455  1.00  0.00     0.064 A 
ATOM     92  C   UNL A   1      51.903  29.845  20.934  1.00  0.00     0.173 A 
ATOM     93  C   UNL A   1      52.614  27.592  20.566  1.00  0.00     0.173 A 
ATOM     94  F   UNL A   1      51.382  30.805  21.713  1.00  0.00    -0.203 F 
ATOM     95  C   UNL A   1      52.157  30.149  19.592  1.00  0.00     0.198 A 
ATOM     96  C   UNL A   1      52.902  27.904  19.233  1.00  0.00     0.198 A 
ATOM     97  F   UNL A   1      52.817  26.333  20.982  1.00  0.00    -0.203 F 
ATOM     98  F   UNL A   1      51.879  31.371  19.117  1.00  0.00    -0.200 F 
ATOM     99  C   UNL A   1      52.662  29.179  18.743  1.00  0.00     0.200 A 
ATOM    100  F   UNL A   1      53.394  26.962  18.416  1.00  0.00    -0.200 F 
ATOM    101  F   UNL A   1      52.900  29.465  17.455  1.00  0.00    -0.200 F 
ENDBRANCH  67  91
BRANCH  79 102
ATOM    102  C   UNL A   1      55.305  29.304  27.606  1.00  0.00     0.064 A 
ATOM    103  C   UNL A   1      55.538  30.642  27.951  1.00  0.00     0.173 A 
ATOM    104  C   UNL A   1      56.382  28.406  27.681  1.00  0.00     0.173 A 
ATOM    105  F   UNL A   1      54.543  31.541  27.886  1.00  0.00    -0.203 F 
ATOM    106  C   UNL A   1      56.808  31.070  28.327  1.00  0.00     0.198 A 
ATOM    107  C   UNL A   1      57.640  28.828  28.095  1.00  0.00     0.198 A 
ATOM    108  F   UNL A   1      56.205  27.112  27.372  1.00  0.00    -0.203 F 
ATOM    109  F   UNL A   1      57.023  32.364  28.601  1.00  0.00    -0.200 F 
ATOM    110  C   UNL A   1      57.853  30.161  28.408  1.00  0.00     0.200 A 
ATOM    111  F   UNL A   1      58.641  27.944  28.193  1.00  0.00    -0.200 F 
ATOM    112  F   UNL A   1      59.072  30.573  28.783  1.00  0.00    -0.200 F 
ENDBRANCH  79 102
ENDBRANCH  53  54
ENDBRANCH  46  48
ENDBRANCH  45  46
ENDBRANCH  44  45
ENDBRANCH  43  44
ENDBRANCH  42  43
ENDBRANCH  41  42
ENDBRANCH  40  41
ENDBRANCH  39  40
ENDBRANCH   1  39
TORSDOF 27
ENDMDL
MODEL 3
REMARK VINA RESULT:      -9.6      2.477      3.294
REMARK SMILES CC(C)C[C@H](NC(=O)[C@H](C)NC(=O)[C@@H](NC(=O)CNC(=O)OCc1ccccc1)C(C)C)C(=O)OCCOCCOC(=O)c1ccc(-c2c3nc(c(-c4c(F)c(F)c(F)c(F)c4F)c4ccc([nH]4)c(-c4c(F)c(F)c(F)c(F)c4F)c4nc(c(-c5c(F)c(F)c(F)c(F)c5F)c5ccc2[nH]5)C=C4)C=C3)cc1
REMARK SMILES IDX 33 1 34 2 5 3 4 4 2 5 1 6 3 7 6 8 7 9 8 11 9 12 10 13 11 14
REMARK SMILES IDX 12 15 13 17 14 18 15 19 16 20 17 22 18 23 19 24 20 25 21 27
REMARK SMILES IDX 22 28 23 29 24 30 25 31 29 32 26 33 28 34 27 35 30 36 31 37
REMARK SMILES IDX 32 38 35 39 36 40 37 41 38 42 39 43 40 44 41 45 42 46 43 47
REMARK SMILES IDX 44 48 45 49 106 50 46 51 105 52 47 53 48 54 49 55 99 56
REMARK SMILES IDX 50 57 104 58 98 59 100 60 51 61 103 62 97 63 96 64 52 66
REMARK SMILES IDX 84 67 64 68 83 69 65 70 68 71 82 72 101 73 66 74 67 75 81 77
REMARK SMILES IDX 102 78 69 79 53 80 54 81 62 82 55 83 56 84 60 85 63 86 57 87
REMARK SMILES IDX 58 88 61 89 59 90 85 91 86 92 94 93 87 94 88 95 92 96 95 97
REMARK SMILES IDX 89 98 90 99 93 100 91 101 70 102 71 103 79 104 72 105 73 106
REMARK SMILES IDX 77 107 80 108 74 109 75 110 78 111 76 112
REMARK H PARENT 6 10 11 16 15 21 19 26 100 65 68 76
REMARK Flexibility Score: inf
ROOT
ATOM      1  C   UNL A   1      36.513  20.690  25.299  1.00  0.00     0.328 C 
ATOM      2  O   UNL A   1      36.785  21.552  26.132  1.00  0.00    -0.250 OA
ENDROOT
BRANCH   1   3
ATOM      3  C   UNL A   1      34.967  20.234  24.989  1.00  0.00     0.192 C 
BRANCH   3   4
ATOM      4  C   UNL A   1      35.048  18.813  24.311  1.00  0.00     0.040 C 
BRANCH   4   5
ATOM      5  C   UNL A   1      34.064  17.676  24.699  1.00  0.00    -0.015 C 
ATOM      6  C   UNL A   1      32.636  18.067  25.083  1.00  0.00     0.007 C 
ATOM      7  C   UNL A   1      33.965  16.718  23.497  1.00  0.00     0.007 C 
ENDBRANCH   4   5
ENDBRANCH   3   4
BRANCH   3   8
ATOM      8  N   UNL A   1      34.013  20.978  24.086  1.00  0.00    -0.341 N 
ATOM      9  C   UNL A   1      33.050  21.941  24.224  1.00  0.00     0.242 C 
ATOM     10  H   UNL A   1      34.111  20.697  23.147  1.00  0.00     0.164 HD
ATOM     11  O   UNL A   1      32.319  22.279  23.299  1.00  0.00    -0.273 OA
BRANCH   9  12
ATOM     12  C   UNL A   1      32.834  22.365  25.626  1.00  0.00     0.168 C 
ATOM     13  C   UNL A   1      31.449  21.677  25.853  1.00  0.00     0.041 C 
BRANCH  12  14
ATOM     14  N   UNL A   1      32.938  23.727  26.114  1.00  0.00    -0.343 N 
ATOM     15  C   UNL A   1      32.984  24.924  25.454  1.00  0.00     0.243 C 
ATOM     16  H   UNL A   1      32.981  23.803  27.094  1.00  0.00     0.164 HD
ATOM     17  O   UNL A   1      33.917  25.698  25.711  1.00  0.00    -0.273 OA
BRANCH  15  18
ATOM     18  C   UNL A   1      31.995  25.494  24.445  1.00  0.00     0.174 C 
BRANCH  18  19
ATOM     19  N   UNL A   1      32.468  25.546  23.068  1.00  0.00    -0.343 N 
ATOM     20  C   UNL A   1      32.866  26.529  22.222  1.00  0.00     0.240 C 
ATOM     21  H   UNL A   1      32.511  24.655  22.652  1.00  0.00     0.164 HD
ATOM     22  O   UNL A   1      33.413  26.128  21.187  1.00  0.00    -0.273 OA
BRANCH  20  23
ATOM     23  C   UNL A   1      32.850  28.048  22.533  1.00  0.00     0.219 C 
BRANCH  23  24
ATOM     24  N   UNL A   1      31.606  28.789  22.412  1.00  0.00    -0.312 N 
ATOM     25  C   UNL A   1      30.831  29.401  23.367  1.00  0.00     0.407 C 
ATOM     26  H   UNL A   1      31.260  28.865  21.493  1.00  0.00     0.167 HD
ATOM     27  O   UNL A   1      29.851  30.041  23.001  1.00  0.00    -0.225 OA
BRANCH  25  28
ATOM     28  O   UNL A   1      31.148  29.122  24.658  1.00  0.00    -0.445 OA
BRANCH  28  29
ATOM     29  C   UNL A   1      31.524  30.243  25.513  1.00  0.00     0.270 C 
BRANCH  29  30
ATOM     30  C   UNL A   1      32.842  30.124  26.229  1.00  0.00    -0.011 A 
ATOM     31  C   UNL A   1      33.716  29.051  25.980  1.00  0.00     0.007 A 
ATOM     32  C   UNL A   1      33.152  31.051  27.227  1.00  0.00     0.007 A 
ATOM     33  C   UNL A   1      34.853  28.881  26.771  1.00  0.00     0.000 A 
ATOM     34  C   UNL A   1      34.275  30.866  28.024  1.00  0.00     0.000 A 
ATOM     35  C   UNL A   1      35.120  29.779  27.803  1.00  0.00     0.000 A 
ENDBRANCH  29  30
ENDBRANCH  28  29
ENDBRANCH  25  28
ENDBRANCH  23  24
ENDBRANCH  20  23
ENDBRANCH  18  19
BRANCH  18  36
ATOM     36  C   UNL A   1      30.522  25.301  24.639  1.00  0.00     0.015 C 
ATOM     37  C   UNL A   1      29.997  25.553  26.026  1.00  0.00     0.010 C 
ATOM     38  C   UNL A   1      29.754  25.960  23.498  1.00  0.00     0.010 C 
ENDBRANCH  18  36
ENDBRANCH  15  18
ENDBRANCH  12  14
ENDBRANCH   9  12
ENDBRANCH   3   8
ENDBRANCH   1   3
BRANCH   1  39
ATOM     39  O   UNL A   1      37.525  20.065  24.574  1.00  0.00    -0.462 OA
BRANCH  39  40
ATOM     40  C   UNL A   1      38.400  19.230  25.399  1.00  0.00     0.261 C 
BRANCH  40  41
ATOM     41  C   UNL A   1      39.860  19.680  25.771  1.00  0.00     0.202 C 
BRANCH  41  42
ATOM     42  O   UNL A   1      40.117  20.576  26.864  1.00  0.00    -0.374 OA
BRANCH  42  43
ATOM     43  C   UNL A   1      40.576  21.884  26.576  1.00  0.00     0.202 C 
BRANCH  43  44
ATOM     44  C   UNL A   1      42.099  22.053  26.107  1.00  0.00     0.261 C 
BRANCH  44  45
ATOM     45  O   UNL A   1      42.428  23.073  25.096  1.00  0.00    -0.460 OA
BRANCH  45  46
ATOM     46  C   UNL A   1      43.660  23.680  25.004  1.00  0.00     0.338 C 
ATOM     47  O   UNL A   1      44.663  23.116  24.591  1.00  0.00    -0.246 OA
BRANCH  46  48
ATOM     48  C   UNL A   1      43.714  25.051  25.686  1.00  0.00     0.060 A 
ATOM     49  C   UNL A   1      44.316  25.255  26.938  1.00  0.00     0.016 A 
ATOM     50  C   UNL A   1      43.266  26.205  25.005  1.00  0.00     0.016 A 
ATOM     51  C   UNL A   1      44.528  26.556  27.474  1.00  0.00     0.010 A 
ATOM     52  C   UNL A   1      43.454  27.511  25.549  1.00  0.00     0.010 A 
ATOM     53  C   UNL A   1      44.091  27.711  26.800  1.00  0.00    -0.014 A 
BRANCH  53  54
ATOM     54  C   UNL A   1      43.894  29.000  27.573  1.00  0.00     0.031 A 
ATOM     55  C   UNL A   1      45.053  29.945  27.469  1.00  0.00     0.074 A 
ATOM     56  C   UNL A   1      42.822  29.398  28.302  1.00  0.00     0.049 A 
ATOM     57  N   UNL A   1      45.273  31.077  28.080  1.00  0.00    -0.248 NA
ATOM     58  C   UNL A   1      46.157  29.497  26.606  1.00  0.00     0.031 C 
ATOM     59  C   UNL A   1      41.655  28.591  28.574  1.00  0.00     0.029 A 
ATOM     60  N   UNL A   1      42.520  30.581  28.958  1.00  0.00    -0.354 N 
ATOM     61  C   UNL A   1      46.561  31.430  27.716  1.00  0.00     0.074 A 
ATOM     62  C   UNL A   1      47.100  30.361  26.914  1.00  0.00     0.031 C 
ATOM     63  C   UNL A   1      40.714  29.300  29.224  1.00  0.00     0.029 A 
ATOM     64  C   UNL A   1      41.254  30.619  29.525  1.00  0.00     0.049 A 
ATOM     65  H   UNL A   1      43.152  31.333  29.016  1.00  0.00     0.167 HD
ATOM     66  C   UNL A   1      47.238  32.564  27.993  1.00  0.00     0.037 A 
ATOM     67  C   UNL A   1      40.623  31.591  30.227  1.00  0.00     0.037 A 
ATOM     68  C   UNL A   1      46.695  33.639  28.764  1.00  0.00     0.049 A 
ATOM     69  C   UNL A   1      41.400  32.853  30.533  1.00  0.00     0.074 A 
ATOM     70  C   UNL A   1      47.293  34.830  29.119  1.00  0.00     0.029 A 
ATOM     71  N   UNL A   1      45.413  33.649  29.298  1.00  0.00    -0.354 N 
ATOM     72  N   UNL A   1      42.620  33.176  30.177  1.00  0.00    -0.248 NA
ATOM     73  C   UNL A   1      40.731  33.875  31.355  1.00  0.00     0.031 C 
ATOM     74  C   UNL A   1      46.386  35.548  29.905  1.00  0.00     0.029 A 
ATOM     75  C   UNL A   1      45.200  34.833  29.978  1.00  0.00     0.049 A 
ATOM     76  H   UNL A   1      44.756  32.922  29.205  1.00  0.00     0.167 HD
ATOM     77  C   UNL A   1      42.849  34.445  30.694  1.00  0.00     0.074 A 
ATOM     78  C   UNL A   1      41.637  34.841  31.378  1.00  0.00     0.031 C 
ATOM     79  C   UNL A   1      43.964  35.213  30.613  1.00  0.00     0.037 A 
BRANCH  66  80
ATOM     80  C   UNL A   1      48.641  32.629  27.473  1.00  0.00     0.064 A 
ATOM     81  C   UNL A   1      49.719  32.073  28.183  1.00  0.00     0.173 A 
ATOM     82  C   UNL A   1      48.925  33.376  26.323  1.00  0.00     0.173 A 
ATOM     83  F   UNL A   1      49.501  31.395  29.321  1.00  0.00    -0.203 F 
ATOM     84  C   UNL A   1      51.032  32.322  27.797  1.00  0.00     0.198 A 
ATOM     85  C   UNL A   1      50.237  33.581  25.912  1.00  0.00     0.198 A 
ATOM     86  F   UNL A   1      47.932  33.942  25.620  1.00  0.00    -0.203 F 
ATOM     87  F   UNL A   1      52.045  31.886  28.558  1.00  0.00    -0.200 F 
ATOM     88  C   UNL A   1      51.289  33.071  26.660  1.00  0.00     0.200 A 
ATOM     89  F   UNL A   1      50.487  34.303  24.812  1.00  0.00    -0.200 F 
ATOM     90  F   UNL A   1      52.554  33.326  26.299  1.00  0.00    -0.200 F 
ENDBRANCH  66  80
BRANCH  67  91
ATOM     91  C   UNL A   1      39.208  31.453  30.721  1.00  0.00     0.064 A 
ATOM     92  C   UNL A   1      38.147  32.127  30.084  1.00  0.00     0.173 A 
ATOM     93  C   UNL A   1      38.887  30.736  31.884  1.00  0.00     0.173 A 
ATOM     94  F   UNL A   1      38.385  32.868  28.991  1.00  0.00    -0.203 F 
ATOM     95  C   UNL A   1      36.848  32.112  30.602  1.00  0.00     0.198 A 
ATOM     96  C   UNL A   1      37.580  30.693  32.382  1.00  0.00     0.198 A 
ATOM     97  F   UNL A   1      39.847  30.086  32.557  1.00  0.00    -0.203 F 
ATOM     98  F   UNL A   1      35.881  32.827  30.008  1.00  0.00    -0.200 F 
ATOM     99  C   UNL A   1      36.563  31.390  31.748  1.00  0.00     0.200 A 
ATOM    100  F   UNL A   1      37.310  29.989  33.490  1.00  0.00    -0.200 F 
ATOM    101  F   UNL A   1      35.320  31.380  32.250  1.00  0.00    -0.200 F 
ENDBRANCH  67  91
BRANCH  79 102
ATOM    102  C   UNL A   1      43.894  36.596  31.191  1.00  0.00     0.064 A 
ATOM    103  C   UNL A   1      44.046  36.844  32.561  1.00  0.00     0.173 A 
ATOM    104  C   UNL A   1      43.733  37.696  30.334  1.00  0.00     0.173 A 
ATOM    105  F   UNL A   1      44.193  35.824  33.421  1.00  0.00    -0.203 F 
ATOM    106  C   UNL A   1      44.006  38.144  33.058  1.00  0.00     0.198 A 
ATOM    107  C   UNL A   1      43.734  38.996  30.828  1.00  0.00     0.198 A 
ATOM    108  F   UNL A   1      43.596  37.510  29.012  1.00  0.00    -0.203 F 
ATOM    109  F   UNL A   1      44.099  38.357  34.377  1.00  0.00    -0.200 F 
ATOM    110  C   UNL A   1      43.861  39.217  32.190  1.00  0.00     0.200 A 
ATOM    111  F   UNL A   1      43.616  40.030  29.986  1.00  0.00    -0.200 F 
ATOM    112  F   UNL A   1      43.837  40.468  32.669  1.00  0.00    -0.200 F 
ENDBRANCH  79 102
ENDBRANCH  53  54
ENDBRANCH  46  48
ENDBRANCH  45  46
ENDBRANCH  44  45
ENDBRANCH  43  44
ENDBRANCH  42  43
ENDBRANCH  41  42
ENDBRANCH  40  41
ENDBRANCH  39  40
ENDBRANCH   1  39
TORSDOF 27
ENDMDL
