MODEL 1
REMARK VINA RESULT:     -11.4      0.000      0.000
REMARK SMILES O=C(OCCOCCOC(=O)c1csc(-c2cnc3ccccc3c2)c1)c1ccc(-c2c3nc(c(-c4c(F)c(F)c(F)c(F)c4F)c4ccc([nH]4)c(-c4c(F)c(F)c(F)c(F)c4F)c4nc(c(-c5c(F)c(F)c(F)c(F)c5F)c5ccc2[nH]5)C=C4)C=C3)cc1
REMARK SMILES IDX 5 1 4 2 3 3 2 4 1 5 27 6 28 7 89 8 29 9 88 10 30 11 31 12
REMARK SMILES IDX 32 13 82 14 33 15 87 16 81 17 83 18 34 19 86 20 80 21 79 22
REMARK SMILES IDX 35 24 67 25 47 26 66 27 48 28 51 29 65 30 84 31 49 32 50 33
REMARK SMILES IDX 64 35 85 36 52 37 36 38 37 39 45 40 38 41 39 42 43 43 46 44
REMARK SMILES IDX 40 45 41 46 44 47 42 48 68 49 69 50 77 51 70 52 71 53 75 54
REMARK SMILES IDX 78 55 72 56 73 57 76 58 74 59 53 60 54 61 62 62 55 63 56 64
REMARK SMILES IDX 60 65 63 66 57 67 58 68 61 69 59 70 6 71 7 72 8 73 9 74
REMARK SMILES IDX 10 75 11 76 12 77 13 78 26 79 14 80 15 81 16 82 17 83 25 84
REMARK SMILES IDX 18 85 24 86 19 87 23 88 20 89 22 90 21 91
REMARK H PARENT 83 23 51 34
REMARK Flexibility Score: inf
ROOT
ATOM      1  C   UNL A   1      32.863  36.078  29.197  1.00  0.00     0.202 C 
ENDROOT
BRANCH   1   2
ATOM      2  C   UNL A   1      33.142  37.089  30.313  1.00  0.00     0.261 C 
BRANCH   2   3
ATOM      3  O   UNL A   1      32.445  36.707  31.512  1.00  0.00    -0.460 OA
BRANCH   3   4
ATOM      4  C   UNL A   1      32.589  35.592  32.264  1.00  0.00     0.338 C 
ATOM      5  O   UNL A   1      31.578  35.047  32.705  1.00  0.00    -0.246 OA
BRANCH   4   6
ATOM      6  C   UNL A   1      33.909  34.968  32.589  1.00  0.00     0.060 A 
ATOM      7  C   UNL A   1      35.148  35.601  32.477  1.00  0.00     0.016 A 
ATOM      8  C   UNL A   1      33.879  33.674  33.140  1.00  0.00     0.016 A 
ATOM      9  C   UNL A   1      36.327  34.948  32.817  1.00  0.00     0.010 A 
ATOM     10  C   UNL A   1      35.056  33.030  33.536  1.00  0.00     0.010 A 
ATOM     11  C   UNL A   1      36.290  33.661  33.351  1.00  0.00    -0.014 A 
BRANCH  11  12
ATOM     12  C   UNL A   1      37.568  32.983  33.645  1.00  0.00     0.031 A 
ATOM     13  C   UNL A   1      38.222  33.213  34.973  1.00  0.00     0.074 A 
ATOM     14  C   UNL A   1      38.057  32.085  32.771  1.00  0.00     0.049 A 
ATOM     15  N   UNL A   1      39.320  32.695  35.456  1.00  0.00    -0.248 NA
ATOM     16  C   UNL A   1      37.537  34.140  35.888  1.00  0.00     0.031 C 
ATOM     17  C   UNL A   1      37.439  31.736  31.491  1.00  0.00     0.029 A 
ATOM     18  N   UNL A   1      39.160  31.276  32.843  1.00  0.00    -0.354 N 
ATOM     19  C   UNL A   1      39.464  33.241  36.723  1.00  0.00     0.074 A 
ATOM     20  C   UNL A   1      38.351  34.141  36.932  1.00  0.00     0.031 C 
ATOM     21  C   UNL A   1      38.152  30.755  30.914  1.00  0.00     0.029 A 
ATOM     22  C   UNL A   1      39.301  30.445  31.758  1.00  0.00     0.049 A 
ATOM     23  H   UNL A   1      39.791  31.290  33.598  1.00  0.00     0.167 HD
ATOM     24  C   UNL A   1      40.444  33.011  37.627  1.00  0.00     0.037 A 
ATOM     25  C   UNL A   1      40.263  29.544  31.482  1.00  0.00     0.037 A 
ATOM     26  C   UNL A   1      41.548  32.119  37.399  1.00  0.00     0.049 A 
ATOM     27  C   UNL A   1      41.379  29.363  32.473  1.00  0.00     0.074 A 
ATOM     28  C   UNL A   1      42.633  31.854  38.212  1.00  0.00     0.029 A 
ATOM     29  N   UNL A   1      41.700  31.343  36.257  1.00  0.00    -0.354 N 
ATOM     30  N   UNL A   1      41.537  29.918  33.652  1.00  0.00    -0.248 NA
ATOM     31  C   UNL A   1      42.458  28.442  32.093  1.00  0.00     0.031 C 
ATOM     32  C   UNL A   1      43.461  30.941  37.548  1.00  0.00     0.029 A 
ATOM     33  C   UNL A   1      42.871  30.608  36.337  1.00  0.00     0.049 A 
ATOM     34  H   UNL A   1      41.069  31.318  35.502  1.00  0.00     0.167 HD
ATOM     35  C   UNL A   1      42.723  29.410  34.159  1.00  0.00     0.074 A 
ATOM     36  C   UNL A   1      43.233  28.482  33.169  1.00  0.00     0.031 C 
ATOM     37  C   UNL A   1      43.342  29.691  35.332  1.00  0.00     0.037 A 
BRANCH  24  38
ATOM     38  C   UNL A   1      40.378  33.784  38.909  1.00  0.00     0.064 A 
ATOM     39  C   UNL A   1      39.590  33.358  39.989  1.00  0.00     0.173 A 
ATOM     40  C   UNL A   1      41.082  34.990  39.043  1.00  0.00     0.173 A 
ATOM     41  F   UNL A   1      38.875  32.226  39.899  1.00  0.00    -0.203 F 
ATOM     42  C   UNL A   1      39.485  34.129  41.145  1.00  0.00     0.198 A 
ATOM     43  C   UNL A   1      40.992  35.746  40.209  1.00  0.00     0.198 A 
ATOM     44  F   UNL A   1      41.843  35.444  38.037  1.00  0.00    -0.203 F 
ATOM     45  F   UNL A   1      38.681  33.733  42.142  1.00  0.00    -0.200 F 
ATOM     46  C   UNL A   1      40.187  35.320  41.255  1.00  0.00     0.200 A 
ATOM     47  F   UNL A   1      41.671  36.897  40.313  1.00  0.00    -0.200 F 
ATOM     48  F   UNL A   1      40.074  36.068  42.362  1.00  0.00    -0.200 F 
ENDBRANCH  24  38
BRANCH  25  49
ATOM     49  C   UNL A   1      40.218  28.767  30.215  1.00  0.00     0.064 A 
ATOM     50  C   UNL A   1      39.568  27.527  30.147  1.00  0.00     0.173 A 
ATOM     51  C   UNL A   1      40.828  29.246  29.044  1.00  0.00     0.173 A 
ATOM     52  F   UNL A   1      38.990  27.014  31.242  1.00  0.00    -0.203 F 
ATOM     53  C   UNL A   1      39.539  26.792  28.963  1.00  0.00     0.198 A 
ATOM     54  C   UNL A   1      40.774  28.524  27.854  1.00  0.00     0.198 A 
ATOM     55  F   UNL A   1      41.467  30.425  29.054  1.00  0.00    -0.203 F 
ATOM     56  F   UNL A   1      38.946  25.590  28.936  1.00  0.00    -0.200 F 
ATOM     57  C   UNL A   1      40.136  27.294  27.816  1.00  0.00     0.200 A 
ATOM     58  F   UNL A   1      41.342  29.019  26.747  1.00  0.00    -0.200 F 
ATOM     59  F   UNL A   1      40.103  26.590  26.677  1.00  0.00    -0.200 F 
ENDBRANCH  25  49
BRANCH  37  60
ATOM     60  C   UNL A   1      44.627  28.969  35.605  1.00  0.00     0.064 A 
ATOM     61  C   UNL A   1      45.863  29.510  35.224  1.00  0.00     0.173 A 
ATOM     62  C   UNL A   1      44.622  27.746  36.291  1.00  0.00     0.173 A 
ATOM     63  F   UNL A   1      45.912  30.670  34.551  1.00  0.00    -0.203 F 
ATOM     64  C   UNL A   1      47.049  28.841  35.503  1.00  0.00     0.198 A 
ATOM     65  C   UNL A   1      45.812  27.092  36.589  1.00  0.00     0.198 A 
ATOM     66  F   UNL A   1      43.463  27.193  36.679  1.00  0.00    -0.203 F 
ATOM     67  F   UNL A   1      48.218  29.355  35.095  1.00  0.00    -0.200 F 
ATOM     68  C   UNL A   1      47.024  27.636  36.190  1.00  0.00     0.200 A 
ATOM     69  F   UNL A   1      45.788  25.932  37.261  1.00  0.00    -0.200 F 
ATOM     70  F   UNL A   1      48.169  26.995  36.462  1.00  0.00    -0.200 F 
ENDBRANCH  37  60
ENDBRANCH  11  12
ENDBRANCH   4   6
ENDBRANCH   3   4
ENDBRANCH   2   3
ENDBRANCH   1   2
BRANCH   1  71
ATOM     71  O   UNL A   1      34.012  35.747  28.414  1.00  0.00    -0.374 OA
BRANCH  71  72
ATOM     72  C   UNL A   1      34.174  34.352  28.120  1.00  0.00     0.202 C 
BRANCH  72  73
ATOM     73  C   UNL A   1      34.754  33.631  29.343  1.00  0.00     0.261 C 
BRANCH  73  74
ATOM     74  O   UNL A   1      34.503  32.225  29.202  1.00  0.00    -0.460 OA
BRANCH  74  75
ATOM     75  C   UNL A   1      35.261  31.619  28.241  1.00  0.00     0.339 C 
ATOM     76  O   UNL A   1      36.460  31.802  28.074  1.00  0.00    -0.246 OA
BRANCH  75  77
ATOM     77  C   UNL A   1      34.509  30.582  27.545  1.00  0.00     0.071 A 
ATOM     78  C   UNL A   1      34.908  29.263  27.433  1.00  0.00     0.081 A 
ATOM     79  C   UNL A   1      33.302  30.813  26.802  1.00  0.00     0.036 A 
ATOM     80  S   UNL A   1      33.886  28.349  26.413  1.00  0.00    -0.143 S 
ATOM     81  C   UNL A   1      32.888  29.700  26.102  1.00  0.00     0.037 A 
BRANCH  81  82
ATOM     82  C   UNL A   1      31.759  29.564  25.197  1.00  0.00     0.011 A 
ATOM     83  C   UNL A   1      31.483  28.370  24.544  1.00  0.00     0.121 A 
ATOM     84  C   UNL A   1      30.914  30.641  24.947  1.00  0.00     0.021 A 
ATOM     85  N   UNL A   1      30.444  28.185  23.695  1.00  0.00    -0.256 NA
ATOM     86  C   UNL A   1      29.820  30.486  24.088  1.00  0.00     0.001 A 
ATOM     87  C   UNL A   1      29.620  29.228  23.479  1.00  0.00     0.070 A 
ATOM     88  C   UNL A   1      28.934  31.546  23.840  1.00  0.00     0.010 A 
ATOM     89  C   UNL A   1      28.527  29.077  22.637  1.00  0.00     0.029 A 
ATOM     90  C   UNL A   1      27.842  31.365  22.995  1.00  0.00     0.001 A 
ATOM     91  C   UNL A   1      27.638  30.129  22.392  1.00  0.00     0.002 A 
ENDBRANCH  81  82
ENDBRANCH  75  77
ENDBRANCH  74  75
ENDBRANCH  73  74
ENDBRANCH  72  73
ENDBRANCH  71  72
ENDBRANCH   1  71
TORSDOF 15
ENDMDL
MODEL 2
REMARK VINA RESULT:     -11.3      3.999      5.832
REMARK SMILES O=C(OCCOCCOC(=O)c1csc(-c2cnc3ccccc3c2)c1)c1ccc(-c2c3nc(c(-c4c(F)c(F)c(F)c(F)c4F)c4ccc([nH]4)c(-c4c(F)c(F)c(F)c(F)c4F)c4nc(c(-c5c(F)c(F)c(F)c(F)c5F)c5ccc2[nH]5)C=C4)C=C3)cc1
REMARK SMILES IDX 5 1 4 2 3 3 2 4 1 5 27 6 28 7 89 8 29 9 88 10 30 11 31 12
REMARK SMILES IDX 32 13 82 14 33 15 87 16 81 17 83 18 34 19 86 20 80 21 79 22
REMARK SMILES IDX 35 24 67 25 47 26 66 27 48 28 51 29 65 30 84 31 49 32 50 33
REMARK SMILES IDX 64 35 85 36 52 37 36 38 37 39 45 40 38 41 39 42 43 43 46 44
REMARK SMILES IDX 40 45 41 46 44 47 42 48 68 49 69 50 77 51 70 52 71 53 75 54
REMARK SMILES IDX 78 55 72 56 73 57 76 58 74 59 53 60 54 61 62 62 55 63 56 64
REMARK SMILES IDX 60 65 63 66 57 67 58 68 61 69 59 70 6 71 7 72 8 73 9 74
REMARK SMILES IDX 10 75 11 76 12 77 13 78 26 79 14 80 15 81 16 82 17 83 25 84
REMARK SMILES IDX 18 85 24 86 19 87 23 88 20 89 22 90 21 91
REMARK H PARENT 83 23 51 34
REMARK Flexibility Score: inf
ROOT
ATOM      1  C   UNL A   1      31.867  30.809  26.415  1.00  0.00     0.202 C 
ENDROOT
BRANCH   1   2
ATOM      2  C   UNL A   1      31.388  32.193  26.864  1.00  0.00     0.261 C 
BRANCH   2   3
ATOM      3  O   UNL A   1      32.487  33.121  26.860  1.00  0.00    -0.460 OA
BRANCH   3   4
ATOM      4  C   UNL A   1      33.176  33.631  27.906  1.00  0.00     0.338 C 
ATOM      5  O   UNL A   1      32.810  34.705  28.381  1.00  0.00    -0.246 OA
BRANCH   4   6
ATOM      6  C   UNL A   1      34.359  32.965  28.533  1.00  0.00     0.060 A 
ATOM      7  C   UNL A   1      34.460  31.602  28.814  1.00  0.00     0.016 A 
ATOM      8  C   UNL A   1      35.489  33.770  28.766  1.00  0.00     0.016 A 
ATOM      9  C   UNL A   1      35.607  31.064  29.386  1.00  0.00     0.010 A 
ATOM     10  C   UNL A   1      36.667  33.227  29.291  1.00  0.00     0.010 A 
ATOM     11  C   UNL A   1      36.718  31.871  29.626  1.00  0.00    -0.014 A 
BRANCH  11  12
ATOM     12  C   UNL A   1      37.895  31.271  30.287  1.00  0.00     0.031 A 
ATOM     13  C   UNL A   1      38.132  31.552  31.738  1.00  0.00     0.074 A 
ATOM     14  C   UNL A   1      38.659  30.395  29.610  1.00  0.00     0.049 A 
ATOM     15  N   UNL A   1      39.074  31.104  32.525  1.00  0.00    -0.248 NA
ATOM     16  C   UNL A   1      37.168  32.447  32.398  1.00  0.00     0.031 C 
ATOM     17  C   UNL A   1      38.448  29.998  28.217  1.00  0.00     0.029 A 
ATOM     18  N   UNL A   1      39.737  29.652  30.011  1.00  0.00    -0.354 N 
ATOM     19  C   UNL A   1      38.824  31.670  33.767  1.00  0.00     0.074 A 
ATOM     20  C   UNL A   1      37.652  32.506  33.629  1.00  0.00     0.031 C 
ATOM     21  C   UNL A   1      39.346  29.055  27.890  1.00  0.00     0.029 A 
ATOM     22  C   UNL A   1      40.224  28.820  29.033  1.00  0.00     0.049 A 
ATOM     23  H   UNL A   1      40.126  29.710  30.914  1.00  0.00     0.167 HD
ATOM     24  C   UNL A   1      39.519  31.506  34.917  1.00  0.00     0.037 A 
ATOM     25  C   UNL A   1      41.270  27.974  29.063  1.00  0.00     0.037 A 
ATOM     26  C   UNL A   1      40.688  30.678  35.033  1.00  0.00     0.049 A 
ATOM     27  C   UNL A   1      42.068  27.868  30.334  1.00  0.00     0.074 A 
ATOM     28  C   UNL A   1      41.510  30.485  36.126  1.00  0.00     0.029 A 
ATOM     29  N   UNL A   1      41.198  29.901  34.001  1.00  0.00    -0.354 N 
ATOM     30  N   UNL A   1      41.855  28.443  31.494  1.00  0.00    -0.248 NA
ATOM     31  C   UNL A   1      43.257  27.007  30.298  1.00  0.00     0.031 C 
ATOM     32  C   UNL A   1      42.540  29.615  35.747  1.00  0.00     0.029 A 
ATOM     33  C   UNL A   1      42.335  29.236  34.428  1.00  0.00     0.049 A 
ATOM     34  H   UNL A   1      40.809  29.832  33.100  1.00  0.00     0.167 HD
ATOM     35  C   UNL A   1      42.874  28.010  32.328  1.00  0.00     0.074 A 
ATOM     36  C   UNL A   1      43.693  27.103  31.547  1.00  0.00     0.031 C 
ATOM     37  C   UNL A   1      43.120  28.337  33.621  1.00  0.00     0.037 A 
BRANCH  24  38
ATOM     38  C   UNL A   1      39.051  32.287  36.107  1.00  0.00     0.064 A 
ATOM     39  C   UNL A   1      39.497  33.595  36.355  1.00  0.00     0.173 A 
ATOM     40  C   UNL A   1      38.175  31.704  37.034  1.00  0.00     0.173 A 
ATOM     41  F   UNL A   1      40.358  34.186  35.513  1.00  0.00    -0.203 F 
ATOM     42  C   UNL A   1      39.106  34.277  37.506  1.00  0.00     0.198 A 
ATOM     43  C   UNL A   1      37.769  32.398  38.171  1.00  0.00     0.198 A 
ATOM     44  F   UNL A   1      37.726  30.454  36.847  1.00  0.00    -0.203 F 
ATOM     45  F   UNL A   1      39.590  35.502  37.752  1.00  0.00    -0.200 F 
ATOM     46  C   UNL A   1      38.242  33.679  38.411  1.00  0.00     0.200 A 
ATOM     47  F   UNL A   1      36.934  31.819  39.045  1.00  0.00    -0.200 F 
ATOM     48  F   UNL A   1      37.879  34.331  39.524  1.00  0.00    -0.200 F 
ENDBRANCH  24  38
BRANCH  25  49
ATOM     49  C   UNL A   1      41.628  27.183  27.855  1.00  0.00     0.064 A 
ATOM     50  C   UNL A   1      42.503  27.693  26.886  1.00  0.00     0.173 A 
ATOM     51  C   UNL A   1      41.100  25.899  27.643  1.00  0.00     0.173 A 
ATOM     52  F   UNL A   1      43.016  28.924  27.030  1.00  0.00    -0.203 F 
ATOM     53  C   UNL A   1      42.826  26.957  25.748  1.00  0.00     0.198 A 
ATOM     54  C   UNL A   1      41.447  25.153  26.519  1.00  0.00     0.198 A 
ATOM     55  F   UNL A   1      40.255  25.364  28.536  1.00  0.00    -0.203 F 
ATOM     56  F   UNL A   1      43.634  27.486  24.817  1.00  0.00    -0.200 F 
ATOM     57  C   UNL A   1      42.304  25.685  25.568  1.00  0.00     0.200 A 
ATOM     58  F   UNL A   1      40.947  23.920  26.356  1.00  0.00    -0.200 F 
ATOM     59  F   UNL A   1      42.620  24.976  24.476  1.00  0.00    -0.200 F 
ENDBRANCH  25  49
BRANCH  37  60
ATOM     60  C   UNL A   1      44.311  27.695  34.265  1.00  0.00     0.064 A 
ATOM     61  C   UNL A   1      44.215  26.444  34.891  1.00  0.00     0.173 A 
ATOM     62  C   UNL A   1      45.566  28.319  34.218  1.00  0.00     0.173 A 
ATOM     63  F   UNL A   1      43.030  25.820  34.973  1.00  0.00    -0.203 F 
ATOM     64  C   UNL A   1      45.333  25.849  35.466  1.00  0.00     0.198 A 
ATOM     65  C   UNL A   1      46.685  27.709  34.774  1.00  0.00     0.198 A 
ATOM     66  F   UNL A   1      45.705  29.514  33.626  1.00  0.00    -0.203 F 
ATOM     67  F   UNL A   1      45.212  24.672  36.095  1.00  0.00    -0.200 F 
ATOM     68  C   UNL A   1      46.567  26.477  35.402  1.00  0.00     0.200 A 
ATOM     69  F   UNL A   1      47.880  28.313  34.703  1.00  0.00    -0.200 F 
ATOM     70  F   UNL A   1      47.643  25.900  35.952  1.00  0.00    -0.200 F 
ENDBRANCH  37  60
ENDBRANCH  11  12
ENDBRANCH   4   6
ENDBRANCH   3   4
ENDBRANCH   2   3
ENDBRANCH   1   2
BRANCH   1  71
ATOM     71  O   UNL A   1      31.144  30.277  25.302  1.00  0.00    -0.374 OA
BRANCH  71  72
ATOM     72  C   UNL A   1      31.794  29.207  24.602  1.00  0.00     0.202 C 
BRANCH  72  73
ATOM     73  C   UNL A   1      31.043  27.894  24.856  1.00  0.00     0.261 C 
BRANCH  73  74
ATOM     74  O   UNL A   1      31.520  27.329  26.087  1.00  0.00    -0.460 OA
BRANCH  74  75
ATOM     75  C   UNL A   1      31.248  25.999  26.230  1.00  0.00     0.339 C 
ATOM     76  O   UNL A   1      30.129  25.524  26.381  1.00  0.00    -0.246 OA
BRANCH  75  77
ATOM     77  C   UNL A   1      32.434  25.183  26.000  1.00  0.00     0.071 A 
ATOM     78  C   UNL A   1      33.708  25.685  25.804  1.00  0.00     0.081 A 
ATOM     79  C   UNL A   1      32.422  23.755  25.854  1.00  0.00     0.036 A 
ATOM     80  S   UNL A   1      34.840  24.471  25.398  1.00  0.00    -0.143 S 
ATOM     81  C   UNL A   1      33.648  23.249  25.477  1.00  0.00     0.037 A 
BRANCH  81  82
ATOM     82  C   UNL A   1      34.009  21.874  25.173  1.00  0.00     0.011 A 
ATOM     83  C   UNL A   1      35.319  21.423  25.272  1.00  0.00     0.121 A 
ATOM     84  C   UNL A   1      33.045  20.960  24.761  1.00  0.00     0.021 A 
ATOM     85  N   UNL A   1      35.711  20.154  25.005  1.00  0.00    -0.256 NA
ATOM     86  C   UNL A   1      33.408  19.636  24.492  1.00  0.00     0.001 A 
ATOM     87  C   UNL A   1      34.766  19.272  24.630  1.00  0.00     0.070 A 
ATOM     88  C   UNL A   1      32.452  18.684  24.103  1.00  0.00     0.010 A 
ATOM     89  C   UNL A   1      35.118  17.955  24.372  1.00  0.00     0.029 A 
ATOM     90  C   UNL A   1      32.832  17.368  23.856  1.00  0.00     0.001 A 
ATOM     91  C   UNL A   1      34.167  17.002  23.991  1.00  0.00     0.002 A 
ENDBRANCH  81  82
ENDBRANCH  75  77
ENDBRANCH  74  75
ENDBRANCH  73  74
ENDBRANCH  72  73
ENDBRANCH  71  72
ENDBRANCH   1  71
TORSDOF 15
ENDMDL
MODEL 3
REMARK VINA RESULT:     -11.3      3.728      6.472
REMARK SMILES O=C(OCCOCCOC(=O)c1csc(-c2cnc3ccccc3c2)c1)c1ccc(-c2c3nc(c(-c4c(F)c(F)c(F)c(F)c4F)c4ccc([nH]4)c(-c4c(F)c(F)c(F)c(F)c4F)c4nc(c(-c5c(F)c(F)c(F)c(F)c5F)c5ccc2[nH]5)C=C4)C=C3)cc1
REMARK SMILES IDX 5 1 4 2 3 3 2 4 1 5 27 6 28 7 89 8 29 9 88 10 30 11 31 12
REMARK SMILES IDX 32 13 82 14 33 15 87 16 81 17 83 18 34 19 86 20 80 21 79 22
REMARK SMILES IDX 35 24 67 25 47 26 66 27 48 28 51 29 65 30 84 31 49 32 50 33
REMARK SMILES IDX 64 35 85 36 52 37 36 38 37 39 45 40 38 41 39 42 43 43 46 44
REMARK SMILES IDX 40 45 41 46 44 47 42 48 68 49 69 50 77 51 70 52 71 53 75 54
REMARK SMILES IDX 78 55 72 56 73 57 76 58 74 59 53 60 54 61 62 62 55 63 56 64
REMARK SMILES IDX 60 65 63 66 57 67 58 68 61 69 59 70 6 71 7 72 8 73 9 74
REMARK SMILES IDX 10 75 11 76 12 77 13 78 26 79 14 80 15 81 16 82 17 83 25 84
REMARK SMILES IDX 18 85 24 86 19 87 23 88 20 89 22 90 21 91
REMARK H PARENT 83 23 51 34
REMARK Flexibility Score: inf
ROOT
ATOM      1  C   UNL A   1      31.319  29.340  24.676  1.00  0.00     0.202 C 
ENDROOT
BRANCH   1   2
ATOM      2  C   UNL A   1      32.090  29.172  25.988  1.00  0.00     0.261 C 
BRANCH   2   3
ATOM      3  O   UNL A   1      33.223  30.060  26.013  1.00  0.00    -0.460 OA
BRANCH   3   4
ATOM      4  C   UNL A   1      33.620  30.908  26.987  1.00  0.00     0.338 C 
ATOM      5  O   UNL A   1      32.857  31.812  27.325  1.00  0.00    -0.246 OA
BRANCH   4   6
ATOM      6  C   UNL A   1      34.935  30.814  27.694  1.00  0.00     0.060 A 
ATOM      7  C   UNL A   1      35.802  31.883  27.928  1.00  0.00     0.016 A 
ATOM      8  C   UNL A   1      35.269  29.564  28.246  1.00  0.00     0.016 A 
ATOM      9  C   UNL A   1      37.000  31.707  28.609  1.00  0.00     0.010 A 
ATOM     10  C   UNL A   1      36.448  29.389  28.980  1.00  0.00     0.010 A 
ATOM     11  C   UNL A   1      37.330  30.461  29.142  1.00  0.00    -0.014 A 
BRANCH  11  12
ATOM     12  C   UNL A   1      38.638  30.304  29.808  1.00  0.00     0.031 A 
ATOM     13  C   UNL A   1      38.814  30.842  31.195  1.00  0.00     0.074 A 
ATOM     14  C   UNL A   1      39.603  29.582  29.211  1.00  0.00     0.049 A 
ATOM     15  N   UNL A   1      39.858  30.783  31.980  1.00  0.00    -0.248 NA
ATOM     16  C   UNL A   1      37.652  31.524  31.784  1.00  0.00     0.031 C 
ATOM     17  C   UNL A   1      39.486  28.949  27.895  1.00  0.00     0.029 A 
ATOM     18  N   UNL A   1      40.852  29.225  29.644  1.00  0.00    -0.354 N 
ATOM     19  C   UNL A   1      39.483  31.429  33.148  1.00  0.00     0.074 A 
ATOM     20  C   UNL A   1      38.122  31.886  32.968  1.00  0.00     0.031 C 
ATOM     21  C   UNL A   1      40.605  28.250  27.645  1.00  0.00     0.029 A 
ATOM     22  C   UNL A   1      41.533  28.427  28.757  1.00  0.00     0.049 A 
ATOM     23  H   UNL A   1      41.226  29.514  30.508  1.00  0.00     0.167 HD
ATOM     24  C   UNL A   1      40.216  31.625  34.269  1.00  0.00     0.037 A 
ATOM     25  C   UNL A   1      42.773  27.911  28.839  1.00  0.00     0.037 A 
ATOM     26  C   UNL A   1      41.571  31.171  34.426  1.00  0.00     0.049 A 
ATOM     27  C   UNL A   1      43.591  28.207  30.066  1.00  0.00     0.074 A 
ATOM     28  C   UNL A   1      42.434  31.366  35.488  1.00  0.00     0.029 A 
ATOM     29  N   UNL A   1      42.258  30.424  33.478  1.00  0.00    -0.354 N 
ATOM     30  N   UNL A   1      43.248  28.861  31.151  1.00  0.00    -0.248 NA
ATOM     31  C   UNL A   1      44.972  27.706  30.077  1.00  0.00     0.031 C 
ATOM     32  C   UNL A   1      43.657  30.764  35.168  1.00  0.00     0.029 A 
ATOM     33  C   UNL A   1      43.542  30.161  33.924  1.00  0.00     0.049 A 
ATOM     34  H   UNL A   1      41.887  30.125  32.617  1.00  0.00     0.167 HD
ATOM     35  C   UNL A   1      44.362  28.844  31.977  1.00  0.00     0.074 A 
ATOM     36  C   UNL A   1      45.386  28.093  31.276  1.00  0.00     0.031 C 
ATOM     37  C   UNL A   1      44.531  29.405  33.199  1.00  0.00     0.037 A 
BRANCH  24  38
ATOM     38  C   UNL A   1      39.571  32.410  35.371  1.00  0.00     0.064 A 
ATOM     39  C   UNL A   1      39.757  33.795  35.499  1.00  0.00     0.173 A 
ATOM     40  C   UNL A   1      38.789  31.759  36.336  1.00  0.00     0.173 A 
ATOM     41  F   UNL A   1      40.521  34.458  34.617  1.00  0.00    -0.203 F 
ATOM     42  C   UNL A   1      39.208  34.494  36.572  1.00  0.00     0.198 A 
ATOM     43  C   UNL A   1      38.223  32.465  37.394  1.00  0.00     0.198 A 
ATOM     44  F   UNL A   1      38.586  30.435  36.263  1.00  0.00    -0.203 F 
ATOM     45  F   UNL A   1      39.447  35.805  36.707  1.00  0.00    -0.200 F 
ATOM     46  C   UNL A   1      38.440  33.829  37.516  1.00  0.00     0.200 A 
ATOM     47  F   UNL A   1      37.481  31.822  38.307  1.00  0.00    -0.200 F 
ATOM     48  F   UNL A   1      37.925  34.500  38.556  1.00  0.00    -0.200 F 
ENDBRANCH  24  38
BRANCH  25  49
ATOM     49  C   UNL A   1      43.315  27.084  27.728  1.00  0.00     0.064 A 
ATOM     50  C   UNL A   1      43.198  25.687  27.739  1.00  0.00     0.173 A 
ATOM     51  C   UNL A   1      43.965  27.673  26.632  1.00  0.00     0.173 A 
ATOM     52  F   UNL A   1      42.606  25.074  28.774  1.00  0.00    -0.203 F 
ATOM     53  C   UNL A   1      43.718  24.912  26.704  1.00  0.00     0.198 A 
ATOM     54  C   UNL A   1      44.459  26.899  25.584  1.00  0.00     0.198 A 
ATOM     55  F   UNL A   1      44.108  29.005  26.572  1.00  0.00    -0.203 F 
ATOM     56  F   UNL A   1      43.628  23.576  26.760  1.00  0.00    -0.200 F 
ATOM     57  C   UNL A   1      44.342  25.519  25.624  1.00  0.00     0.200 A 
ATOM     58  F   UNL A   1      45.052  27.491  24.538  1.00  0.00    -0.200 F 
ATOM     59  F   UNL A   1      44.837  24.773  24.628  1.00  0.00    -0.200 F 
ENDBRANCH  25  49
BRANCH  37  60
ATOM     60  C   UNL A   1      45.864  29.209  33.853  1.00  0.00     0.064 A 
ATOM     61  C   UNL A   1      46.911  30.123  33.666  1.00  0.00     0.173 A 
ATOM     62  C   UNL A   1      46.082  28.117  34.707  1.00  0.00     0.173 A 
ATOM     63  F   UNL A   1      46.751  31.171  32.845  1.00  0.00    -0.203 F 
ATOM     64  C   UNL A   1      48.137  29.940  34.297  1.00  0.00     0.198 A 
ATOM     65  C   UNL A   1      47.301  27.952  35.354  1.00  0.00     0.198 A 
ATOM     66  F   UNL A   1      45.108  27.220  34.919  1.00  0.00    -0.203 F 
ATOM     67  F   UNL A   1      49.137  30.804  34.074  1.00  0.00    -0.200 F 
ATOM     68  C   UNL A   1      48.329  28.860  35.145  1.00  0.00     0.200 A 
ATOM     69  F   UNL A   1      47.484  26.912  36.180  1.00  0.00    -0.200 F 
ATOM     70  F   UNL A   1      49.510  28.688  35.755  1.00  0.00    -0.200 F 
ENDBRANCH  37  60
ENDBRANCH  11  12
ENDBRANCH   4   6
ENDBRANCH   3   4
ENDBRANCH   2   3
ENDBRANCH   1   2
BRANCH   1  71
ATOM     71  O   UNL A   1      32.074  28.996  23.511  1.00  0.00    -0.374 OA
BRANCH  71  72
ATOM     72  C   UNL A   1      31.546  27.911  22.736  1.00  0.00     0.202 C 
BRANCH  72  73
ATOM     73  C   UNL A   1      32.071  26.580  23.288  1.00  0.00     0.261 C 
BRANCH  73  74
ATOM     74  O   UNL A   1      31.689  25.532  22.384  1.00  0.00    -0.460 OA
BRANCH  74  75
ATOM     75  C   UNL A   1      32.739  24.945  21.739  1.00  0.00     0.339 C 
ATOM     76  O   UNL A   1      33.209  25.324  20.673  1.00  0.00    -0.246 OA
BRANCH  75  77
ATOM     77  C   UNL A   1      33.361  23.913  22.560  1.00  0.00     0.071 A 
ATOM     78  C   UNL A   1      32.701  22.810  23.069  1.00  0.00     0.081 A 
ATOM     79  C   UNL A   1      34.719  23.953  23.025  1.00  0.00     0.036 A 
ATOM     80  S   UNL A   1      33.678  21.887  24.125  1.00  0.00    -0.143 S 
ATOM     81  C   UNL A   1      35.004  22.944  23.920  1.00  0.00     0.037 A 
BRANCH  81  82
ATOM     82  C   UNL A   1      36.238  22.697  24.648  1.00  0.00     0.011 A 
ATOM     83  C   UNL A   1      36.878  21.466  24.606  1.00  0.00     0.121 A 
ATOM     84  C   UNL A   1      36.817  23.695  25.426  1.00  0.00     0.021 A 
ATOM     85  N   UNL A   1      38.030  21.181  25.260  1.00  0.00    -0.256 NA
ATOM     86  C   UNL A   1      38.015  23.444  26.104  1.00  0.00     0.001 A 
ATOM     87  C   UNL A   1      38.594  22.161  25.990  1.00  0.00     0.070 A 
ATOM     88  C   UNL A   1      38.639  24.441  26.872  1.00  0.00     0.010 A 
ATOM     89  C   UNL A   1      39.788  21.922  26.656  1.00  0.00     0.029 A 
ATOM     90  C   UNL A   1      39.839  24.176  27.524  1.00  0.00     0.001 A 
ATOM     91  C   UNL A   1      40.416  22.915  27.416  1.00  0.00     0.002 A 
ENDBRANCH  81  82
ENDBRANCH  75  77
ENDBRANCH  74  75
ENDBRANCH  73  74
ENDBRANCH  72  73
ENDBRANCH  71  72
ENDBRANCH   1  71
TORSDOF 15
ENDMDL
