MODEL 1
REMARK VINA RESULT:     -11.7      0.000      0.000
REMARK SMILES CSc1ccc(CNc2ccc(N3CCOCC3)c(C(=O)OCCOCCOC(=O)c3ccc(-c4c5nc(c(-c6c(F)c(F)c(F)c(F)c6F)c6ccc([nH]6)c(-c6c(F)c(F)c(F)c(F)c6F)c6nc(c(-c7c(F)c(F)c(F)c(F)c7F)c7ccc4[nH]7)C=C6)C=C5)cc3)c2)cc1
REMARK SMILES IDX 24 1 23 2 22 3 20 4 21 5 19 6 9 7 10 8 94 9 11 10 12 11 8 12
REMARK SMILES IDX 7 14 6 15 3 16 4 17 96 18 5 19 95 20 2 21 1 22 13 23 14 24
REMARK SMILES IDX 18 25 15 26 17 27 16 28 25 29 26 30 27 31 28 32 29 33 30 34
REMARK SMILES IDX 31 35 32 36 93 37 33 38 92 39 34 40 35 41 36 42 86 43 37 44
REMARK SMILES IDX 91 45 85 46 87 47 38 48 90 49 84 50 83 51 39 53 71 54 51 55
REMARK SMILES IDX 70 56 52 57 55 58 69 59 88 60 53 61 54 62 68 64 89 65 56 66
REMARK SMILES IDX 40 67 41 68 49 69 42 70 43 71 47 72 50 73 44 74 45 75 48 76
REMARK SMILES IDX 46 77 72 78 73 79 81 80 74 81 75 82 79 83 82 84 76 85 77 86
REMARK SMILES IDX 80 87 78 88 57 89 58 90 66 91 59 92 60 93 64 94 67 95 61 96
REMARK SMILES IDX 62 97 65 98 63 99
REMARK H PARENT 8 13 87 52 55 63
REMARK Flexibility Score: inf
ROOT
ATOM      1  C   UNL A   1      37.176  23.169  25.565  1.00  0.00     0.202 C 
ENDROOT
BRANCH   1   2
ATOM      2  C   UNL A   1      35.773  22.895  26.111  1.00  0.00     0.261 C 
BRANCH   2   3
ATOM      3  O   UNL A   1      35.363  21.568  25.745  1.00  0.00    -0.460 OA
BRANCH   3   4
ATOM      4  C   UNL A   1      34.087  21.247  26.068  1.00  0.00     0.340 C 
ATOM      5  O   UNL A   1      33.644  21.077  27.196  1.00  0.00    -0.246 OA
BRANCH   4   6
ATOM      6  C   UNL A   1      33.296  21.167  24.826  1.00  0.00     0.085 A 
ATOM      7  C   UNL A   1      32.201  22.402  23.032  1.00  0.00     0.035 A 
ATOM      8  C   UNL A   1      31.917  21.172  22.429  1.00  0.00     0.028 A 
ATOM      9  C   UNL A   1      32.867  22.377  24.255  1.00  0.00     0.043 A 
ATOM     10  C   UNL A   1      32.316  19.959  23.010  1.00  0.00     0.029 A 
ATOM     11  C   UNL A   1      33.023  19.929  24.214  1.00  0.00     0.052 A 
BRANCH   7  12
ATOM     12  N   UNL A   1      31.855  23.569  22.380  1.00  0.00    -0.381 N 
ATOM     13  H   UNL A   1      30.953  23.628  21.991  1.00  0.00     0.160 HD
BRANCH  12  14
ATOM     14  C   UNL A   1      32.733  24.717  22.230  1.00  0.00     0.148 C 
BRANCH  14  15
ATOM     15  C   UNL A   1      32.546  25.674  23.386  1.00  0.00    -0.029 A 
ATOM     16  C   UNL A   1      32.205  27.353  25.628  1.00  0.00     0.007 A 
ATOM     17  C   UNL A   1      33.485  27.088  25.132  1.00  0.00     0.015 A 
ATOM     18  C   UNL A   1      31.100  26.765  25.008  1.00  0.00     0.015 A 
ATOM     19  C   UNL A   1      33.653  26.255  24.023  1.00  0.00     0.007 A 
ATOM     20  C   UNL A   1      31.267  25.935  23.894  1.00  0.00     0.007 A 
BRANCH  16  21
ATOM     21  S   UNL A   1      32.037  28.369  27.084  1.00  0.00    -0.130 SA
ATOM     22  C   UNL A   1      33.734  28.981  27.251  1.00  0.00     0.091 C 
ENDBRANCH  16  21
ENDBRANCH  14  15
ENDBRANCH  12  14
ENDBRANCH   7  12
BRANCH  11  23
ATOM     23  N   UNL A   1      33.416  18.726  24.745  1.00  0.00    -0.366 N 
ATOM     24  C   UNL A   1      34.716  18.123  24.469  1.00  0.00     0.145 C 
ATOM     25  C   UNL A   1      32.604  18.039  25.751  1.00  0.00     0.145 C 
ATOM     26  C   UNL A   1      34.491  16.646  24.104  1.00  0.00     0.181 C 
ATOM     27  C   UNL A   1      32.528  16.536  25.419  1.00  0.00     0.181 C 
ATOM     28  O   UNL A   1      33.828  15.959  25.183  1.00  0.00    -0.378 OA
ENDBRANCH  11  23
ENDBRANCH   4   6
ENDBRANCH   3   4
ENDBRANCH   2   3
ENDBRANCH   1   2
BRANCH   1  29
ATOM     29  O   UNL A   1      37.913  22.032  25.104  1.00  0.00    -0.374 OA
BRANCH  29  30
ATOM     30  C   UNL A   1      38.961  21.549  25.940  1.00  0.00     0.202 C 
BRANCH  30  31
ATOM     31  C   UNL A   1      39.439  20.108  25.737  1.00  0.00     0.261 C 
BRANCH  31  32
ATOM     32  O   UNL A   1      40.332  19.660  26.757  1.00  0.00    -0.460 OA
BRANCH  32  33
ATOM     33  C   UNL A   1      41.608  19.506  26.336  1.00  0.00     0.338 C 
ATOM     34  O   UNL A   1      42.094  18.547  25.750  1.00  0.00    -0.246 OA
BRANCH  33  35
ATOM     35  C   UNL A   1      42.335  20.763  26.545  1.00  0.00     0.060 A 
ATOM     36  C   UNL A   1      42.439  21.242  27.855  1.00  0.00     0.016 A 
ATOM     37  C   UNL A   1      42.881  21.473  25.473  1.00  0.00     0.016 A 
ATOM     38  C   UNL A   1      43.054  22.464  28.097  1.00  0.00     0.010 A 
ATOM     39  C   UNL A   1      43.488  22.705  25.715  1.00  0.00     0.010 A 
ATOM     40  C   UNL A   1      43.546  23.218  27.023  1.00  0.00    -0.014 A 
BRANCH  40  41
ATOM     41  C   UNL A   1      43.975  24.613  27.253  1.00  0.00     0.031 A 
ATOM     42  C   UNL A   1      42.949  25.613  27.700  1.00  0.00     0.074 A 
ATOM     43  C   UNL A   1      45.258  24.969  27.080  1.00  0.00     0.049 A 
ATOM     44  N   UNL A   1      43.083  26.894  27.930  1.00  0.00    -0.248 NA
ATOM     45  C   UNL A   1      41.586  25.101  27.914  1.00  0.00     0.031 C 
ATOM     46  C   UNL A   1      46.337  24.069  26.675  1.00  0.00     0.029 A 
ATOM     47  N   UNL A   1      45.869  26.189  27.216  1.00  0.00    -0.354 N 
ATOM     48  C   UNL A   1      41.824  27.340  28.306  1.00  0.00     0.074 A 
ATOM     49  C   UNL A   1      40.931  26.204  28.247  1.00  0.00     0.031 C 
ATOM     50  C   UNL A   1      47.477  24.772  26.580  1.00  0.00     0.029 A 
ATOM     51  C   UNL A   1      47.202  26.174  26.890  1.00  0.00     0.049 A 
ATOM     52  H   UNL A   1      45.397  26.998  27.518  1.00  0.00     0.167 HD
ATOM     53  C   UNL A   1      41.451  28.588  28.674  1.00  0.00     0.037 A 
ATOM     54  C   UNL A   1      48.087  27.186  26.829  1.00  0.00     0.037 A 
ATOM     55  C   UNL A   1      42.349  29.709  28.734  1.00  0.00     0.049 A 
ATOM     56  C   UNL A   1      47.634  28.575  27.196  1.00  0.00     0.074 A 
ATOM     57  C   UNL A   1      42.084  31.010  29.125  1.00  0.00     0.029 A 
ATOM     58  N   UNL A   1      43.691  29.662  28.383  1.00  0.00    -0.354 N 
ATOM     59  N   UNL A   1      46.451  28.986  27.588  1.00  0.00    -0.248 NA
ATOM     60  C   UNL A   1      48.641  29.643  27.119  1.00  0.00     0.031 C 
ATOM     61  C   UNL A   1      43.252  31.761  28.959  1.00  0.00     0.029 A 
ATOM     62  C   UNL A   1      44.260  30.917  28.521  1.00  0.00     0.049 A 
ATOM     63  H   UNL A   1      44.168  28.855  28.082  1.00  0.00     0.167 HD
ATOM     64  C   UNL A   1      46.577  30.347  27.830  1.00  0.00     0.074 A 
ATOM     65  C   UNL A   1      47.957  30.692  27.554  1.00  0.00     0.031 C 
ATOM     66  C   UNL A   1      45.639  31.233  28.245  1.00  0.00     0.037 A 
BRANCH  53  67
ATOM     67  C   UNL A   1      40.007  28.811  29.012  1.00  0.00     0.064 A 
ATOM     68  C   UNL A   1      39.523  28.674  30.322  1.00  0.00     0.173 A 
ATOM     69  C   UNL A   1      39.099  29.199  28.015  1.00  0.00     0.173 A 
ATOM     70  F   UNL A   1      40.346  28.289  31.308  1.00  0.00    -0.203 F 
ATOM     71  C   UNL A   1      38.180  28.896  30.616  1.00  0.00     0.198 A 
ATOM     72  C   UNL A   1      37.764  29.447  28.317  1.00  0.00     0.198 A 
ATOM     73  F   UNL A   1      39.510  29.343  26.746  1.00  0.00    -0.203 F 
ATOM     74  F   UNL A   1      37.731  28.716  31.866  1.00  0.00    -0.200 F 
ATOM     75  C   UNL A   1      37.303  29.289  29.616  1.00  0.00     0.200 A 
ATOM     76  F   UNL A   1      36.920  29.837  27.352  1.00  0.00    -0.200 F 
ATOM     77  F   UNL A   1      36.013  29.510  29.903  1.00  0.00    -0.200 F 
ENDBRANCH  53  67
BRANCH  54  78
ATOM     78  C   UNL A   1      49.483  26.926  26.392  1.00  0.00     0.064 A 
ATOM     79  C   UNL A   1      49.842  26.982  25.038  1.00  0.00     0.173 A 
ATOM     80  C   UNL A   1      50.484  26.601  27.319  1.00  0.00     0.173 A 
ATOM     81  F   UNL A   1      48.915  27.265  24.111  1.00  0.00    -0.203 F 
ATOM     82  C   UNL A   1      51.144  26.702  24.626  1.00  0.00     0.198 A 
ATOM     83  C   UNL A   1      51.793  26.350  26.909  1.00  0.00     0.198 A 
ATOM     84  F   UNL A   1      50.194  26.534  28.627  1.00  0.00    -0.203 F 
ATOM     85  F   UNL A   1      51.448  26.715  23.321  1.00  0.00    -0.200 F 
ATOM     86  C   UNL A   1      52.119  26.393  25.562  1.00  0.00     0.200 A 
ATOM     87  F   UNL A   1      52.734  26.064  27.818  1.00  0.00    -0.200 F 
ATOM     88  F   UNL A   1      53.371  26.126  25.165  1.00  0.00    -0.200 F 
ENDBRANCH  54  78
BRANCH  66  89
ATOM     89  C   UNL A   1      46.079  32.653  28.459  1.00  0.00     0.064 A 
ATOM     90  C   UNL A   1      46.603  33.085  29.686  1.00  0.00     0.173 A 
ATOM     91  C   UNL A   1      46.019  33.579  27.407  1.00  0.00     0.173 A 
ATOM     92  F   UNL A   1      46.668  32.239  30.727  1.00  0.00    -0.203 F 
ATOM     93  C   UNL A   1      47.027  34.398  29.859  1.00  0.00     0.198 A 
ATOM     94  C   UNL A   1      46.472  34.884  27.575  1.00  0.00     0.198 A 
ATOM     95  F   UNL A   1      45.534  33.214  26.210  1.00  0.00    -0.203 F 
ATOM     96  F   UNL A   1      47.480  34.802  31.055  1.00  0.00    -0.200 F 
ATOM     97  C   UNL A   1      46.969  35.295  28.802  1.00  0.00     0.200 A 
ATOM     98  F   UNL A   1      46.431  35.744  26.547  1.00  0.00    -0.200 F 
ATOM     99  F   UNL A   1      47.386  36.557  28.969  1.00  0.00    -0.200 F 
ENDBRANCH  66  89
ENDBRANCH  40  41
ENDBRANCH  33  35
ENDBRANCH  32  33
ENDBRANCH  31  32
ENDBRANCH  30  31
ENDBRANCH  29  30
ENDBRANCH   1  29
TORSDOF 19
ENDMDL
MODEL 2
REMARK VINA RESULT:     -11.7      5.766     10.017
REMARK SMILES CSc1ccc(CNc2ccc(N3CCOCC3)c(C(=O)OCCOCCOC(=O)c3ccc(-c4c5nc(c(-c6c(F)c(F)c(F)c(F)c6F)c6ccc([nH]6)c(-c6c(F)c(F)c(F)c(F)c6F)c6nc(c(-c7c(F)c(F)c(F)c(F)c7F)c7ccc4[nH]7)C=C6)C=C5)cc3)c2)cc1
REMARK SMILES IDX 24 1 23 2 22 3 20 4 21 5 19 6 9 7 10 8 94 9 11 10 12 11 8 12
REMARK SMILES IDX 7 14 6 15 3 16 4 17 96 18 5 19 95 20 2 21 1 22 13 23 14 24
REMARK SMILES IDX 18 25 15 26 17 27 16 28 25 29 26 30 27 31 28 32 29 33 30 34
REMARK SMILES IDX 31 35 32 36 93 37 33 38 92 39 34 40 35 41 36 42 86 43 37 44
REMARK SMILES IDX 91 45 85 46 87 47 38 48 90 49 84 50 83 51 39 53 71 54 51 55
REMARK SMILES IDX 70 56 52 57 55 58 69 59 88 60 53 61 54 62 68 64 89 65 56 66
REMARK SMILES IDX 40 67 41 68 49 69 42 70 43 71 47 72 50 73 44 74 45 75 48 76
REMARK SMILES IDX 46 77 72 78 73 79 81 80 74 81 75 82 79 83 82 84 76 85 77 86
REMARK SMILES IDX 80 87 78 88 57 89 58 90 66 91 59 92 60 93 64 94 67 95 61 96
REMARK SMILES IDX 62 97 65 98 63 99
REMARK H PARENT 8 13 87 52 55 63
REMARK Flexibility Score: inf
ROOT
ATOM      1  C   UNL A   1      33.273  30.591  26.780  1.00  0.00     0.202 C 
ENDROOT
BRANCH   1   2
ATOM      2  C   UNL A   1      33.255  29.556  25.653  1.00  0.00     0.261 C 
BRANCH   2   3
ATOM      3  O   UNL A   1      32.033  29.677  24.907  1.00  0.00    -0.460 OA
BRANCH   3   4
ATOM      4  C   UNL A   1      32.001  28.996  23.735  1.00  0.00     0.340 C 
ATOM      5  O   UNL A   1      32.810  29.085  22.822  1.00  0.00    -0.246 OA
BRANCH   4   6
ATOM      6  C   UNL A   1      30.834  28.094  23.751  1.00  0.00     0.085 A 
ATOM      7  C   UNL A   1      29.987  25.880  24.316  1.00  0.00     0.035 A 
ATOM      8  C   UNL A   1      28.713  26.331  23.953  1.00  0.00     0.028 A 
ATOM      9  C   UNL A   1      31.047  26.772  24.176  1.00  0.00     0.043 A 
ATOM     10  C   UNL A   1      28.500  27.641  23.498  1.00  0.00     0.029 A 
ATOM     11  C   UNL A   1      29.552  28.555  23.398  1.00  0.00     0.052 A 
BRANCH   7  12
ATOM     12  N   UNL A   1      30.129  24.607  24.832  1.00  0.00    -0.381 N 
ATOM     13  H   UNL A   1      29.820  23.851  24.282  1.00  0.00     0.160 HD
BRANCH  12  14
ATOM     14  C   UNL A   1      30.707  24.306  26.131  1.00  0.00     0.148 C 
BRANCH  14  15
ATOM     15  C   UNL A   1      32.035  23.602  25.964  1.00  0.00    -0.029 A 
ATOM     16  C   UNL A   1      34.513  22.328  25.521  1.00  0.00     0.007 A 
ATOM     17  C   UNL A   1      34.469  23.654  25.960  1.00  0.00     0.015 A 
ATOM     18  C   UNL A   1      33.315  21.647  25.292  1.00  0.00     0.015 A 
ATOM     19  C   UNL A   1      33.241  24.285  26.177  1.00  0.00     0.007 A 
ATOM     20  C   UNL A   1      32.085  22.277  25.514  1.00  0.00     0.007 A 
BRANCH  16  21
ATOM     21  S   UNL A   1      36.098  21.579  25.194  1.00  0.00    -0.130 SA
ATOM     22  C   UNL A   1      36.644  22.576  23.784  1.00  0.00     0.091 C 
ENDBRANCH  16  21
ENDBRANCH  14  15
ENDBRANCH  12  14
ENDBRANCH   7  12
BRANCH  11  23
ATOM     23  N   UNL A   1      29.305  29.835  22.968  1.00  0.00    -0.366 N 
ATOM     24  C   UNL A   1      29.051  30.943  23.882  1.00  0.00     0.145 C 
ATOM     25  C   UNL A   1      29.433  30.199  21.556  1.00  0.00     0.145 C 
ATOM     26  C   UNL A   1      27.812  31.704  23.379  1.00  0.00     0.181 C 
ATOM     27  C   UNL A   1      28.240  31.080  21.137  1.00  0.00     0.181 C 
ATOM     28  O   UNL A   1      28.031  32.186  22.038  1.00  0.00    -0.378 OA
ENDBRANCH  11  23
ENDBRANCH   4   6
ENDBRANCH   3   4
ENDBRANCH   2   3
ENDBRANCH   1   2
BRANCH   1  29
ATOM     29  O   UNL A   1      32.000  31.018  27.273  1.00  0.00    -0.374 OA
BRANCH  29  30
ATOM     30  C   UNL A   1      31.499  32.265  26.797  1.00  0.00     0.202 C 
BRANCH  30  31
ATOM     31  C   UNL A   1      32.348  33.518  27.032  1.00  0.00     0.261 C 
BRANCH  31  32
ATOM     32  O   UNL A   1      32.443  33.885  28.409  1.00  0.00    -0.460 OA
BRANCH  32  33
ATOM     33  C   UNL A   1      33.510  34.666  28.693  1.00  0.00     0.338 C 
ATOM     34  O   UNL A   1      33.542  35.886  28.792  1.00  0.00    -0.246 OA
BRANCH  33  35
ATOM     35  C   UNL A   1      34.651  33.809  29.035  1.00  0.00     0.060 A 
ATOM     36  C   UNL A   1      34.382  32.605  29.697  1.00  0.00     0.016 A 
ATOM     37  C   UNL A   1      35.961  34.191  28.739  1.00  0.00     0.016 A 
ATOM     38  C   UNL A   1      35.433  31.793  30.107  1.00  0.00     0.010 A 
ATOM     39  C   UNL A   1      37.015  33.382  29.161  1.00  0.00     0.010 A 
ATOM     40  C   UNL A   1      36.754  32.199  29.875  1.00  0.00    -0.014 A 
BRANCH  40  41
ATOM     41  C   UNL A   1      37.861  31.464  30.520  1.00  0.00     0.031 A 
ATOM     42  C   UNL A   1      38.215  31.805  31.939  1.00  0.00     0.074 A 
ATOM     43  C   UNL A   1      38.522  30.504  29.855  1.00  0.00     0.049 A 
ATOM     44  N   UNL A   1      39.165  31.322  32.697  1.00  0.00    -0.248 NA
ATOM     45  C   UNL A   1      37.388  32.833  32.591  1.00  0.00     0.031 C 
ATOM     46  C   UNL A   1      38.239  30.078  28.486  1.00  0.00     0.029 A 
ATOM     47  N   UNL A   1      39.576  29.717  30.243  1.00  0.00    -0.354 N 
ATOM     48  C   UNL A   1      39.055  31.991  33.908  1.00  0.00     0.074 A 
ATOM     49  C   UNL A   1      37.966  32.934  33.779  1.00  0.00     0.031 C 
ATOM     50  C   UNL A   1      39.111  29.116  28.140  1.00  0.00     0.029 A 
ATOM     51  C   UNL A   1      40.028  28.880  29.254  1.00  0.00     0.049 A 
ATOM     52  H   UNL A   1      39.972  29.751  31.143  1.00  0.00     0.167 HD
ATOM     53  C   UNL A   1      39.794  31.825  35.029  1.00  0.00     0.037 A 
ATOM     54  C   UNL A   1      41.078  28.037  29.249  1.00  0.00     0.037 A 
ATOM     55  C   UNL A   1      40.871  30.879  35.148  1.00  0.00     0.049 A 
ATOM     56  C   UNL A   1      41.916  27.907  30.494  1.00  0.00     0.074 A 
ATOM     57  C   UNL A   1      41.664  30.605  36.248  1.00  0.00     0.029 A 
ATOM     58  N   UNL A   1      41.311  30.055  34.121  1.00  0.00    -0.354 N 
ATOM     59  N   UNL A   1      41.784  28.514  31.650  1.00  0.00    -0.248 NA
ATOM     60  C   UNL A   1      43.046  26.970  30.438  1.00  0.00     0.031 C 
ATOM     61  C   UNL A   1      42.619  29.656  35.871  1.00  0.00     0.029 A 
ATOM     62  C   UNL A   1      42.384  29.294  34.553  1.00  0.00     0.049 A 
ATOM     63  H   UNL A   1      40.918  30.017  33.219  1.00  0.00     0.167 HD
ATOM     64  C   UNL A   1      42.792  28.015  32.464  1.00  0.00     0.074 A 
ATOM     65  C   UNL A   1      43.520  27.043  31.674  1.00  0.00     0.031 C 
ATOM     66  C   UNL A   1      43.089  28.328  33.749  1.00  0.00     0.037 A 
BRANCH  53  67
ATOM     67  C   UNL A   1      39.482  32.702  36.205  1.00  0.00     0.064 A 
ATOM     68  C   UNL A   1      40.159  33.910  36.428  1.00  0.00     0.173 A 
ATOM     69  C   UNL A   1      38.466  32.343  37.104  1.00  0.00     0.173 A 
ATOM     70  F   UNL A   1      41.149  34.290  35.607  1.00  0.00    -0.203 F 
ATOM     71  C   UNL A   1      39.846  34.715  37.521  1.00  0.00     0.198 A 
ATOM     72  C   UNL A   1      38.137  33.164  38.179  1.00  0.00     0.198 A 
ATOM     73  F   UNL A   1      37.788  31.198  36.937  1.00  0.00    -0.203 F 
ATOM     74  F   UNL A   1      40.536  35.843  37.739  1.00  0.00    -0.200 F 
ATOM     75  C   UNL A   1      38.831  34.346  38.390  1.00  0.00     0.200 A 
ATOM     76  F   UNL A   1      37.149  32.811  39.013  1.00  0.00    -0.200 F 
ATOM     77  F   UNL A   1      38.526  35.126  39.436  1.00  0.00    -0.200 F 
ENDBRANCH  53  67
BRANCH  54  78
ATOM     78  C   UNL A   1      41.403  27.264  28.022  1.00  0.00     0.064 A 
ATOM     79  C   UNL A   1      40.894  25.974  27.822  1.00  0.00     0.173 A 
ATOM     80  C   UNL A   1      42.244  27.794  27.033  1.00  0.00     0.173 A 
ATOM     81  F   UNL A   1      40.105  25.414  28.750  1.00  0.00    -0.203 F 
ATOM     82  C   UNL A   1      41.229  25.236  26.687  1.00  0.00     0.198 A 
ATOM     83  C   UNL A   1      42.555  27.067  25.885  1.00  0.00     0.198 A 
ATOM     84  F   UNL A   1      42.759  29.025  27.176  1.00  0.00    -0.203 F 
ATOM     85  F   UNL A   1      40.766  23.986  26.544  1.00  0.00    -0.200 F 
ATOM     86  C   UNL A   1      42.054  25.786  25.718  1.00  0.00     0.200 A 
ATOM     87  F   UNL A   1      43.343  27.608  24.946  1.00  0.00    -0.200 F 
ATOM     88  F   UNL A   1      42.374  25.076  24.627  1.00  0.00    -0.200 F 
ENDBRANCH  54  78
BRANCH  66  89
ATOM     89  C   UNL A   1      44.227  27.590  34.392  1.00  0.00     0.064 A 
ATOM     90  C   UNL A   1      45.527  28.117  34.416  1.00  0.00     0.173 A 
ATOM     91  C   UNL A   1      44.003  26.363  35.033  1.00  0.00     0.173 A 
ATOM     92  F   UNL A   1      45.795  29.282  33.804  1.00  0.00    -0.203 F 
ATOM     93  C   UNL A   1      46.565  27.429  35.037  1.00  0.00     0.198 A 
ATOM     94  C   UNL A   1      45.038  25.693  35.680  1.00  0.00     0.198 A 
ATOM     95  F   UNL A   1      42.776  25.820  35.047  1.00  0.00    -0.203 F 
ATOM     96  F   UNL A   1      47.809  27.929  35.007  1.00  0.00    -0.200 F 
ATOM     97  C   UNL A   1      46.319  26.223  35.675  1.00  0.00     0.200 A 
ATOM     98  F   UNL A   1      44.794  24.535  36.310  1.00  0.00    -0.200 F 
ATOM     99  F   UNL A   1      47.319  25.567  36.279  1.00  0.00    -0.200 F 
ENDBRANCH  66  89
ENDBRANCH  40  41
ENDBRANCH  33  35
ENDBRANCH  32  33
ENDBRANCH  31  32
ENDBRANCH  30  31
ENDBRANCH  29  30
ENDBRANCH   1  29
TORSDOF 19
ENDMDL
MODEL 3
REMARK VINA RESULT:     -11.6      1.847      7.551
REMARK SMILES CSc1ccc(CNc2ccc(N3CCOCC3)c(C(=O)OCCOCCOC(=O)c3ccc(-c4c5nc(c(-c6c(F)c(F)c(F)c(F)c6F)c6ccc([nH]6)c(-c6c(F)c(F)c(F)c(F)c6F)c6nc(c(-c7c(F)c(F)c(F)c(F)c7F)c7ccc4[nH]7)C=C6)C=C5)cc3)c2)cc1
REMARK SMILES IDX 24 1 23 2 22 3 20 4 21 5 19 6 9 7 10 8 94 9 11 10 12 11 8 12
REMARK SMILES IDX 7 14 6 15 3 16 4 17 96 18 5 19 95 20 2 21 1 22 13 23 14 24
REMARK SMILES IDX 18 25 15 26 17 27 16 28 25 29 26 30 27 31 28 32 29 33 30 34
REMARK SMILES IDX 31 35 32 36 93 37 33 38 92 39 34 40 35 41 36 42 86 43 37 44
REMARK SMILES IDX 91 45 85 46 87 47 38 48 90 49 84 50 83 51 39 53 71 54 51 55
REMARK SMILES IDX 70 56 52 57 55 58 69 59 88 60 53 61 54 62 68 64 89 65 56 66
REMARK SMILES IDX 40 67 41 68 49 69 42 70 43 71 47 72 50 73 44 74 45 75 48 76
REMARK SMILES IDX 46 77 72 78 73 79 81 80 74 81 75 82 79 83 82 84 76 85 77 86
REMARK SMILES IDX 80 87 78 88 57 89 58 90 66 91 59 92 60 93 64 94 67 95 61 96
REMARK SMILES IDX 62 97 65 98 63 99
REMARK H PARENT 8 13 87 52 55 63
REMARK Flexibility Score: inf
ROOT
ATOM      1  C   UNL A   1      36.865  22.218  25.527  1.00  0.00     0.202 C 
ENDROOT
BRANCH   1   2
ATOM      2  C   UNL A   1      36.505  23.619  25.029  1.00  0.00     0.261 C 
BRANCH   2   3
ATOM      3  O   UNL A   1      35.085  23.712  24.833  1.00  0.00    -0.460 OA
BRANCH   3   4
ATOM      4  C   UNL A   1      34.670  23.584  23.549  1.00  0.00     0.340 C 
ATOM      5  O   UNL A   1      35.327  23.151  22.612  1.00  0.00    -0.246 OA
BRANCH   4   6
ATOM      6  C   UNL A   1      33.265  24.026  23.466  1.00  0.00     0.085 A 
ATOM      7  C   UNL A   1      31.704  25.674  22.580  1.00  0.00     0.035 A 
ATOM      8  C   UNL A   1      30.667  24.908  23.123  1.00  0.00     0.028 A 
ATOM      9  C   UNL A   1      33.007  25.231  22.792  1.00  0.00     0.043 A 
ATOM     10  C   UNL A   1      30.921  23.721  23.826  1.00  0.00     0.029 A 
ATOM     11  C   UNL A   1      32.223  23.247  24.003  1.00  0.00     0.052 A 
BRANCH   7  12
ATOM     12  N   UNL A   1      31.395  26.793  21.830  1.00  0.00    -0.381 N 
ATOM     13  H   UNL A   1      31.546  26.751  20.859  1.00  0.00     0.160 HD
BRANCH  12  14
ATOM     14  C   UNL A   1      30.859  28.027  22.379  1.00  0.00     0.148 C 
BRANCH  14  15
ATOM     15  C   UNL A   1      31.664  28.459  23.584  1.00  0.00    -0.029 A 
ATOM     16  C   UNL A   1      33.213  29.135  25.843  1.00  0.00     0.007 A 
ATOM     17  C   UNL A   1      33.758  29.228  24.560  1.00  0.00     0.015 A 
ATOM     18  C   UNL A   1      31.896  28.691  25.993  1.00  0.00     0.015 A 
ATOM     19  C   UNL A   1      32.992  28.891  23.441  1.00  0.00     0.007 A 
ATOM     20  C   UNL A   1      31.127  28.358  24.873  1.00  0.00     0.007 A 
BRANCH  16  21
ATOM     21  S   UNL A   1      34.243  29.513  27.249  1.00  0.00    -0.130 SA
ATOM     22  C   UNL A   1      33.688  31.199  27.614  1.00  0.00     0.091 C 
ENDBRANCH  16  21
ENDBRANCH  14  15
ENDBRANCH  12  14
ENDBRANCH   7  12
BRANCH  11  23
ATOM     23  N   UNL A   1      32.435  22.070  24.677  1.00  0.00    -0.366 N 
ATOM     24  C   UNL A   1      32.314  21.954  26.127  1.00  0.00     0.145 C 
ATOM     25  C   UNL A   1      32.651  20.813  23.960  1.00  0.00     0.145 C 
ATOM     26  C   UNL A   1      33.552  21.207  26.653  1.00  0.00     0.181 C 
ATOM     27  C   UNL A   1      33.810  20.035  24.614  1.00  0.00     0.181 C 
ATOM     28  O   UNL A   1      33.648  19.905  26.041  1.00  0.00    -0.378 OA
ENDBRANCH  11  23
ENDBRANCH   4   6
ENDBRANCH   3   4
ENDBRANCH   2   3
ENDBRANCH   1   2
BRANCH   1  29
ATOM     29  O   UNL A   1      37.559  21.373  24.604  1.00  0.00    -0.374 OA
BRANCH  29  30
ATOM     30  C   UNL A   1      37.755  20.013  24.983  1.00  0.00     0.202 C 
BRANCH  30  31
ATOM     31  C   UNL A   1      39.144  19.596  25.476  1.00  0.00     0.261 C 
BRANCH  31  32
ATOM     32  O   UNL A   1      39.508  20.205  26.716  1.00  0.00    -0.460 OA
BRANCH  32  33
ATOM     33  C   UNL A   1      40.838  20.410  26.852  1.00  0.00     0.338 C 
ATOM     34  O   UNL A   1      41.748  19.636  26.584  1.00  0.00    -0.246 OA
BRANCH  33  35
ATOM     35  C   UNL A   1      41.068  21.807  27.239  1.00  0.00     0.060 A 
ATOM     36  C   UNL A   1      40.429  22.801  26.490  1.00  0.00     0.016 A 
ATOM     37  C   UNL A   1      41.917  22.137  28.297  1.00  0.00     0.016 A 
ATOM     38  C   UNL A   1      40.671  24.140  26.770  1.00  0.00     0.010 A 
ATOM     39  C   UNL A   1      42.170  23.481  28.571  1.00  0.00     0.010 A 
ATOM     40  C   UNL A   1      41.573  24.484  27.785  1.00  0.00    -0.014 A 
BRANCH  40  41
ATOM     41  C   UNL A   1      42.014  25.887  27.919  1.00  0.00     0.031 A 
ATOM     42  C   UNL A   1      43.344  26.279  27.342  1.00  0.00     0.074 A 
ATOM     43  C   UNL A   1      41.232  26.793  28.529  1.00  0.00     0.049 A 
ATOM     44  N   UNL A   1      43.951  27.436  27.367  1.00  0.00    -0.248 NA
ATOM     45  C   UNL A   1      44.091  25.219  26.645  1.00  0.00     0.031 C 
ATOM     46  C   UNL A   1      39.913  26.522  29.097  1.00  0.00     0.029 A 
ATOM     47  N   UNL A   1      41.441  28.125  28.778  1.00  0.00    -0.354 N 
ATOM     48  C   UNL A   1      45.153  27.242  26.699  1.00  0.00     0.074 A 
ATOM     49  C   UNL A   1      45.204  25.852  26.304  1.00  0.00     0.031 C 
ATOM     50  C   UNL A   1      39.435  27.652  29.645  1.00  0.00     0.029 A 
ATOM     51  C   UNL A   1      40.427  28.715  29.489  1.00  0.00     0.049 A 
ATOM     52  H   UNL A   1      42.242  28.611  28.477  1.00  0.00     0.167 HD
ATOM     53  C   UNL A   1      46.122  28.149  26.435  1.00  0.00     0.037 A 
ATOM     54  C   UNL A   1      40.328  29.967  29.974  1.00  0.00     0.037 A 
ATOM     55  C   UNL A   1      46.057  29.531  26.828  1.00  0.00     0.049 A 
ATOM     56  C   UNL A   1      41.444  30.944  29.709  1.00  0.00     0.074 A 
ATOM     57  C   UNL A   1      46.968  30.543  26.582  1.00  0.00     0.029 A 
ATOM     58  N   UNL A   1      45.020  30.093  27.559  1.00  0.00    -0.354 N 
ATOM     59  N   UNL A   1      42.560  30.766  29.043  1.00  0.00    -0.248 NA
ATOM     60  C   UNL A   1      41.283  32.298  30.255  1.00  0.00     0.031 C 
ATOM     61  C   UNL A   1      46.508  31.704  27.213  1.00  0.00     0.029 A 
ATOM     62  C   UNL A   1      45.283  31.431  27.800  1.00  0.00     0.049 A 
ATOM     63  H   UNL A   1      44.216  29.611  27.862  1.00  0.00     0.167 HD
ATOM     64  C   UNL A   1      43.220  31.988  29.068  1.00  0.00     0.074 A 
ATOM     65  C   UNL A   1      42.372  32.903  29.802  1.00  0.00     0.031 C 
ATOM     66  C   UNL A   1      44.418  32.324  28.530  1.00  0.00     0.037 A 
BRANCH  53  67
ATOM     67  C   UNL A   1      47.345  27.669  25.711  1.00  0.00     0.064 A 
ATOM     68  C   UNL A   1      47.439  27.706  24.311  1.00  0.00     0.173 A 
ATOM     69  C   UNL A   1      48.451  27.195  26.431  1.00  0.00     0.173 A 
ATOM     70  F   UNL A   1      46.403  28.135  23.576  1.00  0.00    -0.203 F 
ATOM     71  C   UNL A   1      48.588  27.265  23.660  1.00  0.00     0.198 A 
ATOM     72  C   UNL A   1      49.608  26.781  25.778  1.00  0.00     0.198 A 
ATOM     73  F   UNL A   1      48.412  27.138  27.771  1.00  0.00    -0.203 F 
ATOM     74  F   UNL A   1      48.640  27.268  22.321  1.00  0.00    -0.200 F 
ATOM     75  C   UNL A   1      49.674  26.811  24.392  1.00  0.00     0.200 A 
ATOM     76  F   UNL A   1      50.661  26.352  26.488  1.00  0.00    -0.200 F 
ATOM     77  F   UNL A   1      50.782  26.394  23.764  1.00  0.00    -0.200 F 
ENDBRANCH  53  67
BRANCH  54  78
ATOM     78  C   UNL A   1      39.137  30.362  30.771  1.00  0.00     0.064 A 
ATOM     79  C   UNL A   1      39.104  30.187  32.161  1.00  0.00     0.173 A 
ATOM     80  C   UNL A   1      38.001  30.908  30.155  1.00  0.00     0.173 A 
ATOM     81  F   UNL A   1      40.156  29.647  32.794  1.00  0.00    -0.203 F 
ATOM     82  C   UNL A   1      37.972  30.525  32.903  1.00  0.00     0.198 A 
ATOM     83  C   UNL A   1      36.882  31.272  30.900  1.00  0.00     0.198 A 
ATOM     84  F   UNL A   1      37.982  31.096  28.827  1.00  0.00    -0.203 F 
ATOM     85  F   UNL A   1      37.949  30.303  34.224  1.00  0.00    -0.200 F 
ATOM     86  C   UNL A   1      36.865  31.073  32.272  1.00  0.00     0.200 A 
ATOM     87  F   UNL A   1      35.819  31.812  30.288  1.00  0.00    -0.200 F 
ATOM     88  F   UNL A   1      35.779  31.399  32.985  1.00  0.00    -0.200 F 
ENDBRANCH  54  78
BRANCH  66  89
ATOM     89  C   UNL A   1      44.867  33.748  28.685  1.00  0.00     0.064 A 
ATOM     90  C   UNL A   1      44.507  34.739  27.761  1.00  0.00     0.173 A 
ATOM     91  C   UNL A   1      45.628  34.134  29.799  1.00  0.00     0.173 A 
ATOM     92  F   UNL A   1      43.792  34.418  26.671  1.00  0.00    -0.203 F 
ATOM     93  C   UNL A   1      44.914  36.059  27.933  1.00  0.00     0.198 A 
ATOM     94  C   UNL A   1      46.007  35.460  29.984  1.00  0.00     0.198 A 
ATOM     95  F   UNL A   1      45.992  33.225  30.718  1.00  0.00    -0.203 F 
ATOM     96  F   UNL A   1      44.598  36.981  27.012  1.00  0.00    -0.200 F 
ATOM     97  C   UNL A   1      45.655  36.420  29.047  1.00  0.00     0.200 A 
ATOM     98  F   UNL A   1      46.710  35.810  31.071  1.00  0.00    -0.200 F 
ATOM     99  F   UNL A   1      46.039  37.693  29.215  1.00  0.00    -0.200 F 
ENDBRANCH  66  89
ENDBRANCH  40  41
ENDBRANCH  33  35
ENDBRANCH  32  33
ENDBRANCH  31  32
ENDBRANCH  30  31
ENDBRANCH  29  30
ENDBRANCH   1  29
TORSDOF 19
ENDMDL
