MODEL 1
REMARK VINA RESULT:     -11.5      0.000      0.000
REMARK SMILES CC(C)[C@H](C(=O)OCCOCCOC(=O)c1ccc(-c2c3nc(c(-c4c(F)c(F)c(F)c(F)c4F)c4ccc([nH]4)c(-c4c(F)c(F)c(F)c(F)c4F)c4nc(c(-c5c(F)c(F)c(F)c(F)c5F)c5ccc2[nH]5)C=C4)C=C3)cc1)N1C(=O)/C(=C/c2ccccc2Cl)SC1=S
REMARK SMILES IDX 10 1 9 2 8 3 7 4 5 5 6 6 4 7 2 8 1 9 3 10 79 11 80 12 92 13
REMARK SMILES IDX 81 14 82 15 91 16 93 17 83 18 84 19 85 20 89 21 86 22 88 23
REMARK SMILES IDX 90 24 87 25 11 26 12 27 13 28 14 29 15 30 16 31 17 32 78 33
REMARK SMILES IDX 18 34 77 35 19 36 20 37 21 38 71 39 22 40 76 41 70 42 72 43
REMARK SMILES IDX 23 44 75 45 69 46 68 47 24 49 56 50 36 51 55 52 37 53 40 54
REMARK SMILES IDX 54 55 73 56 38 57 39 58 53 60 74 61 41 62 25 63 26 64 34 65
REMARK SMILES IDX 27 66 28 67 32 68 35 69 29 70 30 71 33 72 31 73 57 74 58 75
REMARK SMILES IDX 66 76 59 77 60 78 64 79 67 80 61 81 62 82 65 83 63 84 42 85
REMARK SMILES IDX 43 86 51 87 44 88 45 89 49 90 52 91 46 92 47 93 50 94 48 95
REMARK H PARENT 72 48 40 59
REMARK Flexibility Score: inf
ROOT
ATOM      1  O   UNL A   1      33.076  30.772  26.863  1.00  0.00    -0.374 OA
ENDROOT
BRANCH   1   2
ATOM      2  C   UNL A   1      33.037  29.560  26.104  1.00  0.00     0.202 C 
BRANCH   2   3
ATOM      3  C   UNL A   1      31.813  28.678  26.351  1.00  0.00     0.261 C 
BRANCH   3   4
ATOM      4  O   UNL A   1      31.787  27.653  25.346  1.00  0.00    -0.462 OA
BRANCH   4   5
ATOM      5  C   UNL A   1      31.444  26.407  25.763  1.00  0.00     0.329 C 
ATOM      6  O   UNL A   1      31.417  26.061  26.938  1.00  0.00    -0.250 OA
BRANCH   5   7
ATOM      7  C   UNL A   1      30.832  25.575  24.610  1.00  0.00     0.204 C 
BRANCH   7   8
ATOM      8  C   UNL A   1      30.605  26.701  23.496  1.00  0.00     0.017 C 
ATOM      9  C   UNL A   1      31.050  26.466  22.048  1.00  0.00     0.010 C 
ATOM     10  C   UNL A   1      29.143  27.168  23.509  1.00  0.00     0.010 C 
ENDBRANCH   7   8
BRANCH   7  11
ATOM     11  N   UNL A   1      31.601  24.373  24.161  1.00  0.00    -0.278 N 
ATOM     12  C   UNL A   1      31.266  23.152  24.726  1.00  0.00     0.267 C 
ATOM     13  C   UNL A   1      32.922  24.348  23.744  1.00  0.00     0.149 C 
ATOM     14  O   UNL A   1      30.505  22.986  25.671  1.00  0.00    -0.268 OA
ATOM     15  C   UNL A   1      32.110  22.052  24.191  1.00  0.00     0.081 C 
ATOM     16  S   UNL A   1      33.322  22.718  23.187  1.00  0.00    -0.054 SA
ATOM     17  S   UNL A   1      34.102  25.526  23.802  1.00  0.00    -0.052 S 
ATOM     18  C   UNL A   1      31.950  20.782  24.587  1.00  0.00     0.031 C 
BRANCH  18  19
ATOM     19  C   UNL A   1      32.846  19.657  24.279  1.00  0.00    -0.006 A 
ATOM     20  C   UNL A   1      32.361  18.620  23.467  1.00  0.00     0.010 A 
ATOM     21  C   UNL A   1      34.142  19.544  24.818  1.00  0.00     0.048 A 
ATOM     22  C   UNL A   1      33.158  17.505  23.188  1.00  0.00     0.001 A 
ATOM     23  C   UNL A   1      34.938  18.434  24.525  1.00  0.00     0.021 A 
ATOM     24  Cl  UNL A   1      34.795  20.728  25.901  1.00  0.00    -0.084 Cl
ATOM     25  C   UNL A   1      34.446  17.415  23.712  1.00  0.00     0.002 A 
ENDBRANCH  18  19
ENDBRANCH   7  11
ENDBRANCH   5   7
ENDBRANCH   4   5
ENDBRANCH   3   4
ENDBRANCH   2   3
ENDBRANCH   1   2
BRANCH   1  26
ATOM     26  C   UNL A   1      31.910  31.595  26.864  1.00  0.00     0.202 C 
BRANCH  26  27
ATOM     27  C   UNL A   1      32.137  33.109  26.909  1.00  0.00     0.261 C 
BRANCH  27  28
ATOM     28  O   UNL A   1      32.411  33.598  28.231  1.00  0.00    -0.460 OA
BRANCH  28  29
ATOM     29  C   UNL A   1      33.532  34.354  28.323  1.00  0.00     0.338 C 
ATOM     30  O   UNL A   1      33.616  35.572  28.229  1.00  0.00    -0.246 OA
BRANCH  29  31
ATOM     31  C   UNL A   1      34.684  33.522  28.709  1.00  0.00     0.060 A 
ATOM     32  C   UNL A   1      34.434  32.414  29.527  1.00  0.00     0.016 A 
ATOM     33  C   UNL A   1      35.990  33.864  28.354  1.00  0.00     0.016 A 
ATOM     34  C   UNL A   1      35.495  31.662  30.025  1.00  0.00     0.010 A 
ATOM     35  C   UNL A   1      37.055  33.113  28.862  1.00  0.00     0.010 A 
ATOM     36  C   UNL A   1      36.814  32.026  29.722  1.00  0.00    -0.014 A 
BRANCH  36  37
ATOM     37  C   UNL A   1      37.937  31.329  30.394  1.00  0.00     0.031 A 
ATOM     38  C   UNL A   1      38.267  31.663  31.822  1.00  0.00     0.074 A 
ATOM     39  C   UNL A   1      38.636  30.383  29.743  1.00  0.00     0.049 A 
ATOM     40  N   UNL A   1      39.217  31.190  32.588  1.00  0.00    -0.248 NA
ATOM     41  C   UNL A   1      37.409  32.664  32.475  1.00  0.00     0.031 C 
ATOM     42  C   UNL A   1      38.388  29.949  28.370  1.00  0.00     0.029 A 
ATOM     43  N   UNL A   1      39.701  29.621  30.152  1.00  0.00    -0.354 N 
ATOM     44  C   UNL A   1      39.076  31.836  33.809  1.00  0.00     0.074 A 
ATOM     45  C   UNL A   1      37.966  32.756  33.675  1.00  0.00     0.031 C 
ATOM     46  C   UNL A   1      39.285  29.001  28.045  1.00  0.00     0.029 A 
ATOM     47  C   UNL A   1      40.187  28.789  29.176  1.00  0.00     0.049 A 
ATOM     48  H   UNL A   1      40.081  29.668  31.059  1.00  0.00     0.167 HD
ATOM     49  C   UNL A   1      39.801  31.669  34.941  1.00  0.00     0.037 A 
ATOM     50  C   UNL A   1      41.254  27.966  29.187  1.00  0.00     0.037 A 
ATOM     51  C   UNL A   1      40.904  30.753  35.072  1.00  0.00     0.049 A 
ATOM     52  C   UNL A   1      42.093  27.858  30.433  1.00  0.00     0.074 A 
ATOM     53  C   UNL A   1      41.679  30.488  36.187  1.00  0.00     0.029 A 
ATOM     54  N   UNL A   1      41.397  29.959  34.046  1.00  0.00    -0.354 N 
ATOM     55  N   UNL A   1      41.931  28.446  31.595  1.00  0.00    -0.248 NA
ATOM     56  C   UNL A   1      43.264  26.973  30.369  1.00  0.00     0.031 C 
ATOM     57  C   UNL A   1      42.674  29.574  35.823  1.00  0.00     0.029 A 
ATOM     58  C   UNL A   1      42.488  29.231  34.493  1.00  0.00     0.049 A 
ATOM     59  H   UNL A   1      41.026  29.919  33.134  1.00  0.00     0.167 HD
ATOM     60  C   UNL A   1      42.966  27.990  32.401  1.00  0.00     0.074 A 
ATOM     61  C   UNL A   1      43.738  27.061  31.604  1.00  0.00     0.031 C 
ATOM     62  C   UNL A   1      43.252  28.314  33.686  1.00  0.00     0.037 A 
BRANCH  49  63
ATOM     63  C   UNL A   1      39.441  32.515  36.127  1.00  0.00     0.064 A 
ATOM     64  C   UNL A   1      38.481  32.102  37.062  1.00  0.00     0.173 A 
ATOM     65  C   UNL A   1      40.096  33.735  36.352  1.00  0.00     0.173 A 
ATOM     66  F   UNL A   1      37.818  30.948  36.886  1.00  0.00    -0.203 F 
ATOM     67  C   UNL A   1      38.173  32.891  38.168  1.00  0.00     0.198 A 
ATOM     68  C   UNL A   1      39.805  34.508  37.473  1.00  0.00     0.198 A 
ATOM     69  F   UNL A   1      41.025  34.173  35.490  1.00  0.00    -0.203 F 
ATOM     70  F   UNL A   1      37.223  32.498  39.028  1.00  0.00    -0.200 F 
ATOM     71  C   UNL A   1      38.841  34.089  38.376  1.00  0.00     0.200 A 
ATOM     72  F   UNL A   1      40.459  35.661  37.678  1.00  0.00    -0.200 F 
ATOM     73  F   UNL A   1      38.548  34.844  39.445  1.00  0.00    -0.200 F 
ENDBRANCH  49  63
BRANCH  50  74
ATOM     74  C   UNL A   1      41.605  27.194  27.967  1.00  0.00     0.064 A 
ATOM     75  C   UNL A   1      41.114  25.898  27.764  1.00  0.00     0.173 A 
ATOM     76  C   UNL A   1      42.455  27.731  26.988  1.00  0.00     0.173 A 
ATOM     77  F   UNL A   1      40.323  25.330  28.686  1.00  0.00    -0.203 F 
ATOM     78  C   UNL A   1      41.470  25.162  26.635  1.00  0.00     0.198 A 
ATOM     79  C   UNL A   1      42.787  27.006  25.846  1.00  0.00     0.198 A 
ATOM     80  F   UNL A   1      42.958  28.965  27.139  1.00  0.00    -0.203 F 
ATOM     81  F   UNL A   1      41.023  23.908  26.488  1.00  0.00    -0.200 F 
ATOM     82  C   UNL A   1      42.300  25.719  25.674  1.00  0.00     0.200 A 
ATOM     83  F   UNL A   1      43.584  27.551  24.916  1.00  0.00    -0.200 F 
ATOM     84  F   UNL A   1      42.640  25.012  24.588  1.00  0.00    -0.200 F 
ENDBRANCH  50  74
BRANCH  62  85
ATOM     85  C   UNL A   1      44.443  27.650  34.315  1.00  0.00     0.064 A 
ATOM     86  C   UNL A   1      45.707  28.259  34.315  1.00  0.00     0.173 A 
ATOM     87  C   UNL A   1      44.312  26.411  34.959  1.00  0.00     0.173 A 
ATOM     88  F   UNL A   1      45.888  29.437  33.699  1.00  0.00    -0.203 F 
ATOM     89  C   UNL A   1      46.800  27.640  34.915  1.00  0.00     0.198 A 
ATOM     90  C   UNL A   1      45.401  25.808  35.583  1.00  0.00     0.198 A 
ATOM     91  F   UNL A   1      43.123  25.788  34.994  1.00  0.00    -0.203 F 
ATOM     92  F   UNL A   1      48.007  28.219  34.862  1.00  0.00    -0.200 F 
ATOM     93  C   UNL A   1      46.645  26.419  35.555  1.00  0.00     0.200 A 
ATOM     94  F   UNL A   1      45.246  24.635  36.213  1.00  0.00    -0.200 F 
ATOM     95  F   UNL A   1      47.697  25.828  36.138  1.00  0.00    -0.200 F 
ENDBRANCH  62  85
ENDBRANCH  36  37
ENDBRANCH  29  31
ENDBRANCH  28  29
ENDBRANCH  27  28
ENDBRANCH  26  27
ENDBRANCH   1  26
TORSDOF 17
ENDMDL
MODEL 2
REMARK VINA RESULT:     -11.3      5.053     10.609
REMARK SMILES CC(C)[C@H](C(=O)OCCOCCOC(=O)c1ccc(-c2c3nc(c(-c4c(F)c(F)c(F)c(F)c4F)c4ccc([nH]4)c(-c4c(F)c(F)c(F)c(F)c4F)c4nc(c(-c5c(F)c(F)c(F)c(F)c5F)c5ccc2[nH]5)C=C4)C=C3)cc1)N1C(=O)/C(=C/c2ccccc2Cl)SC1=S
REMARK SMILES IDX 10 1 9 2 8 3 7 4 5 5 6 6 4 7 2 8 1 9 3 10 79 11 80 12 92 13
REMARK SMILES IDX 81 14 82 15 91 16 93 17 83 18 84 19 85 20 89 21 86 22 88 23
REMARK SMILES IDX 90 24 87 25 11 26 12 27 13 28 14 29 15 30 16 31 17 32 78 33
REMARK SMILES IDX 18 34 77 35 19 36 20 37 21 38 71 39 22 40 76 41 70 42 72 43
REMARK SMILES IDX 23 44 75 45 69 46 68 47 24 49 56 50 36 51 55 52 37 53 40 54
REMARK SMILES IDX 54 55 73 56 38 57 39 58 53 60 74 61 41 62 25 63 26 64 34 65
REMARK SMILES IDX 27 66 28 67 32 68 35 69 29 70 30 71 33 72 31 73 57 74 58 75
REMARK SMILES IDX 66 76 59 77 60 78 64 79 67 80 61 81 62 82 65 83 63 84 42 85
REMARK SMILES IDX 43 86 51 87 44 88 45 89 49 90 52 91 46 92 47 93 50 94 48 95
REMARK H PARENT 72 48 40 59
REMARK Flexibility Score: inf
ROOT
ATOM      1  O   UNL A   1      38.869  21.949  26.214  1.00  0.00    -0.374 OA
ENDROOT
BRANCH   1   2
ATOM      2  C   UNL A   1      38.192  23.206  26.116  1.00  0.00     0.202 C 
BRANCH   2   3
ATOM      3  C   UNL A   1      37.015  23.237  25.142  1.00  0.00     0.261 C 
BRANCH   3   4
ATOM      4  O   UNL A   1      35.804  23.356  25.903  1.00  0.00    -0.462 OA
BRANCH   4   5
ATOM      5  C   UNL A   1      34.995  22.266  25.924  1.00  0.00     0.329 C 
ATOM      6  O   UNL A   1      34.884  21.511  26.883  1.00  0.00    -0.250 OA
BRANCH   5   7
ATOM      7  C   UNL A   1      34.035  22.252  24.708  1.00  0.00     0.204 C 
BRANCH   7   8
ATOM      8  C   UNL A   1      33.446  20.766  24.791  1.00  0.00     0.017 C 
ATOM      9  C   UNL A   1      32.253  20.351  23.922  1.00  0.00     0.010 C 
ATOM     10  C   UNL A   1      34.576  19.741  24.626  1.00  0.00     0.010 C 
ENDBRANCH   7   8
BRANCH   7  11
ATOM     11  N   UNL A   1      33.016  23.344  24.638  1.00  0.00    -0.278 N 
ATOM     12  C   UNL A   1      33.318  24.451  23.859  1.00  0.00     0.267 C 
ATOM     13  C   UNL A   1      32.123  23.704  25.634  1.00  0.00     0.149 C 
ATOM     14  O   UNL A   1      34.404  24.690  23.346  1.00  0.00    -0.268 OA
ATOM     15  C   UNL A   1      32.221  25.453  23.885  1.00  0.00     0.081 C 
ATOM     16  S   UNL A   1      31.039  24.957  25.015  1.00  0.00    -0.054 SA
ATOM     17  S   UNL A   1      32.025  23.226  27.230  1.00  0.00    -0.052 S 
ATOM     18  C   UNL A   1      32.292  26.597  23.189  1.00  0.00     0.031 C 
BRANCH  18  19
ATOM     19  C   UNL A   1      31.367  27.735  23.295  1.00  0.00    -0.006 A 
ATOM     20  C   UNL A   1      30.310  27.825  22.376  1.00  0.00     0.010 A 
ATOM     21  C   UNL A   1      31.538  28.772  24.232  1.00  0.00     0.048 A 
ATOM     22  C   UNL A   1      29.435  28.915  22.405  1.00  0.00     0.001 A 
ATOM     23  C   UNL A   1      30.653  29.853  24.264  1.00  0.00     0.021 A 
ATOM     24  Cl  UNL A   1      32.863  28.797  25.347  1.00  0.00    -0.084 Cl
ATOM     25  C   UNL A   1      29.604  29.925  23.350  1.00  0.00     0.002 A 
ENDBRANCH  18  19
ENDBRANCH   7  11
ENDBRANCH   5   7
ENDBRANCH   4   5
ENDBRANCH   3   4
ENDBRANCH   2   3
ENDBRANCH   1   2
BRANCH   1  26
ATOM     26  C   UNL A   1      38.418  20.884  25.378  1.00  0.00     0.202 C 
BRANCH  26  27
ATOM     27  C   UNL A   1      39.261  19.606  25.376  1.00  0.00     0.261 C 
BRANCH  27  28
ATOM     28  O   UNL A   1      40.115  19.493  26.526  1.00  0.00    -0.460 OA
BRANCH  28  29
ATOM     29  C   UNL A   1      41.437  19.446  26.233  1.00  0.00     0.338 C 
ATOM     30  O   UNL A   1      42.057  18.507  25.751  1.00  0.00    -0.246 OA
BRANCH  29  31
ATOM     31  C   UNL A   1      42.058  20.764  26.438  1.00  0.00     0.060 A 
ATOM     32  C   UNL A   1      42.264  21.183  27.758  1.00  0.00     0.016 A 
ATOM     33  C   UNL A   1      42.353  21.614  25.370  1.00  0.00     0.016 A 
ATOM     34  C   UNL A   1      42.732  22.468  28.018  1.00  0.00     0.010 A 
ATOM     35  C   UNL A   1      42.816  22.908  25.632  1.00  0.00     0.010 A 
ATOM     36  C   UNL A   1      42.981  23.350  26.958  1.00  0.00    -0.014 A 
BRANCH  36  37
ATOM     37  C   UNL A   1      43.312  24.766  27.247  1.00  0.00     0.031 A 
ATOM     38  C   UNL A   1      44.705  25.267  26.988  1.00  0.00     0.074 A 
ATOM     39  C   UNL A   1      42.367  25.604  27.706  1.00  0.00     0.049 A 
ATOM     40  N   UNL A   1      45.210  26.459  27.189  1.00  0.00    -0.248 NA
ATOM     41  C   UNL A   1      45.656  24.297  26.424  1.00  0.00     0.031 C 
ATOM     42  C   UNL A   1      40.975  25.242  27.964  1.00  0.00     0.029 A 
ATOM     43  N   UNL A   1      42.440  26.932  28.044  1.00  0.00    -0.354 N 
ATOM     44  C   UNL A   1      46.535  26.381  26.783  1.00  0.00     0.074 A 
ATOM     45  C   UNL A   1      46.766  25.019  26.349  1.00  0.00     0.031 C 
ATOM     46  C   UNL A   1      40.324  26.323  28.429  1.00  0.00     0.029 A 
ATOM     47  C   UNL A   1      41.262  27.439  28.532  1.00  0.00     0.049 A 
ATOM     48  H   UNL A   1      43.259  27.469  27.946  1.00  0.00     0.167 HD
ATOM     49  C   UNL A   1      47.472  27.360  26.765  1.00  0.00     0.037 A 
ATOM     50  C   UNL A   1      40.982  28.660  29.029  1.00  0.00     0.037 A 
ATOM     51  C   UNL A   1      47.239  28.714  27.196  1.00  0.00     0.049 A 
ATOM     52  C   UNL A   1      42.063  29.708  29.072  1.00  0.00     0.074 A 
ATOM     53  C   UNL A   1      48.114  29.786  27.184  1.00  0.00     0.029 A 
ATOM     54  N   UNL A   1      46.046  29.179  27.729  1.00  0.00    -0.354 N 
ATOM     55  N   UNL A   1      43.303  29.637  28.653  1.00  0.00    -0.248 NA
ATOM     56  C   UNL A   1      41.703  31.006  29.659  1.00  0.00     0.031 C 
ATOM     57  C   UNL A   1      47.468  30.886  27.759  1.00  0.00     0.029 A 
ATOM     58  C   UNL A   1      46.173  30.513  28.082  1.00  0.00     0.049 A 
ATOM     59  H   UNL A   1      45.228  28.641  27.839  1.00  0.00     0.167 HD
ATOM     60  C   UNL A   1      43.865  30.881  28.909  1.00  0.00     0.074 A 
ATOM     61  C   UNL A   1      42.825  31.695  29.501  1.00  0.00     0.031 C 
ATOM     62  C   UNL A   1      45.130  31.309  28.677  1.00  0.00     0.037 A 
BRANCH  49  63
ATOM     63  C   UNL A   1      48.846  26.997  26.284  1.00  0.00     0.064 A 
ATOM     64  C   UNL A   1      49.835  26.529  27.161  1.00  0.00     0.173 A 
ATOM     65  C   UNL A   1      49.164  27.081  24.920  1.00  0.00     0.173 A 
ATOM     66  F   UNL A   1      49.585  26.441  28.477  1.00  0.00    -0.203 F 
ATOM     67  C   UNL A   1      51.099  26.178  26.694  1.00  0.00     0.198 A 
ATOM     68  C   UNL A   1      50.420  26.704  24.452  1.00  0.00     0.198 A 
ATOM     69  F   UNL A   1      48.253  27.519  24.039  1.00  0.00    -0.203 F 
ATOM     70  F   UNL A   1      52.043  25.772  27.555  1.00  0.00    -0.200 F 
ATOM     71  C   UNL A   1      51.388  26.259  25.339  1.00  0.00     0.200 A 
ATOM     72  F   UNL A   1      50.694  26.773  23.142  1.00  0.00    -0.200 F 
ATOM     73  F   UNL A   1      52.603  25.915  24.890  1.00  0.00    -0.200 F 
ENDBRANCH  49  63
BRANCH  50  74
ATOM     74  C   UNL A   1      39.621  28.952  29.548  1.00  0.00     0.064 A 
ATOM     75  C   UNL A   1      39.290  28.711  30.888  1.00  0.00     0.173 A 
ATOM     76  C   UNL A   1      38.618  29.463  28.709  1.00  0.00     0.173 A 
ATOM     77  F   UNL A   1      40.205  28.196  31.721  1.00  0.00    -0.203 F 
ATOM     78  C   UNL A   1      38.004  28.955  31.366  1.00  0.00     0.198 A 
ATOM     79  C   UNL A   1      37.341  29.734  29.195  1.00  0.00     0.198 A 
ATOM     80  F   UNL A   1      38.883  29.704  27.416  1.00  0.00    -0.203 F 
ATOM     81  F   UNL A   1      37.700  28.672  32.639  1.00  0.00    -0.200 F 
ATOM     82  C   UNL A   1      37.033  29.473  30.521  1.00  0.00     0.200 A 
ATOM     83  F   UNL A   1      36.408  30.241  28.377  1.00  0.00    -0.200 F 
ATOM     84  F   UNL A   1      35.797  29.709  30.982  1.00  0.00    -0.200 F 
ENDBRANCH  50  74
BRANCH  62  85
ATOM     85  C   UNL A   1      45.457  32.726  29.052  1.00  0.00     0.064 A 
ATOM     86  C   UNL A   1      46.015  33.044  30.300  1.00  0.00     0.173 A 
ATOM     87  C   UNL A   1      45.247  33.772  28.142  1.00  0.00     0.173 A 
ATOM     88  F   UNL A   1      46.222  32.081  31.211  1.00  0.00    -0.203 F 
ATOM     89  C   UNL A   1      46.329  34.360  30.630  1.00  0.00     0.198 A 
ATOM     90  C   UNL A   1      45.588  35.083  28.465  1.00  0.00     0.198 A 
ATOM     91  F   UNL A   1      44.722  33.522  26.933  1.00  0.00    -0.203 F 
ATOM     92  F   UNL A   1      46.817  34.646  31.844  1.00  0.00    -0.200 F 
ATOM     93  C   UNL A   1      46.121  35.377  29.710  1.00  0.00     0.200 A 
ATOM     94  F   UNL A   1      45.400  36.063  27.570  1.00  0.00    -0.200 F 
ATOM     95  F   UNL A   1      46.430  36.642  30.027  1.00  0.00    -0.200 F 
ENDBRANCH  62  85
ENDBRANCH  36  37
ENDBRANCH  29  31
ENDBRANCH  28  29
ENDBRANCH  27  28
ENDBRANCH  26  27
ENDBRANCH   1  26
TORSDOF 17
ENDMDL
MODEL 3
REMARK VINA RESULT:     -11.3      5.151      9.434
REMARK SMILES CC(C)[C@H](C(=O)OCCOCCOC(=O)c1ccc(-c2c3nc(c(-c4c(F)c(F)c(F)c(F)c4F)c4ccc([nH]4)c(-c4c(F)c(F)c(F)c(F)c4F)c4nc(c(-c5c(F)c(F)c(F)c(F)c5F)c5ccc2[nH]5)C=C4)C=C3)cc1)N1C(=O)/C(=C/c2ccccc2Cl)SC1=S
REMARK SMILES IDX 10 1 9 2 8 3 7 4 5 5 6 6 4 7 2 8 1 9 3 10 79 11 80 12 92 13
REMARK SMILES IDX 81 14 82 15 91 16 93 17 83 18 84 19 85 20 89 21 86 22 88 23
REMARK SMILES IDX 90 24 87 25 11 26 12 27 13 28 14 29 15 30 16 31 17 32 78 33
REMARK SMILES IDX 18 34 77 35 19 36 20 37 21 38 71 39 22 40 76 41 70 42 72 43
REMARK SMILES IDX 23 44 75 45 69 46 68 47 24 49 56 50 36 51 55 52 37 53 40 54
REMARK SMILES IDX 54 55 73 56 38 57 39 58 53 60 74 61 41 62 25 63 26 64 34 65
REMARK SMILES IDX 27 66 28 67 32 68 35 69 29 70 30 71 33 72 31 73 57 74 58 75
REMARK SMILES IDX 66 76 59 77 60 78 64 79 67 80 61 81 62 82 65 83 63 84 42 85
REMARK SMILES IDX 43 86 51 87 44 88 45 89 49 90 52 91 46 92 47 93 50 94 48 95
REMARK H PARENT 72 48 40 59
REMARK Flexibility Score: inf
ROOT
ATOM      1  O   UNL A   1      39.013  21.912  25.937  1.00  0.00    -0.374 OA
ENDROOT
BRANCH   1   2
ATOM      2  C   UNL A   1      38.151  23.053  25.883  1.00  0.00     0.202 C 
BRANCH   2   3
ATOM      3  C   UNL A   1      36.658  22.746  25.996  1.00  0.00     0.261 C 
BRANCH   3   4
ATOM      4  O   UNL A   1      36.116  22.654  24.670  1.00  0.00    -0.462 OA
BRANCH   4   5
ATOM      5  C   UNL A   1      35.100  21.771  24.493  1.00  0.00     0.329 C 
ATOM      6  O   UNL A   1      35.083  20.641  24.966  1.00  0.00    -0.250 OA
BRANCH   5   7
ATOM      7  C   UNL A   1      33.862  22.454  23.862  1.00  0.00     0.204 C 
BRANCH   7   8
ATOM      8  C   UNL A   1      32.827  21.235  23.804  1.00  0.00     0.017 C 
ATOM      9  C   UNL A   1      31.792  21.038  24.917  1.00  0.00     0.010 C 
ATOM     10  C   UNL A   1      32.120  21.207  22.442  1.00  0.00     0.010 C 
ENDBRANCH   7   8
BRANCH   7  11
ATOM     11  N   UNL A   1      33.358  23.693  24.531  1.00  0.00    -0.278 N 
ATOM     12  C   UNL A   1      33.720  24.911  23.976  1.00  0.00     0.267 C 
ATOM     13  C   UNL A   1      33.101  23.854  25.883  1.00  0.00     0.149 C 
ATOM     14  O   UNL A   1      34.538  25.075  23.081  1.00  0.00    -0.268 OA
ATOM     15  C   UNL A   1      33.153  26.051  24.744  1.00  0.00     0.081 C 
ATOM     16  S   UNL A   1      32.393  25.452  26.152  1.00  0.00    -0.054 SA
ATOM     17  S   UNL A   1      33.449  22.863  27.180  1.00  0.00    -0.052 S 
ATOM     18  C   UNL A   1      33.361  27.323  24.377  1.00  0.00     0.031 C 
BRANCH  18  19
ATOM     19  C   UNL A   1      33.022  28.520  25.162  1.00  0.00    -0.006 A 
ATOM     20  C   UNL A   1      33.887  28.907  26.196  1.00  0.00     0.010 A 
ATOM     21  C   UNL A   1      31.835  29.250  24.964  1.00  0.00     0.048 A 
ATOM     22  C   UNL A   1      33.581  30.008  27.002  1.00  0.00     0.001 A 
ATOM     23  C   UNL A   1      31.540  30.357  25.765  1.00  0.00     0.021 A 
ATOM     24  Cl  UNL A   1      30.661  28.797  23.773  1.00  0.00    -0.084 Cl
ATOM     25  C   UNL A   1      32.412  30.734  26.784  1.00  0.00     0.002 A 
ENDBRANCH  18  19
ENDBRANCH   7  11
ENDBRANCH   5   7
ENDBRANCH   4   5
ENDBRANCH   3   4
ENDBRANCH   2   3
ENDBRANCH   1   2
BRANCH   1  26
ATOM     26  C   UNL A   1      38.602  20.735  25.241  1.00  0.00     0.202 C 
BRANCH  26  27
ATOM     27  C   UNL A   1      39.372  19.448  25.552  1.00  0.00     0.261 C 
BRANCH  27  28
ATOM     28  O   UNL A   1      40.302  19.597  26.636  1.00  0.00    -0.460 OA
BRANCH  28  29
ATOM     29  C   UNL A   1      41.603  19.509  26.267  1.00  0.00     0.338 C 
ATOM     30  O   UNL A   1      42.143  18.592  25.662  1.00  0.00    -0.246 OA
BRANCH  29  31
ATOM     31  C   UNL A   1      42.309  20.766  26.564  1.00  0.00     0.060 A 
ATOM     32  C   UNL A   1      42.411  21.147  27.908  1.00  0.00     0.016 A 
ATOM     33  C   UNL A   1      42.785  21.601  25.551  1.00  0.00     0.016 A 
ATOM     34  C   UNL A   1      42.957  22.383  28.243  1.00  0.00     0.010 A 
ATOM     35  C   UNL A   1      43.326  22.846  25.889  1.00  0.00     0.010 A 
ATOM     36  C   UNL A   1      43.389  23.254  27.234  1.00  0.00    -0.014 A 
BRANCH  36  37
ATOM     37  C   UNL A   1      43.807  24.632  27.588  1.00  0.00     0.031 A 
ATOM     38  C   UNL A   1      42.762  25.657  27.928  1.00  0.00     0.074 A 
ATOM     39  C   UNL A   1      45.111  24.955  27.635  1.00  0.00     0.049 A 
ATOM     40  N   UNL A   1      42.908  26.920  28.244  1.00  0.00    -0.248 NA
ATOM     41  C   UNL A   1      41.364  25.198  27.913  1.00  0.00     0.031 C 
ATOM     42  C   UNL A   1      46.215  24.040  27.360  1.00  0.00     0.029 A 
ATOM     43  N   UNL A   1      45.724  26.148  27.927  1.00  0.00    -0.354 N 
ATOM     44  C   UNL A   1      41.626  27.406  28.459  1.00  0.00     0.074 A 
ATOM     45  C   UNL A   1      40.710  26.312  28.212  1.00  0.00     0.031 C 
ATOM     46  C   UNL A   1      47.375  24.707  27.487  1.00  0.00     0.029 A 
ATOM     47  C   UNL A   1      47.091  26.101  27.820  1.00  0.00     0.049 A 
ATOM     48  H   UNL A   1      45.231  26.958  28.189  1.00  0.00     0.167 HD
ATOM     49  C   UNL A   1      41.248  28.651  28.838  1.00  0.00     0.037 A 
ATOM     50  C   UNL A   1      48.007  27.081  27.952  1.00  0.00     0.037 A 
ATOM     51  C   UNL A   1      42.160  29.738  29.084  1.00  0.00     0.049 A 
ATOM     52  C   UNL A   1      47.554  28.476  28.295  1.00  0.00     0.074 A 
ATOM     53  C   UNL A   1      41.876  31.025  29.505  1.00  0.00     0.029 A 
ATOM     54  N   UNL A   1      43.536  29.666  28.919  1.00  0.00    -0.354 N 
ATOM     55  N   UNL A   1      46.343  28.920  28.533  1.00  0.00    -0.248 NA
ATOM     56  C   UNL A   1      48.597  29.507  28.388  1.00  0.00     0.031 C 
ATOM     57  C   UNL A   1      43.074  31.748  29.543  1.00  0.00     0.029 A 
ATOM     58  C   UNL A   1      44.110  30.896  29.195  1.00  0.00     0.049 A 
ATOM     59  H   UNL A   1      44.031  28.859  28.647  1.00  0.00     0.167 HD
ATOM     60  C   UNL A   1      46.480  30.272  28.818  1.00  0.00     0.074 A 
ATOM     61  C   UNL A   1      47.894  30.573  28.745  1.00  0.00     0.031 C 
ATOM     62  C   UNL A   1      45.520  31.183  29.112  1.00  0.00     0.037 A 
BRANCH  49  63
ATOM     63  C   UNL A   1      39.778  28.915  28.988  1.00  0.00     0.064 A 
ATOM     64  C   UNL A   1      38.991  29.339  27.908  1.00  0.00     0.173 A 
ATOM     65  C   UNL A   1      39.142  28.699  30.220  1.00  0.00     0.173 A 
ATOM     66  F   UNL A   1      39.553  29.570  26.711  1.00  0.00    -0.203 F 
ATOM     67  C   UNL A   1      37.624  29.560  28.060  1.00  0.00     0.198 A 
ATOM     68  C   UNL A   1      37.771  28.895  30.362  1.00  0.00     0.198 A 
ATOM     69  F   UNL A   1      39.848  28.290  31.284  1.00  0.00    -0.203 F 
ATOM     70  F   UNL A   1      36.898  30.005  27.026  1.00  0.00    -0.200 F 
ATOM     71  C   UNL A   1      37.015  29.331  29.285  1.00  0.00     0.200 A 
ATOM     72  F   UNL A   1      37.182  28.663  31.544  1.00  0.00    -0.200 F 
ATOM     73  F   UNL A   1      35.698  29.538  29.429  1.00  0.00    -0.200 F 
ENDBRANCH  49  63
BRANCH  50  74
ATOM     74  C   UNL A   1      49.446  26.783  27.735  1.00  0.00     0.064 A 
ATOM     75  C   UNL A   1      50.283  26.442  28.805  1.00  0.00     0.173 A 
ATOM     76  C   UNL A   1      50.016  26.850  26.454  1.00  0.00     0.173 A 
ATOM     77  F   UNL A   1      49.791  26.393  30.051  1.00  0.00    -0.203 F 
ATOM     78  C   UNL A   1      51.640  26.193  28.605  1.00  0.00     0.198 A 
ATOM     79  C   UNL A   1      51.366  26.573  26.252  1.00  0.00     0.198 A 
ATOM     80  F   UNL A   1      49.258  27.180  25.398  1.00  0.00    -0.203 F 
ATOM     81  F   UNL A   1      52.428  25.915  29.652  1.00  0.00    -0.200 F 
ATOM     82  C   UNL A   1      52.179  26.252  27.328  1.00  0.00     0.200 A 
ATOM     83  F   UNL A   1      51.881  26.624  25.015  1.00  0.00    -0.200 F 
ATOM     84  F   UNL A   1      53.483  26.012  27.137  1.00  0.00    -0.200 F 
ENDBRANCH  50  74
BRANCH  62  85
ATOM     85  C   UNL A   1      45.967  32.589  29.389  1.00  0.00     0.064 A 
ATOM     86  C   UNL A   1      46.337  33.001  30.679  1.00  0.00     0.173 A 
ATOM     87  C   UNL A   1      46.064  33.526  28.350  1.00  0.00     0.173 A 
ATOM     88  F   UNL A   1      46.247  32.146  31.710  1.00  0.00    -0.203 F 
ATOM     89  C   UNL A   1      46.764  34.303  30.921  1.00  0.00     0.198 A 
ATOM     90  C   UNL A   1      46.519  34.820  28.590  1.00  0.00     0.198 A 
ATOM     91  F   UNL A   1      45.729  33.183  27.096  1.00  0.00    -0.203 F 
ATOM     92  F   UNL A   1      47.068  34.686  32.168  1.00  0.00    -0.200 F 
ATOM     93  C   UNL A   1      46.862  35.210  29.876  1.00  0.00     0.200 A 
ATOM     94  F   UNL A   1      46.626  35.690  27.577  1.00  0.00    -0.200 F 
ATOM     95  F   UNL A   1      47.279  36.461  30.109  1.00  0.00    -0.200 F 
ENDBRANCH  62  85
ENDBRANCH  36  37
ENDBRANCH  29  31
ENDBRANCH  28  29
ENDBRANCH  27  28
ENDBRANCH  26  27
ENDBRANCH   1  26
TORSDOF 17
ENDMDL
