MODEL 1
REMARK VINA RESULT:     -12.8      0.000      0.000
REMARK SMILES O=C1NC(=S)S/C1=C\c1ccc(OCc2cn(-c3ccc(C(=O)OCCOCCOC(=O)c4ccc(-c5c6nc(c(-c7c(F)c(F)c(F)c(F)c7F)c7ccc([nH]7)c(-c7c(F)c(F)c(F)c(F)c7F)c7nc(c(-c8c(F)c(F)c(F)c(F)c8F)c8ccc5[nH]8)C=C7)C=C6)cc4)cc3)nn2)cc1
REMARK SMILES IDX 25 1 24 2 22 3 23 4 21 5 18 6 19 7 97 8 20 9 96 10 17 11
REMARK SMILES IDX 15 12 16 13 99 14 98 15 14 16 13 17 12 18 9 19 10 20 101 21
REMARK SMILES IDX 11 22 100 23 8 24 1 25 2 26 3 27 7 28 4 29 6 31 5 32 26 33
REMARK SMILES IDX 27 34 28 35 29 36 30 37 31 38 32 39 33 40 34 41 95 42 35 43
REMARK SMILES IDX 94 44 36 45 37 46 38 47 88 48 39 49 93 50 87 51 89 52 40 53
REMARK SMILES IDX 92 54 86 55 85 56 41 58 73 59 53 60 72 61 54 62 57 63 71 64
REMARK SMILES IDX 90 65 55 66 56 67 70 69 91 70 58 71 42 72 43 73 51 74 44 75
REMARK SMILES IDX 45 76 49 77 52 78 46 79 47 80 50 81 48 82 74 83 75 84 83 85
REMARK SMILES IDX 76 86 77 87 81 88 84 89 78 90 79 91 82 92 80 93 59 94 60 95
REMARK SMILES IDX 68 96 61 97 62 98 66 99 69 100 63 101 64 102 67 103 65 104
REMARK H PARENT 3 30 89 57 57 68
REMARK Flexibility Score: inf
ROOT
ATOM      1  C   UNL A   1      43.179  18.673  25.974  1.00  0.00     0.261 C 
ENDROOT
BRANCH   1   2
ATOM      2  O   UNL A   1      42.004  19.344  25.494  1.00  0.00    -0.460 OA
BRANCH   2   3
ATOM      3  C   UNL A   1      41.316  19.997  26.459  1.00  0.00     0.338 C 
ATOM      4  O   UNL A   1      41.733  20.356  27.549  1.00  0.00    -0.246 OA
BRANCH   3   5
ATOM      5  C   UNL A   1      39.989  20.398  25.960  1.00  0.00     0.060 A 
ATOM      6  C   UNL A   1      37.383  21.162  25.393  1.00  0.00     0.066 A 
ATOM      7  C   UNL A   1      38.282  22.104  25.912  1.00  0.00     0.029 A 
ATOM      8  C   UNL A   1      37.816  19.870  25.062  1.00  0.00     0.029 A 
ATOM      9  C   UNL A   1      39.576  21.708  26.228  1.00  0.00     0.018 A 
ATOM     10  C   UNL A   1      39.137  19.494  25.322  1.00  0.00     0.018 A 
BRANCH   6  11
ATOM     11  N   UNL A   1      36.017  21.510  25.324  1.00  0.00    -0.220 N 
ATOM     12  C   UNL A   1      33.858  21.480  25.017  1.00  0.00     0.120 A 
ATOM     13  C   UNL A   1      35.036  20.945  24.540  1.00  0.00     0.144 A 
ATOM     14  N   UNL A   1      34.156  22.360  26.023  1.00  0.00    -0.131 NA
ATOM     15  N   UNL A   1      35.462  22.368  26.204  1.00  0.00    -0.062 NA
BRANCH  12  16
ATOM     16  C   UNL A   1      32.437  21.153  24.691  1.00  0.00     0.289 C 
BRANCH  16  17
ATOM     17  O   UNL A   1      31.935  21.736  23.478  1.00  0.00    -0.487 OA
BRANCH  17  18
ATOM     18  C   UNL A   1      31.787  23.096  23.434  1.00  0.00     0.119 A 
ATOM     19  C   UNL A   1      31.073  25.809  23.321  1.00  0.00    -0.024 A 
ATOM     20  C   UNL A   1      30.504  24.975  24.286  1.00  0.00     0.012 A 
ATOM     21  C   UNL A   1      32.068  25.302  22.482  1.00  0.00     0.012 A 
ATOM     22  C   UNL A   1      30.859  23.622  24.337  1.00  0.00     0.047 A 
ATOM     23  C   UNL A   1      32.442  23.960  22.559  1.00  0.00     0.047 A 
BRANCH  19  24
ATOM     24  C   UNL A   1      30.631  27.197  23.168  1.00  0.00     0.029 C 
ATOM     25  O   UNL A   1      29.638  29.926  22.970  1.00  0.00    -0.268 OA
ATOM     26  C   UNL A   1      30.444  29.576  23.818  1.00  0.00     0.263 C 
ATOM     27  N   UNL A   1      30.960  30.391  24.786  1.00  0.00    -0.307 N 
ATOM     28  C   UNL A   1      30.998  28.205  23.971  1.00  0.00     0.080 C 
ATOM     29  C   UNL A   1      31.851  29.860  25.668  1.00  0.00     0.145 C 
ATOM     30  H   UNL A   1      30.695  31.339  24.845  1.00  0.00     0.171 HD
ATOM     31  S   UNL A   1      32.104  28.170  25.300  1.00  0.00    -0.055 SA
ATOM     32  S   UNL A   1      32.564  30.724  26.886  1.00  0.00    -0.052 S 
ENDBRANCH  19  24
ENDBRANCH  17  18
ENDBRANCH  16  17
ENDBRANCH  12  16
ENDBRANCH   6  11
ENDBRANCH   3   5
ENDBRANCH   2   3
ENDBRANCH   1   2
BRANCH   1  33
ATOM     33  C   UNL A   1      44.352  18.752  24.995  1.00  0.00     0.202 C 
BRANCH  33  34
ATOM     34  O   UNL A   1      44.741  20.022  24.474  1.00  0.00    -0.374 OA
BRANCH  34  35
ATOM     35  C   UNL A   1      45.776  20.778  25.093  1.00  0.00     0.202 C 
BRANCH  35  36
ATOM     36  C   UNL A   1      45.447  22.153  25.653  1.00  0.00     0.261 C 
BRANCH  36  37
ATOM     37  O   UNL A   1      44.164  22.184  26.253  1.00  0.00    -0.460 OA
BRANCH  37  38
ATOM     38  C   UNL A   1      43.272  22.942  25.587  1.00  0.00     0.338 C 
ATOM     39  O   UNL A   1      43.207  23.128  24.374  1.00  0.00    -0.246 OA
BRANCH  38  40
ATOM     40  C   UNL A   1      42.464  23.674  26.559  1.00  0.00     0.060 A 
ATOM     41  C   UNL A   1      41.578  24.603  26.015  1.00  0.00     0.016 A 
ATOM     42  C   UNL A   1      42.902  23.735  27.891  1.00  0.00     0.016 A 
ATOM     43  C   UNL A   1      41.383  25.771  26.705  1.00  0.00     0.010 A 
ATOM     44  C   UNL A   1      42.726  24.911  28.568  1.00  0.00     0.010 A 
ATOM     45  C   UNL A   1      42.060  25.945  27.917  1.00  0.00    -0.014 A 
BRANCH  45  46
ATOM     46  C   UNL A   1      41.943  27.224  28.573  1.00  0.00     0.031 A 
ATOM     47  C   UNL A   1      43.091  28.093  28.248  1.00  0.00     0.074 A 
ATOM     48  C   UNL A   1      40.858  27.558  29.296  1.00  0.00     0.049 A 
ATOM     49  N   UNL A   1      44.023  28.492  29.045  1.00  0.00    -0.248 NA
ATOM     50  C   UNL A   1      43.362  28.357  26.823  1.00  0.00     0.031 C 
ATOM     51  C   UNL A   1      39.600  26.822  29.442  1.00  0.00     0.029 A 
ATOM     52  N   UNL A   1      40.622  28.705  29.985  1.00  0.00    -0.354 N 
ATOM     53  C   UNL A   1      44.876  29.249  28.253  1.00  0.00     0.074 A 
ATOM     54  C   UNL A   1      44.560  28.935  26.888  1.00  0.00     0.031 C 
ATOM     55  C   UNL A   1      38.661  27.642  29.972  1.00  0.00     0.029 A 
ATOM     56  C   UNL A   1      39.284  28.908  30.314  1.00  0.00     0.049 A 
ATOM     57  H   UNL A   1      41.333  29.340  30.229  1.00  0.00     0.167 HD
ATOM     58  C   UNL A   1      45.535  30.311  28.785  1.00  0.00     0.037 A 
ATOM     59  C   UNL A   1      38.754  30.084  30.738  1.00  0.00     0.037 A 
ATOM     60  C   UNL A   1      45.625  30.193  30.219  1.00  0.00     0.049 A 
ATOM     61  C   UNL A   1      39.884  30.921  31.227  1.00  0.00     0.074 A 
ATOM     62  C   UNL A   1      46.186  29.270  31.080  1.00  0.00     0.029 A 
ATOM     63  N   UNL A   1      44.735  30.918  30.974  1.00  0.00    -0.354 N 
ATOM     64  N   UNL A   1      40.580  30.640  32.294  1.00  0.00    -0.248 NA
ATOM     65  C   UNL A   1      40.550  31.779  30.256  1.00  0.00     0.031 C 
ATOM     66  C   UNL A   1      45.276  29.180  32.175  1.00  0.00     0.029 A 
ATOM     67  C   UNL A   1      44.250  30.101  31.962  1.00  0.00     0.049 A 
ATOM     68  H   UNL A   1      44.489  31.859  30.830  1.00  0.00     0.167 HD
ATOM     69  C   UNL A   1      41.895  30.907  31.939  1.00  0.00     0.074 A 
ATOM     70  C   UNL A   1      41.808  31.666  30.693  1.00  0.00     0.031 C 
ATOM     71  C   UNL A   1      42.927  30.234  32.524  1.00  0.00     0.037 A 
BRANCH  58  72
ATOM     72  C   UNL A   1      45.675  31.631  28.064  1.00  0.00     0.064 A 
ATOM     73  C   UNL A   1      44.508  32.270  27.608  1.00  0.00     0.173 A 
ATOM     74  C   UNL A   1      46.887  32.131  27.533  1.00  0.00     0.173 A 
ATOM     75  F   UNL A   1      43.300  31.871  28.034  1.00  0.00    -0.203 F 
ATOM     76  C   UNL A   1      44.547  33.264  26.627  1.00  0.00     0.198 A 
ATOM     77  C   UNL A   1      46.926  33.158  26.596  1.00  0.00     0.198 A 
ATOM     78  F   UNL A   1      48.077  31.582  27.798  1.00  0.00    -0.203 F 
ATOM     79  F   UNL A   1      43.404  33.745  26.124  1.00  0.00    -0.200 F 
ATOM     80  C   UNL A   1      45.756  33.700  26.116  1.00  0.00     0.200 A 
ATOM     81  F   UNL A   1      48.109  33.552  26.102  1.00  0.00    -0.200 F 
ATOM     82  F   UNL A   1      45.794  34.603  25.127  1.00  0.00    -0.200 F 
ENDBRANCH  58  72
BRANCH  59  83
ATOM     83  C   UNL A   1      37.432  30.669  30.396  1.00  0.00     0.064 A 
ATOM     84  C   UNL A   1      36.551  31.104  31.400  1.00  0.00     0.173 A 
ATOM     85  C   UNL A   1      37.128  31.073  29.081  1.00  0.00     0.173 A 
ATOM     86  F   UNL A   1      36.796  30.809  32.685  1.00  0.00    -0.203 F 
ATOM     87  C   UNL A   1      35.446  31.913  31.109  1.00  0.00     0.198 A 
ATOM     88  C   UNL A   1      36.022  31.875  28.792  1.00  0.00     0.198 A 
ATOM     89  F   UNL A   1      37.951  30.785  28.064  1.00  0.00    -0.203 F 
ATOM     90  F   UNL A   1      34.664  32.362  32.102  1.00  0.00    -0.200 F 
ATOM     91  C   UNL A   1      35.188  32.306  29.806  1.00  0.00     0.200 A 
ATOM     92  F   UNL A   1      35.808  32.282  27.532  1.00  0.00    -0.200 F 
ATOM     93  F   UNL A   1      34.168  33.131  29.533  1.00  0.00    -0.200 F 
ENDBRANCH  59  83
BRANCH  71  94
ATOM     94  C   UNL A   1      42.618  29.394  33.732  1.00  0.00     0.064 A 
ATOM     95  C   UNL A   1      42.155  28.067  33.676  1.00  0.00     0.173 A 
ATOM     96  C   UNL A   1      42.939  29.911  34.993  1.00  0.00     0.173 A 
ATOM     97  F   UNL A   1      41.919  27.469  32.501  1.00  0.00    -0.203 F 
ATOM     98  C   UNL A   1      41.982  27.313  34.836  1.00  0.00     0.198 A 
ATOM     99  C   UNL A   1      42.804  29.144  36.146  1.00  0.00     0.198 A 
ATOM    100  F   UNL A   1      43.438  31.153  35.102  1.00  0.00    -0.203 F 
ATOM    101  F   UNL A   1      41.527  26.054  34.761  1.00  0.00    -0.200 F 
ATOM    102  C   UNL A   1      42.314  27.850  36.069  1.00  0.00     0.200 A 
ATOM    103  F   UNL A   1      43.173  29.652  37.329  1.00  0.00    -0.200 F 
ATOM    104  F   UNL A   1      42.189  27.114  37.182  1.00  0.00    -0.200 F 
ENDBRANCH  71  94
ENDBRANCH  45  46
ENDBRANCH  38  40
ENDBRANCH  37  38
ENDBRANCH  36  37
ENDBRANCH  35  36
ENDBRANCH  34  35
ENDBRANCH  33  34
ENDBRANCH   1  33
TORSDOF 19
ENDMDL
MODEL 2
REMARK VINA RESULT:     -12.3      3.725     10.305
REMARK SMILES O=C1NC(=S)S/C1=C\c1ccc(OCc2cn(-c3ccc(C(=O)OCCOCCOC(=O)c4ccc(-c5c6nc(c(-c7c(F)c(F)c(F)c(F)c7F)c7ccc([nH]7)c(-c7c(F)c(F)c(F)c(F)c7F)c7nc(c(-c8c(F)c(F)c(F)c(F)c8F)c8ccc5[nH]8)C=C7)C=C6)cc4)cc3)nn2)cc1
REMARK SMILES IDX 25 1 24 2 22 3 23 4 21 5 18 6 19 7 97 8 20 9 96 10 17 11
REMARK SMILES IDX 15 12 16 13 99 14 98 15 14 16 13 17 12 18 9 19 10 20 101 21
REMARK SMILES IDX 11 22 100 23 8 24 1 25 2 26 3 27 7 28 4 29 6 31 5 32 26 33
REMARK SMILES IDX 27 34 28 35 29 36 30 37 31 38 32 39 33 40 34 41 95 42 35 43
REMARK SMILES IDX 94 44 36 45 37 46 38 47 88 48 39 49 93 50 87 51 89 52 40 53
REMARK SMILES IDX 92 54 86 55 85 56 41 58 73 59 53 60 72 61 54 62 57 63 71 64
REMARK SMILES IDX 90 65 55 66 56 67 70 69 91 70 58 71 42 72 43 73 51 74 44 75
REMARK SMILES IDX 45 76 49 77 52 78 46 79 47 80 50 81 48 82 74 83 75 84 83 85
REMARK SMILES IDX 76 86 77 87 81 88 84 89 78 90 79 91 82 92 80 93 59 94 60 95
REMARK SMILES IDX 68 96 61 97 62 98 66 99 69 100 63 101 64 102 67 103 65 104
REMARK H PARENT 3 30 89 57 57 68
REMARK Flexibility Score: inf
ROOT
ATOM      1  C   UNL A   1      33.191  36.399  29.544  1.00  0.00     0.261 C 
ENDROOT
BRANCH   1   2
ATOM      2  O   UNL A   1      32.748  35.291  28.748  1.00  0.00    -0.460 OA
BRANCH   2   3
ATOM      3  C   UNL A   1      33.753  34.501  28.305  1.00  0.00     0.338 C 
ATOM      4  O   UNL A   1      34.952  34.716  28.385  1.00  0.00    -0.246 OA
BRANCH   3   5
ATOM      5  C   UNL A   1      33.221  33.207  27.842  1.00  0.00     0.060 A 
ATOM      6  C   UNL A   1      32.484  30.796  26.685  1.00  0.00     0.066 A 
ATOM      7  C   UNL A   1      33.673  30.873  27.422  1.00  0.00     0.029 A 
ATOM      8  C   UNL A   1      31.615  31.895  26.615  1.00  0.00     0.029 A 
ATOM      9  C   UNL A   1      34.057  32.091  27.969  1.00  0.00     0.018 A 
ATOM     10  C   UNL A   1      31.974  33.101  27.221  1.00  0.00     0.018 A 
BRANCH   6  11
ATOM     11  N   UNL A   1      32.244  29.631  25.925  1.00  0.00    -0.220 N 
ATOM     12  C   UNL A   1      31.346  27.848  25.046  1.00  0.00     0.120 A 
ATOM     13  C   UNL A   1      31.367  28.605  26.198  1.00  0.00     0.144 A 
ATOM     14  N   UNL A   1      32.218  28.401  24.147  1.00  0.00    -0.131 NA
ATOM     15  N   UNL A   1      32.753  29.480  24.685  1.00  0.00    -0.062 NA
BRANCH  12  16
ATOM     16  C   UNL A   1      30.481  26.694  24.653  1.00  0.00     0.289 C 
BRANCH  16  17
ATOM     17  O   UNL A   1      30.251  25.721  25.684  1.00  0.00    -0.487 OA
BRANCH  17  18
ATOM     18  C   UNL A   1      30.922  24.531  25.605  1.00  0.00     0.119 A 
ATOM     19  C   UNL A   1      31.975  21.958  25.213  1.00  0.00    -0.024 A 
ATOM     20  C   UNL A   1      31.583  22.728  24.116  1.00  0.00     0.012 A 
ATOM     21  C   UNL A   1      31.930  22.519  26.491  1.00  0.00     0.012 A 
ATOM     22  C   UNL A   1      31.054  24.008  24.315  1.00  0.00     0.047 A 
ATOM     23  C   UNL A   1      31.433  23.809  26.681  1.00  0.00     0.047 A 
BRANCH  19  24
ATOM     24  C   UNL A   1      32.418  20.573  25.043  1.00  0.00     0.029 C 
ATOM     25  O   UNL A   1      33.312  17.847  24.547  1.00  0.00    -0.268 OA
ATOM     26  C   UNL A   1      34.086  18.772  24.731  1.00  0.00     0.263 C 
ATOM     27  N   UNL A   1      35.448  18.665  24.704  1.00  0.00    -0.307 N 
ATOM     28  C   UNL A   1      33.700  20.183  24.997  1.00  0.00     0.080 C 
ATOM     29  C   UNL A   1      36.186  19.788  24.925  1.00  0.00     0.145 C 
ATOM     30  H   UNL A   1      35.885  17.799  24.529  1.00  0.00     0.171 HD
ATOM     31  S   UNL A   1      35.121  21.147  25.196  1.00  0.00    -0.055 SA
ATOM     32  S   UNL A   1      37.841  19.812  24.931  1.00  0.00    -0.052 S 
ENDBRANCH  19  24
ENDBRANCH  17  18
ENDBRANCH  16  17
ENDBRANCH  12  16
ENDBRANCH   6  11
ENDBRANCH   3   5
ENDBRANCH   2   3
ENDBRANCH   1   2
BRANCH   1  33
ATOM     33  C   UNL A   1      32.730  36.310  31.000  1.00  0.00     0.202 C 
BRANCH  33  34
ATOM     34  O   UNL A   1      32.715  35.041  31.650  1.00  0.00    -0.374 OA
BRANCH  34  35
ATOM     35  C   UNL A   1      33.785  34.644  32.500  1.00  0.00     0.202 C 
BRANCH  35  36
ATOM     36  C   UNL A   1      35.152  34.382  31.886  1.00  0.00     0.261 C 
BRANCH  36  37
ATOM     37  O   UNL A   1      35.165  33.193  31.117  1.00  0.00    -0.460 OA
BRANCH  37  38
ATOM     38  C   UNL A   1      35.736  32.147  31.746  1.00  0.00     0.338 C 
ATOM     39  O   UNL A   1      35.678  31.872  32.942  1.00  0.00    -0.246 OA
BRANCH  38  40
ATOM     40  C   UNL A   1      36.602  31.450  30.799  1.00  0.00     0.060 A 
ATOM     41  C   UNL A   1      36.569  30.058  30.878  1.00  0.00     0.016 A 
ATOM     42  C   UNL A   1      37.672  32.151  30.222  1.00  0.00     0.016 A 
ATOM     43  C   UNL A   1      37.745  29.384  30.673  1.00  0.00     0.010 A 
ATOM     44  C   UNL A   1      38.851  31.480  30.041  1.00  0.00     0.010 A 
ATOM     45  C   UNL A   1      38.891  30.129  30.372  1.00  0.00    -0.014 A 
BRANCH  45  46
ATOM     46  C   UNL A   1      40.144  29.422  30.278  1.00  0.00     0.031 A 
ATOM     47  C   UNL A   1      40.789  29.308  31.602  1.00  0.00     0.074 A 
ATOM     48  C   UNL A   1      40.570  28.875  29.125  1.00  0.00     0.049 A 
ATOM     49  N   UNL A   1      41.877  29.878  31.995  1.00  0.00    -0.248 NA
ATOM     50  C   UNL A   1      40.011  28.677  32.684  1.00  0.00     0.031 C 
ATOM     51  C   UNL A   1      39.851  28.757  27.854  1.00  0.00     0.029 A 
ATOM     52  N   UNL A   1      41.729  28.209  28.882  1.00  0.00    -0.354 N 
ATOM     53  C   UNL A   1      42.032  29.484  33.318  1.00  0.00     0.074 A 
ATOM     54  C   UNL A   1      40.764  28.962  33.746  1.00  0.00     0.031 C 
ATOM     55  C   UNL A   1      40.490  27.865  27.060  1.00  0.00     0.029 A 
ATOM     56  C   UNL A   1      41.718  27.452  27.714  1.00  0.00     0.049 A 
ATOM     57  H   UNL A   1      42.509  28.256  29.481  1.00  0.00     0.167 HD
ATOM     58  C   UNL A   1      43.276  29.316  33.836  1.00  0.00     0.037 A 
ATOM     59  C   UNL A   1      42.624  26.489  27.400  1.00  0.00     0.037 A 
ATOM     60  C   UNL A   1      44.254  30.048  33.070  1.00  0.00     0.049 A 
ATOM     61  C   UNL A   1      43.826  26.728  28.244  1.00  0.00     0.074 A 
ATOM     62  C   UNL A   1      44.440  31.382  32.763  1.00  0.00     0.029 A 
ATOM     63  N   UNL A   1      45.007  29.346  32.162  1.00  0.00    -0.354 N 
ATOM     64  N   UNL A   1      44.607  27.764  28.109  1.00  0.00    -0.248 NA
ATOM     65  C   UNL A   1      43.864  26.083  29.550  1.00  0.00     0.031 C 
ATOM     66  C   UNL A   1      44.911  31.393  31.417  1.00  0.00     0.029 A 
ATOM     67  C   UNL A   1      45.058  30.069  31.000  1.00  0.00     0.049 A 
ATOM     68  H   UNL A   1      45.436  28.474  32.319  1.00  0.00     0.167 HD
ATOM     69  C   UNL A   1      44.893  28.162  29.408  1.00  0.00     0.074 A 
ATOM     70  C   UNL A   1      44.460  27.051  30.253  1.00  0.00     0.031 C 
ATOM     71  C   UNL A   1      45.173  29.467  29.693  1.00  0.00     0.037 A 
BRANCH  58  72
ATOM     72  C   UNL A   1      43.641  28.150  34.723  1.00  0.00     0.064 A 
ATOM     73  C   UNL A   1      43.353  26.849  34.271  1.00  0.00     0.173 A 
ATOM     74  C   UNL A   1      43.961  28.256  36.097  1.00  0.00     0.173 A 
ATOM     75  F   UNL A   1      43.022  26.630  32.990  1.00  0.00    -0.203 F 
ATOM     76  C   UNL A   1      43.296  25.761  35.144  1.00  0.00     0.198 A 
ATOM     77  C   UNL A   1      43.957  27.160  36.954  1.00  0.00     0.198 A 
ATOM     78  F   UNL A   1      44.179  29.427  36.704  1.00  0.00    -0.203 F 
ATOM     79  F   UNL A   1      42.882  24.570  34.694  1.00  0.00    -0.200 F 
ATOM     80  C   UNL A   1      43.589  25.919  36.487  1.00  0.00     0.200 A 
ATOM     81  F   UNL A   1      44.228  27.342  38.255  1.00  0.00    -0.200 F 
ATOM     82  F   UNL A   1      43.469  24.892  37.339  1.00  0.00    -0.200 F 
ENDBRANCH  58  72
BRANCH  59  83
ATOM     83  C   UNL A   1      42.380  25.188  26.727  1.00  0.00     0.064 A 
ATOM     84  C   UNL A   1      43.097  24.820  25.577  1.00  0.00     0.173 A 
ATOM     85  C   UNL A   1      41.649  24.162  27.360  1.00  0.00     0.173 A 
ATOM     86  F   UNL A   1      43.863  25.722  24.944  1.00  0.00    -0.203 F 
ATOM     87  C   UNL A   1      43.101  23.504  25.101  1.00  0.00     0.198 A 
ATOM     88  C   UNL A   1      41.648  22.851  26.880  1.00  0.00     0.198 A 
ATOM     89  F   UNL A   1      41.001  24.387  28.511  1.00  0.00    -0.203 F 
ATOM     90  F   UNL A   1      43.849  23.178  24.037  1.00  0.00    -0.200 F 
ATOM     91  C   UNL A   1      42.384  22.518  25.759  1.00  0.00     0.200 A 
ATOM     92  F   UNL A   1      40.983  21.899  27.551  1.00  0.00    -0.200 F 
ATOM     93  F   UNL A   1      42.437  21.245  25.343  1.00  0.00    -0.200 F 
ENDBRANCH  59  83
BRANCH  71  94
ATOM     94  C   UNL A   1      45.416  30.398  28.538  1.00  0.00     0.064 A 
ATOM     95  C   UNL A   1      44.402  31.095  27.857  1.00  0.00     0.173 A 
ATOM     96  C   UNL A   1      46.742  30.700  28.203  1.00  0.00     0.173 A 
ATOM     97  F   UNL A   1      43.114  30.935  28.187  1.00  0.00    -0.203 F 
ATOM     98  C   UNL A   1      44.707  32.019  26.857  1.00  0.00     0.198 A 
ATOM     99  C   UNL A   1      47.045  31.650  27.233  1.00  0.00     0.198 A 
ATOM    100  F   UNL A   1      47.751  30.105  28.859  1.00  0.00    -0.203 F 
ATOM    101  F   UNL A   1      43.724  32.664  26.212  1.00  0.00    -0.200 F 
ATOM    102  C   UNL A   1      46.029  32.301  26.553  1.00  0.00     0.200 A 
ATOM    103  F   UNL A   1      48.325  31.954  26.978  1.00  0.00    -0.200 F 
ATOM    104  F   UNL A   1      46.326  33.219  25.622  1.00  0.00    -0.200 F 
ENDBRANCH  71  94
ENDBRANCH  45  46
ENDBRANCH  38  40
ENDBRANCH  37  38
ENDBRANCH  36  37
ENDBRANCH  35  36
ENDBRANCH  34  35
ENDBRANCH  33  34
ENDBRANCH   1  33
TORSDOF 19
ENDMDL
MODEL 3
REMARK VINA RESULT:     -11.6      1.499      2.108
REMARK SMILES O=C1NC(=S)S/C1=C\c1ccc(OCc2cn(-c3ccc(C(=O)OCCOCCOC(=O)c4ccc(-c5c6nc(c(-c7c(F)c(F)c(F)c(F)c7F)c7ccc([nH]7)c(-c7c(F)c(F)c(F)c(F)c7F)c7nc(c(-c8c(F)c(F)c(F)c(F)c8F)c8ccc5[nH]8)C=C7)C=C6)cc4)cc3)nn2)cc1
REMARK SMILES IDX 25 1 24 2 22 3 23 4 21 5 18 6 19 7 97 8 20 9 96 10 17 11
REMARK SMILES IDX 15 12 16 13 99 14 98 15 14 16 13 17 12 18 9 19 10 20 101 21
REMARK SMILES IDX 11 22 100 23 8 24 1 25 2 26 3 27 7 28 4 29 6 31 5 32 26 33
REMARK SMILES IDX 27 34 28 35 29 36 30 37 31 38 32 39 33 40 34 41 95 42 35 43
REMARK SMILES IDX 94 44 36 45 37 46 38 47 88 48 39 49 93 50 87 51 89 52 40 53
REMARK SMILES IDX 92 54 86 55 85 56 41 58 73 59 53 60 72 61 54 62 57 63 71 64
REMARK SMILES IDX 90 65 55 66 56 67 70 69 91 70 58 71 42 72 43 73 51 74 44 75
REMARK SMILES IDX 45 76 49 77 52 78 46 79 47 80 50 81 48 82 74 83 75 84 83 85
REMARK SMILES IDX 76 86 77 87 81 88 84 89 78 90 79 91 82 92 80 93 59 94 60 95
REMARK SMILES IDX 68 96 61 97 62 98 66 99 69 100 63 101 64 102 67 103 65 104
REMARK H PARENT 3 30 89 57 57 68
REMARK Flexibility Score: inf
ROOT
ATOM      1  C   UNL A   1      42.842  20.131  26.243  1.00  0.00     0.261 C 
ENDROOT
BRANCH   1   2
ATOM      2  O   UNL A   1      41.535  20.512  25.791  1.00  0.00    -0.460 OA
BRANCH   2   3
ATOM      3  C   UNL A   1      40.738  20.998  26.771  1.00  0.00     0.338 C 
ATOM      4  O   UNL A   1      41.063  21.288  27.912  1.00  0.00    -0.246 OA
BRANCH   3   5
ATOM      5  C   UNL A   1      39.403  21.316  26.235  1.00  0.00     0.060 A 
ATOM      6  C   UNL A   1      37.051  21.873  24.873  1.00  0.00     0.066 A 
ATOM      7  C   UNL A   1      37.518  20.554  24.932  1.00  0.00     0.029 A 
ATOM      8  C   UNL A   1      37.703  22.893  25.581  1.00  0.00     0.029 A 
ATOM      9  C   UNL A   1      38.715  20.284  25.584  1.00  0.00     0.018 A 
ATOM     10  C   UNL A   1      38.873  22.606  26.290  1.00  0.00     0.018 A 
BRANCH   6  11
ATOM     11  N   UNL A   1      35.985  22.166  23.995  1.00  0.00    -0.220 N 
ATOM     12  C   UNL A   1      34.013  22.529  23.139  1.00  0.00     0.120 A 
ATOM     13  C   UNL A   1      34.662  21.806  24.118  1.00  0.00     0.144 A 
ATOM     14  N   UNL A   1      34.943  23.255  22.445  1.00  0.00    -0.131 NA
ATOM     15  N   UNL A   1      36.132  23.032  22.972  1.00  0.00    -0.062 NA
BRANCH  12  16
ATOM     16  C   UNL A   1      32.555  22.697  22.858  1.00  0.00     0.289 C 
BRANCH  16  17
ATOM     17  O   UNL A   1      32.119  24.052  22.663  1.00  0.00    -0.487 OA
BRANCH  17  18
ATOM     18  C   UNL A   1      32.423  24.969  23.633  1.00  0.00     0.119 A 
ATOM     19  C   UNL A   1      33.438  26.821  25.482  1.00  0.00    -0.024 A 
ATOM     20  C   UNL A   1      33.671  26.997  24.116  1.00  0.00     0.012 A 
ATOM     21  C   UNL A   1      32.616  25.775  25.905  1.00  0.00     0.012 A 
ATOM     22  C   UNL A   1      33.167  26.069  23.198  1.00  0.00     0.047 A 
ATOM     23  C   UNL A   1      32.088  24.872  24.982  1.00  0.00     0.047 A 
BRANCH  19  24
ATOM     24  C   UNL A   1      34.053  27.708  26.472  1.00  0.00     0.029 C 
ATOM     25  O   UNL A   1      35.362  29.535  28.323  1.00  0.00    -0.268 OA
ATOM     26  C   UNL A   1      34.359  29.836  27.696  1.00  0.00     0.263 C 
ATOM     27  N   UNL A   1      33.741  31.053  27.754  1.00  0.00    -0.307 N 
ATOM     28  C   UNL A   1      33.636  28.953  26.743  1.00  0.00     0.080 C 
ATOM     29  C   UNL A   1      32.627  31.246  26.994  1.00  0.00     0.145 C 
ATOM     30  H   UNL A   1      34.090  31.772  28.330  1.00  0.00     0.171 HD
ATOM     31  S   UNL A   1      32.273  29.793  26.090  1.00  0.00    -0.055 SA
ATOM     32  S   UNL A   1      31.769  32.661  26.966  1.00  0.00    -0.052 S 
ENDBRANCH  19  24
ENDBRANCH  17  18
ENDBRANCH  16  17
ENDBRANCH  12  16
ENDBRANCH   6  11
ENDBRANCH   3   5
ENDBRANCH   2   3
ENDBRANCH   1   2
BRANCH   1  33
ATOM     33  C   UNL A   1      43.774  19.728  25.099  1.00  0.00     0.202 C 
BRANCH  33  34
ATOM     34  O   UNL A   1      44.528  20.735  24.426  1.00  0.00    -0.374 OA
BRANCH  34  35
ATOM     35  C   UNL A   1      45.524  21.483  25.114  1.00  0.00     0.202 C 
BRANCH  35  36
ATOM     36  C   UNL A   1      45.308  22.975  25.322  1.00  0.00     0.261 C 
BRANCH  36  37
ATOM     37  O   UNL A   1      44.228  23.233  26.200  1.00  0.00    -0.460 OA
BRANCH  37  38
ATOM     38  C   UNL A   1      43.087  23.572  25.570  1.00  0.00     0.338 C 
ATOM     39  O   UNL A   1      42.809  23.404  24.384  1.00  0.00    -0.246 OA
BRANCH  38  40
ATOM     40  C   UNL A   1      42.258  24.347  26.490  1.00  0.00     0.060 A 
ATOM     41  C   UNL A   1      41.518  25.373  25.902  1.00  0.00     0.016 A 
ATOM     42  C   UNL A   1      42.568  24.324  27.858  1.00  0.00     0.016 A 
ATOM     43  C   UNL A   1      41.364  26.532  26.617  1.00  0.00     0.010 A 
ATOM     44  C   UNL A   1      42.435  25.490  28.563  1.00  0.00     0.010 A 
ATOM     45  C   UNL A   1      41.933  26.603  27.894  1.00  0.00    -0.014 A 
BRANCH  45  46
ATOM     46  C   UNL A   1      41.870  27.866  28.587  1.00  0.00     0.031 A 
ATOM     47  C   UNL A   1      43.013  28.726  28.224  1.00  0.00     0.074 A 
ATOM     48  C   UNL A   1      40.829  28.197  29.373  1.00  0.00     0.049 A 
ATOM     49  N   UNL A   1      43.991  29.091  28.981  1.00  0.00    -0.248 NA
ATOM     50  C   UNL A   1      43.213  29.023  26.793  1.00  0.00     0.031 C 
ATOM     51  C   UNL A   1      39.569  27.475  29.567  1.00  0.00     0.029 A 
ATOM     52  N   UNL A   1      40.647  29.329  30.102  1.00  0.00    -0.354 N 
ATOM     53  C   UNL A   1      44.814  29.856  28.164  1.00  0.00     0.074 A 
ATOM     54  C   UNL A   1      44.422  29.582  26.810  1.00  0.00     0.031 C 
ATOM     55  C   UNL A   1      38.672  28.294  30.165  1.00  0.00     0.029 A 
ATOM     56  C   UNL A   1      39.332  29.542  30.506  1.00  0.00     0.049 A 
ATOM     57  H   UNL A   1      41.380  29.947  30.324  1.00  0.00     0.167 HD
ATOM     58  C   UNL A   1      45.516  30.895  28.687  1.00  0.00     0.037 A 
ATOM     59  C   UNL A   1      38.843  30.715  30.985  1.00  0.00     0.037 A 
ATOM     60  C   UNL A   1      45.678  30.739  30.111  1.00  0.00     0.049 A 
ATOM     61  C   UNL A   1      40.010  31.523  31.435  1.00  0.00     0.074 A 
ATOM     62  C   UNL A   1      46.269  29.786  30.918  1.00  0.00     0.029 A 
ATOM     63  N   UNL A   1      44.840  31.456  30.929  1.00  0.00    -0.354 N 
ATOM     64  N   UNL A   1      40.756  31.204  32.457  1.00  0.00    -0.248 NA
ATOM     65  C   UNL A   1      40.638  32.395  30.452  1.00  0.00     0.031 C 
ATOM     66  C   UNL A   1      45.416  29.681  32.057  1.00  0.00     0.029 A 
ATOM     67  C   UNL A   1      44.395  30.622  31.921  1.00  0.00     0.049 A 
ATOM     68  H   UNL A   1      44.602  32.405  30.822  1.00  0.00     0.167 HD
ATOM     69  C   UNL A   1      42.054  31.462  32.041  1.00  0.00     0.074 A 
ATOM     70  C   UNL A   1      41.914  32.254  30.820  1.00  0.00     0.031 C 
ATOM     71  C   UNL A   1      43.105  30.759  32.554  1.00  0.00     0.037 A 
BRANCH  58  72
ATOM     72  C   UNL A   1      45.639  32.230  27.993  1.00  0.00     0.064 A 
ATOM     73  C   UNL A   1      44.459  32.919  27.654  1.00  0.00     0.173 A 
ATOM     74  C   UNL A   1      46.818  32.709  27.375  1.00  0.00     0.173 A 
ATOM     75  F   UNL A   1      43.279  32.545  28.169  1.00  0.00    -0.203 F 
ATOM     76  C   UNL A   1      44.450  33.940  26.701  1.00  0.00     0.198 A 
ATOM     77  C   UNL A   1      46.813  33.762  26.467  1.00  0.00     0.198 A 
ATOM     78  F   UNL A   1      48.007  32.116  27.524  1.00  0.00    -0.203 F 
ATOM     79  F   UNL A   1      43.285  34.470  26.309  1.00  0.00    -0.200 F 
ATOM     80  C   UNL A   1      45.626  34.354  26.101  1.00  0.00     0.200 A 
ATOM     81  F   UNL A   1      47.963  34.134  25.885  1.00  0.00    -0.200 F 
ATOM     82  F   UNL A   1      45.610  35.284  25.137  1.00  0.00    -0.200 F 
ENDBRANCH  58  72
BRANCH  59  83
ATOM     83  C   UNL A   1      37.515  31.326  30.728  1.00  0.00     0.064 A 
ATOM     84  C   UNL A   1      36.579  31.491  31.764  1.00  0.00     0.173 A 
ATOM     85  C   UNL A   1      37.246  32.019  29.531  1.00  0.00     0.173 A 
ATOM     86  F   UNL A   1      36.785  30.910  32.955  1.00  0.00    -0.203 F 
ATOM     87  C   UNL A   1      35.457  32.315  31.618  1.00  0.00     0.198 A 
ATOM     88  C   UNL A   1      36.123  32.836  29.385  1.00  0.00     0.198 A 
ATOM     89  F   UNL A   1      38.118  32.000  28.513  1.00  0.00    -0.203 F 
ATOM     90  F   UNL A   1      34.621  32.497  32.651  1.00  0.00    -0.200 F 
ATOM     91  C   UNL A   1      35.235  32.995  30.431  1.00  0.00     0.200 A 
ATOM     92  F   UNL A   1      35.944  33.520  28.246  1.00  0.00    -0.200 F 
ATOM     93  F   UNL A   1      34.196  33.833  30.311  1.00  0.00    -0.200 F 
ENDBRANCH  59  83
BRANCH  71  94
ATOM     94  C   UNL A   1      42.846  29.893  33.755  1.00  0.00     0.064 A 
ATOM     95  C   UNL A   1      42.921  30.343  35.086  1.00  0.00     0.173 A 
ATOM     96  C   UNL A   1      42.365  28.596  33.541  1.00  0.00     0.173 A 
ATOM     97  F   UNL A   1      43.277  31.603  35.368  1.00  0.00    -0.203 F 
ATOM     98  C   UNL A   1      42.571  29.512  36.150  1.00  0.00     0.198 A 
ATOM     99  C   UNL A   1      41.979  27.782  34.601  1.00  0.00     0.198 A 
ATOM    100  F   UNL A   1      42.220  28.133  32.289  1.00  0.00    -0.203 F 
ATOM    101  F   UNL A   1      42.662  29.958  37.412  1.00  0.00    -0.200 F 
ATOM    102  C   UNL A   1      42.093  28.235  35.906  1.00  0.00     0.200 A 
ATOM    103  F   UNL A   1      41.472  26.567  34.356  1.00  0.00    -0.200 F 
ATOM    104  F   UNL A   1      41.717  27.449  36.924  1.00  0.00    -0.200 F 
ENDBRANCH  71  94
ENDBRANCH  45  46
ENDBRANCH  38  40
ENDBRANCH  37  38
ENDBRANCH  36  37
ENDBRANCH  35  36
ENDBRANCH  34  35
ENDBRANCH  33  34
ENDBRANCH   1  33
TORSDOF 19
ENDMDL
