MODEL 1
REMARK VINA RESULT:     -10.5      0.000      0.000
REMARK SMILES CC[C@@]1(C(=O)OCCOCCOC(=O)c2ccc(-c3c4nc(c(-c5c(F)c(F)c(F)c(F)c5F)c5ccc([nH]5)c(-c5c(F)c(F)c(F)c(F)c5F)c5nc(c(-c6c(F)c(F)c(F)c(F)c6F)c6ccc3[nH]6)C=C5)C=C4)cc2)CCN(C(=O)N(C)CCc2cccs2)C1
REMARK SMILES IDX 7 1 6 2 4 3 5 4 3 5 78 6 92 7 79 8 80 9 2 10 1 11 81 12
REMARK SMILES IDX 82 13 83 14 84 15 85 16 86 17 87 18 88 19 91 20 89 21 90 22
REMARK SMILES IDX 8 23 9 24 10 25 11 26 12 27 13 28 14 29 15 30 16 31 77 32
REMARK SMILES IDX 17 33 76 34 18 35 19 36 20 37 70 38 21 39 75 40 69 41 71 42
REMARK SMILES IDX 22 43 74 44 68 45 67 46 23 48 55 49 35 50 54 51 36 52 39 53
REMARK SMILES IDX 53 54 72 55 37 56 38 57 52 59 73 60 40 61 24 62 25 63 33 64
REMARK SMILES IDX 26 65 27 66 31 67 34 68 28 69 29 70 32 71 30 72 56 73 57 74
REMARK SMILES IDX 65 75 58 76 59 77 63 78 66 79 60 80 61 81 64 82 62 83 41 84
REMARK SMILES IDX 42 85 50 86 43 87 44 88 48 89 51 90 45 91 46 92 49 93 47 94
REMARK H PARENT 71 47 39 58
REMARK Flexibility Score: inf
ROOT
ATOM      1  C   UNL A   1      36.600  22.875  23.747  1.00  0.00     0.261 C 
ENDROOT
BRANCH   1   2
ATOM      2  O   UNL A   1      35.277  23.148  24.252  1.00  0.00    -0.463 OA
BRANCH   2   3
ATOM      3  C   UNL A   1      34.267  22.957  23.364  1.00  0.00     0.314 C 
ATOM      4  O   UNL A   1      34.315  23.309  22.189  1.00  0.00    -0.252 OA
BRANCH   3   5
ATOM      5  C   UNL A   1      33.058  22.228  23.950  1.00  0.00     0.087 C 
ATOM      6  C   UNL A   1      31.800  22.212  23.068  1.00  0.00     0.042 C 
ATOM      7  C   UNL A   1      32.611  22.992  25.204  1.00  0.00     0.140 C 
ATOM      8  C   UNL A   1      30.945  23.387  23.532  1.00  0.00     0.122 C 
ATOM      9  N   UNL A   1      31.361  23.684  24.888  1.00  0.00    -0.323 N 
BRANCH   5  10
ATOM     10  C   UNL A   1      33.596  20.810  24.291  1.00  0.00     0.017 C 
ATOM     11  C   UNL A   1      32.574  19.709  24.526  1.00  0.00     0.005 C 
ENDBRANCH   5  10
BRANCH   9  12
ATOM     12  C   UNL A   1      30.795  24.454  25.881  1.00  0.00     0.319 C 
ATOM     13  O   UNL A   1      30.462  23.909  26.938  1.00  0.00    -0.248 OA
BRANCH  12  14
ATOM     14  N   UNL A   1      30.502  25.790  25.671  1.00  0.00    -0.327 N 
ATOM     15  C   UNL A   1      29.462  26.350  24.831  1.00  0.00     0.148 C 
BRANCH  14  16
ATOM     16  C   UNL A   1      31.259  26.770  26.479  1.00  0.00     0.126 C 
BRANCH  16  17
ATOM     17  C   UNL A   1      32.760  26.855  26.115  1.00  0.00     0.068 C 
BRANCH  17  18
ATOM     18  C   UNL A   1      32.989  27.288  24.692  1.00  0.00     0.006 A 
ATOM     19  C   UNL A   1      33.298  26.497  23.601  1.00  0.00     0.015 A 
ATOM     20  S   UNL A   1      32.877  28.937  24.247  1.00  0.00    -0.149 S 
ATOM     21  C   UNL A   1      33.639  27.272  22.455  1.00  0.00     0.012 A 
ATOM     22  C   UNL A   1      33.527  28.623  22.697  1.00  0.00     0.065 A 
ENDBRANCH  17  18
ENDBRANCH  16  17
ENDBRANCH  14  16
ENDBRANCH  12  14
ENDBRANCH   9  12
ENDBRANCH   3   5
ENDBRANCH   2   3
ENDBRANCH   1   2
BRANCH   1  23
ATOM     23  C   UNL A   1      37.347  21.848  24.602  1.00  0.00     0.202 C 
BRANCH  23  24
ATOM     24  O   UNL A   1      37.970  22.338  25.788  1.00  0.00    -0.374 OA
BRANCH  24  25
ATOM     25  C   UNL A   1      39.248  21.795  26.121  1.00  0.00     0.202 C 
BRANCH  25  26
ATOM     26  C   UNL A   1      39.516  20.367  25.642  1.00  0.00     0.261 C 
BRANCH  26  27
ATOM     27  O   UNL A   1      40.364  19.664  26.570  1.00  0.00    -0.460 OA
BRANCH  27  28
ATOM     28  C   UNL A   1      41.626  19.476  26.131  1.00  0.00     0.338 C 
ATOM     29  O   UNL A   1      42.054  18.537  25.471  1.00  0.00    -0.246 OA
BRANCH  28  30
ATOM     30  C   UNL A   1      42.451  20.665  26.409  1.00  0.00     0.060 A 
ATOM     31  C   UNL A   1      42.569  21.047  27.750  1.00  0.00     0.016 A 
ATOM     32  C   UNL A   1      43.021  21.442  25.395  1.00  0.00     0.016 A 
ATOM     33  C   UNL A   1      43.156  22.261  28.077  1.00  0.00     0.010 A 
ATOM     34  C   UNL A   1      43.613  22.666  25.726  1.00  0.00     0.010 A 
ATOM     35  C   UNL A   1      43.620  23.108  27.061  1.00  0.00    -0.014 A 
BRANCH  35  36
ATOM     36  C   UNL A   1      43.881  24.526  27.408  1.00  0.00     0.031 A 
ATOM     37  C   UNL A   1      45.262  25.078  27.171  1.00  0.00     0.074 A 
ATOM     38  C   UNL A   1      42.886  25.335  27.806  1.00  0.00     0.049 A 
ATOM     39  N   UNL A   1      45.701  26.305  27.295  1.00  0.00    -0.248 NA
ATOM     40  C   UNL A   1      46.287  24.117  26.731  1.00  0.00     0.031 C 
ATOM     41  C   UNL A   1      41.502  24.923  28.030  1.00  0.00     0.029 A 
ATOM     42  N   UNL A   1      42.887  26.681  28.073  1.00  0.00    -0.354 N 
ATOM     43  C   UNL A   1      47.045  26.262  26.944  1.00  0.00     0.074 A 
ATOM     44  C   UNL A   1      47.363  24.883  26.645  1.00  0.00     0.031 C 
ATOM     45  C   UNL A   1      40.782  25.998  28.393  1.00  0.00     0.029 A 
ATOM     46  C   UNL A   1      41.658  27.169  28.440  1.00  0.00     0.049 A 
ATOM     47  H   UNL A   1      43.692  27.242  28.010  1.00  0.00     0.167 HD
ATOM     48  C   UNL A   1      47.930  27.283  26.858  1.00  0.00     0.037 A 
ATOM     49  C   UNL A   1      41.286  28.420  28.771  1.00  0.00     0.037 A 
ATOM     50  C   UNL A   1      47.613  28.655  27.146  1.00  0.00     0.049 A 
ATOM     51  C   UNL A   1      42.302  29.530  28.712  1.00  0.00     0.074 A 
ATOM     52  C   UNL A   1      48.436  29.765  27.084  1.00  0.00     0.029 A 
ATOM     53  N   UNL A   1      46.366  29.104  27.555  1.00  0.00    -0.354 N 
ATOM     54  N   UNL A   1      43.564  29.485  28.355  1.00  0.00    -0.248 NA
ATOM     55  C   UNL A   1      41.836  30.873  29.089  1.00  0.00     0.031 C 
ATOM     56  C   UNL A   1      47.698  30.881  27.497  1.00  0.00     0.029 A 
ATOM     57  C   UNL A   1      46.401  30.472  27.768  1.00  0.00     0.049 A 
ATOM     58  H   UNL A   1      45.571  28.534  27.675  1.00  0.00     0.167 HD
ATOM     59  C   UNL A   1      44.033  30.789  28.437  1.00  0.00     0.074 A 
ATOM     60  C   UNL A   1      42.915  31.608  28.860  1.00  0.00     0.031 C 
ATOM     61  C   UNL A   1      45.277  31.270  28.186  1.00  0.00     0.037 A 
BRANCH  48  62
ATOM     62  C   UNL A   1      49.336  26.943  26.454  1.00  0.00     0.064 A 
ATOM     63  C   UNL A   1      49.758  27.012  25.118  1.00  0.00     0.173 A 
ATOM     64  C   UNL A   1      50.278  26.563  27.422  1.00  0.00     0.173 A 
ATOM     65  F   UNL A   1      48.890  27.353  24.154  1.00  0.00    -0.203 F 
ATOM     66  C   UNL A   1      51.064  26.687  24.761  1.00  0.00     0.198 A 
ATOM     67  C   UNL A   1      51.591  26.266  27.065  1.00  0.00     0.198 A 
ATOM     68  F   UNL A   1      49.928  26.482  28.714  1.00  0.00    -0.203 F 
ATOM     69  F   UNL A   1      51.431  26.711  23.473  1.00  0.00    -0.200 F 
ATOM     70  C   UNL A   1      51.980  26.320  25.735  1.00  0.00     0.200 A 
ATOM     71  F   UNL A   1      52.479  25.920  28.008  1.00  0.00    -0.200 F 
ATOM     72  F   UNL A   1      53.238  26.011  25.391  1.00  0.00    -0.200 F 
ENDBRANCH  48  62
BRANCH  49  73
ATOM     73  C   UNL A   1      39.885  28.694  29.180  1.00  0.00     0.064 A 
ATOM     74  C   UNL A   1      38.930  29.141  28.255  1.00  0.00     0.173 A 
ATOM     75  C   UNL A   1      39.476  28.534  30.512  1.00  0.00     0.173 A 
ATOM     76  F   UNL A   1      39.280  29.333  26.975  1.00  0.00    -0.203 F 
ATOM     77  C   UNL A   1      37.628  29.437  28.650  1.00  0.00     0.198 A 
ATOM     78  C   UNL A   1      38.166  28.803  30.901  1.00  0.00     0.198 A 
ATOM     79  F   UNL A   1      40.350  28.109  31.437  1.00  0.00    -0.203 F 
ATOM     80  F   UNL A   1      36.749  29.909  27.756  1.00  0.00    -0.200 F 
ATOM     81  C   UNL A   1      37.245  29.263  29.972  1.00  0.00     0.200 A 
ATOM     82  F   UNL A   1      37.797  28.623  32.177  1.00  0.00    -0.200 F 
ATOM     83  F   UNL A   1      35.992  29.546  30.352  1.00  0.00    -0.200 F 
ENDBRANCH  49  73
BRANCH  61  84
ATOM     84  C   UNL A   1      45.482  32.750  28.333  1.00  0.00     0.064 A 
ATOM     85  C   UNL A   1      45.934  33.315  29.535  1.00  0.00     0.173 A 
ATOM     86  C   UNL A   1      45.241  33.611  27.252  1.00  0.00     0.173 A 
ATOM     87  F   UNL A   1      46.167  32.535  30.602  1.00  0.00    -0.203 F 
ATOM     88  C   UNL A   1      46.103  34.691  29.660  1.00  0.00     0.198 A 
ATOM     89  C   UNL A   1      45.440  34.983  27.371  1.00  0.00     0.198 A 
ATOM     90  F   UNL A   1      44.817  33.120  26.077  1.00  0.00    -0.203 F 
ATOM     91  F   UNL A   1      46.478  35.213  30.835  1.00  0.00    -0.200 F 
ATOM     92  C   UNL A   1      45.859  35.523  28.577  1.00  0.00     0.200 A 
ATOM     93  F   UNL A   1      45.219  35.785  26.320  1.00  0.00    -0.200 F 
ATOM     94  F   UNL A   1      46.020  36.848  28.700  1.00  0.00    -0.200 F 
ENDBRANCH  61  84
ENDBRANCH  35  36
ENDBRANCH  28  30
ENDBRANCH  27  28
ENDBRANCH  26  27
ENDBRANCH  25  26
ENDBRANCH  24  25
ENDBRANCH  23  24
ENDBRANCH   1  23
TORSDOF 20
ENDMDL
MODEL 2
REMARK VINA RESULT:     -10.3      1.217      7.493
REMARK SMILES CC[C@@]1(C(=O)OCCOCCOC(=O)c2ccc(-c3c4nc(c(-c5c(F)c(F)c(F)c(F)c5F)c5ccc([nH]5)c(-c5c(F)c(F)c(F)c(F)c5F)c5nc(c(-c6c(F)c(F)c(F)c(F)c6F)c6ccc3[nH]6)C=C5)C=C4)cc2)CCN(C(=O)N(C)CCc2cccs2)C1
REMARK SMILES IDX 7 1 6 2 4 3 5 4 3 5 78 6 92 7 79 8 80 9 2 10 1 11 81 12
REMARK SMILES IDX 82 13 83 14 84 15 85 16 86 17 87 18 88 19 91 20 89 21 90 22
REMARK SMILES IDX 8 23 9 24 10 25 11 26 12 27 13 28 14 29 15 30 16 31 77 32
REMARK SMILES IDX 17 33 76 34 18 35 19 36 20 37 70 38 21 39 75 40 69 41 71 42
REMARK SMILES IDX 22 43 74 44 68 45 67 46 23 48 55 49 35 50 54 51 36 52 39 53
REMARK SMILES IDX 53 54 72 55 37 56 38 57 52 59 73 60 40 61 24 62 25 63 33 64
REMARK SMILES IDX 26 65 27 66 31 67 34 68 28 69 29 70 32 71 30 72 56 73 57 74
REMARK SMILES IDX 65 75 58 76 59 77 63 78 66 79 60 80 61 81 64 82 62 83 41 84
REMARK SMILES IDX 42 85 50 86 43 87 44 88 48 89 51 90 45 91 46 92 49 93 47 94
REMARK H PARENT 71 47 39 58
REMARK Flexibility Score: inf
ROOT
ATOM      1  C   UNL A   1      36.754  23.707  24.997  1.00  0.00     0.261 C 
ENDROOT
BRANCH   1   2
ATOM      2  O   UNL A   1      35.456  24.264  25.291  1.00  0.00    -0.463 OA
BRANCH   2   3
ATOM      3  C   UNL A   1      34.574  23.404  25.862  1.00  0.00     0.314 C 
ATOM      4  O   UNL A   1      34.860  22.640  26.779  1.00  0.00    -0.252 OA
BRANCH   3   5
ATOM      5  C   UNL A   1      33.162  23.489  25.279  1.00  0.00     0.087 C 
ATOM      6  C   UNL A   1      32.849  22.494  24.151  1.00  0.00     0.042 C 
ATOM      7  C   UNL A   1      33.015  24.860  24.605  1.00  0.00     0.140 C 
ATOM      8  C   UNL A   1      33.115  23.240  22.847  1.00  0.00     0.122 C 
ATOM      9  N   UNL A   1      33.018  24.652  23.157  1.00  0.00    -0.323 N 
BRANCH   5  10
ATOM     10  C   UNL A   1      32.230  23.342  26.515  1.00  0.00     0.017 C 
ATOM     11  C   UNL A   1      30.792  22.918  26.262  1.00  0.00     0.005 C 
ENDBRANCH   5  10
BRANCH   9  12
ATOM     12  C   UNL A   1      32.917  25.769  22.356  1.00  0.00     0.319 C 
ATOM     13  O   UNL A   1      33.652  25.859  21.367  1.00  0.00    -0.248 OA
BRANCH  12  14
ATOM     14  N   UNL A   1      32.091  26.823  22.699  1.00  0.00    -0.327 N 
ATOM     15  C   UNL A   1      30.716  26.762  23.158  1.00  0.00     0.148 C 
BRANCH  14  16
ATOM     16  C   UNL A   1      32.701  28.170  22.710  1.00  0.00     0.126 C 
BRANCH  16  17
ATOM     17  C   UNL A   1      33.812  28.345  23.772  1.00  0.00     0.068 C 
BRANCH  17  18
ATOM     18  C   UNL A   1      33.264  28.617  25.146  1.00  0.00     0.006 A 
ATOM     19  C   UNL A   1      33.680  28.081  26.350  1.00  0.00     0.015 A 
ATOM     20  S   UNL A   1      31.965  29.709  25.374  1.00  0.00    -0.149 S 
ATOM     21  C   UNL A   1      32.801  28.415  27.421  1.00  0.00     0.012 A 
ATOM     22  C   UNL A   1      31.776  29.236  27.005  1.00  0.00     0.065 A 
ENDBRANCH  17  18
ENDBRANCH  16  17
ENDBRANCH  14  16
ENDBRANCH  12  14
ENDBRANCH   9  12
ENDBRANCH   3   5
ENDBRANCH   2   3
ENDBRANCH   1   2
BRANCH   1  23
ATOM     23  C   UNL A   1      36.687  22.605  23.936  1.00  0.00     0.202 C 
BRANCH  23  24
ATOM     24  O   UNL A   1      37.176  21.321  24.318  1.00  0.00    -0.374 OA
BRANCH  24  25
ATOM     25  C   UNL A   1      38.132  21.280  25.377  1.00  0.00     0.202 C 
BRANCH  25  26
ATOM     26  C   UNL A   1      39.018  20.033  25.433  1.00  0.00     0.261 C 
BRANCH  26  27
ATOM     27  O   UNL A   1      39.953  20.117  26.526  1.00  0.00    -0.460 OA
BRANCH  27  28
ATOM     28  C   UNL A   1      41.202  19.707  26.217  1.00  0.00     0.338 C 
ATOM     29  O   UNL A   1      41.537  18.625  25.750  1.00  0.00    -0.246 OA
BRANCH  28  30
ATOM     30  C   UNL A   1      42.159  20.818  26.359  1.00  0.00     0.060 A 
ATOM     31  C   UNL A   1      42.286  21.376  27.636  1.00  0.00     0.016 A 
ATOM     32  C   UNL A   1      42.846  21.366  25.271  1.00  0.00     0.016 A 
ATOM     33  C   UNL A   1      43.010  22.548  27.813  1.00  0.00     0.010 A 
ATOM     34  C   UNL A   1      43.575  22.547  25.450  1.00  0.00     0.010 A 
ATOM     35  C   UNL A   1      43.601  23.176  26.708  1.00  0.00    -0.014 A 
BRANCH  35  36
ATOM     36  C   UNL A   1      44.025  24.588  26.861  1.00  0.00     0.031 A 
ATOM     37  C   UNL A   1      43.009  25.594  27.333  1.00  0.00     0.074 A 
ATOM     38  C   UNL A   1      45.311  24.945  26.702  1.00  0.00     0.049 A 
ATOM     39  N   UNL A   1      43.168  26.857  27.642  1.00  0.00    -0.248 NA
ATOM     40  C   UNL A   1      41.627  25.110  27.483  1.00  0.00     0.031 C 
ATOM     41  C   UNL A   1      46.390  24.052  26.288  1.00  0.00     0.029 A 
ATOM     42  N   UNL A   1      45.927  26.156  26.893  1.00  0.00    -0.354 N 
ATOM     43  C   UNL A   1      41.911  27.312  28.025  1.00  0.00     0.074 A 
ATOM     44  C   UNL A   1      40.992  26.206  27.869  1.00  0.00     0.031 C 
ATOM     45  C   UNL A   1      47.542  24.744  26.263  1.00  0.00     0.029 A 
ATOM     46  C   UNL A   1      47.277  26.130  26.647  1.00  0.00     0.049 A 
ATOM     47  H   UNL A   1      45.447  26.967  27.177  1.00  0.00     0.167 HD
ATOM     48  C   UNL A   1      41.558  28.535  28.485  1.00  0.00     0.037 A 
ATOM     49  C   UNL A   1      48.191  27.115  26.728  1.00  0.00     0.037 A 
ATOM     50  C   UNL A   1      42.474  29.632  28.649  1.00  0.00     0.049 A 
ATOM     51  C   UNL A   1      47.764  28.480  27.199  1.00  0.00     0.074 A 
ATOM     52  C   UNL A   1      42.217  30.910  29.114  1.00  0.00     0.029 A 
ATOM     53  N   UNL A   1      43.826  29.578  28.350  1.00  0.00    -0.354 N 
ATOM     54  N   UNL A   1      46.580  28.895  27.583  1.00  0.00    -0.248 NA
ATOM     55  C   UNL A   1      48.807  29.514  27.262  1.00  0.00     0.031 C 
ATOM     56  C   UNL A   1      43.408  31.643  29.054  1.00  0.00     0.029 A 
ATOM     57  C   UNL A   1      44.416  30.806  28.601  1.00  0.00     0.049 A 
ATOM     58  H   UNL A   1      44.299  28.784  28.010  1.00  0.00     0.167 HD
ATOM     59  C   UNL A   1      46.740  30.222  27.958  1.00  0.00     0.074 A 
ATOM     60  C   UNL A   1      48.141  30.540  27.773  1.00  0.00     0.031 C 
ATOM     61  C   UNL A   1      45.813  31.102  28.413  1.00  0.00     0.037 A 
BRANCH  48  62
ATOM     62  C   UNL A   1      40.112  28.753  28.823  1.00  0.00     0.064 A 
ATOM     63  C   UNL A   1      39.177  29.139  27.851  1.00  0.00     0.173 A 
ATOM     64  C   UNL A   1      39.653  28.554  30.134  1.00  0.00     0.173 A 
ATOM     65  F   UNL A   1      39.569  29.359  26.587  1.00  0.00    -0.203 F 
ATOM     66  C   UNL A   1      37.840  29.344  28.184  1.00  0.00     0.198 A 
ATOM     67  C   UNL A   1      38.310  28.732  30.457  1.00  0.00     0.198 A 
ATOM     68  F   UNL A   1      40.505  28.184  31.101  1.00  0.00    -0.203 F 
ATOM     69  F   UNL A   1      36.974  29.761  27.250  1.00  0.00    -0.200 F 
ATOM     70  C   UNL A   1      37.407  29.135  29.484  1.00  0.00     0.200 A 
ATOM     71  F   UNL A   1      37.891  28.521  31.713  1.00  0.00    -0.200 F 
ATOM     72  F   UNL A   1      36.120  29.329  29.804  1.00  0.00    -0.200 F 
ENDBRANCH  48  62
BRANCH  49  73
ATOM     73  C   UNL A   1      49.606  26.846  26.364  1.00  0.00     0.064 A 
ATOM     74  C   UNL A   1      50.548  26.468  27.332  1.00  0.00     0.173 A 
ATOM     75  C   UNL A   1      50.050  26.983  25.040  1.00  0.00     0.173 A 
ATOM     76  F   UNL A   1      50.177  26.349  28.614  1.00  0.00    -0.203 F 
ATOM     77  C   UNL A   1      51.883  26.258  26.993  1.00  0.00     0.198 A 
ATOM     78  C   UNL A   1      51.379  26.744  24.698  1.00  0.00     0.198 A 
ATOM     79  F   UNL A   1      49.189  27.342  24.076  1.00  0.00    -0.203 F 
ATOM     80  F   UNL A   1      52.772  25.945  27.945  1.00  0.00    -0.200 F 
ATOM     81  C   UNL A   1      52.296  26.390  25.675  1.00  0.00     0.200 A 
ATOM     82  F   UNL A   1      51.772  26.862  23.422  1.00  0.00    -0.200 F 
ATOM     83  F   UNL A   1      53.580  26.186  25.350  1.00  0.00    -0.200 F 
ENDBRANCH  49  73
BRANCH  61  84
ATOM     84  C   UNL A   1      46.294  32.479  28.771  1.00  0.00     0.064 A 
ATOM     85  C   UNL A   1      46.300  33.523  27.835  1.00  0.00     0.173 A 
ATOM     86  C   UNL A   1      46.735  32.760  30.073  1.00  0.00     0.173 A 
ATOM     87  F   UNL A   1      45.899  33.302  26.575  1.00  0.00    -0.203 F 
ATOM     88  C   UNL A   1      46.764  34.790  28.179  1.00  0.00     0.198 A 
ATOM     89  C   UNL A   1      47.170  34.035  30.421  1.00  0.00     0.198 A 
ATOM     90  F   UNL A   1      46.741  31.799  31.009  1.00  0.00    -0.203 F 
ATOM     91  F   UNL A   1      46.816  35.756  27.253  1.00  0.00    -0.200 F 
ATOM     92  C   UNL A   1      47.195  35.045  29.473  1.00  0.00     0.200 A 
ATOM     93  F   UNL A   1      47.573  34.286  31.675  1.00  0.00    -0.200 F 
ATOM     94  F   UNL A   1      47.644  36.265  29.801  1.00  0.00    -0.200 F 
ENDBRANCH  61  84
ENDBRANCH  35  36
ENDBRANCH  28  30
ENDBRANCH  27  28
ENDBRANCH  26  27
ENDBRANCH  25  26
ENDBRANCH  24  25
ENDBRANCH  23  24
ENDBRANCH   1  23
TORSDOF 20
ENDMDL
MODEL 3
REMARK VINA RESULT:     -10.3      1.461      2.412
REMARK SMILES CC[C@@]1(C(=O)OCCOCCOC(=O)c2ccc(-c3c4nc(c(-c5c(F)c(F)c(F)c(F)c5F)c5ccc([nH]5)c(-c5c(F)c(F)c(F)c(F)c5F)c5nc(c(-c6c(F)c(F)c(F)c(F)c6F)c6ccc3[nH]6)C=C5)C=C4)cc2)CCN(C(=O)N(C)CCc2cccs2)C1
REMARK SMILES IDX 7 1 6 2 4 3 5 4 3 5 78 6 92 7 79 8 80 9 2 10 1 11 81 12
REMARK SMILES IDX 82 13 83 14 84 15 85 16 86 17 87 18 88 19 91 20 89 21 90 22
REMARK SMILES IDX 8 23 9 24 10 25 11 26 12 27 13 28 14 29 15 30 16 31 77 32
REMARK SMILES IDX 17 33 76 34 18 35 19 36 20 37 70 38 21 39 75 40 69 41 71 42
REMARK SMILES IDX 22 43 74 44 68 45 67 46 23 48 55 49 35 50 54 51 36 52 39 53
REMARK SMILES IDX 53 54 72 55 37 56 38 57 52 59 73 60 40 61 24 62 25 63 33 64
REMARK SMILES IDX 26 65 27 66 31 67 34 68 28 69 29 70 32 71 30 72 56 73 57 74
REMARK SMILES IDX 65 75 58 76 59 77 63 78 66 79 60 80 61 81 64 82 62 83 41 84
REMARK SMILES IDX 42 85 50 86 43 87 44 88 48 89 51 90 45 91 46 92 49 93 47 94
REMARK H PARENT 71 47 39 58
REMARK Flexibility Score: inf
ROOT
ATOM      1  C   UNL A   1      36.605  23.231  23.806  1.00  0.00     0.261 C 
ENDROOT
BRANCH   1   2
ATOM      2  O   UNL A   1      35.356  23.745  24.313  1.00  0.00    -0.463 OA
BRANCH   2   3
ATOM      3  C   UNL A   1      34.256  23.411  23.590  1.00  0.00     0.314 C 
ATOM      4  O   UNL A   1      34.229  23.377  22.363  1.00  0.00    -0.252 OA
BRANCH   3   5
ATOM      5  C   UNL A   1      33.042  23.043  24.445  1.00  0.00     0.087 C 
ATOM      6  C   UNL A   1      31.817  22.530  23.672  1.00  0.00     0.042 C 
ATOM      7  C   UNL A   1      32.535  24.327  25.116  1.00  0.00     0.140 C 
ATOM      8  C   UNL A   1      30.922  23.744  23.448  1.00  0.00     0.122 C 
ATOM      9  N   UNL A   1      31.283  24.711  24.465  1.00  0.00    -0.323 N 
BRANCH   5  10
ATOM     10  C   UNL A   1      33.598  22.023  25.478  1.00  0.00     0.017 C 
ATOM     11  C   UNL A   1      33.780  22.502  26.910  1.00  0.00     0.005 C 
ENDBRANCH   5  10
BRANCH   9  12
ATOM     12  C   UNL A   1      30.665  25.862  24.908  1.00  0.00     0.319 C 
ATOM     13  O   UNL A   1      29.804  25.772  25.788  1.00  0.00    -0.248 OA
BRANCH  12  14
ATOM     14  N   UNL A   1      30.919  27.084  24.313  1.00  0.00    -0.327 N 
ATOM     15  C   UNL A   1      31.891  28.083  24.714  1.00  0.00     0.148 C 
BRANCH  14  16
ATOM     16  C   UNL A   1      30.199  27.372  23.054  1.00  0.00     0.126 C 
BRANCH  16  17
ATOM     17  C   UNL A   1      28.760  27.900  23.263  1.00  0.00     0.068 C 
BRANCH  17  18
ATOM     18  C   UNL A   1      28.620  29.357  22.915  1.00  0.00     0.006 A 
ATOM     19  C   UNL A   1      27.677  30.256  23.377  1.00  0.00     0.015 A 
ATOM     20  S   UNL A   1      29.708  30.110  21.828  1.00  0.00    -0.149 S 
ATOM     21  C   UNL A   1      27.731  31.498  22.680  1.00  0.00     0.012 A 
ATOM     22  C   UNL A   1      28.746  31.521  21.751  1.00  0.00     0.065 A 
ENDBRANCH  17  18
ENDBRANCH  16  17
ENDBRANCH  14  16
ENDBRANCH  12  14
ENDBRANCH   9  12
ENDBRANCH   3   5
ENDBRANCH   2   3
ENDBRANCH   1   2
BRANCH   1  23
ATOM     23  C   UNL A   1      36.964  21.873  24.416  1.00  0.00     0.202 C 
BRANCH  23  24
ATOM     24  O   UNL A   1      37.444  21.885  25.759  1.00  0.00    -0.374 OA
BRANCH  24  25
ATOM     25  C   UNL A   1      38.854  21.756  25.945  1.00  0.00     0.202 C 
BRANCH  25  26
ATOM     26  C   UNL A   1      39.483  20.459  25.432  1.00  0.00     0.261 C 
BRANCH  26  27
ATOM     27  O   UNL A   1      40.233  19.805  26.473  1.00  0.00    -0.460 OA
BRANCH  27  28
ATOM     28  C   UNL A   1      41.528  19.585  26.166  1.00  0.00     0.338 C 
ATOM     29  O   UNL A   1      41.994  18.650  25.526  1.00  0.00    -0.246 OA
BRANCH  28  30
ATOM     30  C   UNL A   1      42.356  20.735  26.568  1.00  0.00     0.060 A 
ATOM     31  C   UNL A   1      42.333  21.080  27.925  1.00  0.00     0.016 A 
ATOM     32  C   UNL A   1      43.062  21.516  25.647  1.00  0.00     0.016 A 
ATOM     33  C   UNL A   1      42.921  22.264  28.350  1.00  0.00     0.010 A 
ATOM     34  C   UNL A   1      43.654  22.709  26.077  1.00  0.00     0.010 A 
ATOM     35  C   UNL A   1      43.525  23.118  27.416  1.00  0.00    -0.014 A 
BRANCH  35  36
ATOM     36  C   UNL A   1      43.792  24.516  27.830  1.00  0.00     0.031 A 
ATOM     37  C   UNL A   1      45.216  25.009  27.810  1.00  0.00     0.074 A 
ATOM     38  C   UNL A   1      42.784  25.363  28.097  1.00  0.00     0.049 A 
ATOM     39  N   UNL A   1      45.683  26.213  28.025  1.00  0.00    -0.248 NA
ATOM     40  C   UNL A   1      46.252  24.010  27.502  1.00  0.00     0.031 C 
ATOM     41  C   UNL A   1      41.367  25.012  28.107  1.00  0.00     0.029 A 
ATOM     42  N   UNL A   1      42.804  26.703  28.393  1.00  0.00    -0.354 N 
ATOM     43  C   UNL A   1      47.061  26.114  27.873  1.00  0.00     0.074 A 
ATOM     44  C   UNL A   1      47.360  24.727  27.592  1.00  0.00     0.031 C 
ATOM     45  C   UNL A   1      40.648  26.112  28.386  1.00  0.00     0.029 A 
ATOM     46  C   UNL A   1      41.556  27.240  28.587  1.00  0.00     0.049 A 
ATOM     47  H   UNL A   1      43.633  27.228  28.460  1.00  0.00     0.167 HD
ATOM     48  C   UNL A   1      47.992  27.094  27.941  1.00  0.00     0.037 A 
ATOM     49  C   UNL A   1      41.194  28.501  28.889  1.00  0.00     0.037 A 
ATOM     50  C   UNL A   1      47.694  28.475  28.211  1.00  0.00     0.049 A 
ATOM     51  C   UNL A   1      42.254  29.565  29.004  1.00  0.00     0.074 A 
ATOM     52  C   UNL A   1      48.565  29.547  28.295  1.00  0.00     0.029 A 
ATOM     53  N   UNL A   1      46.422  28.973  28.443  1.00  0.00    -0.354 N 
ATOM     54  N   UNL A   1      43.551  29.468  28.835  1.00  0.00    -0.248 NA
ATOM     55  C   UNL A   1      41.795  30.921  29.340  1.00  0.00     0.031 C 
ATOM     56  C   UNL A   1      47.822  30.688  28.622  1.00  0.00     0.029 A 
ATOM     57  C   UNL A   1      46.484  30.335  28.691  1.00  0.00     0.049 A 
ATOM     58  H   UNL A   1      45.594  28.439  28.433  1.00  0.00     0.167 HD
ATOM     59  C   UNL A   1      44.059  30.748  29.014  1.00  0.00     0.074 A 
ATOM     60  C   UNL A   1      42.927  31.610  29.288  1.00  0.00     0.031 C 
ATOM     61  C   UNL A   1      45.345  31.176  28.959  1.00  0.00     0.037 A 
BRANCH  48  62
ATOM     62  C   UNL A   1      49.426  26.698  27.739  1.00  0.00     0.064 A 
ATOM     63  C   UNL A   1      49.976  26.540  26.458  1.00  0.00     0.173 A 
ATOM     64  C   UNL A   1      50.266  26.492  28.844  1.00  0.00     0.173 A 
ATOM     65  F   UNL A   1      49.209  26.708  25.370  1.00  0.00    -0.203 F 
ATOM     66  C   UNL A   1      51.306  26.165  26.290  1.00  0.00     0.198 A 
ATOM     67  C   UNL A   1      51.604  26.145  28.672  1.00  0.00     0.198 A 
ATOM     68  F   UNL A   1      49.792  26.631  30.091  1.00  0.00    -0.203 F 
ATOM     69  F   UNL A   1      51.796  25.971  25.058  1.00  0.00    -0.200 F 
ATOM     70  C   UNL A   1      52.120  25.974  27.396  1.00  0.00     0.200 A 
ATOM     71  F   UNL A   1      52.392  25.970  29.742  1.00  0.00    -0.200 F 
ATOM     72  F   UNL A   1      53.402  25.616  27.234  1.00  0.00    -0.200 F 
ENDBRANCH  48  62
BRANCH  49  73
ATOM     73  C   UNL A   1      39.760  28.833  29.095  1.00  0.00     0.064 A 
ATOM     74  C   UNL A   1      39.158  28.708  30.355  1.00  0.00     0.173 A 
ATOM     75  C   UNL A   1      38.957  29.261  28.028  1.00  0.00     0.173 A 
ATOM     76  F   UNL A   1      39.879  28.278  31.400  1.00  0.00    -0.203 F 
ATOM     77  C   UNL A   1      37.804  28.980  30.536  1.00  0.00     0.198 A 
ATOM     78  C   UNL A   1      37.610  29.560  28.216  1.00  0.00     0.198 A 
ATOM     79  F   UNL A   1      39.485  29.397  26.802  1.00  0.00    -0.203 F 
ATOM     80  F   UNL A   1      37.243  28.806  31.740  1.00  0.00    -0.200 F 
ATOM     81  C   UNL A   1      37.032  29.411  29.467  1.00  0.00     0.200 A 
ATOM     82  F   UNL A   1      36.870  29.987  27.182  1.00  0.00    -0.200 F 
ATOM     83  F   UNL A   1      35.729  29.673  29.642  1.00  0.00    -0.200 F 
ENDBRANCH  49  73
BRANCH  61  84
ATOM     84  C   UNL A   1      45.589  32.642  29.169  1.00  0.00     0.064 A 
ATOM     85  C   UNL A   1      45.559  33.554  28.103  1.00  0.00     0.173 A 
ATOM     86  C   UNL A   1      45.836  33.143  30.456  1.00  0.00     0.173 A 
ATOM     87  F   UNL A   1      45.338  33.123  26.852  1.00  0.00    -0.203 F 
ATOM     88  C   UNL A   1      45.804  34.908  28.313  1.00  0.00     0.198 A 
ATOM     89  C   UNL A   1      46.050  34.503  30.666  1.00  0.00     0.198 A 
ATOM     90  F   UNL A   1      45.867  32.316  31.511  1.00  0.00    -0.203 F 
ATOM     91  F   UNL A   1      45.828  35.751  27.271  1.00  0.00    -0.200 F 
ATOM     92  C   UNL A   1      46.045  35.382  29.594  1.00  0.00     0.200 A 
ATOM     93  F   UNL A   1      46.270  34.962  31.906  1.00  0.00    -0.200 F 
ATOM     94  F   UNL A   1      46.283  36.686  29.793  1.00  0.00    -0.200 F 
ENDBRANCH  61  84
ENDBRANCH  35  36
ENDBRANCH  28  30
ENDBRANCH  27  28
ENDBRANCH  26  27
ENDBRANCH  25  26
ENDBRANCH  24  25
ENDBRANCH  23  24
ENDBRANCH   1  23
TORSDOF 20
ENDMDL
