MODEL 1
REMARK VINA RESULT:     -11.5      0.000      0.000
REMARK SMILES COc1ccc(-c2nc(NCC(=O)OCCOCCOC(=O)c3ccc(-c4c5nc(c(-c6c(F)c(F)c(F)c(F)c6F)c6ccc([nH]6)c(-c6c(F)c(F)c(F)c(F)c6F)c6nc(c(-c7c(F)c(F)c(F)c(F)c7F)c7ccc4[nH]7)C=C6)C=C5)cc3)sc2-c2ccc(OC)cc2)cc1
REMARK SMILES IDX 16 1 15 2 14 3 12 4 13 5 11 6 10 7 9 9 7 10 8 11 87 12 86 13
REMARK SMILES IDX 6 14 3 15 4 16 97 17 5 18 96 19 2 20 1 21 88 22 89 23 95 24
REMARK SMILES IDX 90 25 94 26 91 27 92 28 93 29 17 30 18 31 19 32 20 33 21 34
REMARK SMILES IDX 22 35 23 36 24 37 85 38 25 39 84 40 26 41 27 42 28 43 78 44
REMARK SMILES IDX 29 45 83 46 77 47 79 48 30 49 82 50 76 51 75 52 31 54 63 55
REMARK SMILES IDX 43 56 62 57 44 58 47 59 61 60 80 61 45 62 46 63 60 65 81 66
REMARK SMILES IDX 48 67 32 68 33 69 41 70 34 71 35 72 39 73 42 74 36 75 37 76
REMARK SMILES IDX 40 77 38 78 64 79 65 80 73 81 66 82 67 83 71 84 74 85 68 86
REMARK SMILES IDX 69 87 72 88 70 89 49 90 50 91 58 92 51 93 52 94 56 95 59 96
REMARK SMILES IDX 53 97 54 98 57 99 55 100
REMARK H PARENT 10 8 79 53 47 64
REMARK Flexibility Score: inf
ROOT
ATOM      1  C   UNL A   1      36.129  21.833  24.960  1.00  0.00     0.202 C 
ENDROOT
BRANCH   1   2
ATOM      2  C   UNL A   1      35.087  20.899  25.581  1.00  0.00     0.261 C 
BRANCH   2   3
ATOM      3  O   UNL A   1      34.367  20.204  24.550  1.00  0.00    -0.462 OA
BRANCH   3   4
ATOM      4  C   UNL A   1      33.016  20.371  24.553  1.00  0.00     0.325 C 
ATOM      5  O   UNL A   1      32.223  19.608  25.094  1.00  0.00    -0.250 OA
BRANCH   4   6
ATOM      6  C   UNL A   1      32.578  21.690  23.926  1.00  0.00     0.238 C 
BRANCH   6   7
ATOM      7  N   UNL A   1      31.693  22.511  24.748  1.00  0.00    -0.351 N 
ATOM      8  H   UNL A   1      31.181  22.067  25.463  1.00  0.00     0.163 HD
BRANCH   7   9
ATOM      9  C   UNL A   1      31.534  23.840  24.586  1.00  0.00     0.184 A 
ATOM     10  C   UNL A   1      31.800  25.995  25.022  1.00  0.00     0.091 A 
ATOM     11  N   UNL A   1      32.234  24.705  25.285  1.00  0.00    -0.220 NA
ATOM     12  C   UNL A   1      30.837  26.101  24.032  1.00  0.00     0.064 A 
ATOM     13  S   UNL A   1      30.430  24.541  23.467  1.00  0.00    -0.096 S 
BRANCH  10  14
ATOM     14  C   UNL A   1      32.332  27.151  25.731  1.00  0.00     0.002 A 
ATOM     15  C   UNL A   1      33.446  29.202  27.297  1.00  0.00     0.118 A 
ATOM     16  C   UNL A   1      34.218  28.557  26.331  1.00  0.00     0.047 A 
ATOM     17  C   UNL A   1      32.099  28.863  27.438  1.00  0.00     0.047 A 
ATOM     18  C   UNL A   1      33.668  27.536  25.553  1.00  0.00     0.014 A 
ATOM     19  C   UNL A   1      31.541  27.845  26.653  1.00  0.00     0.014 A 
BRANCH  15  20
ATOM     20  O   UNL A   1      34.104  30.159  28.018  1.00  0.00    -0.497 OA
ATOM     21  C   UNL A   1      33.897  31.502  27.593  1.00  0.00     0.278 C 
ENDBRANCH  15  20
ENDBRANCH  10  14
BRANCH  12  22
ATOM     22  C   UNL A   1      30.205  27.272  23.437  1.00  0.00    -0.006 A 
ATOM     23  C   UNL A   1      30.961  28.223  22.745  1.00  0.00     0.013 A 
ATOM     24  C   UNL A   1      28.817  27.433  23.524  1.00  0.00     0.013 A 
ATOM     25  C   UNL A   1      30.333  29.319  22.151  1.00  0.00     0.047 A 
ATOM     26  C   UNL A   1      28.191  28.531  22.929  1.00  0.00     0.047 A 
ATOM     27  C   UNL A   1      28.947  29.477  22.237  1.00  0.00     0.118 A 
BRANCH  27  28
ATOM     28  O   UNL A   1      28.460  30.588  21.608  1.00  0.00    -0.497 OA
ATOM     29  C   UNL A   1      28.358  31.770  22.392  1.00  0.00     0.278 C 
ENDBRANCH  27  28
ENDBRANCH  12  22
ENDBRANCH   7   9
ENDBRANCH   6   7
ENDBRANCH   4   6
ENDBRANCH   3   4
ENDBRANCH   2   3
ENDBRANCH   1   2
BRANCH   1  30
ATOM     30  O   UNL A   1      37.486  21.396  25.047  1.00  0.00    -0.374 OA
BRANCH  30  31
ATOM     31  C   UNL A   1      37.742  19.998  24.905  1.00  0.00     0.202 C 
BRANCH  31  32
ATOM     32  C   UNL A   1      39.072  19.482  25.467  1.00  0.00     0.261 C 
BRANCH  32  33
ATOM     33  O   UNL A   1      39.428  20.122  26.706  1.00  0.00    -0.460 OA
BRANCH  33  34
ATOM     34  C   UNL A   1      40.751  20.351  26.870  1.00  0.00     0.338 C 
ATOM     35  O   UNL A   1      41.675  19.594  26.604  1.00  0.00    -0.246 OA
BRANCH  34  36
ATOM     36  C   UNL A   1      40.983  21.751  27.266  1.00  0.00     0.060 A 
ATOM     37  C   UNL A   1      40.406  22.752  26.475  1.00  0.00     0.016 A 
ATOM     38  C   UNL A   1      41.814  22.086  28.338  1.00  0.00     0.016 A 
ATOM     39  C   UNL A   1      40.688  24.094  26.727  1.00  0.00     0.010 A 
ATOM     40  C   UNL A   1      42.107  23.432  28.581  1.00  0.00     0.010 A 
ATOM     41  C   UNL A   1      41.569  24.440  27.760  1.00  0.00    -0.014 A 
BRANCH  41  42
ATOM     42  C   UNL A   1      42.016  25.846  27.902  1.00  0.00     0.031 A 
ATOM     43  C   UNL A   1      43.351  26.254  27.344  1.00  0.00     0.074 A 
ATOM     44  C   UNL A   1      41.233  26.757  28.508  1.00  0.00     0.049 A 
ATOM     45  N   UNL A   1      43.957  27.413  27.399  1.00  0.00    -0.248 NA
ATOM     46  C   UNL A   1      44.105  25.213  26.628  1.00  0.00     0.031 C 
ATOM     47  C   UNL A   1      39.905  26.494  29.057  1.00  0.00     0.029 A 
ATOM     48  N   UNL A   1      41.452  28.086  28.772  1.00  0.00    -0.354 N 
ATOM     49  C   UNL A   1      45.163  27.241  26.732  1.00  0.00     0.074 A 
ATOM     50  C   UNL A   1      45.215  25.860  26.301  1.00  0.00     0.031 C 
ATOM     51  C   UNL A   1      39.431  27.624  29.609  1.00  0.00     0.029 A 
ATOM     52  C   UNL A   1      40.436  28.678  29.479  1.00  0.00     0.049 A 
ATOM     53  H   UNL A   1      42.259  28.568  28.481  1.00  0.00     0.167 HD
ATOM     54  C   UNL A   1      46.135  28.154  26.497  1.00  0.00     0.037 A 
ATOM     55  C   UNL A   1      40.342  29.923  29.987  1.00  0.00     0.037 A 
ATOM     56  C   UNL A   1      46.080  29.529  26.922  1.00  0.00     0.049 A 
ATOM     57  C   UNL A   1      41.466  30.901  29.770  1.00  0.00     0.074 A 
ATOM     58  C   UNL A   1      47.003  30.537  26.704  1.00  0.00     0.029 A 
ATOM     59  N   UNL A   1      45.048  30.084  27.662  1.00  0.00    -0.354 N 
ATOM     60  N   UNL A   1      42.590  30.738  29.115  1.00  0.00    -0.248 NA
ATOM     61  C   UNL A   1      41.308  32.236  30.363  1.00  0.00     0.031 C 
ATOM     62  C   UNL A   1      46.552  31.691  27.354  1.00  0.00     0.029 A 
ATOM     63  C   UNL A   1      45.325  31.414  27.936  1.00  0.00     0.049 A 
ATOM     64  H   UNL A   1      44.238  29.606  27.951  1.00  0.00     0.167 HD
ATOM     65  C   UNL A   1      43.260  31.952  29.196  1.00  0.00     0.074 A 
ATOM     66  C   UNL A   1      42.411  32.848  29.954  1.00  0.00     0.031 C 
ATOM     67  C   UNL A   1      44.470  32.295  28.689  1.00  0.00     0.037 A 
BRANCH  54  68
ATOM     68  C   UNL A   1      47.359  27.690  25.766  1.00  0.00     0.064 A 
ATOM     69  C   UNL A   1      47.421  27.678  24.365  1.00  0.00     0.173 A 
ATOM     70  C   UNL A   1      48.501  27.294  26.478  1.00  0.00     0.173 A 
ATOM     71  F   UNL A   1      46.350  28.037  23.640  1.00  0.00    -0.203 F 
ATOM     72  C   UNL A   1      48.574  27.266  23.703  1.00  0.00     0.198 A 
ATOM     73  C   UNL A   1      49.661  26.906  25.813  1.00  0.00     0.198 A 
ATOM     74  F   UNL A   1      48.495  27.291  27.819  1.00  0.00    -0.203 F 
ATOM     75  F   UNL A   1      48.598  27.226  22.364  1.00  0.00    -0.200 F 
ATOM     76  C   UNL A   1      49.696  26.888  24.427  1.00  0.00     0.200 A 
ATOM     77  F   UNL A   1      50.746  26.551  26.514  1.00  0.00    -0.200 F 
ATOM     78  F   UNL A   1      50.807  26.499  23.788  1.00  0.00    -0.200 F 
ENDBRANCH  54  68
BRANCH  55  79
ATOM     79  C   UNL A   1      39.144  30.311  30.777  1.00  0.00     0.064 A 
ATOM     80  C   UNL A   1      38.049  30.942  30.170  1.00  0.00     0.173 A 
ATOM     81  C   UNL A   1      39.081  30.077  32.158  1.00  0.00     0.173 A 
ATOM     82  F   UNL A   1      38.076  31.213  28.858  1.00  0.00    -0.203 F 
ATOM     83  C   UNL A   1      36.943  31.338  30.920  1.00  0.00     0.198 A 
ATOM     84  C   UNL A   1      37.964  30.449  32.902  1.00  0.00     0.198 A 
ATOM     85  F   UNL A   1      40.106  29.481  32.787  1.00  0.00    -0.203 F 
ATOM     86  F   UNL A   1      35.930  31.983  30.325  1.00  0.00    -0.200 F 
ATOM     87  C   UNL A   1      36.899  31.087  32.284  1.00  0.00     0.200 A 
ATOM     88  F   UNL A   1      37.923  30.198  34.218  1.00  0.00    -0.200 F 
ATOM     89  F   UNL A   1      35.835  31.469  33.003  1.00  0.00    -0.200 F 
ENDBRANCH  55  79
BRANCH  67  90
ATOM     90  C   UNL A   1      44.940  33.702  28.915  1.00  0.00     0.064 A 
ATOM     91  C   UNL A   1      45.680  34.057  30.052  1.00  0.00     0.173 A 
ATOM     92  C   UNL A   1      44.682  34.698  27.961  1.00  0.00     0.173 A 
ATOM     93  F   UNL A   1      45.940  33.144  31.000  1.00  0.00    -0.203 F 
ATOM     94  C   UNL A   1      46.128  35.363  30.235  1.00  0.00     0.198 A 
ATOM     95  C   UNL A   1      45.155  35.997  28.135  1.00  0.00     0.198 A 
ATOM     96  F   UNL A   1      43.983  34.410  26.853  1.00  0.00    -0.203 F 
ATOM     97  F   UNL A   1      46.798  35.688  31.350  1.00  0.00    -0.200 F 
ATOM     98  C   UNL A   1      45.871  36.329  29.274  1.00  0.00     0.200 A 
ATOM     99  F   UNL A   1      44.917  36.926  27.199  1.00  0.00    -0.200 F 
ATOM    100  F   UNL A   1      46.310  37.583  29.449  1.00  0.00    -0.200 F 
ENDBRANCH  67  90
ENDBRANCH  41  42
ENDBRANCH  34  36
ENDBRANCH  33  34
ENDBRANCH  32  33
ENDBRANCH  31  32
ENDBRANCH  30  31
ENDBRANCH   1  30
TORSDOF 20
ENDMDL
MODEL 2
REMARK VINA RESULT:     -11.4      4.086     10.700
REMARK SMILES COc1ccc(-c2nc(NCC(=O)OCCOCCOC(=O)c3ccc(-c4c5nc(c(-c6c(F)c(F)c(F)c(F)c6F)c6ccc([nH]6)c(-c6c(F)c(F)c(F)c(F)c6F)c6nc(c(-c7c(F)c(F)c(F)c(F)c7F)c7ccc4[nH]7)C=C6)C=C5)cc3)sc2-c2ccc(OC)cc2)cc1
REMARK SMILES IDX 16 1 15 2 14 3 12 4 13 5 11 6 10 7 9 9 7 10 8 11 87 12 86 13
REMARK SMILES IDX 6 14 3 15 4 16 97 17 5 18 96 19 2 20 1 21 88 22 89 23 95 24
REMARK SMILES IDX 90 25 94 26 91 27 92 28 93 29 17 30 18 31 19 32 20 33 21 34
REMARK SMILES IDX 22 35 23 36 24 37 85 38 25 39 84 40 26 41 27 42 28 43 78 44
REMARK SMILES IDX 29 45 83 46 77 47 79 48 30 49 82 50 76 51 75 52 31 54 63 55
REMARK SMILES IDX 43 56 62 57 44 58 47 59 61 60 80 61 45 62 46 63 60 65 81 66
REMARK SMILES IDX 48 67 32 68 33 69 41 70 34 71 35 72 39 73 42 74 36 75 37 76
REMARK SMILES IDX 40 77 38 78 64 79 65 80 73 81 66 82 67 83 71 84 74 85 68 86
REMARK SMILES IDX 69 87 72 88 70 89 49 90 50 91 58 92 51 93 52 94 56 95 59 96
REMARK SMILES IDX 53 97 54 98 57 99 55 100
REMARK H PARENT 10 8 79 53 47 64
REMARK Flexibility Score: inf
ROOT
ATOM      1  C   UNL A   1      32.292  29.821  25.460  1.00  0.00     0.202 C 
ENDROOT
BRANCH   1   2
ATOM      2  C   UNL A   1      31.631  28.536  24.955  1.00  0.00     0.261 C 
BRANCH   2   3
ATOM      3  O   UNL A   1      30.606  28.848  23.998  1.00  0.00    -0.462 OA
BRANCH   3   4
ATOM      4  C   UNL A   1      30.182  27.813  23.223  1.00  0.00     0.325 C 
ATOM      5  O   UNL A   1      30.274  27.777  22.000  1.00  0.00    -0.250 OA
BRANCH   4   6
ATOM      6  C   UNL A   1      29.696  26.619  24.037  1.00  0.00     0.238 C 
BRANCH   6   7
ATOM      7  N   UNL A   1      29.908  25.312  23.420  1.00  0.00    -0.351 N 
ATOM      8  H   UNL A   1      29.225  24.980  22.793  1.00  0.00     0.163 HD
BRANCH   7   9
ATOM      9  C   UNL A   1      30.983  24.533  23.657  1.00  0.00     0.184 A 
ATOM     10  C   UNL A   1      32.107  22.655  23.994  1.00  0.00     0.091 A 
ATOM     11  N   UNL A   1      30.908  23.222  23.591  1.00  0.00    -0.220 NA
ATOM     12  C   UNL A   1      33.125  23.557  24.259  1.00  0.00     0.064 A 
ATOM     13  S   UNL A   1      32.539  25.149  24.056  1.00  0.00    -0.096 S 
BRANCH  10  14
ATOM     14  C   UNL A   1      32.281  21.214  24.115  1.00  0.00     0.002 A 
ATOM     15  C   UNL A   1      32.894  18.477  24.308  1.00  0.00     0.118 A 
ATOM     16  C   UNL A   1      32.901  19.282  25.448  1.00  0.00     0.047 A 
ATOM     17  C   UNL A   1      32.520  19.029  23.081  1.00  0.00     0.047 A 
ATOM     18  C   UNL A   1      32.601  20.642  25.354  1.00  0.00     0.014 A 
ATOM     19  C   UNL A   1      32.208  20.392  22.985  1.00  0.00     0.014 A 
BRANCH  15  20
ATOM     20  O   UNL A   1      33.239  17.172  24.520  1.00  0.00    -0.497 OA
ATOM     21  C   UNL A   1      34.030  16.570  23.501  1.00  0.00     0.278 C 
ENDBRANCH  15  20
ENDBRANCH  10  14
BRANCH  12  22
ATOM     22  C   UNL A   1      34.520  23.342  24.626  1.00  0.00    -0.006 A 
ATOM     23  C   UNL A   1      35.064  23.946  25.764  1.00  0.00     0.013 A 
ATOM     24  C   UNL A   1      35.319  22.492  23.853  1.00  0.00     0.013 A 
ATOM     25  C   UNL A   1      36.391  23.699  26.119  1.00  0.00     0.047 A 
ATOM     26  C   UNL A   1      36.648  22.248  24.211  1.00  0.00     0.047 A 
ATOM     27  C   UNL A   1      37.188  22.849  25.348  1.00  0.00     0.118 A 
BRANCH  27  28
ATOM     28  O   UNL A   1      38.465  22.689  25.809  1.00  0.00    -0.497 OA
ATOM     29  C   UNL A   1      39.003  21.374  25.750  1.00  0.00     0.278 C 
ENDBRANCH  27  28
ENDBRANCH  12  22
ENDBRANCH   7   9
ENDBRANCH   6   7
ENDBRANCH   4   6
ENDBRANCH   3   4
ENDBRANCH   2   3
ENDBRANCH   1   2
BRANCH   1  30
ATOM     30  O   UNL A   1      31.413  30.923  25.689  1.00  0.00    -0.374 OA
BRANCH  30  31
ATOM     31  C   UNL A   1      31.521  31.610  26.937  1.00  0.00     0.202 C 
BRANCH  31  32
ATOM     32  C   UNL A   1      31.777  33.120  26.872  1.00  0.00     0.261 C 
BRANCH  32  33
ATOM     33  O   UNL A   1      33.182  33.437  26.877  1.00  0.00    -0.460 OA
BRANCH  33  34
ATOM     34  C   UNL A   1      33.658  33.890  28.060  1.00  0.00     0.338 C 
ATOM     35  O   UNL A   1      33.149  34.725  28.796  1.00  0.00    -0.246 OA
BRANCH  34  36
ATOM     36  C   UNL A   1      34.836  33.106  28.471  1.00  0.00     0.060 A 
ATOM     37  C   UNL A   1      34.611  31.838  29.022  1.00  0.00     0.016 A 
ATOM     38  C   UNL A   1      36.130  33.627  28.398  1.00  0.00     0.016 A 
ATOM     39  C   UNL A   1      35.674  31.101  29.541  1.00  0.00     0.010 A 
ATOM     40  C   UNL A   1      37.195  32.891  28.931  1.00  0.00     0.010 A 
ATOM     41  C   UNL A   1      36.967  31.638  29.529  1.00  0.00    -0.014 A 
BRANCH  41  42
ATOM     42  C   UNL A   1      38.058  30.939  30.251  1.00  0.00     0.031 A 
ATOM     43  C   UNL A   1      38.309  31.263  31.698  1.00  0.00     0.074 A 
ATOM     44  C   UNL A   1      38.808  30.013  29.628  1.00  0.00     0.049 A 
ATOM     45  N   UNL A   1      39.236  30.808  32.502  1.00  0.00    -0.248 NA
ATOM     46  C   UNL A   1      37.390  32.229  32.320  1.00  0.00     0.031 C 
ATOM     47  C   UNL A   1      38.639  29.586  28.241  1.00  0.00     0.029 A 
ATOM     48  N   UNL A   1      39.870  29.273  30.084  1.00  0.00    -0.354 N 
ATOM     49  C   UNL A   1      39.018  31.437  33.722  1.00  0.00     0.074 A 
ATOM     50  C   UNL A   1      37.886  32.322  33.546  1.00  0.00     0.031 C 
ATOM     51  C   UNL A   1      39.577  28.669  27.952  1.00  0.00     0.029 A 
ATOM     52  C   UNL A   1      40.430  28.469  29.123  1.00  0.00     0.049 A 
ATOM     53  H   UNL A   1      40.198  29.314  31.011  1.00  0.00     0.167 HD
ATOM     54  C   UNL A   1      39.698  31.285  34.882  1.00  0.00     0.037 A 
ATOM     55  C   UNL A   1      41.524  27.684  29.176  1.00  0.00     0.037 A 
ATOM     56  C   UNL A   1      40.821  30.401  35.059  1.00  0.00     0.049 A 
ATOM     57  C   UNL A   1      42.303  27.582  30.461  1.00  0.00     0.074 A 
ATOM     58  C   UNL A   1      41.555  30.156  36.206  1.00  0.00     0.029 A 
ATOM     59  N   UNL A   1      41.378  29.625  34.053  1.00  0.00    -0.354 N 
ATOM     60  N   UNL A   1      42.074  28.157  31.616  1.00  0.00    -0.248 NA
ATOM     61  C   UNL A   1      43.494  26.721  30.449  1.00  0.00     0.031 C 
ATOM     62  C   UNL A   1      42.587  29.268  35.884  1.00  0.00     0.029 A 
ATOM     63  C   UNL A   1      42.466  28.923  34.547  1.00  0.00     0.049 A 
ATOM     64  H   UNL A   1      41.049  29.579  33.127  1.00  0.00     0.167 HD
ATOM     65  C   UNL A   1      43.073  27.711  32.471  1.00  0.00     0.074 A 
ATOM     66  C   UNL A   1      43.905  26.806  31.706  1.00  0.00     0.031 C 
ATOM     67  C   UNL A   1      43.284  28.024  33.774  1.00  0.00     0.037 A 
BRANCH  54  68
ATOM     68  C   UNL A   1      39.262  32.113  36.055  1.00  0.00     0.064 A 
ATOM     69  C   UNL A   1      38.338  31.633  36.994  1.00  0.00     0.173 A 
ATOM     70  C   UNL A   1      39.811  33.387  36.264  1.00  0.00     0.173 A 
ATOM     71  F   UNL A   1      37.776  30.425  36.831  1.00  0.00    -0.203 F 
ATOM     72  C   UNL A   1      37.962  32.407  38.088  1.00  0.00     0.198 A 
ATOM     73  C   UNL A   1      39.452  34.148  37.373  1.00  0.00     0.198 A 
ATOM     74  F   UNL A   1      40.702  33.890  35.397  1.00  0.00    -0.203 F 
ATOM     75  F   UNL A   1      37.049  31.944  38.953  1.00  0.00    -0.200 F 
ATOM     76  C   UNL A   1      38.525  33.660  38.281  1.00  0.00     0.200 A 
ATOM     77  F   UNL A   1      40.005  35.354  37.563  1.00  0.00    -0.200 F 
ATOM     78  F   UNL A   1      38.169  34.400  39.340  1.00  0.00    -0.200 F 
ENDBRANCH  54  68
BRANCH  55  79
ATOM     79  C   UNL A   1      41.964  26.945  27.964  1.00  0.00     0.064 A 
ATOM     80  C   UNL A   1      41.494  25.654  27.690  1.00  0.00     0.173 A 
ATOM     81  C   UNL A   1      42.883  27.511  27.067  1.00  0.00     0.173 A 
ATOM     82  F   UNL A   1      40.637  25.061  28.534  1.00  0.00    -0.203 F 
ATOM     83  C   UNL A   1      41.938  24.950  26.572  1.00  0.00     0.198 A 
ATOM     84  C   UNL A   1      43.306  26.817  25.936  1.00  0.00     0.198 A 
ATOM     85  F   UNL A   1      43.369  28.742  27.288  1.00  0.00    -0.203 F 
ATOM     86  F   UNL A   1      41.509  23.699  26.358  1.00  0.00    -0.200 F 
ATOM     87  C   UNL A   1      42.839  25.533  25.693  1.00  0.00     0.200 A 
ATOM     88  F   UNL A   1      44.171  27.387  25.087  1.00  0.00    -0.200 F 
ATOM     89  F   UNL A   1      43.265  24.856  24.619  1.00  0.00    -0.200 F 
ENDBRANCH  55  79
BRANCH  67  90
ATOM     90  C   UNL A   1      44.444  27.365  34.463  1.00  0.00     0.064 A 
ATOM     91  C   UNL A   1      44.326  26.098  35.051  1.00  0.00     0.173 A 
ATOM     92  C   UNL A   1      45.699  27.992  34.496  1.00  0.00     0.173 A 
ATOM     93  F   UNL A   1      43.143  25.465  35.059  1.00  0.00    -0.203 F 
ATOM     94  C   UNL A   1      45.418  25.491  35.667  1.00  0.00     0.198 A 
ATOM     95  C   UNL A   1      46.795  27.370  35.088  1.00  0.00     0.198 A 
ATOM     96  F   UNL A   1      45.866  29.202  33.942  1.00  0.00    -0.203 F 
ATOM     97  F   UNL A   1      45.271  24.298  36.260  1.00  0.00    -0.200 F 
ATOM     98  C   UNL A   1      46.652  26.124  35.679  1.00  0.00     0.200 A 
ATOM     99  F   UNL A   1      47.989  27.977  35.088  1.00  0.00    -0.200 F 
ATOM    100  F   UNL A   1      47.702  25.534  36.264  1.00  0.00    -0.200 F 
ENDBRANCH  67  90
ENDBRANCH  41  42
ENDBRANCH  34  36
ENDBRANCH  33  34
ENDBRANCH  32  33
ENDBRANCH  31  32
ENDBRANCH  30  31
ENDBRANCH   1  30
TORSDOF 20
ENDMDL
MODEL 3
REMARK VINA RESULT:     -11.4      4.575      9.553
REMARK SMILES COc1ccc(-c2nc(NCC(=O)OCCOCCOC(=O)c3ccc(-c4c5nc(c(-c6c(F)c(F)c(F)c(F)c6F)c6ccc([nH]6)c(-c6c(F)c(F)c(F)c(F)c6F)c6nc(c(-c7c(F)c(F)c(F)c(F)c7F)c7ccc4[nH]7)C=C6)C=C5)cc3)sc2-c2ccc(OC)cc2)cc1
REMARK SMILES IDX 16 1 15 2 14 3 12 4 13 5 11 6 10 7 9 9 7 10 8 11 87 12 86 13
REMARK SMILES IDX 6 14 3 15 4 16 97 17 5 18 96 19 2 20 1 21 88 22 89 23 95 24
REMARK SMILES IDX 90 25 94 26 91 27 92 28 93 29 17 30 18 31 19 32 20 33 21 34
REMARK SMILES IDX 22 35 23 36 24 37 85 38 25 39 84 40 26 41 27 42 28 43 78 44
REMARK SMILES IDX 29 45 83 46 77 47 79 48 30 49 82 50 76 51 75 52 31 54 63 55
REMARK SMILES IDX 43 56 62 57 44 58 47 59 61 60 80 61 45 62 46 63 60 65 81 66
REMARK SMILES IDX 48 67 32 68 33 69 41 70 34 71 35 72 39 73 42 74 36 75 37 76
REMARK SMILES IDX 40 77 38 78 64 79 65 80 73 81 66 82 67 83 71 84 74 85 68 86
REMARK SMILES IDX 69 87 72 88 70 89 49 90 50 91 58 92 51 93 52 94 56 95 59 96
REMARK SMILES IDX 53 97 54 98 57 99 55 100
REMARK H PARENT 10 8 79 53 47 64
REMARK Flexibility Score: inf
ROOT
ATOM      1  C   UNL A   1      32.454  29.793  25.585  1.00  0.00     0.202 C 
ENDROOT
BRANCH   1   2
ATOM      2  C   UNL A   1      31.522  28.686  25.085  1.00  0.00     0.261 C 
BRANCH   2   3
ATOM      3  O   UNL A   1      31.407  28.742  23.655  1.00  0.00    -0.462 OA
BRANCH   3   4
ATOM      4  C   UNL A   1      30.375  28.039  23.114  1.00  0.00     0.325 C 
ATOM      5  O   UNL A   1      29.900  28.247  22.002  1.00  0.00    -0.250 OA
BRANCH   4   6
ATOM      6  C   UNL A   1      29.942  26.858  23.975  1.00  0.00     0.238 C 
BRANCH   6   7
ATOM      7  N   UNL A   1      30.082  25.544  23.354  1.00  0.00    -0.351 N 
ATOM      8  H   UNL A   1      29.372  25.244  22.741  1.00  0.00     0.163 HD
BRANCH   7   9
ATOM      9  C   UNL A   1      31.125  24.717  23.570  1.00  0.00     0.184 A 
ATOM     10  C   UNL A   1      32.173  22.789  23.868  1.00  0.00     0.091 A 
ATOM     11  N   UNL A   1      30.996  23.412  23.486  1.00  0.00    -0.220 NA
ATOM     12  C   UNL A   1      33.231  23.644  24.136  1.00  0.00     0.064 A 
ATOM     13  S   UNL A   1      32.710  25.262  23.961  1.00  0.00    -0.096 S 
BRANCH  10  14
ATOM     14  C   UNL A   1      32.288  21.340  23.967  1.00  0.00     0.002 A 
ATOM     15  C   UNL A   1      32.787  18.578  24.112  1.00  0.00     0.118 A 
ATOM     16  C   UNL A   1      32.856  19.366  25.260  1.00  0.00     0.047 A 
ATOM     17  C   UNL A   1      32.408  19.161  22.901  1.00  0.00     0.047 A 
ATOM     18  C   UNL A   1      32.612  20.740  25.191  1.00  0.00     0.014 A 
ATOM     19  C   UNL A   1      32.153  20.538  22.829  1.00  0.00     0.014 A 
BRANCH  15  20
ATOM     20  O   UNL A   1      33.080  17.256  24.299  1.00  0.00    -0.497 OA
ATOM     21  C   UNL A   1      34.171  16.752  23.535  1.00  0.00     0.278 C 
ENDBRANCH  15  20
ENDBRANCH  10  14
BRANCH  12  22
ATOM     22  C   UNL A   1      34.619  23.366  24.485  1.00  0.00    -0.006 A 
ATOM     23  C   UNL A   1      35.533  22.945  23.514  1.00  0.00     0.013 A 
ATOM     24  C   UNL A   1      35.056  23.556  25.801  1.00  0.00     0.013 A 
ATOM     25  C   UNL A   1      36.866  22.719  23.861  1.00  0.00     0.047 A 
ATOM     26  C   UNL A   1      36.391  23.328  26.145  1.00  0.00     0.047 A 
ATOM     27  C   UNL A   1      37.302  22.911  25.174  1.00  0.00     0.118 A 
BRANCH  27  28
ATOM     28  O   UNL A   1      38.630  22.660  25.377  1.00  0.00    -0.497 OA
ATOM     29  C   UNL A   1      38.960  21.398  25.946  1.00  0.00     0.278 C 
ENDBRANCH  27  28
ENDBRANCH  12  22
ENDBRANCH   7   9
ENDBRANCH   6   7
ENDBRANCH   4   6
ENDBRANCH   3   4
ENDBRANCH   2   3
ENDBRANCH   1   2
BRANCH   1  30
ATOM     30  O   UNL A   1      31.974  30.557  26.692  1.00  0.00    -0.374 OA
BRANCH  30  31
ATOM     31  C   UNL A   1      32.852  31.532  27.256  1.00  0.00     0.202 C 
BRANCH  31  32
ATOM     32  C   UNL A   1      32.295  32.951  27.412  1.00  0.00     0.261 C 
BRANCH  32  33
ATOM     33  O   UNL A   1      33.336  33.944  27.468  1.00  0.00    -0.460 OA
BRANCH  33  34
ATOM     34  C   UNL A   1      33.355  34.687  28.599  1.00  0.00     0.338 C 
ATOM     35  O   UNL A   1      32.526  35.511  28.962  1.00  0.00    -0.246 OA
BRANCH  34  36
ATOM     36  C   UNL A   1      34.454  34.251  29.478  1.00  0.00     0.060 A 
ATOM     37  C   UNL A   1      35.764  34.455  29.027  1.00  0.00     0.016 A 
ATOM     38  C   UNL A   1      34.215  33.581  30.680  1.00  0.00     0.016 A 
ATOM     39  C   UNL A   1      36.842  33.956  29.756  1.00  0.00     0.010 A 
ATOM     40  C   UNL A   1      35.297  33.069  31.405  1.00  0.00     0.010 A 
ATOM     41  C   UNL A   1      36.613  33.229  30.932  1.00  0.00    -0.014 A 
BRANCH  41  42
ATOM     42  C   UNL A   1      37.742  32.537  31.599  1.00  0.00     0.031 A 
ATOM     43  C   UNL A   1      38.392  31.365  30.918  1.00  0.00     0.074 A 
ATOM     44  C   UNL A   1      38.196  32.959  32.792  1.00  0.00     0.049 A 
ATOM     45  N   UNL A   1      39.357  30.588  31.341  1.00  0.00    -0.248 NA
ATOM     46  C   UNL A   1      37.884  31.022  29.580  1.00  0.00     0.031 C 
ATOM     47  C   UNL A   1      37.674  34.105  33.534  1.00  0.00     0.029 A 
ATOM     48  N   UNL A   1      39.194  32.463  33.592  1.00  0.00    -0.354 N 
ATOM     49  C   UNL A   1      39.568  29.662  30.327  1.00  0.00     0.074 A 
ATOM     50  C   UNL A   1      38.615  29.958  29.278  1.00  0.00     0.031 C 
ATOM     51  C   UNL A   1      38.346  34.215  34.693  1.00  0.00     0.029 A 
ATOM     52  C   UNL A   1      39.322  33.129  34.786  1.00  0.00     0.049 A 
ATOM     53  H   UNL A   1      39.764  31.702  33.335  1.00  0.00     0.167 HD
ATOM     54  C   UNL A   1      40.477  28.661  30.276  1.00  0.00     0.037 A 
ATOM     55  C   UNL A   1      40.118  32.873  35.842  1.00  0.00     0.037 A 
ATOM     56  C   UNL A   1      41.428  28.369  31.317  1.00  0.00     0.049 A 
ATOM     57  C   UNL A   1      41.075  31.712  35.788  1.00  0.00     0.074 A 
ATOM     58  C   UNL A   1      42.409  27.394  31.342  1.00  0.00     0.029 A 
ATOM     59  N   UNL A   1      41.507  29.048  32.524  1.00  0.00    -0.354 N 
ATOM     60  N   UNL A   1      41.287  30.859  34.815  1.00  0.00    -0.248 NA
ATOM     61  C   UNL A   1      41.903  31.478  36.979  1.00  0.00     0.031 C 
ATOM     62  C   UNL A   1      43.051  27.451  32.584  1.00  0.00     0.029 A 
ATOM     63  C   UNL A   1      42.502  28.493  33.314  1.00  0.00     0.049 A 
ATOM     64  H   UNL A   1      40.942  29.811  32.781  1.00  0.00     0.167 HD
ATOM     65  C   UNL A   1      42.286  30.006  35.265  1.00  0.00     0.074 A 
ATOM     66  C   UNL A   1      42.648  30.450  36.595  1.00  0.00     0.031 C 
ATOM     67  C   UNL A   1      42.852  28.947  34.635  1.00  0.00     0.037 A 
BRANCH  54  68
ATOM     68  C   UNL A   1      40.474  27.783  29.059  1.00  0.00     0.064 A 
ATOM     69  C   UNL A   1      39.664  26.642  28.976  1.00  0.00     0.173 A 
ATOM     70  C   UNL A   1      41.261  28.114  27.946  1.00  0.00     0.173 A 
ATOM     71  F   UNL A   1      38.902  26.277  30.020  1.00  0.00    -0.203 F 
ATOM     72  C   UNL A   1      39.657  25.851  27.830  1.00  0.00     0.198 A 
ATOM     73  C   UNL A   1      41.233  27.335  26.792  1.00  0.00     0.198 A 
ATOM     74  F   UNL A   1      42.050  29.197  27.974  1.00  0.00    -0.203 F 
ATOM     75  F   UNL A   1      38.904  24.743  27.787  1.00  0.00    -0.200 F 
ATOM     76  C   UNL A   1      40.435  26.202  26.737  1.00  0.00     0.200 A 
ATOM     77  F   UNL A   1      41.978  27.682  25.734  1.00  0.00    -0.200 F 
ATOM     78  F   UNL A   1      40.421  25.445  25.632  1.00  0.00    -0.200 F 
ENDBRANCH  54  68
BRANCH  55  79
ATOM     79  C   UNL A   1      40.027  33.722  37.059  1.00  0.00     0.064 A 
ATOM     80  C   UNL A   1      39.098  33.443  38.071  1.00  0.00     0.173 A 
ATOM     81  C   UNL A   1      40.854  34.843  37.223  1.00  0.00     0.173 A 
ATOM     82  F   UNL A   1      38.266  32.399  37.945  1.00  0.00    -0.203 F 
ATOM     83  C   UNL A   1      38.990  34.262  39.193  1.00  0.00     0.198 A 
ATOM     84  C   UNL A   1      40.764  35.646  38.357  1.00  0.00     0.198 A 
ATOM     85  F   UNL A   1      41.756  35.157  36.280  1.00  0.00    -0.203 F 
ATOM     86  F   UNL A   1      38.061  34.001  40.123  1.00  0.00    -0.200 F 
ATOM     87  C   UNL A   1      39.826  35.359  39.338  1.00  0.00     0.200 A 
ATOM     88  F   UNL A   1      41.579  36.701  38.496  1.00  0.00    -0.200 F 
ATOM     89  F   UNL A   1      39.721  36.147  40.417  1.00  0.00    -0.200 F 
ENDBRANCH  55  79
BRANCH  67  90
ATOM     90  C   UNL A   1      43.939  28.211  35.362  1.00  0.00     0.064 A 
ATOM     91  C   UNL A   1      43.660  27.098  36.169  1.00  0.00     0.173 A 
ATOM     92  C   UNL A   1      45.280  28.597  35.215  1.00  0.00     0.173 A 
ATOM     93  F   UNL A   1      42.393  26.699  36.353  1.00  0.00    -0.203 F 
ATOM     94  C   UNL A   1      44.683  26.412  36.819  1.00  0.00     0.198 A 
ATOM     95  C   UNL A   1      46.302  27.893  35.845  1.00  0.00     0.198 A 
ATOM     96  F   UNL A   1      45.601  29.651  34.449  1.00  0.00    -0.203 F 
ATOM     97  F   UNL A   1      44.389  25.378  37.619  1.00  0.00    -0.200 F 
ATOM     98  C   UNL A   1      46.003  26.805  36.651  1.00  0.00     0.200 A 
ATOM     99  F   UNL A   1      47.578  28.265  35.671  1.00  0.00    -0.200 F 
ATOM    100  F   UNL A   1      46.985  26.138  37.272  1.00  0.00    -0.200 F 
ENDBRANCH  67  90
ENDBRANCH  41  42
ENDBRANCH  34  36
ENDBRANCH  33  34
ENDBRANCH  32  33
ENDBRANCH  31  32
ENDBRANCH  30  31
ENDBRANCH   1  30
TORSDOF 20
ENDMDL
