MODEL 1
REMARK VINA RESULT:     -11.5      0.000      0.000
REMARK SMILES O=C(OCCOCCOC(=O)[C@@H]1C[C@@H]2CC[C@H]1N2C(=O)c1ccncc1Cl)c1ccc(-c2c3nc(c(-c4c(F)c(F)c(F)c(F)c4F)c4ccc([nH]4)c(-c4c(F)c(F)c(F)c(F)c4F)c4nc(c(-c5c(F)c(F)c(F)c(F)c5F)c5ccc2[nH]5)C=C4)C=C3)cc1
REMARK SMILES IDX 6 1 5 2 4 3 3 4 2 5 1 6 28 7 29 8 90 9 30 10 89 11 31 12
REMARK SMILES IDX 32 13 33 14 83 15 34 16 88 17 82 18 84 19 35 20 87 21 81 22
REMARK SMILES IDX 80 23 36 25 68 26 48 27 67 28 49 29 52 30 66 31 85 32 50 33
REMARK SMILES IDX 51 34 65 36 86 37 53 38 37 39 38 40 46 41 39 42 40 43 44 44
REMARK SMILES IDX 47 45 41 46 42 47 45 48 43 49 69 50 70 51 78 52 71 53 72 54
REMARK SMILES IDX 76 55 79 56 73 57 74 58 77 59 75 60 54 61 55 62 63 63 56 64
REMARK SMILES IDX 57 65 61 66 64 67 58 68 59 69 62 70 60 71 7 72 8 73 9 74
REMARK SMILES IDX 10 75 11 76 12 77 13 78 17 79 14 80 16 81 18 82 15 83 19 84
REMARK SMILES IDX 20 85 21 86 22 87 26 88 23 89 25 90 27 91 24 92
REMARK H PARENT 84 24 52 35
REMARK Flexibility Score: inf
ROOT
ATOM      1  O   UNL A   1      31.319  30.735  25.467  1.00  0.00    -0.374 OA
ENDROOT
BRANCH   1   2
ATOM      2  C   UNL A   1      32.022  31.249  26.596  1.00  0.00     0.202 C 
BRANCH   2   3
ATOM      3  C   UNL A   1      31.541  32.638  27.021  1.00  0.00     0.261 C 
BRANCH   3   4
ATOM      4  O   UNL A   1      32.640  33.558  27.071  1.00  0.00    -0.460 OA
BRANCH   4   5
ATOM      5  C   UNL A   1      33.325  33.960  28.169  1.00  0.00     0.338 C 
ATOM      6  O   UNL A   1      32.941  34.969  28.758  1.00  0.00    -0.246 OA
BRANCH   5   7
ATOM      7  C   UNL A   1      34.491  33.222  28.747  1.00  0.00     0.060 A 
ATOM      8  C   UNL A   1      34.457  31.932  29.284  1.00  0.00     0.016 A 
ATOM      9  C   UNL A   1      35.741  33.862  28.660  1.00  0.00     0.016 A 
ATOM     10  C   UNL A   1      35.600  31.309  29.757  1.00  0.00     0.010 A 
ATOM     11  C   UNL A   1      36.905  33.235  29.113  1.00  0.00     0.010 A 
ATOM     12  C   UNL A   1      36.826  31.958  29.678  1.00  0.00    -0.014 A 
BRANCH  12  13
ATOM     13  C   UNL A   1      37.971  31.311  30.333  1.00  0.00     0.031 A 
ATOM     14  C   UNL A   1      38.172  31.560  31.793  1.00  0.00     0.074 A 
ATOM     15  C   UNL A   1      38.686  30.394  29.658  1.00  0.00     0.049 A 
ATOM     16  N   UNL A   1      39.098  31.109  32.593  1.00  0.00    -0.248 NA
ATOM     17  C   UNL A   1      37.175  32.423  32.449  1.00  0.00     0.031 C 
ATOM     18  C   UNL A   1      38.442  29.992  28.271  1.00  0.00     0.029 A 
ATOM     19  N   UNL A   1      39.730  29.606  30.057  1.00  0.00    -0.354 N 
ATOM     20  C   UNL A   1      38.814  31.657  33.835  1.00  0.00     0.074 A 
ATOM     21  C   UNL A   1      37.631  32.472  33.690  1.00  0.00     0.031 C 
ATOM     22  C   UNL A   1      39.295  29.008  27.944  1.00  0.00     0.029 A 
ATOM     23  C   UNL A   1      40.188  28.766  29.072  1.00  0.00     0.049 A 
ATOM     24  H   UNL A   1      40.116  29.637  30.961  1.00  0.00     0.167 HD
ATOM     25  C   UNL A   1      39.500  31.493  34.990  1.00  0.00     0.037 A 
ATOM     26  C   UNL A   1      41.235  27.923  29.087  1.00  0.00     0.037 A 
ATOM     27  C   UNL A   1      40.676  30.673  35.090  1.00  0.00     0.049 A 
ATOM     28  C   UNL A   1      42.046  27.844  30.354  1.00  0.00     0.074 A 
ATOM     29  C   UNL A   1      41.512  30.478  36.172  1.00  0.00     0.029 A 
ATOM     30  N   UNL A   1      41.180  29.905  34.046  1.00  0.00    -0.354 N 
ATOM     31  N   UNL A   1      41.832  28.427  31.511  1.00  0.00    -0.248 NA
ATOM     32  C   UNL A   1      43.252  27.010  30.315  1.00  0.00     0.031 C 
ATOM     33  C   UNL A   1      42.549  29.629  35.768  1.00  0.00     0.029 A 
ATOM     34  C   UNL A   1      42.329  29.249  34.451  1.00  0.00     0.049 A 
ATOM     35  H   UNL A   1      40.779  29.838  33.149  1.00  0.00     0.167 HD
ATOM     36  C   UNL A   1      42.862  28.017  32.343  1.00  0.00     0.074 A 
ATOM     37  C   UNL A   1      43.689  27.118  31.561  1.00  0.00     0.031 C 
ATOM     38  C   UNL A   1      43.112  28.354  33.634  1.00  0.00     0.037 A 
BRANCH  25  39
ATOM     39  C   UNL A   1      39.035  32.288  36.174  1.00  0.00     0.064 A 
ATOM     40  C   UNL A   1      39.490  33.592  36.425  1.00  0.00     0.173 A 
ATOM     41  C   UNL A   1      38.166  31.706  37.110  1.00  0.00     0.173 A 
ATOM     42  F   UNL A   1      40.348  34.182  35.581  1.00  0.00    -0.203 F 
ATOM     43  C   UNL A   1      39.124  34.266  37.590  1.00  0.00     0.198 A 
ATOM     44  C   UNL A   1      37.780  32.394  38.257  1.00  0.00     0.198 A 
ATOM     45  F   UNL A   1      37.710  30.458  36.923  1.00  0.00    -0.203 F 
ATOM     46  F   UNL A   1      39.630  35.481  37.846  1.00  0.00    -0.200 F 
ATOM     47  C   UNL A   1      38.269  33.668  38.503  1.00  0.00     0.200 A 
ATOM     48  F   UNL A   1      36.953  31.812  39.138  1.00  0.00    -0.200 F 
ATOM     49  F   UNL A   1      37.932  34.310  39.629  1.00  0.00    -0.200 F 
ENDBRANCH  25  39
BRANCH  26  50
ATOM     50  C   UNL A   1      41.598  27.142  27.874  1.00  0.00     0.064 A 
ATOM     51  C   UNL A   1      41.150  25.825  27.693  1.00  0.00     0.173 A 
ATOM     52  C   UNL A   1      42.418  27.688  26.873  1.00  0.00     0.173 A 
ATOM     53  F   UNL A   1      40.383  25.245  28.627  1.00  0.00    -0.203 F 
ATOM     54  C   UNL A   1      41.520  25.085  26.570  1.00  0.00     0.198 A 
ATOM     55  C   UNL A   1      42.760  26.959  25.736  1.00  0.00     0.198 A 
ATOM     56  F   UNL A   1      42.881  28.941  26.994  1.00  0.00    -0.203 F 
ATOM     57  F   UNL A   1      41.117  23.812  26.448  1.00  0.00    -0.200 F 
ATOM     58  C   UNL A   1      42.319  25.653  25.590  1.00  0.00     0.200 A 
ATOM     59  F   UNL A   1      43.522  27.520  24.787  1.00  0.00    -0.200 F 
ATOM     60  F   UNL A   1      42.673  24.941  24.511  1.00  0.00    -0.200 F 
ENDBRANCH  26  50
BRANCH  38  61
ATOM     61  C   UNL A   1      44.301  27.710  34.278  1.00  0.00     0.064 A 
ATOM     62  C   UNL A   1      45.560  28.330  34.285  1.00  0.00     0.173 A 
ATOM     63  C   UNL A   1      44.167  26.477  34.933  1.00  0.00     0.173 A 
ATOM     64  F   UNL A   1      45.738  29.501  33.656  1.00  0.00    -0.203 F 
ATOM     65  C   UNL A   1      46.647  27.722  34.902  1.00  0.00     0.198 A 
ATOM     66  C   UNL A   1      45.248  25.891  35.579  1.00  0.00     0.198 A 
ATOM     67  F   UNL A   1      42.980  25.852  34.959  1.00  0.00    -0.203 F 
ATOM     68  F   UNL A   1      47.853  28.306  34.855  1.00  0.00    -0.200 F 
ATOM     69  C   UNL A   1      46.489  26.509  35.556  1.00  0.00     0.200 A 
ATOM     70  F   UNL A   1      45.091  24.726  36.222  1.00  0.00    -0.200 F 
ATOM     71  F   UNL A   1      47.538  25.932  36.159  1.00  0.00    -0.200 F 
ENDBRANCH  38  61
ENDBRANCH  12  13
ENDBRANCH   5   7
ENDBRANCH   4   5
ENDBRANCH   3   4
ENDBRANCH   2   3
ENDBRANCH   1   2
BRANCH   1  72
ATOM     72  C   UNL A   1      31.512  29.349  25.176  1.00  0.00     0.202 C 
BRANCH  72  73
ATOM     73  C   UNL A   1      31.780  28.594  26.478  1.00  0.00     0.261 C 
BRANCH  73  74
ATOM     74  O   UNL A   1      32.781  27.593  26.233  1.00  0.00    -0.463 OA
BRANCH  74  75
ATOM     75  C   UNL A   1      32.314  26.312  26.212  1.00  0.00     0.311 C 
ATOM     76  O   UNL A   1      31.433  25.857  26.929  1.00  0.00    -0.252 OA
BRANCH  75  77
ATOM     77  C   UNL A   1      33.012  25.550  25.121  1.00  0.00     0.124 C 
ATOM     78  C   UNL A   1      33.939  26.403  24.214  1.00  0.00     0.042 C 
ATOM     79  C   UNL A   1      32.034  24.928  24.122  1.00  0.00     0.100 C 
ATOM     80  C   UNL A   1      33.418  26.061  22.805  1.00  0.00     0.086 C 
ATOM     81  C   UNL A   1      31.115  25.983  23.477  1.00  0.00     0.028 C 
ATOM     82  N   UNL A   1      32.950  24.707  23.017  1.00  0.00    -0.332 N 
ATOM     83  C   UNL A   1      32.092  26.809  22.611  1.00  0.00     0.027 C 
BRANCH  82  84
ATOM     84  C   UNL A   1      33.519  23.578  22.492  1.00  0.00     0.256 C 
ATOM     85  O   UNL A   1      33.437  23.275  21.305  1.00  0.00    -0.269 OA
BRANCH  84  86
ATOM     86  C   UNL A   1      34.379  22.757  23.367  1.00  0.00     0.061 A 
ATOM     87  C   UNL A   1      35.751  23.025  23.310  1.00  0.00     0.035 A 
ATOM     88  C   UNL A   1      33.902  21.762  24.217  1.00  0.00     0.072 A 
ATOM     89  C   UNL A   1      36.589  22.337  24.166  1.00  0.00     0.112 A 
ATOM     90  C   UNL A   1      34.823  21.153  25.056  1.00  0.00     0.132 A 
ATOM     91  Cl  UNL A   1      32.271  21.216  24.248  1.00  0.00    -0.082 Cl
ATOM     92  N   UNL A   1      36.151  21.428  25.061  1.00  0.00    -0.263 NA
ENDBRANCH  84  86
ENDBRANCH  82  84
ENDBRANCH  75  77
ENDBRANCH  74  75
ENDBRANCH  73  74
ENDBRANCH  72  73
ENDBRANCH   1  72
TORSDOF 16
ENDMDL
MODEL 2
REMARK VINA RESULT:     -11.3      3.331      8.539
REMARK SMILES O=C(OCCOCCOC(=O)[C@@H]1C[C@@H]2CC[C@H]1N2C(=O)c1ccncc1Cl)c1ccc(-c2c3nc(c(-c4c(F)c(F)c(F)c(F)c4F)c4ccc([nH]4)c(-c4c(F)c(F)c(F)c(F)c4F)c4nc(c(-c5c(F)c(F)c(F)c(F)c5F)c5ccc2[nH]5)C=C4)C=C3)cc1
REMARK SMILES IDX 6 1 5 2 4 3 3 4 2 5 1 6 28 7 29 8 90 9 30 10 89 11 31 12
REMARK SMILES IDX 32 13 33 14 83 15 34 16 88 17 82 18 84 19 35 20 87 21 81 22
REMARK SMILES IDX 80 23 36 25 68 26 48 27 67 28 49 29 52 30 66 31 85 32 50 33
REMARK SMILES IDX 51 34 65 36 86 37 53 38 37 39 38 40 46 41 39 42 40 43 44 44
REMARK SMILES IDX 47 45 41 46 42 47 45 48 43 49 69 50 70 51 78 52 71 53 72 54
REMARK SMILES IDX 76 55 79 56 73 57 74 58 77 59 75 60 54 61 55 62 63 63 56 64
REMARK SMILES IDX 57 65 61 66 64 67 58 68 59 69 62 70 60 71 7 72 8 73 9 74
REMARK SMILES IDX 10 75 11 76 12 77 13 78 17 79 14 80 16 81 18 82 15 83 19 84
REMARK SMILES IDX 20 85 21 86 22 87 26 88 23 89 25 90 27 91 24 92
REMARK H PARENT 84 24 52 35
REMARK Flexibility Score: inf
ROOT
ATOM      1  O   UNL A   1      40.686  21.608  26.016  1.00  0.00    -0.374 OA
ENDROOT
BRANCH   1   2
ATOM      2  C   UNL A   1      41.844  20.783  26.128  1.00  0.00     0.202 C 
BRANCH   2   3
ATOM      3  C   UNL A   1      43.132  21.499  25.715  1.00  0.00     0.261 C 
BRANCH   3   4
ATOM      4  O   UNL A   1      42.831  22.744  25.071  1.00  0.00    -0.460 OA
BRANCH   4   5
ATOM      5  C   UNL A   1      43.390  23.952  25.317  1.00  0.00     0.338 C 
ATOM      6  O   UNL A   1      44.321  24.321  24.602  1.00  0.00    -0.246 OA
BRANCH   5   7
ATOM      7  C   UNL A   1      42.913  24.898  26.373  1.00  0.00     0.060 A 
ATOM      8  C   UNL A   1      43.345  26.217  26.545  1.00  0.00     0.016 A 
ATOM      9  C   UNL A   1      41.879  24.435  27.206  1.00  0.00     0.016 A 
ATOM     10  C   UNL A   1      42.812  27.037  27.525  1.00  0.00     0.010 A 
ATOM     11  C   UNL A   1      41.317  25.260  28.184  1.00  0.00     0.010 A 
ATOM     12  C   UNL A   1      41.800  26.561  28.351  1.00  0.00    -0.014 A 
BRANCH  12  13
ATOM     13  C   UNL A   1      41.384  27.422  29.467  1.00  0.00     0.031 A 
ATOM     14  C   UNL A   1      42.257  27.463  30.680  1.00  0.00     0.074 A 
ATOM     15  C   UNL A   1      40.351  28.266  29.300  1.00  0.00     0.049 A 
ATOM     16  N   UNL A   1      42.110  28.137  31.786  1.00  0.00    -0.248 NA
ATOM     17  C   UNL A   1      43.478  26.642  30.630  1.00  0.00     0.031 C 
ATOM     18  C   UNL A   1      39.552  28.385  28.077  1.00  0.00     0.029 A 
ATOM     19  N   UNL A   1      39.825  29.209  30.138  1.00  0.00    -0.354 N 
ATOM     20  C   UNL A   1      43.200  27.799  32.574  1.00  0.00     0.074 A 
ATOM     21  C   UNL A   1      44.004  26.862  31.824  1.00  0.00     0.031 C 
ATOM     22  C   UNL A   1      38.654  29.370  28.237  1.00  0.00     0.029 A 
ATOM     23  C   UNL A   1      38.768  29.897  29.592  1.00  0.00     0.049 A 
ATOM     24  H   UNL A   1      40.169  29.379  31.043  1.00  0.00     0.167 HD
ATOM     25  C   UNL A   1      43.489  28.234  33.822  1.00  0.00     0.037 A 
ATOM     26  C   UNL A   1      37.973  30.825  30.152  1.00  0.00     0.037 A 
ATOM     27  C   UNL A   1      42.659  29.168  34.534  1.00  0.00     0.049 A 
ATOM     28  C   UNL A   1      38.252  31.209  31.582  1.00  0.00     0.074 A 
ATOM     29  C   UNL A   1      42.786  29.634  35.828  1.00  0.00     0.029 A 
ATOM     30  N   UNL A   1      41.533  29.779  33.993  1.00  0.00    -0.354 N 
ATOM     31  N   UNL A   1      39.235  30.828  32.364  1.00  0.00    -0.248 NA
ATOM     32  C   UNL A   1      37.304  32.134  32.214  1.00  0.00     0.031 C 
ATOM     33  C   UNL A   1      41.710  30.491  36.085  1.00  0.00     0.029 A 
ATOM     34  C   UNL A   1      40.942  30.603  34.933  1.00  0.00     0.049 A 
ATOM     35  H   UNL A   1      41.203  29.643  33.075  1.00  0.00     0.167 HD
ATOM     36  C   UNL A   1      39.038  31.478  33.572  1.00  0.00     0.074 A 
ATOM     37  C   UNL A   1      37.850  32.295  33.410  1.00  0.00     0.031 C 
ATOM     38  C   UNL A   1      39.763  31.406  34.717  1.00  0.00     0.037 A 
BRANCH  25  39
ATOM     39  C   UNL A   1      44.684  27.626  34.494  1.00  0.00     0.064 A 
ATOM     40  C   UNL A   1      44.607  26.422  35.211  1.00  0.00     0.173 A 
ATOM     41  C   UNL A   1      45.915  28.299  34.473  1.00  0.00     0.173 A 
ATOM     42  F   UNL A   1      43.446  25.757  35.291  1.00  0.00    -0.203 F 
ATOM     43  C   UNL A   1      45.709  25.936  35.915  1.00  0.00     0.198 A 
ATOM     44  C   UNL A   1      47.021  27.796  35.153  1.00  0.00     0.198 A 
ATOM     45  F   UNL A   1      46.040  29.459  33.811  1.00  0.00    -0.203 F 
ATOM     46  F   UNL A   1      45.592  24.824  36.653  1.00  0.00    -0.200 F 
ATOM     47  C   UNL A   1      46.914  26.622  35.884  1.00  0.00     0.200 A 
ATOM     48  F   UNL A   1      48.185  28.461  35.121  1.00  0.00    -0.200 F 
ATOM     49  F   UNL A   1      47.966  26.163  36.574  1.00  0.00    -0.200 F 
ENDBRANCH  25  39
BRANCH  26  50
ATOM     50  C   UNL A   1      36.832  31.404  29.393  1.00  0.00     0.064 A 
ATOM     51  C   UNL A   1      36.821  32.753  29.009  1.00  0.00     0.173 A 
ATOM     52  C   UNL A   1      35.715  30.626  29.048  1.00  0.00     0.173 A 
ATOM     53  F   UNL A   1      37.850  33.549  29.332  1.00  0.00    -0.203 F 
ATOM     54  C   UNL A   1      35.734  33.301  28.327  1.00  0.00     0.198 A 
ATOM     55  C   UNL A   1      34.645  31.166  28.338  1.00  0.00     0.198 A 
ATOM     56  F   UNL A   1      35.667  29.330  29.393  1.00  0.00    -0.203 F 
ATOM     57  F   UNL A   1      35.730  34.605  28.016  1.00  0.00    -0.200 F 
ATOM     58  C   UNL A   1      34.651  32.506  27.986  1.00  0.00     0.200 A 
ATOM     59  F   UNL A   1      33.607  30.388  28.001  1.00  0.00    -0.200 F 
ATOM     60  F   UNL A   1      33.608  33.033  27.330  1.00  0.00    -0.200 F 
ENDBRANCH  26  50
BRANCH  38  61
ATOM     61  C   UNL A   1      39.307  32.266  35.856  1.00  0.00     0.064 A 
ATOM     62  C   UNL A   1      38.355  31.817  36.782  1.00  0.00     0.173 A 
ATOM     63  C   UNL A   1      39.866  33.540  36.044  1.00  0.00     0.173 A 
ATOM     64  F   UNL A   1      37.783  30.614  36.632  1.00  0.00    -0.203 F 
ATOM     65  C   UNL A   1      37.958  32.626  37.842  1.00  0.00     0.198 A 
ATOM     66  C   UNL A   1      39.491  34.330  37.124  1.00  0.00     0.198 A 
ATOM     67  F   UNL A   1      40.786  34.007  35.187  1.00  0.00    -0.203 F 
ATOM     68  F   UNL A   1      37.010  32.199  38.688  1.00  0.00    -0.200 F 
ATOM     69  C   UNL A   1      38.532  33.877  38.017  1.00  0.00     0.200 A 
ATOM     70  F   UNL A   1      40.057  35.532  37.300  1.00  0.00    -0.200 F 
ATOM     71  F   UNL A   1      38.155  34.649  39.045  1.00  0.00    -0.200 F 
ENDBRANCH  38  61
ENDBRANCH  12  13
ENDBRANCH   5   7
ENDBRANCH   4   5
ENDBRANCH   3   4
ENDBRANCH   2   3
ENDBRANCH   1   2
BRANCH   1  72
ATOM     72  C   UNL A   1      39.428  20.932  25.964  1.00  0.00     0.202 C 
BRANCH  72  73
ATOM     73  C   UNL A   1      38.309  21.962  25.798  1.00  0.00     0.261 C 
BRANCH  73  74
ATOM     74  O   UNL A   1      37.411  21.505  24.774  1.00  0.00    -0.463 OA
BRANCH  74  75
ATOM     75  C   UNL A   1      36.665  22.487  24.189  1.00  0.00     0.311 C 
ATOM     76  O   UNL A   1      37.098  23.523  23.703  1.00  0.00    -0.252 OA
BRANCH  75  77
ATOM     77  C   UNL A   1      35.222  22.071  24.180  1.00  0.00     0.124 C 
ATOM     78  C   UNL A   1      34.256  23.067  23.485  1.00  0.00     0.042 C 
ATOM     79  C   UNL A   1      34.636  21.952  25.589  1.00  0.00     0.100 C 
ATOM     80  C   UNL A   1      33.189  23.297  24.574  1.00  0.00     0.086 C 
ATOM     81  C   UNL A   1      34.766  23.265  26.382  1.00  0.00     0.028 C 
ATOM     82  N   UNL A   1      33.225  22.018  25.253  1.00  0.00    -0.332 N 
ATOM     83  C   UNL A   1      33.806  24.218  25.635  1.00  0.00     0.027 C 
BRANCH  82  84
ATOM     84  C   UNL A   1      32.227  21.081  25.236  1.00  0.00     0.256 C 
ATOM     85  O   UNL A   1      31.095  21.299  25.655  1.00  0.00    -0.269 OA
BRANCH  84  86
ATOM     86  C   UNL A   1      32.491  19.793  24.563  1.00  0.00     0.061 A 
ATOM     87  C   UNL A   1      32.936  18.750  25.383  1.00  0.00     0.035 A 
ATOM     88  C   UNL A   1      32.321  19.578  23.198  1.00  0.00     0.072 A 
ATOM     89  C   UNL A   1      33.123  17.505  24.815  1.00  0.00     0.112 A 
ATOM     90  C   UNL A   1      32.505  18.284  22.735  1.00  0.00     0.132 A 
ATOM     91  Cl  UNL A   1      31.954  20.816  22.062  1.00  0.00    -0.082 Cl
ATOM     92  N   UNL A   1      32.887  17.241  23.512  1.00  0.00    -0.263 NA
ENDBRANCH  84  86
ENDBRANCH  82  84
ENDBRANCH  75  77
ENDBRANCH  74  75
ENDBRANCH  73  74
ENDBRANCH  72  73
ENDBRANCH   1  72
TORSDOF 16
ENDMDL
MODEL 3
REMARK VINA RESULT:     -11.1      1.318      7.562
REMARK SMILES O=C(OCCOCCOC(=O)[C@@H]1C[C@@H]2CC[C@H]1N2C(=O)c1ccncc1Cl)c1ccc(-c2c3nc(c(-c4c(F)c(F)c(F)c(F)c4F)c4ccc([nH]4)c(-c4c(F)c(F)c(F)c(F)c4F)c4nc(c(-c5c(F)c(F)c(F)c(F)c5F)c5ccc2[nH]5)C=C4)C=C3)cc1
REMARK SMILES IDX 6 1 5 2 4 3 3 4 2 5 1 6 28 7 29 8 90 9 30 10 89 11 31 12
REMARK SMILES IDX 32 13 33 14 83 15 34 16 88 17 82 18 84 19 35 20 87 21 81 22
REMARK SMILES IDX 80 23 36 25 68 26 48 27 67 28 49 29 52 30 66 31 85 32 50 33
REMARK SMILES IDX 51 34 65 36 86 37 53 38 37 39 38 40 46 41 39 42 40 43 44 44
REMARK SMILES IDX 47 45 41 46 42 47 45 48 43 49 69 50 70 51 78 52 71 53 72 54
REMARK SMILES IDX 76 55 79 56 73 57 74 58 77 59 75 60 54 61 55 62 63 63 56 64
REMARK SMILES IDX 57 65 61 66 64 67 58 68 59 69 62 70 60 71 7 72 8 73 9 74
REMARK SMILES IDX 10 75 11 76 12 77 13 78 17 79 14 80 16 81 18 82 15 83 19 84
REMARK SMILES IDX 20 85 21 86 22 87 26 88 23 89 25 90 27 91 24 92
REMARK H PARENT 84 24 52 35
REMARK Flexibility Score: inf
ROOT
ATOM      1  O   UNL A   1      31.560  29.306  24.446  1.00  0.00    -0.374 OA
ENDROOT
BRANCH   1   2
ATOM      2  C   UNL A   1      31.772  28.748  25.741  1.00  0.00     0.202 C 
BRANCH   2   3
ATOM      3  C   UNL A   1      31.849  29.806  26.844  1.00  0.00     0.261 C 
BRANCH   3   4
ATOM      4  O   UNL A   1      32.673  30.904  26.431  1.00  0.00    -0.460 OA
BRANCH   4   5
ATOM      5  C   UNL A   1      33.452  31.687  27.215  1.00  0.00     0.338 C 
ATOM      6  O   UNL A   1      33.129  32.864  27.368  1.00  0.00    -0.246 OA
BRANCH   5   7
ATOM      7  C   UNL A   1      34.655  31.198  27.957  1.00  0.00     0.060 A 
ATOM      8  C   UNL A   1      34.885  29.881  28.366  1.00  0.00     0.016 A 
ATOM      9  C   UNL A   1      35.676  32.140  28.183  1.00  0.00     0.016 A 
ATOM     10  C   UNL A   1      36.053  29.511  29.010  1.00  0.00     0.010 A 
ATOM     11  C   UNL A   1      36.869  31.774  28.812  1.00  0.00     0.010 A 
ATOM     12  C   UNL A   1      37.047  30.454  29.239  1.00  0.00    -0.014 A 
BRANCH  12  13
ATOM     13  C   UNL A   1      38.192  30.037  30.060  1.00  0.00     0.031 A 
ATOM     14  C   UNL A   1      39.240  29.189  29.415  1.00  0.00     0.074 A 
ATOM     15  C   UNL A   1      38.353  30.564  31.286  1.00  0.00     0.049 A 
ATOM     16  N   UNL A   1      40.337  28.696  29.921  1.00  0.00    -0.248 NA
ATOM     17  C   UNL A   1      39.033  28.867  27.993  1.00  0.00     0.031 C 
ATOM     18  C   UNL A   1      37.440  31.523  31.915  1.00  0.00     0.029 A 
ATOM     19  N   UNL A   1      39.355  30.405  32.202  1.00  0.00    -0.354 N 
ATOM     20  C   UNL A   1      40.932  27.982  28.892  1.00  0.00     0.074 A 
ATOM     21  C   UNL A   1      40.082  28.105  27.731  1.00  0.00     0.031 C 
ATOM     22  C   UNL A   1      37.943  31.890  33.105  1.00  0.00     0.029 A 
ATOM     23  C   UNL A   1      39.169  31.138  33.348  1.00  0.00     0.049 A 
ATOM     24  H   UNL A   1      40.134  29.823  32.055  1.00  0.00     0.167 HD
ATOM     25  C   UNL A   1      42.088  27.280  28.929  1.00  0.00     0.037 A 
ATOM     26  C   UNL A   1      39.904  31.163  34.475  1.00  0.00     0.037 A 
ATOM     27  C   UNL A   1      42.904  27.183  30.108  1.00  0.00     0.049 A 
ATOM     28  C   UNL A   1      41.126  30.284  34.527  1.00  0.00     0.074 A 
ATOM     29  C   UNL A   1      44.054  26.446  30.312  1.00  0.00     0.029 A 
ATOM     30  N   UNL A   1      42.642  27.859  31.295  1.00  0.00    -0.354 N 
ATOM     31  N   UNL A   1      41.650  29.539  33.582  1.00  0.00    -0.248 NA
ATOM     32  C   UNL A   1      41.848  30.234  35.804  1.00  0.00     0.031 C 
ATOM     33  C   UNL A   1      44.460  26.639  31.638  1.00  0.00     0.029 A 
ATOM     34  C   UNL A   1      43.596  27.541  32.244  1.00  0.00     0.049 A 
ATOM     35  H   UNL A   1      41.885  28.474  31.439  1.00  0.00     0.167 HD
ATOM     36  C   UNL A   1      42.772  28.945  34.140  1.00  0.00     0.074 A 
ATOM     37  C   UNL A   1      42.862  29.436  35.502  1.00  0.00     0.031 C 
ATOM     38  C   UNL A   1      43.647  28.068  33.586  1.00  0.00     0.037 A 
BRANCH  25  39
ATOM     39  C   UNL A   1      42.454  26.509  27.696  1.00  0.00     0.064 A 
ATOM     40  C   UNL A   1      41.927  25.237  27.425  1.00  0.00     0.173 A 
ATOM     41  C   UNL A   1      43.403  27.029  26.802  1.00  0.00     0.173 A 
ATOM     42  F   UNL A   1      41.043  24.679  28.265  1.00  0.00    -0.203 F 
ATOM     43  C   UNL A   1      42.367  24.498  26.327  1.00  0.00     0.198 A 
ATOM     44  C   UNL A   1      43.818  26.300  25.691  1.00  0.00     0.198 A 
ATOM     45  F   UNL A   1      43.946  28.236  27.020  1.00  0.00    -0.203 F 
ATOM     46  F   UNL A   1      41.905  23.255  26.129  1.00  0.00    -0.200 F 
ATOM     47  C   UNL A   1      43.310  25.031  25.460  1.00  0.00     0.200 A 
ATOM     48  F   UNL A   1      44.730  26.818  24.855  1.00  0.00    -0.200 F 
ATOM     49  F   UNL A   1      43.744  24.313  24.416  1.00  0.00    -0.200 F 
ENDBRANCH  25  39
BRANCH  26  50
ATOM     50  C   UNL A   1      39.483  31.992  35.636  1.00  0.00     0.064 A 
ATOM     51  C   UNL A   1      38.544  31.523  36.566  1.00  0.00     0.173 A 
ATOM     52  C   UNL A   1      39.998  33.284  35.835  1.00  0.00     0.173 A 
ATOM     53  F   UNL A   1      38.002  30.306  36.413  1.00  0.00    -0.203 F 
ATOM     54  C   UNL A   1      38.127  32.317  37.634  1.00  0.00     0.198 A 
ATOM     55  C   UNL A   1      39.605  34.064  36.921  1.00  0.00     0.198 A 
ATOM     56  F   UNL A   1      40.896  33.789  34.975  1.00  0.00    -0.203 F 
ATOM     57  F   UNL A   1      37.192  31.860  38.479  1.00  0.00    -0.200 F 
ATOM     58  C   UNL A   1      38.662  33.583  37.815  1.00  0.00     0.200 A 
ATOM     59  F   UNL A   1      40.136  35.281  37.096  1.00  0.00    -0.200 F 
ATOM     60  F   UNL A   1      38.261  34.345  38.842  1.00  0.00    -0.200 F 
ENDBRANCH  26  50
BRANCH  38  61
ATOM     61  C   UNL A   1      44.792  27.628  34.447  1.00  0.00     0.064 A 
ATOM     62  C   UNL A   1      45.989  28.356  34.508  1.00  0.00     0.173 A 
ATOM     63  C   UNL A   1      44.668  26.486  35.253  1.00  0.00     0.173 A 
ATOM     64  F   UNL A   1      46.158  29.443  33.741  1.00  0.00    -0.203 F 
ATOM     65  C   UNL A   1      47.033  27.938  35.326  1.00  0.00     0.198 A 
ATOM     66  C   UNL A   1      45.701  26.093  36.095  1.00  0.00     0.198 A 
ATOM     67  F   UNL A   1      43.537  25.764  35.233  1.00  0.00    -0.203 F 
ATOM     68  F   UNL A   1      48.188  28.618  35.333  1.00  0.00    -0.200 F 
ATOM     69  C   UNL A   1      46.885  26.813  36.125  1.00  0.00     0.200 A 
ATOM     70  F   UNL A   1      45.552  25.015  36.878  1.00  0.00    -0.200 F 
ATOM     71  F   UNL A   1      47.890  26.421  36.921  1.00  0.00    -0.200 F 
ENDBRANCH  38  61
ENDBRANCH  12  13
ENDBRANCH   5   7
ENDBRANCH   4   5
ENDBRANCH   3   4
ENDBRANCH   2   3
ENDBRANCH   1   2
BRANCH   1  72
ATOM     72  C   UNL A   1      31.574  28.390  23.349  1.00  0.00     0.202 C 
BRANCH  72  73
ATOM     73  C   UNL A   1      32.961  28.393  22.706  1.00  0.00     0.261 C 
BRANCH  73  74
ATOM     74  O   UNL A   1      33.708  27.275  23.215  1.00  0.00    -0.463 OA
BRANCH  74  75
ATOM     75  C   UNL A   1      33.621  26.141  22.462  1.00  0.00     0.311 C 
ATOM     76  O   UNL A   1      33.387  26.093  21.262  1.00  0.00    -0.252 OA
BRANCH  75  77
ATOM     77  C   UNL A   1      33.919  24.950  23.328  1.00  0.00     0.124 C 
ATOM     78  C   UNL A   1      33.692  23.573  22.651  1.00  0.00     0.042 C 
ATOM     79  C   UNL A   1      33.014  24.879  24.560  1.00  0.00     0.100 C 
ATOM     80  C   UNL A   1      32.761  22.867  23.656  1.00  0.00     0.086 C 
ATOM     81  C   UNL A   1      31.521  24.853  24.182  1.00  0.00     0.028 C 
ATOM     82  N   UNL A   1      33.197  23.478  24.895  1.00  0.00    -0.332 N 
ATOM     83  C   UNL A   1      31.362  23.477  23.496  1.00  0.00     0.027 C 
BRANCH  82  84
ATOM     84  C   UNL A   1      33.874  22.842  25.900  1.00  0.00     0.256 C 
ATOM     85  O   UNL A   1      33.338  22.471  26.939  1.00  0.00    -0.269 OA
BRANCH  84  86
ATOM     86  C   UNL A   1      35.284  22.471  25.667  1.00  0.00     0.061 A 
ATOM     87  C   UNL A   1      36.231  23.478  25.890  1.00  0.00     0.035 A 
ATOM     88  C   UNL A   1      35.699  21.209  25.251  1.00  0.00     0.072 A 
ATOM     89  C   UNL A   1      37.569  23.159  25.760  1.00  0.00     0.112 A 
ATOM     90  C   UNL A   1      37.066  20.985  25.182  1.00  0.00     0.132 A 
ATOM     91  Cl  UNL A   1      34.631  19.948  24.774  1.00  0.00    -0.082 Cl
ATOM     92  N   UNL A   1      38.009  21.924  25.441  1.00  0.00    -0.263 NA
ENDBRANCH  84  86
ENDBRANCH  82  84
ENDBRANCH  75  77
ENDBRANCH  74  75
ENDBRANCH  73  74
ENDBRANCH  72  73
ENDBRANCH   1  72
TORSDOF 16
ENDMDL
