MODEL 1
REMARK VINA RESULT:     -10.3      0.000      0.000
REMARK SMILES COCC[N@H+](C)[C@H](C(=O)OCCOCCOC(=O)c1ccc(-c2c3nc(c(-c4c(F)c(F)c(F)c(F)c4F)c4ccc([nH]4)c(-c4c(F)c(F)c(F)c(F)c4F)c4nc(c(-c5c(F)c(F)c(F)c(F)c5F)c5ccc2[nH]5)C=C4)C=C3)cc1)c1ccc(OC)nc1
REMARK SMILES IDX 12 1 11 2 10 3 8 4 9 5 7 6 5 7 6 8 4 10 3 11 2 12 1 13 82 14
REMARK SMILES IDX 83 15 89 16 84 17 88 18 85 19 86 20 87 21 13 22 14 23 15 24
REMARK SMILES IDX 16 25 17 26 18 27 19 28 20 29 81 30 21 31 80 32 22 33 23 34
REMARK SMILES IDX 24 35 74 36 25 37 79 38 73 39 75 40 26 41 78 42 72 43 71 44
REMARK SMILES IDX 27 46 59 47 39 48 58 49 40 50 43 51 57 52 76 53 41 54 42 55
REMARK SMILES IDX 56 57 77 58 44 59 28 60 29 61 37 62 30 63 31 64 35 65 38 66
REMARK SMILES IDX 32 67 33 68 36 69 34 70 60 71 61 72 69 73 62 74 63 75 67 76
REMARK SMILES IDX 70 77 64 78 65 79 68 80 66 81 45 82 46 83 54 84 47 85 48 86
REMARK SMILES IDX 52 87 55 88 49 89 50 90 53 91 51 92
REMARK H PARENT 5 9 75 45 43 56
REMARK Flexibility Score: inf
ROOT
ATOM      1  C   UNL A   1      32.415  28.536  23.157  1.00  0.00     0.202 C 
ENDROOT
BRANCH   1   2
ATOM      2  C   UNL A   1      32.230  27.122  22.596  1.00  0.00     0.261 C 
BRANCH   2   3
ATOM      3  O   UNL A   1      33.476  26.392  22.655  1.00  0.00    -0.459 OA
BRANCH   3   4
ATOM      4  C   UNL A   1      33.378  25.043  22.536  1.00  0.00     0.370 C 
ATOM      5  O   UNL A   1      33.272  24.478  21.448  1.00  0.00    -0.245 OA
BRANCH   4   6
ATOM      6  C   UNL A   1      33.456  24.249  23.873  1.00  0.00     0.327 C 
BRANCH   6   7
ATOM      7  N   UNL A   1      32.292  23.304  23.921  1.00  0.00    -0.320 N 
ATOM      8  C   UNL A   1      32.408  22.110  23.099  1.00  0.00     0.333 C 
ATOM      9  H   UNL A   1      31.608  23.914  23.475  1.00  0.00     0.348 HD
BRANCH   7  10
ATOM     10  C   UNL A   1      31.690  23.002  25.224  1.00  0.00     0.291 C 
BRANCH  10  11
ATOM     11  C   UNL A   1      31.568  24.194  26.193  1.00  0.00     0.221 C 
BRANCH  11  12
ATOM     12  O   UNL A   1      30.609  23.998  27.233  1.00  0.00    -0.379 OA
ATOM     13  C   UNL A   1      29.758  22.878  27.021  1.00  0.00     0.195 C 
ENDBRANCH  11  12
ENDBRANCH  10  11
ENDBRANCH   7  10
ENDBRANCH   6   7
BRANCH   6  14
ATOM     14  C   UNL A   1      34.774  23.671  24.396  1.00  0.00     0.039 A 
ATOM     15  C   UNL A   1      35.561  22.892  23.531  1.00  0.00     0.018 A 
ATOM     16  C   UNL A   1      35.335  23.870  25.648  1.00  0.00     0.125 A 
ATOM     17  C   UNL A   1      36.847  22.480  23.873  1.00  0.00     0.069 A 
ATOM     18  N   UNL A   1      36.580  23.465  26.022  1.00  0.00    -0.222 NA
ATOM     19  C   UNL A   1      37.337  22.815  25.118  1.00  0.00     0.212 A 
BRANCH  19  20
ATOM     20  O   UNL A   1      38.598  22.523  25.560  1.00  0.00    -0.481 OA
ATOM     21  C   UNL A   1      39.039  23.246  26.704  1.00  0.00     0.280 C 
ENDBRANCH  19  20
ENDBRANCH   6  14
ENDBRANCH   4   6
ENDBRANCH   3   4
ENDBRANCH   2   3
ENDBRANCH   1   2
BRANCH   1  22
ATOM     22  O   UNL A   1      32.253  28.691  24.569  1.00  0.00    -0.374 OA
BRANCH  22  23
ATOM     23  C   UNL A   1      31.398  29.739  25.014  1.00  0.00     0.202 C 
BRANCH  23  24
ATOM     24  C   UNL A   1      31.744  30.422  26.341  1.00  0.00     0.261 C 
BRANCH  24  25
ATOM     25  O   UNL A   1      33.158  30.449  26.565  1.00  0.00    -0.460 OA
BRANCH  25  26
ATOM     26  C   UNL A   1      33.597  31.504  27.284  1.00  0.00     0.338 C 
ATOM     27  O   UNL A   1      32.951  32.476  27.647  1.00  0.00    -0.246 OA
BRANCH  26  28
ATOM     28  C   UNL A   1      34.957  31.217  27.774  1.00  0.00     0.060 A 
ATOM     29  C   UNL A   1      35.281  29.875  28.019  1.00  0.00     0.016 A 
ATOM     30  C   UNL A   1      35.891  32.231  28.000  1.00  0.00     0.016 A 
ATOM     31  C   UNL A   1      36.518  29.543  28.560  1.00  0.00     0.010 A 
ATOM     32  C   UNL A   1      37.126  31.898  28.558  1.00  0.00     0.010 A 
ATOM     33  C   UNL A   1      37.422  30.561  28.882  1.00  0.00    -0.014 A 
BRANCH  33  34
ATOM     34  C   UNL A   1      38.582  30.263  29.750  1.00  0.00     0.031 A 
ATOM     35  C   UNL A   1      39.627  29.315  29.234  1.00  0.00     0.074 A 
ATOM     36  C   UNL A   1      38.703  30.816  30.967  1.00  0.00     0.049 A 
ATOM     37  N   UNL A   1      40.664  28.804  29.844  1.00  0.00    -0.248 NA
ATOM     38  C   UNL A   1      39.467  28.875  27.840  1.00  0.00     0.031 C 
ATOM     39  C   UNL A   1      37.780  31.786  31.547  1.00  0.00     0.029 A 
ATOM     40  N   UNL A   1      39.646  30.613  31.943  1.00  0.00    -0.354 N 
ATOM     41  C   UNL A   1      41.264  27.962  28.917  1.00  0.00     0.074 A 
ATOM     42  C   UNL A   1      40.462  28.012  27.714  1.00  0.00     0.031 C 
ATOM     43  C   UNL A   1      38.183  32.072  32.796  1.00  0.00     0.029 A 
ATOM     44  C   UNL A   1      39.366  31.271  33.112  1.00  0.00     0.049 A 
ATOM     45  H   UNL A   1      40.444  30.052  31.815  1.00  0.00     0.167 HD
ATOM     46  C   UNL A   1      42.384  27.214  29.060  1.00  0.00     0.037 A 
ATOM     47  C   UNL A   1      39.972  31.197  34.313  1.00  0.00     0.037 A 
ATOM     48  C   UNL A   1      43.167  27.170  30.266  1.00  0.00     0.049 A 
ATOM     49  C   UNL A   1      41.177  30.309  34.478  1.00  0.00     0.074 A 
ATOM     50  C   UNL A   1      44.334  26.472  30.513  1.00  0.00     0.029 A 
ATOM     51  N   UNL A   1      42.848  27.846  31.437  1.00  0.00    -0.354 N 
ATOM     52  N   UNL A   1      41.758  29.530  33.597  1.00  0.00    -0.248 NA
ATOM     53  C   UNL A   1      41.813  30.291  35.802  1.00  0.00     0.031 C 
ATOM     54  C   UNL A   1      44.683  26.667  31.853  1.00  0.00     0.029 A 
ATOM     55  C   UNL A   1      43.778  27.551  32.422  1.00  0.00     0.049 A 
ATOM     56  H   UNL A   1      42.075  28.444  31.552  1.00  0.00     0.167 HD
ATOM     57  C   UNL A   1      42.843  28.956  34.245  1.00  0.00     0.074 A 
ATOM     58  C   UNL A   1      42.840  29.477  35.598  1.00  0.00     0.031 C 
ATOM     59  C   UNL A   1      43.764  28.085  33.762  1.00  0.00     0.037 A 
BRANCH  46  60
ATOM     60  C   UNL A   1      42.783  26.344  27.903  1.00  0.00     0.064 A 
ATOM     61  C   UNL A   1      42.335  25.019  27.774  1.00  0.00     0.173 A 
ATOM     62  C   UNL A   1      43.643  26.841  26.911  1.00  0.00     0.173 A 
ATOM     63  F   UNL A   1      41.523  24.488  28.701  1.00  0.00    -0.203 F 
ATOM     64  C   UNL A   1      42.772  24.213  26.726  1.00  0.00     0.198 A 
ATOM     65  C   UNL A   1      44.046  26.044  25.844  1.00  0.00     0.198 A 
ATOM     66  F   UNL A   1      44.097  28.101  26.979  1.00  0.00    -0.203 F 
ATOM     67  F   UNL A   1      42.389  22.929  26.666  1.00  0.00    -0.200 F 
ATOM     68  C   UNL A   1      43.622  24.727  25.759  1.00  0.00     0.200 A 
ATOM     69  F   UNL A   1      44.855  26.548  24.902  1.00  0.00    -0.200 F 
ATOM     70  F   UNL A   1      44.044  23.949  24.753  1.00  0.00    -0.200 F 
ENDBRANCH  46  60
BRANCH  47  71
ATOM     71  C   UNL A   1      39.424  31.980  35.451  1.00  0.00     0.064 A 
ATOM     72  C   UNL A   1      38.516  31.411  36.352  1.00  0.00     0.173 A 
ATOM     73  C   UNL A   1      39.832  33.302  35.682  1.00  0.00     0.173 A 
ATOM     74  F   UNL A   1      38.079  30.157  36.160  1.00  0.00    -0.203 F 
ATOM     75  C   UNL A   1      38.034  32.135  37.441  1.00  0.00     0.198 A 
ATOM     76  C   UNL A   1      39.372  34.016  36.786  1.00  0.00     0.198 A 
ATOM     77  F   UNL A   1      40.702  33.893  34.849  1.00  0.00    -0.203 F 
ATOM     78  F   UNL A   1      37.144  31.577  38.273  1.00  0.00    -0.200 F 
ATOM     79  C   UNL A   1      38.470  33.433  37.663  1.00  0.00     0.200 A 
ATOM     80  F   UNL A   1      39.809  35.264  37.005  1.00  0.00    -0.200 F 
ATOM     81  F   UNL A   1      38.022  34.121  38.722  1.00  0.00    -0.200 F 
ENDBRANCH  47  71
BRANCH  59  82
ATOM     82  C   UNL A   1      44.884  27.673  34.675  1.00  0.00     0.064 A 
ATOM     83  C   UNL A   1      46.061  28.424  34.795  1.00  0.00     0.173 A 
ATOM     84  C   UNL A   1      44.737  26.546  35.501  1.00  0.00     0.173 A 
ATOM     85  F   UNL A   1      46.257  29.502  34.021  1.00  0.00    -0.203 F 
ATOM     86  C   UNL A   1      47.057  28.054  35.697  1.00  0.00     0.198 A 
ATOM     87  C   UNL A   1      45.719  26.199  36.423  1.00  0.00     0.198 A 
ATOM     88  F   UNL A   1      43.626  25.797  35.432  1.00  0.00    -0.203 F 
ATOM     89  F   UNL A   1      48.191  28.765  35.769  1.00  0.00    -0.200 F 
ATOM     90  C   UNL A   1      46.880  26.950  36.517  1.00  0.00     0.200 A 
ATOM     91  F   UNL A   1      45.537  25.142  37.228  1.00  0.00    -0.200 F 
ATOM     92  F   UNL A   1      47.831  26.608  37.398  1.00  0.00    -0.200 F 
ENDBRANCH  59  82
ENDBRANCH  33  34
ENDBRANCH  26  28
ENDBRANCH  25  26
ENDBRANCH  24  25
ENDBRANCH  23  24
ENDBRANCH  22  23
ENDBRANCH   1  22
TORSDOF 20
ENDMDL
MODEL 2
REMARK VINA RESULT:     -10.2      0.650      2.089
REMARK SMILES COCC[N@H+](C)[C@H](C(=O)OCCOCCOC(=O)c1ccc(-c2c3nc(c(-c4c(F)c(F)c(F)c(F)c4F)c4ccc([nH]4)c(-c4c(F)c(F)c(F)c(F)c4F)c4nc(c(-c5c(F)c(F)c(F)c(F)c5F)c5ccc2[nH]5)C=C4)C=C3)cc1)c1ccc(OC)nc1
REMARK SMILES IDX 12 1 11 2 10 3 8 4 9 5 7 6 5 7 6 8 4 10 3 11 2 12 1 13 82 14
REMARK SMILES IDX 83 15 89 16 84 17 88 18 85 19 86 20 87 21 13 22 14 23 15 24
REMARK SMILES IDX 16 25 17 26 18 27 19 28 20 29 81 30 21 31 80 32 22 33 23 34
REMARK SMILES IDX 24 35 74 36 25 37 79 38 73 39 75 40 26 41 78 42 72 43 71 44
REMARK SMILES IDX 27 46 59 47 39 48 58 49 40 50 43 51 57 52 76 53 41 54 42 55
REMARK SMILES IDX 56 57 77 58 44 59 28 60 29 61 37 62 30 63 31 64 35 65 38 66
REMARK SMILES IDX 32 67 33 68 36 69 34 70 60 71 61 72 69 73 62 74 63 75 67 76
REMARK SMILES IDX 70 77 64 78 65 79 68 80 66 81 45 82 46 83 54 84 47 85 48 86
REMARK SMILES IDX 52 87 55 88 49 89 50 90 53 91 51 92
REMARK H PARENT 5 9 75 45 43 56
REMARK Flexibility Score: inf
ROOT
ATOM      1  C   UNL A   1      32.044  28.807  23.407  1.00  0.00     0.202 C 
ENDROOT
BRANCH   1   2
ATOM      2  C   UNL A   1      31.884  27.407  22.805  1.00  0.00     0.261 C 
BRANCH   2   3
ATOM      3  O   UNL A   1      33.131  26.964  22.224  1.00  0.00    -0.459 OA
BRANCH   3   4
ATOM      4  C   UNL A   1      33.270  25.623  22.072  1.00  0.00     0.370 C 
ATOM      5  O   UNL A   1      33.320  25.081  20.968  1.00  0.00    -0.245 OA
BRANCH   4   6
ATOM      6  C   UNL A   1      33.410  24.813  23.394  1.00  0.00     0.327 C 
BRANCH   6   7
ATOM      7  N   UNL A   1      32.178  23.973  23.557  1.00  0.00    -0.320 N 
ATOM      8  C   UNL A   1      32.383  22.534  23.560  1.00  0.00     0.333 C 
ATOM      9  H   UNL A   1      31.735  24.214  22.671  1.00  0.00     0.348 HD
BRANCH   7  10
ATOM     10  C   UNL A   1      31.186  24.376  24.560  1.00  0.00     0.291 C 
BRANCH  10  11
ATOM     11  C   UNL A   1      31.760  24.873  25.901  1.00  0.00     0.221 C 
BRANCH  11  12
ATOM     12  O   UNL A   1      31.292  24.143  27.036  1.00  0.00    -0.379 OA
ATOM     13  C   UNL A   1      32.068  22.989  27.332  1.00  0.00     0.195 C 
ENDBRANCH  11  12
ENDBRANCH  10  11
ENDBRANCH   7  10
ENDBRANCH   6   7
BRANCH   6  14
ATOM     14  C   UNL A   1      34.717  24.116  23.782  1.00  0.00     0.039 A 
ATOM     15  C   UNL A   1      35.247  24.339  25.064  1.00  0.00     0.018 A 
ATOM     16  C   UNL A   1      35.444  23.217  23.016  1.00  0.00     0.125 A 
ATOM     17  C   UNL A   1      36.330  23.611  25.553  1.00  0.00     0.069 A 
ATOM     18  N   UNL A   1      36.517  22.503  23.455  1.00  0.00    -0.222 NA
ATOM     19  C   UNL A   1      36.920  22.675  24.728  1.00  0.00     0.212 A 
BRANCH  19  20
ATOM     20  O   UNL A   1      37.950  21.856  25.098  1.00  0.00    -0.481 OA
ATOM     21  C   UNL A   1      38.776  22.333  26.155  1.00  0.00     0.280 C 
ENDBRANCH  19  20
ENDBRANCH   6  14
ENDBRANCH   4   6
ENDBRANCH   3   4
ENDBRANCH   2   3
ENDBRANCH   1   2
BRANCH   1  22
ATOM     22  O   UNL A   1      32.097  28.888  24.834  1.00  0.00    -0.374 OA
BRANCH  22  23
ATOM     23  C   UNL A   1      31.402  29.967  25.450  1.00  0.00     0.202 C 
BRANCH  23  24
ATOM     24  C   UNL A   1      31.977  30.530  26.753  1.00  0.00     0.261 C 
BRANCH  24  25
ATOM     25  O   UNL A   1      33.377  30.807  26.634  1.00  0.00    -0.460 OA
BRANCH  25  26
ATOM     26  C   UNL A   1      33.842  31.748  27.482  1.00  0.00     0.338 C 
ATOM     27  O   UNL A   1      33.225  32.691  27.956  1.00  0.00    -0.246 OA
BRANCH  26  28
ATOM     28  C   UNL A   1      35.185  31.355  27.945  1.00  0.00     0.060 A 
ATOM     29  C   UNL A   1      35.375  30.010  28.294  1.00  0.00     0.016 A 
ATOM     30  C   UNL A   1      36.231  32.275  28.048  1.00  0.00     0.016 A 
ATOM     31  C   UNL A   1      36.593  29.591  28.817  1.00  0.00     0.010 A 
ATOM     32  C   UNL A   1      37.448  31.856  28.587  1.00  0.00     0.010 A 
ATOM     33  C   UNL A   1      37.614  30.525  29.015  1.00  0.00    -0.014 A 
BRANCH  33  34
ATOM     34  C   UNL A   1      38.774  30.174  29.863  1.00  0.00     0.031 A 
ATOM     35  C   UNL A   1      39.771  29.188  29.325  1.00  0.00     0.074 A 
ATOM     36  C   UNL A   1      38.936  30.714  31.081  1.00  0.00     0.049 A 
ATOM     37  N   UNL A   1      40.795  28.630  29.916  1.00  0.00    -0.248 NA
ATOM     38  C   UNL A   1      39.571  28.764  27.931  1.00  0.00     0.031 C 
ATOM     39  C   UNL A   1      38.063  31.717  31.682  1.00  0.00     0.029 A 
ATOM     40  N   UNL A   1      39.885  30.466  32.041  1.00  0.00    -0.354 N 
ATOM     41  C   UNL A   1      41.346  27.771  28.974  1.00  0.00     0.074 A 
ATOM     42  C   UNL A   1      40.529  27.862  27.784  1.00  0.00     0.031 C 
ATOM     43  C   UNL A   1      38.497  31.978  32.926  1.00  0.00     0.029 A 
ATOM     44  C   UNL A   1      39.650  31.127  33.219  1.00  0.00     0.049 A 
ATOM     45  H   UNL A   1      40.657  29.873  31.897  1.00  0.00     0.167 HD
ATOM     46  C   UNL A   1      42.436  26.977  29.095  1.00  0.00     0.037 A 
ATOM     47  C   UNL A   1      40.271  31.020  34.409  1.00  0.00     0.037 A 
ATOM     48  C   UNL A   1      43.236  26.893  30.288  1.00  0.00     0.049 A 
ATOM     49  C   UNL A   1      41.442  30.082  34.550  1.00  0.00     0.074 A 
ATOM     50  C   UNL A   1      44.377  26.146  30.512  1.00  0.00     0.029 A 
ATOM     51  N   UNL A   1      42.963  27.573  31.468  1.00  0.00    -0.354 N 
ATOM     52  N   UNL A   1      41.976  29.286  33.655  1.00  0.00    -0.248 NA
ATOM     53  C   UNL A   1      42.096  30.029  35.864  1.00  0.00     0.031 C 
ATOM     54  C   UNL A   1      44.755  26.318  31.848  1.00  0.00     0.029 A 
ATOM     55  C   UNL A   1      43.895  27.234  32.436  1.00  0.00     0.049 A 
ATOM     56  H   UNL A   1      42.217  28.202  31.599  1.00  0.00     0.167 HD
ATOM     57  C   UNL A   1      43.047  28.664  34.283  1.00  0.00     0.074 A 
ATOM     58  C   UNL A   1      43.086  29.176  35.638  1.00  0.00     0.031 C 
ATOM     59  C   UNL A   1      43.924  27.759  33.779  1.00  0.00     0.037 A 
BRANCH  46  60
ATOM     60  C   UNL A   1      42.781  26.099  27.926  1.00  0.00     0.064 A 
ATOM     61  C   UNL A   1      43.695  26.496  26.937  1.00  0.00     0.173 A 
ATOM     62  C   UNL A   1      42.173  24.842  27.785  1.00  0.00     0.173 A 
ATOM     63  F   UNL A   1      44.296  27.694  27.014  1.00  0.00    -0.203 F 
ATOM     64  C   UNL A   1      43.948  25.690  25.830  1.00  0.00     0.198 A 
ATOM     65  C   UNL A   1      42.458  24.023  26.697  1.00  0.00     0.198 A 
ATOM     66  F   UNL A   1      41.296  24.408  28.704  1.00  0.00    -0.203 F 
ATOM     67  F   UNL A   1      44.768  26.124  24.861  1.00  0.00    -0.200 F 
ATOM     68  C   UNL A   1      43.334  24.453  25.713  1.00  0.00     0.200 A 
ATOM     69  F   UNL A   1      41.875  22.820  26.595  1.00  0.00    -0.200 F 
ATOM     70  F   UNL A   1      43.576  23.680  24.645  1.00  0.00    -0.200 F 
ENDBRANCH  46  60
BRANCH  47  71
ATOM     71  C   UNL A   1      39.774  31.817  35.560  1.00  0.00     0.064 A 
ATOM     72  C   UNL A   1      40.329  33.063  35.874  1.00  0.00     0.173 A 
ATOM     73  C   UNL A   1      38.704  31.362  36.346  1.00  0.00     0.173 A 
ATOM     74  F   UNL A   1      41.367  33.531  35.166  1.00  0.00    -0.203 F 
ATOM     75  C   UNL A   1      39.834  33.825  36.931  1.00  0.00     0.198 A 
ATOM     76  C   UNL A   1      38.191  32.135  37.384  1.00  0.00     0.198 A 
ATOM     77  F   UNL A   1      38.136  30.174  36.085  1.00  0.00    -0.203 F 
ATOM     78  F   UNL A   1      40.400  35.003  37.228  1.00  0.00    -0.200 F 
ATOM     79  C   UNL A   1      38.759  33.367  37.678  1.00  0.00     0.200 A 
ATOM     80  F   UNL A   1      37.143  31.695  38.092  1.00  0.00    -0.200 F 
ATOM     81  F   UNL A   1      38.270  34.108  38.681  1.00  0.00    -0.200 F 
ENDBRANCH  47  71
BRANCH  59  82
ATOM     82  C   UNL A   1      45.040  27.296  34.672  1.00  0.00     0.064 A 
ATOM     83  C   UNL A   1      44.932  26.139  35.457  1.00  0.00     0.173 A 
ATOM     84  C   UNL A   1      46.265  27.983  34.680  1.00  0.00     0.173 A 
ATOM     85  F   UNL A   1      43.781  25.454  35.496  1.00  0.00    -0.203 F 
ATOM     86  C   UNL A   1      46.006  25.696  36.228  1.00  0.00     0.198 A 
ATOM     87  C   UNL A   1      47.344  27.519  35.425  1.00  0.00     0.198 A 
ATOM     88  F   UNL A   1      46.423  29.091  33.940  1.00  0.00    -0.203 F 
ATOM     89  F   UNL A   1      45.870  24.608  37.000  1.00  0.00    -0.200 F 
ATOM     90  C   UNL A   1      47.213  26.379  36.202  1.00  0.00     0.200 A 
ATOM     91  F   UNL A   1      48.516  28.170  35.383  1.00  0.00    -0.200 F 
ATOM     92  F   UNL A   1      48.249  25.939  36.930  1.00  0.00    -0.200 F 
ENDBRANCH  59  82
ENDBRANCH  33  34
ENDBRANCH  26  28
ENDBRANCH  25  26
ENDBRANCH  24  25
ENDBRANCH  23  24
ENDBRANCH  22  23
ENDBRANCH   1  22
TORSDOF 20
ENDMDL
MODEL 3
REMARK VINA RESULT:     -10.1      4.299      7.369
REMARK SMILES COCC[N@H+](C)[C@H](C(=O)OCCOCCOC(=O)c1ccc(-c2c3nc(c(-c4c(F)c(F)c(F)c(F)c4F)c4ccc([nH]4)c(-c4c(F)c(F)c(F)c(F)c4F)c4nc(c(-c5c(F)c(F)c(F)c(F)c5F)c5ccc2[nH]5)C=C4)C=C3)cc1)c1ccc(OC)nc1
REMARK SMILES IDX 12 1 11 2 10 3 8 4 9 5 7 6 5 7 6 8 4 10 3 11 2 12 1 13 82 14
REMARK SMILES IDX 83 15 89 16 84 17 88 18 85 19 86 20 87 21 13 22 14 23 15 24
REMARK SMILES IDX 16 25 17 26 18 27 19 28 20 29 81 30 21 31 80 32 22 33 23 34
REMARK SMILES IDX 24 35 74 36 25 37 79 38 73 39 75 40 26 41 78 42 72 43 71 44
REMARK SMILES IDX 27 46 59 47 39 48 58 49 40 50 43 51 57 52 76 53 41 54 42 55
REMARK SMILES IDX 56 57 77 58 44 59 28 60 29 61 37 62 30 63 31 64 35 65 38 66
REMARK SMILES IDX 32 67 33 68 36 69 34 70 60 71 61 72 69 73 62 74 63 75 67 76
REMARK SMILES IDX 70 77 64 78 65 79 68 80 66 81 45 82 46 83 54 84 47 85 48 86
REMARK SMILES IDX 52 87 55 88 49 89 50 90 53 91 51 92
REMARK H PARENT 5 9 75 45 43 56
REMARK Flexibility Score: inf
ROOT
ATOM      1  C   UNL A   1      36.568  21.961  25.741  1.00  0.00     0.202 C 
ENDROOT
BRANCH   1   2
ATOM      2  C   UNL A   1      35.295  22.516  26.389  1.00  0.00     0.261 C 
BRANCH   2   3
ATOM      3  O   UNL A   1      34.462  23.154  25.395  1.00  0.00    -0.459 OA
BRANCH   3   4
ATOM      4  C   UNL A   1      33.135  23.195  25.673  1.00  0.00     0.370 C 
ATOM      5  O   UNL A   1      32.670  23.860  26.599  1.00  0.00    -0.245 OA
BRANCH   4   6
ATOM      6  C   UNL A   1      32.225  22.378  24.709  1.00  0.00     0.327 C 
BRANCH   6   7
ATOM      7  N   UNL A   1      31.937  23.231  23.509  1.00  0.00    -0.320 N 
ATOM      8  C   UNL A   1      30.636  23.879  23.486  1.00  0.00     0.333 C 
ATOM      9  H   UNL A   1      31.914  22.481  22.817  1.00  0.00     0.348 HD
BRANCH   7  10
ATOM     10  C   UNL A   1      32.990  24.125  23.017  1.00  0.00     0.291 C 
BRANCH  10  11
ATOM     11  C   UNL A   1      33.044  24.312  21.488  1.00  0.00     0.221 C 
BRANCH  11  12
ATOM     12  O   UNL A   1      33.278  25.661  21.079  1.00  0.00    -0.379 OA
ATOM     13  C   UNL A   1      33.240  26.597  22.149  1.00  0.00     0.195 C 
ENDBRANCH  11  12
ENDBRANCH  10  11
ENDBRANCH   7  10
ENDBRANCH   6   7
BRANCH   6  14
ATOM     14  C   UNL A   1      32.493  20.903  24.398  1.00  0.00     0.039 A 
ATOM     15  C   UNL A   1      32.898  20.055  25.444  1.00  0.00     0.018 A 
ATOM     16  C   UNL A   1      32.329  20.263  23.180  1.00  0.00     0.125 A 
ATOM     17  C   UNL A   1      32.990  18.675  25.280  1.00  0.00     0.069 A 
ATOM     18  N   UNL A   1      32.430  18.920  22.981  1.00  0.00    -0.222 NA
ATOM     19  C   UNL A   1      32.716  18.138  24.040  1.00  0.00     0.212 A 
BRANCH  19  20
ATOM     20  O   UNL A   1      32.715  16.801  23.756  1.00  0.00    -0.481 OA
ATOM     21  C   UNL A   1      33.248  15.949  24.765  1.00  0.00     0.280 C 
ENDBRANCH  19  20
ENDBRANCH   6  14
ENDBRANCH   4   6
ENDBRANCH   3   4
ENDBRANCH   2   3
ENDBRANCH   1   2
BRANCH   1  22
ATOM     22  O   UNL A   1      36.496  20.627  25.230  1.00  0.00    -0.374 OA
BRANCH  22  23
ATOM     23  C   UNL A   1      37.689  20.075  24.683  1.00  0.00     0.202 C 
BRANCH  23  24
ATOM     24  C   UNL A   1      38.807  19.695  25.658  1.00  0.00     0.261 C 
BRANCH  24  25
ATOM     25  O   UNL A   1      39.779  20.740  25.777  1.00  0.00    -0.460 OA
BRANCH  25  26
ATOM     26  C   UNL A   1      40.492  20.723  26.923  1.00  0.00     0.338 C 
ATOM     27  O   UNL A   1      41.027  19.758  27.450  1.00  0.00    -0.246 OA
BRANCH  26  28
ATOM     28  C   UNL A   1      40.727  22.109  27.363  1.00  0.00     0.060 A 
ATOM     29  C   UNL A   1      39.930  23.109  26.786  1.00  0.00     0.016 A 
ATOM     30  C   UNL A   1      41.704  22.431  28.307  1.00  0.00     0.016 A 
ATOM     31  C   UNL A   1      40.156  24.445  27.094  1.00  0.00     0.010 A 
ATOM     32  C   UNL A   1      41.940  23.774  28.605  1.00  0.00     0.010 A 
ATOM     33  C   UNL A   1      41.198  24.784  27.963  1.00  0.00    -0.014 A 
BRANCH  33  34
ATOM     34  C   UNL A   1      41.661  26.187  28.042  1.00  0.00     0.031 A 
ATOM     35  C   UNL A   1      43.006  26.521  27.463  1.00  0.00     0.074 A 
ATOM     36  C   UNL A   1      40.909  27.138  28.616  1.00  0.00     0.049 A 
ATOM     37  N   UNL A   1      43.682  27.639  27.514  1.00  0.00    -0.248 NA
ATOM     38  C   UNL A   1      43.685  25.435  26.739  1.00  0.00     0.031 C 
ATOM     39  C   UNL A   1      39.570  26.939  29.163  1.00  0.00     0.029 A 
ATOM     40  N   UNL A   1      41.184  28.461  28.856  1.00  0.00    -0.354 N 
ATOM     41  C   UNL A   1      44.876  27.383  26.853  1.00  0.00     0.074 A 
ATOM     42  C   UNL A   1      44.842  25.999  26.432  1.00  0.00     0.031 C 
ATOM     43  C   UNL A   1      39.150  28.094  29.707  1.00  0.00     0.029 A 
ATOM     44  C   UNL A   1      40.210  29.094  29.583  1.00  0.00     0.049 A 
ATOM     45  H   UNL A   1      42.001  28.909  28.538  1.00  0.00     0.167 HD
ATOM     46  C   UNL A   1      45.907  28.229  26.620  1.00  0.00     0.037 A 
ATOM     47  C   UNL A   1      40.198  30.328  30.123  1.00  0.00     0.037 A 
ATOM     48  C   UNL A   1      45.928  29.602  27.051  1.00  0.00     0.049 A 
ATOM     49  C   UNL A   1      41.381  31.237  29.915  1.00  0.00     0.074 A 
ATOM     50  C   UNL A   1      46.906  30.556  26.845  1.00  0.00     0.029 A 
ATOM     51  N   UNL A   1      44.924  30.209  27.794  1.00  0.00    -0.354 N 
ATOM     52  N   UNL A   1      42.501  31.003  29.271  1.00  0.00    -0.248 NA
ATOM     53  C   UNL A   1      41.300  32.580  30.504  1.00  0.00     0.031 C 
ATOM     54  C   UNL A   1      46.528  31.720  27.522  1.00  0.00     0.029 A 
ATOM     55  C   UNL A   1      45.276  31.517  28.085  1.00  0.00     0.049 A 
ATOM     56  H   UNL A   1      44.086  29.774  28.073  1.00  0.00     0.167 HD
ATOM     57  C   UNL A   1      43.241  32.176  29.348  1.00  0.00     0.074 A 
ATOM     58  C   UNL A   1      42.442  33.121  30.102  1.00  0.00     0.031 C 
ATOM     59  C   UNL A   1      44.465  32.448  28.831  1.00  0.00     0.037 A 
BRANCH  46  60
ATOM     60  C   UNL A   1      47.113  27.668  25.921  1.00  0.00     0.064 A 
ATOM     61  C   UNL A   1      48.180  27.085  26.622  1.00  0.00     0.173 A 
ATOM     62  C   UNL A   1      47.209  27.731  24.522  1.00  0.00     0.173 A 
ATOM     63  F   UNL A   1      48.147  27.010  27.962  1.00  0.00    -0.203 F 
ATOM     64  C   UNL A   1      49.314  26.631  25.954  1.00  0.00     0.198 A 
ATOM     65  C   UNL A   1      48.327  27.242  23.855  1.00  0.00     0.198 A 
ATOM     66  F   UNL A   1      46.216  28.273  23.800  1.00  0.00    -0.203 F 
ATOM     67  F   UNL A   1      50.351  26.146  26.652  1.00  0.00    -0.200 F 
ATOM     68  C   UNL A   1      49.386  26.705  24.572  1.00  0.00     0.200 A 
ATOM     69  F   UNL A   1      48.387  27.300  22.517  1.00  0.00    -0.200 F 
ATOM     70  F   UNL A   1      50.479  26.271  23.931  1.00  0.00    -0.200 F 
ENDBRANCH  46  60
BRANCH  47  71
ATOM     71  C   UNL A   1      39.026  30.755  30.930  1.00  0.00     0.064 A 
ATOM     72  C   UNL A   1      37.906  31.341  30.328  1.00  0.00     0.173 A 
ATOM     73  C   UNL A   1      38.987  30.547  32.317  1.00  0.00     0.173 A 
ATOM     74  F   UNL A   1      37.904  31.581  29.008  1.00  0.00    -0.203 F 
ATOM     75  C   UNL A   1      36.792  31.706  31.082  1.00  0.00     0.198 A 
ATOM     76  C   UNL A   1      37.864  30.885  33.066  1.00  0.00     0.198 A 
ATOM     77  F   UNL A   1      40.035  29.987  32.942  1.00  0.00    -0.203 F 
ATOM     78  F   UNL A   1      35.743  32.290  30.486  1.00  0.00    -0.200 F 
ATOM     79  C   UNL A   1      36.767  31.467  32.448  1.00  0.00     0.200 A 
ATOM     80  F   UNL A   1      37.838  30.638  34.383  1.00  0.00    -0.200 F 
ATOM     81  F   UNL A   1      35.687  31.799  33.169  1.00  0.00    -0.200 F 
ENDBRANCH  47  71
BRANCH  59  82
ATOM     82  C   UNL A   1      45.007  33.837  29.011  1.00  0.00     0.064 A 
ATOM     83  C   UNL A   1      45.748  34.206  30.143  1.00  0.00     0.173 A 
ATOM     84  C   UNL A   1      44.844  34.792  27.993  1.00  0.00     0.173 A 
ATOM     85  F   UNL A   1      45.922  33.337  31.149  1.00  0.00    -0.203 F 
ATOM     86  C   UNL A   1      46.294  35.483  30.255  1.00  0.00     0.198 A 
ATOM     87  C   UNL A   1      45.418  36.055  28.095  1.00  0.00     0.198 A 
ATOM     88  F   UNL A   1      44.151  34.488  26.886  1.00  0.00    -0.203 F 
ATOM     89  F   UNL A   1      46.967  35.828  31.362  1.00  0.00    -0.200 F 
ATOM     90  C   UNL A   1      46.138  36.402  29.227  1.00  0.00     0.200 A 
ATOM     91  F   UNL A   1      45.282  36.934  27.091  1.00  0.00    -0.200 F 
ATOM     92  F   UNL A   1      46.680  37.624  29.330  1.00  0.00    -0.200 F 
ENDBRANCH  59  82
ENDBRANCH  33  34
ENDBRANCH  26  28
ENDBRANCH  25  26
ENDBRANCH  24  25
ENDBRANCH  23  24
ENDBRANCH  22  23
ENDBRANCH   1  22
TORSDOF 20
ENDMDL
