MODEL 1
REMARK VINA RESULT:     -12.1      0.000      0.000
REMARK SMILES Cc1ccc(C(F)(F)F)cc1-c1ccc(/C=C/C(=O)OCCOCCOC(=O)c2ccc(-c3c4nc(c(-c5c(F)c(F)c(F)c(F)c5F)c5ccc([nH]5)c(-c5c(F)c(F)c(F)c(F)c5F)c5nc(c(-c6c(F)c(F)c(F)c(F)c6F)c6ccc3[nH]6)C=C5)C=C4)cc2)s1
REMARK SMILES IDX 22 1 21 2 20 3 18 4 19 5 17 6 16 7 15 8 12 9 13 10 92 11
REMARK SMILES IDX 14 12 11 13 1 14 2 15 3 16 4 17 10 18 5 19 6 20 7 21 8 22
REMARK SMILES IDX 9 23 23 24 24 25 25 26 26 27 27 28 28 29 29 30 30 31 91 32
REMARK SMILES IDX 31 33 90 34 32 35 33 36 34 37 84 38 35 39 89 40 83 41 85 42
REMARK SMILES IDX 36 43 88 44 82 45 81 46 37 48 69 49 49 50 68 51 50 52 53 53
REMARK SMILES IDX 67 54 86 55 51 56 52 57 66 59 87 60 54 61 38 62 39 63 47 64
REMARK SMILES IDX 40 65 41 66 45 67 48 68 42 69 43 70 46 71 44 72 70 73 71 74
REMARK SMILES IDX 79 75 72 76 73 77 77 78 80 79 74 80 75 81 78 82 76 83 55 84
REMARK SMILES IDX 56 85 64 86 57 87 58 88 62 89 65 90 59 91 60 92 63 93 61 94
REMARK H PARENT 85 47 53 58
REMARK Flexibility Score: inf
ROOT
ATOM      1  C   UNL A   1      36.223  20.754  24.993  1.00  0.00     0.202 C 
ENDROOT
BRANCH   1   2
ATOM      2  C   UNL A   1      34.849  20.159  25.161  1.00  0.00     0.261 C 
BRANCH   2   3
ATOM      3  O   UNL A   1      33.909  20.645  24.196  1.00  0.00    -0.460 OA
BRANCH   3   4
ATOM      4  C   UNL A   1      32.631  20.889  24.609  1.00  0.00     0.330 C 
ATOM      5  O   UNL A   1      31.818  20.096  25.017  1.00  0.00    -0.247 OA
BRANCH   4   6
ATOM      6  C   UNL A   1      32.402  22.345  24.537  1.00  0.00     0.095 C 
ATOM      7  C   UNL A   1      32.368  22.933  23.333  1.00  0.00     0.026 C 
BRANCH   7   8
ATOM      8  C   UNL A   1      32.254  24.319  23.105  1.00  0.00     0.028 A 
ATOM      9  C   UNL A   1      31.705  26.704  23.138  1.00  0.00     0.035 A 
ATOM     10  C   UNL A   1      32.458  26.378  22.033  1.00  0.00     0.021 A 
ATOM     11  S   UNL A   1      31.480  25.383  24.187  1.00  0.00    -0.136 S 
ATOM     12  C   UNL A   1      32.779  24.997  22.020  1.00  0.00     0.020 A 
BRANCH   9  13
ATOM     13  C   UNL A   1      31.055  27.956  23.473  1.00  0.00    -0.005 A 
ATOM     14  C   UNL A   1      33.085  28.710  24.832  1.00  0.00     0.045 C 
ATOM     15  C   UNL A   1      31.704  28.920  24.265  1.00  0.00    -0.042 A 
ATOM     16  C   UNL A   1      31.034  30.117  24.541  1.00  0.00     0.005 A 
ATOM     17  C   UNL A   1      29.776  30.376  23.990  1.00  0.00     0.013 A 
ATOM     18  C   UNL A   1      29.790  28.219  22.926  1.00  0.00     0.023 A 
ATOM     19  C   UNL A   1      29.149  29.438  23.158  1.00  0.00     0.056 A 
BRANCH  19  20
ATOM     20  C   UNL A   1      27.819  29.734  22.518  1.00  0.00     0.416 C 
ATOM     21  F   UNL A   1      27.275  30.899  22.964  1.00  0.00    -0.166 F 
ATOM     22  F   UNL A   1      27.904  29.849  21.164  1.00  0.00    -0.166 F 
ATOM     23  F   UNL A   1      26.879  28.772  22.748  1.00  0.00    -0.166 F 
ENDBRANCH  19  20
ENDBRANCH   9  13
ENDBRANCH   7   8
ENDBRANCH   4   6
ENDBRANCH   3   4
ENDBRANCH   2   3
ENDBRANCH   1   2
BRANCH   1  24
ATOM     24  O   UNL A   1      36.058  22.163  24.968  1.00  0.00    -0.374 OA
BRANCH  24  25
ATOM     25  C   UNL A   1      37.173  22.925  25.403  1.00  0.00     0.202 C 
BRANCH  25  26
ATOM     26  C   UNL A   1      38.461  22.096  25.537  1.00  0.00     0.261 C 
BRANCH  26  27
ATOM     27  O   UNL A   1      39.041  22.314  26.841  1.00  0.00    -0.460 OA
BRANCH  27  28
ATOM     28  C   UNL A   1      40.213  23.005  26.869  1.00  0.00     0.338 C 
ATOM     29  O   UNL A   1      41.323  22.513  26.992  1.00  0.00    -0.246 OA
BRANCH  28  30
ATOM     30  C   UNL A   1      39.931  24.462  27.030  1.00  0.00     0.060 A 
ATOM     31  C   UNL A   1      40.480  25.395  26.126  1.00  0.00     0.016 A 
ATOM     32  C   UNL A   1      39.417  24.902  28.246  1.00  0.00     0.016 A 
ATOM     33  C   UNL A   1      40.658  26.737  26.508  1.00  0.00     0.010 A 
ATOM     34  C   UNL A   1      39.688  26.190  28.653  1.00  0.00     0.010 A 
ATOM     35  C   UNL A   1      40.341  27.112  27.812  1.00  0.00    -0.014 A 
BRANCH  35  36
ATOM     36  C   UNL A   1      40.715  28.357  28.497  1.00  0.00     0.031 A 
ATOM     37  C   UNL A   1      39.681  29.420  28.594  1.00  0.00     0.074 A 
ATOM     38  C   UNL A   1      41.775  28.400  29.346  1.00  0.00     0.049 A 
ATOM     39  N   UNL A   1      39.844  30.524  29.232  1.00  0.00    -0.248 NA
ATOM     40  C   UNL A   1      38.372  29.347  27.948  1.00  0.00     0.031 C 
ATOM     41  C   UNL A   1      41.880  29.187  30.582  1.00  0.00     0.029 A 
ATOM     42  N   UNL A   1      43.012  27.733  29.301  1.00  0.00    -0.354 N 
ATOM     43  C   UNL A   1      38.617  31.116  29.388  1.00  0.00     0.074 A 
ATOM     44  C   UNL A   1      37.761  30.420  28.463  1.00  0.00     0.031 C 
ATOM     45  C   UNL A   1      43.152  29.201  31.008  1.00  0.00     0.029 A 
ATOM     46  C   UNL A   1      43.941  28.546  29.988  1.00  0.00     0.049 A 
ATOM     47  H   UNL A   1      43.195  26.866  28.873  1.00  0.00     0.167 HD
ATOM     48  C   UNL A   1      38.488  32.052  30.371  1.00  0.00     0.037 A 
ATOM     49  C   UNL A   1      45.054  29.036  29.380  1.00  0.00     0.037 A 
ATOM     50  C   UNL A   1      39.810  32.408  30.909  1.00  0.00     0.049 A 
ATOM     51  C   UNL A   1      45.022  30.536  29.379  1.00  0.00     0.074 A 
ATOM     52  C   UNL A   1      40.466  32.176  32.106  1.00  0.00     0.029 A 
ATOM     53  N   UNL A   1      40.779  32.878  30.021  1.00  0.00    -0.354 N 
ATOM     54  N   UNL A   1      43.915  31.203  29.560  1.00  0.00    -0.248 NA
ATOM     55  C   UNL A   1      46.181  31.408  29.253  1.00  0.00     0.031 C 
ATOM     56  C   UNL A   1      41.849  32.470  31.908  1.00  0.00     0.029 A 
ATOM     57  C   UNL A   1      42.027  32.915  30.607  1.00  0.00     0.049 A 
ATOM     58  H   UNL A   1      40.594  33.151  29.093  1.00  0.00     0.167 HD
ATOM     59  C   UNL A   1      44.181  32.534  29.636  1.00  0.00     0.074 A 
ATOM     60  C   UNL A   1      45.612  32.619  29.413  1.00  0.00     0.031 C 
ATOM     61  C   UNL A   1      43.183  33.435  29.875  1.00  0.00     0.037 A 
BRANCH  48  62
ATOM     62  C   UNL A   1      37.190  32.593  30.945  1.00  0.00     0.064 A 
ATOM     63  C   UNL A   1      36.348  33.406  30.150  1.00  0.00     0.173 A 
ATOM     64  C   UNL A   1      36.737  32.420  32.271  1.00  0.00     0.173 A 
ATOM     65  F   UNL A   1      36.653  33.692  28.877  1.00  0.00    -0.203 F 
ATOM     66  C   UNL A   1      35.161  33.973  30.635  1.00  0.00     0.198 A 
ATOM     67  C   UNL A   1      35.529  32.948  32.741  1.00  0.00     0.198 A 
ATOM     68  F   UNL A   1      37.452  31.775  33.193  1.00  0.00    -0.203 F 
ATOM     69  F   UNL A   1      34.426  34.762  29.838  1.00  0.00    -0.200 F 
ATOM     70  C   UNL A   1      34.743  33.730  31.926  1.00  0.00     0.200 A 
ATOM     71  F   UNL A   1      35.148  32.705  34.004  1.00  0.00    -0.200 F 
ATOM     72  F   UNL A   1      33.601  34.256  32.387  1.00  0.00    -0.200 F 
ENDBRANCH  48  62
BRANCH  49  73
ATOM     73  C   UNL A   1      45.577  28.078  28.366  1.00  0.00     0.064 A 
ATOM     74  C   UNL A   1      46.125  26.886  28.894  1.00  0.00     0.173 A 
ATOM     75  C   UNL A   1      45.005  28.012  27.087  1.00  0.00     0.173 A 
ATOM     76  F   UNL A   1      46.681  26.891  30.117  1.00  0.00    -0.203 F 
ATOM     77  C   UNL A   1      45.922  25.657  28.269  1.00  0.00     0.198 A 
ATOM     78  C   UNL A   1      44.818  26.775  26.457  1.00  0.00     0.198 A 
ATOM     79  F   UNL A   1      44.468  29.106  26.530  1.00  0.00    -0.203 F 
ATOM     80  F   UNL A   1      46.280  24.523  28.889  1.00  0.00    -0.200 F 
ATOM     81  C   UNL A   1      45.227  25.600  27.073  1.00  0.00     0.200 A 
ATOM     82  F   UNL A   1      44.130  26.708  25.308  1.00  0.00    -0.200 F 
ATOM     83  F   UNL A   1      44.891  24.410  26.551  1.00  0.00    -0.200 F 
ENDBRANCH  49  73
BRANCH  61  84
ATOM     84  C   UNL A   1      43.219  34.896  29.495  1.00  0.00     0.064 A 
ATOM     85  C   UNL A   1      43.454  35.937  30.411  1.00  0.00     0.173 A 
ATOM     86  C   UNL A   1      43.205  35.286  28.132  1.00  0.00     0.173 A 
ATOM     87  F   UNL A   1      43.622  35.706  31.718  1.00  0.00    -0.203 F 
ATOM     88  C   UNL A   1      43.594  37.265  30.003  1.00  0.00     0.198 A 
ATOM     89  C   UNL A   1      43.425  36.600  27.726  1.00  0.00     0.198 A 
ATOM     90  F   UNL A   1      43.020  34.402  27.142  1.00  0.00    -0.203 F 
ATOM     91  F   UNL A   1      43.767  38.222  30.926  1.00  0.00    -0.200 F 
ATOM     92  C   UNL A   1      43.599  37.594  28.664  1.00  0.00     0.200 A 
ATOM     93  F   UNL A   1      43.495  36.888  26.418  1.00  0.00    -0.200 F 
ATOM     94  F   UNL A   1      43.795  38.861  28.277  1.00  0.00    -0.200 F 
ENDBRANCH  61  84
ENDBRANCH  35  36
ENDBRANCH  28  30
ENDBRANCH  27  28
ENDBRANCH  26  27
ENDBRANCH  25  26
ENDBRANCH  24  25
ENDBRANCH   1  24
TORSDOF 17
ENDMDL
MODEL 2
REMARK VINA RESULT:     -11.9      4.437      9.837
REMARK SMILES Cc1ccc(C(F)(F)F)cc1-c1ccc(/C=C/C(=O)OCCOCCOC(=O)c2ccc(-c3c4nc(c(-c5c(F)c(F)c(F)c(F)c5F)c5ccc([nH]5)c(-c5c(F)c(F)c(F)c(F)c5F)c5nc(c(-c6c(F)c(F)c(F)c(F)c6F)c6ccc3[nH]6)C=C5)C=C4)cc2)s1
REMARK SMILES IDX 22 1 21 2 20 3 18 4 19 5 17 6 16 7 15 8 12 9 13 10 92 11
REMARK SMILES IDX 14 12 11 13 1 14 2 15 3 16 4 17 10 18 5 19 6 20 7 21 8 22
REMARK SMILES IDX 9 23 23 24 24 25 25 26 26 27 27 28 28 29 29 30 30 31 91 32
REMARK SMILES IDX 31 33 90 34 32 35 33 36 34 37 84 38 35 39 89 40 83 41 85 42
REMARK SMILES IDX 36 43 88 44 82 45 81 46 37 48 69 49 49 50 68 51 50 52 53 53
REMARK SMILES IDX 67 54 86 55 51 56 52 57 66 59 87 60 54 61 38 62 39 63 47 64
REMARK SMILES IDX 40 65 41 66 45 67 48 68 42 69 43 70 46 71 44 72 70 73 71 74
REMARK SMILES IDX 79 75 72 76 73 77 77 78 80 79 74 80 75 81 78 82 76 83 55 84
REMARK SMILES IDX 56 85 64 86 57 87 58 88 62 89 65 90 59 91 60 92 63 93 61 94
REMARK H PARENT 85 47 53 58
REMARK Flexibility Score: inf
ROOT
ATOM      1  C   UNL A   1      32.786  29.441  24.820  1.00  0.00     0.202 C 
ENDROOT
BRANCH   1   2
ATOM      2  C   UNL A   1      31.974  29.038  23.615  1.00  0.00     0.261 C 
BRANCH   2   3
ATOM      3  O   UNL A   1      30.563  29.093  23.849  1.00  0.00    -0.460 OA
BRANCH   3   4
ATOM      4  C   UNL A   1      29.772  28.164  23.237  1.00  0.00     0.330 C 
ATOM      5  O   UNL A   1      28.583  28.213  23.043  1.00  0.00    -0.247 OA
BRANCH   4   6
ATOM      6  C   UNL A   1      30.641  27.066  22.772  1.00  0.00     0.095 C 
ATOM      7  C   UNL A   1      30.827  26.007  23.574  1.00  0.00     0.026 C 
BRANCH   7   8
ATOM      8  C   UNL A   1      31.696  24.930  23.315  1.00  0.00     0.028 A 
ATOM      9  C   UNL A   1      33.123  22.942  23.402  1.00  0.00     0.035 A 
ATOM     10  C   UNL A   1      33.244  23.594  22.196  1.00  0.00     0.021 A 
ATOM     11  S   UNL A   1      31.949  23.650  24.411  1.00  0.00    -0.136 S 
ATOM     12  C   UNL A   1      32.413  24.741  22.147  1.00  0.00     0.020 A 
BRANCH   9  13
ATOM     13  C   UNL A   1      33.879  21.820  23.923  1.00  0.00    -0.005 A 
ATOM     14  C   UNL A   1      35.920  23.311  24.319  1.00  0.00     0.045 C 
ATOM     15  C   UNL A   1      35.202  21.986  24.373  1.00  0.00    -0.042 A 
ATOM     16  C   UNL A   1      35.877  20.871  24.882  1.00  0.00     0.005 A 
ATOM     17  C   UNL A   1      35.232  19.637  25.001  1.00  0.00     0.013 A 
ATOM     18  C   UNL A   1      33.238  20.579  24.040  1.00  0.00     0.023 A 
ATOM     19  C   UNL A   1      33.897  19.482  24.602  1.00  0.00     0.056 A 
BRANCH  19  20
ATOM     20  C   UNL A   1      33.181  18.170  24.777  1.00  0.00     0.416 C 
ATOM     21  F   UNL A   1      34.039  17.126  24.939  1.00  0.00    -0.166 F 
ATOM     22  F   UNL A   1      32.365  18.161  25.867  1.00  0.00    -0.166 F 
ATOM     23  F   UNL A   1      32.386  17.838  23.719  1.00  0.00    -0.166 F 
ENDBRANCH  19  20
ENDBRANCH   9  13
ENDBRANCH   7   8
ENDBRANCH   4   6
ENDBRANCH   3   4
ENDBRANCH   2   3
ENDBRANCH   1   2
BRANCH   1  24
ATOM     24  O   UNL A   1      32.283  28.698  25.918  1.00  0.00    -0.374 OA
BRANCH  24  25
ATOM     25  C   UNL A   1      32.325  29.350  27.178  1.00  0.00     0.202 C 
BRANCH  25  26
ATOM     26  C   UNL A   1      32.781  30.815  27.090  1.00  0.00     0.261 C 
BRANCH  26  27
ATOM     27  O   UNL A   1      33.892  31.029  27.987  1.00  0.00    -0.460 OA
BRANCH  27  28
ATOM     28  C   UNL A   1      34.089  32.310  28.403  1.00  0.00     0.338 C 
ATOM     29  O   UNL A   1      33.452  33.281  28.031  1.00  0.00    -0.246 OA
BRANCH  28  30
ATOM     30  C   UNL A   1      35.382  32.401  29.145  1.00  0.00     0.060 A 
ATOM     31  C   UNL A   1      36.533  32.906  28.506  1.00  0.00     0.016 A 
ATOM     32  C   UNL A   1      35.511  31.684  30.332  1.00  0.00     0.016 A 
ATOM     33  C   UNL A   1      37.815  32.556  28.967  1.00  0.00     0.010 A 
ATOM     34  C   UNL A   1      36.763  31.259  30.716  1.00  0.00     0.010 A 
ATOM     35  C   UNL A   1      37.925  31.655  30.024  1.00  0.00    -0.014 A 
BRANCH  35  36
ATOM     36  C   UNL A   1      39.132  30.939  30.463  1.00  0.00     0.031 A 
ATOM     37  C   UNL A   1      39.446  29.653  29.789  1.00  0.00     0.074 A 
ATOM     38  C   UNL A   1      40.123  31.581  31.135  1.00  0.00     0.049 A 
ATOM     39  N   UNL A   1      40.507  28.963  30.016  1.00  0.00    -0.248 NA
ATOM     40  C   UNL A   1      38.568  29.007  28.814  1.00  0.00     0.031 C 
ATOM     41  C   UNL A   1      41.567  31.335  31.018  1.00  0.00     0.029 A 
ATOM     42  N   UNL A   1      40.065  32.620  32.081  1.00  0.00    -0.354 N 
ATOM     43  C   UNL A   1      40.634  28.029  29.020  1.00  0.00     0.074 A 
ATOM     44  C   UNL A   1      39.344  28.007  28.380  1.00  0.00     0.031 C 
ATOM     45  C   UNL A   1      42.217  31.948  32.018  1.00  0.00     0.029 A 
ATOM     46  C   UNL A   1      41.209  32.492  32.900  1.00  0.00     0.049 A 
ATOM     47  H   UNL A   1      39.361  33.304  32.157  1.00  0.00     0.167 HD
ATOM     48  C   UNL A   1      41.867  27.483  28.821  1.00  0.00     0.037 A 
ATOM     49  C   UNL A   1      41.112  32.301  34.243  1.00  0.00     0.037 A 
ATOM     50  C   UNL A   1      42.770  27.856  29.920  1.00  0.00     0.049 A 
ATOM     51  C   UNL A   1      41.734  30.990  34.622  1.00  0.00     0.074 A 
ATOM     52  C   UNL A   1      43.868  28.691  30.035  1.00  0.00     0.029 A 
ATOM     53  N   UNL A   1      42.388  27.537  31.224  1.00  0.00    -0.354 N 
ATOM     54  N   UNL A   1      41.940  30.045  33.746  1.00  0.00    -0.248 NA
ATOM     55  C   UNL A   1      42.234  30.639  35.945  1.00  0.00     0.031 C 
ATOM     56  C   UNL A   1      44.109  28.905  31.425  1.00  0.00     0.029 A 
ATOM     57  C   UNL A   1      43.184  28.172  32.154  1.00  0.00     0.049 A 
ATOM     58  H   UNL A   1      41.644  26.933  31.451  1.00  0.00     0.167 HD
ATOM     59  C   UNL A   1      42.623  29.018  34.320  1.00  0.00     0.074 A 
ATOM     60  C   UNL A   1      42.764  29.423  35.707  1.00  0.00     0.031 C 
ATOM     61  C   UNL A   1      43.000  27.931  33.586  1.00  0.00     0.037 A 
BRANCH  48  62
ATOM     62  C   UNL A   1      42.326  26.699  27.603  1.00  0.00     0.064 A 
ATOM     63  C   UNL A   1      41.795  25.414  27.345  1.00  0.00     0.173 A 
ATOM     64  C   UNL A   1      43.323  27.104  26.688  1.00  0.00     0.173 A 
ATOM     65  F   UNL A   1      40.861  24.873  28.140  1.00  0.00    -0.203 F 
ATOM     66  C   UNL A   1      42.211  24.623  26.266  1.00  0.00     0.198 A 
ATOM     67  C   UNL A   1      43.705  26.332  25.585  1.00  0.00     0.198 A 
ATOM     68  F   UNL A   1      44.012  28.236  26.833  1.00  0.00    -0.203 F 
ATOM     69  F   UNL A   1      41.690  23.399  26.099  1.00  0.00    -0.200 F 
ATOM     70  C   UNL A   1      43.154  25.089  25.375  1.00  0.00     0.200 A 
ATOM     71  F   UNL A   1      44.632  26.804  24.737  1.00  0.00    -0.200 F 
ATOM     72  F   UNL A   1      43.541  24.341  24.333  1.00  0.00    -0.200 F 
ENDBRANCH  48  62
BRANCH  49  73
ATOM     73  C   UNL A   1      39.926  33.008  34.801  1.00  0.00     0.064 A 
ATOM     74  C   UNL A   1      38.939  32.168  35.369  1.00  0.00     0.173 A 
ATOM     75  C   UNL A   1      40.050  34.302  35.329  1.00  0.00     0.173 A 
ATOM     76  F   UNL A   1      38.780  30.917  34.904  1.00  0.00    -0.203 F 
ATOM     77  C   UNL A   1      38.266  32.528  36.534  1.00  0.00     0.198 A 
ATOM     78  C   UNL A   1      39.358  34.662  36.492  1.00  0.00     0.198 A 
ATOM     79  F   UNL A   1      40.967  35.146  34.837  1.00  0.00    -0.203 F 
ATOM     80  F   UNL A   1      37.484  31.634  37.158  1.00  0.00    -0.200 F 
ATOM     81  C   UNL A   1      38.512  33.758  37.119  1.00  0.00     0.200 A 
ATOM     82  F   UNL A   1      39.604  35.844  37.077  1.00  0.00    -0.200 F 
ATOM     83  F   UNL A   1      37.989  34.042  38.322  1.00  0.00    -0.200 F 
ENDBRANCH  49  73
BRANCH  61  84
ATOM     84  C   UNL A   1      43.286  26.558  34.147  1.00  0.00     0.064 A 
ATOM     85  C   UNL A   1      44.569  25.984  34.196  1.00  0.00     0.173 A 
ATOM     86  C   UNL A   1      42.279  25.839  34.837  1.00  0.00     0.173 A 
ATOM     87  F   UNL A   1      45.644  26.610  33.702  1.00  0.00    -0.203 F 
ATOM     88  C   UNL A   1      44.811  24.762  34.826  1.00  0.00     0.198 A 
ATOM     89  C   UNL A   1      42.541  24.660  35.531  1.00  0.00     0.198 A 
ATOM     90  F   UNL A   1      41.012  26.273  34.902  1.00  0.00    -0.203 F 
ATOM     91  F   UNL A   1      46.045  24.240  34.799  1.00  0.00    -0.200 F 
ATOM     92  C   UNL A   1      43.804  24.110  35.508  1.00  0.00     0.200 A 
ATOM     93  F   UNL A   1      41.566  24.079  36.245  1.00  0.00    -0.200 F 
ATOM     94  F   UNL A   1      44.056  22.968  36.161  1.00  0.00    -0.200 F 
ENDBRANCH  61  84
ENDBRANCH  35  36
ENDBRANCH  28  30
ENDBRANCH  27  28
ENDBRANCH  26  27
ENDBRANCH  25  26
ENDBRANCH  24  25
ENDBRANCH   1  24
TORSDOF 17
ENDMDL
MODEL 3
REMARK VINA RESULT:     -11.8      2.278      3.361
REMARK SMILES Cc1ccc(C(F)(F)F)cc1-c1ccc(/C=C/C(=O)OCCOCCOC(=O)c2ccc(-c3c4nc(c(-c5c(F)c(F)c(F)c(F)c5F)c5ccc([nH]5)c(-c5c(F)c(F)c(F)c(F)c5F)c5nc(c(-c6c(F)c(F)c(F)c(F)c6F)c6ccc3[nH]6)C=C5)C=C4)cc2)s1
REMARK SMILES IDX 22 1 21 2 20 3 18 4 19 5 17 6 16 7 15 8 12 9 13 10 92 11
REMARK SMILES IDX 14 12 11 13 1 14 2 15 3 16 4 17 10 18 5 19 6 20 7 21 8 22
REMARK SMILES IDX 9 23 23 24 24 25 25 26 26 27 27 28 28 29 29 30 30 31 91 32
REMARK SMILES IDX 31 33 90 34 32 35 33 36 34 37 84 38 35 39 89 40 83 41 85 42
REMARK SMILES IDX 36 43 88 44 82 45 81 46 37 48 69 49 49 50 68 51 50 52 53 53
REMARK SMILES IDX 67 54 86 55 51 56 52 57 66 59 87 60 54 61 38 62 39 63 47 64
REMARK SMILES IDX 40 65 41 66 45 67 48 68 42 69 43 70 46 71 44 72 70 73 71 74
REMARK SMILES IDX 79 75 72 76 73 77 77 78 80 79 74 80 75 81 78 82 76 83 55 84
REMARK SMILES IDX 56 85 64 86 57 87 58 88 62 89 65 90 59 91 60 92 63 93 61 94
REMARK H PARENT 85 47 53 58
REMARK Flexibility Score: inf
ROOT
ATOM      1  C   UNL A   1      36.334  20.160  25.029  1.00  0.00     0.202 C 
ENDROOT
BRANCH   1   2
ATOM      2  C   UNL A   1      34.907  19.845  24.660  1.00  0.00     0.261 C 
BRANCH   2   3
ATOM      3  O   UNL A   1      33.960  20.347  25.610  1.00  0.00    -0.460 OA
BRANCH   3   4
ATOM      4  C   UNL A   1      32.633  20.149  25.361  1.00  0.00     0.330 C 
ATOM      5  O   UNL A   1      32.062  19.105  25.164  1.00  0.00    -0.247 OA
BRANCH   4   6
ATOM      6  C   UNL A   1      31.958  21.459  25.433  1.00  0.00     0.095 C 
ATOM      7  C   UNL A   1      32.545  22.519  24.858  1.00  0.00     0.026 C 
BRANCH   7   8
ATOM      8  C   UNL A   1      32.076  23.846  24.922  1.00  0.00     0.028 A 
ATOM      9  C   UNL A   1      31.283  26.119  24.478  1.00  0.00     0.035 A 
ATOM     10  C   UNL A   1      31.512  25.921  25.821  1.00  0.00     0.021 A 
ATOM     11  S   UNL A   1      31.515  24.704  23.561  1.00  0.00    -0.136 S 
ATOM     12  C   UNL A   1      31.966  24.603  26.075  1.00  0.00     0.020 A 
BRANCH   9  13
ATOM     13  C   UNL A   1      30.947  27.340  23.771  1.00  0.00    -0.005 A 
ATOM     14  C   UNL A   1      33.392  27.693  23.110  1.00  0.00     0.045 C 
ATOM     15  C   UNL A   1      31.937  28.087  23.108  1.00  0.00    -0.042 A 
ATOM     16  C   UNL A   1      31.552  29.248  22.427  1.00  0.00     0.005 A 
ATOM     17  C   UNL A   1      30.207  29.620  22.353  1.00  0.00     0.013 A 
ATOM     18  C   UNL A   1      29.600  27.720  23.698  1.00  0.00     0.023 A 
ATOM     19  C   UNL A   1      29.213  28.848  22.969  1.00  0.00     0.056 A 
BRANCH  19  20
ATOM     20  C   UNL A   1      27.758  29.215  22.848  1.00  0.00     0.416 C 
ATOM     21  F   UNL A   1      27.420  29.594  21.585  1.00  0.00    -0.166 F 
ATOM     22  F   UNL A   1      26.929  28.182  23.166  1.00  0.00    -0.166 F 
ATOM     23  F   UNL A   1      27.387  30.248  23.658  1.00  0.00    -0.166 F 
ENDBRANCH  19  20
ENDBRANCH   9  13
ENDBRANCH   7   8
ENDBRANCH   4   6
ENDBRANCH   3   4
ENDBRANCH   2   3
ENDBRANCH   1   2
BRANCH   1  24
ATOM     24  O   UNL A   1      36.609  21.457  24.524  1.00  0.00    -0.374 OA
BRANCH  24  25
ATOM     25  C   UNL A   1      37.740  22.110  25.078  1.00  0.00     0.202 C 
BRANCH  25  26
ATOM     26  C   UNL A   1      38.797  21.137  25.626  1.00  0.00     0.261 C 
BRANCH  26  27
ATOM     27  O   UNL A   1      39.826  21.880  26.313  1.00  0.00    -0.460 OA
BRANCH  27  28
ATOM     28  C   UNL A   1      41.101  21.432  26.149  1.00  0.00     0.338 C 
ATOM     29  O   UNL A   1      41.418  20.298  25.833  1.00  0.00    -0.246 OA
BRANCH  28  30
ATOM     30  C   UNL A   1      42.059  22.437  26.700  1.00  0.00     0.060 A 
ATOM     31  C   UNL A   1      42.244  22.550  28.094  1.00  0.00     0.016 A 
ATOM     32  C   UNL A   1      42.493  23.460  25.862  1.00  0.00     0.016 A 
ATOM     33  C   UNL A   1      42.717  23.751  28.654  1.00  0.00     0.010 A 
ATOM     34  C   UNL A   1      42.855  24.666  26.420  1.00  0.00     0.010 A 
ATOM     35  C   UNL A   1      42.937  24.842  27.816  1.00  0.00    -0.014 A 
BRANCH  35  36
ATOM     36  C   UNL A   1      43.140  26.243  28.211  1.00  0.00     0.031 A 
ATOM     37  C   UNL A   1      41.928  27.081  28.401  1.00  0.00     0.074 A 
ATOM     38  C   UNL A   1      44.309  26.652  28.770  1.00  0.00     0.049 A 
ATOM     39  N   UNL A   1      41.954  28.296  28.821  1.00  0.00    -0.248 NA
ATOM     40  C   UNL A   1      40.570  26.632  28.101  1.00  0.00     0.031 C 
ATOM     41  C   UNL A   1      44.473  27.663  29.824  1.00  0.00     0.029 A 
ATOM     42  N   UNL A   1      45.632  26.244  28.528  1.00  0.00    -0.354 N 
ATOM     43  C   UNL A   1      40.679  28.654  29.179  1.00  0.00     0.074 A 
ATOM     44  C   UNL A   1      39.842  27.642  28.590  1.00  0.00     0.031 C 
ATOM     45  C   UNL A   1      45.766  28.006  29.929  1.00  0.00     0.029 A 
ATOM     46  C   UNL A   1      46.465  27.338  28.854  1.00  0.00     0.049 A 
ATOM     47  H   UNL A   1      45.923  25.365  28.194  1.00  0.00     0.167 HD
ATOM     48  C   UNL A   1      40.536  29.715  30.023  1.00  0.00     0.037 A 
ATOM     49  C   UNL A   1      47.287  27.913  27.937  1.00  0.00     0.037 A 
ATOM     50  C   UNL A   1      41.819  30.418  30.177  1.00  0.00     0.049 A 
ATOM     51  C   UNL A   1      46.907  29.350  27.733  1.00  0.00     0.074 A 
ATOM     52  C   UNL A   1      42.737  30.549  31.205  1.00  0.00     0.029 A 
ATOM     53  N   UNL A   1      42.453  30.893  29.028  1.00  0.00    -0.354 N 
ATOM     54  N   UNL A   1      45.735  29.809  28.076  1.00  0.00    -0.248 NA
ATOM     55  C   UNL A   1      47.781  30.393  27.215  1.00  0.00     0.031 C 
ATOM     56  C   UNL A   1      43.944  31.066  30.646  1.00  0.00     0.029 A 
ATOM     57  C   UNL A   1      43.749  31.284  29.290  1.00  0.00     0.049 A 
ATOM     58  H   UNL A   1      42.027  30.944  28.142  1.00  0.00     0.167 HD
ATOM     59  C   UNL A   1      45.692  31.156  27.900  1.00  0.00     0.074 A 
ATOM     60  C   UNL A   1      46.990  31.477  27.334  1.00  0.00     0.031 C 
ATOM     61  C   UNL A   1      44.581  31.872  28.240  1.00  0.00     0.037 A 
BRANCH  48  62
ATOM     62  C   UNL A   1      39.289  30.089  30.807  1.00  0.00     0.064 A 
ATOM     63  C   UNL A   1      38.640  31.322  30.561  1.00  0.00     0.173 A 
ATOM     64  C   UNL A   1      38.713  29.335  31.853  1.00  0.00     0.173 A 
ATOM     65  F   UNL A   1      39.083  32.168  29.620  1.00  0.00    -0.203 F 
ATOM     66  C   UNL A   1      37.515  31.745  31.281  1.00  0.00     0.198 A 
ATOM     67  C   UNL A   1      37.563  29.737  32.541  1.00  0.00     0.198 A 
ATOM     68  F   UNL A   1      39.252  28.199  32.297  1.00  0.00    -0.203 F 
ATOM     69  F   UNL A   1      36.968  32.941  31.020  1.00  0.00    -0.200 F 
ATOM     70  C   UNL A   1      36.966  30.944  32.260  1.00  0.00     0.200 A 
ATOM     71  F   UNL A   1      37.053  28.945  33.495  1.00  0.00    -0.200 F 
ATOM     72  F   UNL A   1      35.880  31.339  32.939  1.00  0.00    -0.200 F 
ENDBRANCH  48  62
BRANCH  49  73
ATOM     73  C   UNL A   1      47.805  26.903  26.972  1.00  0.00     0.064 A 
ATOM     74  C   UNL A   1      47.344  27.050  25.644  1.00  0.00     0.173 A 
ATOM     75  C   UNL A   1      49.072  26.329  27.153  1.00  0.00     0.173 A 
ATOM     76  F   UNL A   1      46.139  27.597  25.413  1.00  0.00    -0.203 F 
ATOM     77  C   UNL A   1      48.187  26.832  24.556  1.00  0.00     0.198 A 
ATOM     78  C   UNL A   1      49.910  26.098  26.055  1.00  0.00     0.198 A 
ATOM     79  F   UNL A   1      49.568  26.163  28.387  1.00  0.00    -0.203 F 
ATOM     80  F   UNL A   1      47.787  27.168  23.321  1.00  0.00    -0.200 F 
ATOM     81  C   UNL A   1      49.486  26.401  24.768  1.00  0.00     0.200 A 
ATOM     82  F   UNL A   1      51.175  25.699  26.251  1.00  0.00    -0.200 F 
ATOM     83  F   UNL A   1      50.347  26.345  23.741  1.00  0.00    -0.200 F 
ENDBRANCH  49  73
BRANCH  61  84
ATOM     84  C   UNL A   1      44.198  33.214  27.661  1.00  0.00     0.064 A 
ATOM     85  C   UNL A   1      44.023  33.452  26.286  1.00  0.00     0.173 A 
ATOM     86  C   UNL A   1      43.805  34.278  28.510  1.00  0.00     0.173 A 
ATOM     87  F   UNL A   1      44.229  32.499  25.371  1.00  0.00    -0.203 F 
ATOM     88  C   UNL A   1      43.558  34.675  25.799  1.00  0.00     0.198 A 
ATOM     89  C   UNL A   1      43.266  35.466  28.023  1.00  0.00     0.198 A 
ATOM     90  F   UNL A   1      43.886  34.190  29.845  1.00  0.00    -0.203 F 
ATOM     91  F   UNL A   1      43.458  34.861  24.476  1.00  0.00    -0.200 F 
ATOM     92  C   UNL A   1      43.162  35.674  26.665  1.00  0.00     0.200 A 
ATOM     93  F   UNL A   1      42.823  36.396  28.882  1.00  0.00    -0.200 F 
ATOM     94  F   UNL A   1      42.659  36.821  26.193  1.00  0.00    -0.200 F 
ENDBRANCH  61  84
ENDBRANCH  35  36
ENDBRANCH  28  30
ENDBRANCH  27  28
ENDBRANCH  26  27
ENDBRANCH  25  26
ENDBRANCH  24  25
ENDBRANCH   1  24
TORSDOF 17
ENDMDL
