MODEL 1
REMARK VINA RESULT:     -11.3      0.000      0.000
REMARK SMILES COCC1CC[NH+]([C@@H]2CCC[C@@]([NH3+])(C(=O)OCCOCCOC(=O)c3ccc(-c4c5nc(c(-c6c(F)c(F)c(F)c(F)c6F)c6ccc([nH]6)c(-c6c(F)c(F)c(F)c(F)c6F)c6nc(c(-c7c(F)c(F)c(F)c(F)c7F)c7ccc4[nH]7)C=C6)C=C5)cc3)C2)CC1
REMARK SMILES IDX 18 1 17 2 16 3 14 4 15 5 12 6 8 7 9 8 88 9 10 10 11 11 7 12
REMARK SMILES IDX 4 13 5 14 90 15 6 16 89 17 3 19 2 20 1 21 13 22 19 26 20 27
REMARK SMILES IDX 21 28 22 29 23 30 24 31 25 32 26 33 87 34 27 35 86 36 28 37
REMARK SMILES IDX 29 38 30 39 80 40 31 41 85 42 79 43 81 44 32 45 84 46 78 47
REMARK SMILES IDX 77 48 33 50 65 51 45 52 64 53 46 54 49 55 63 56 82 57 47 58
REMARK SMILES IDX 48 59 62 61 83 62 50 63 34 64 35 65 43 66 36 67 37 68 41 69
REMARK SMILES IDX 44 70 38 71 39 72 42 73 40 74 66 75 67 76 75 77 68 78 69 79
REMARK SMILES IDX 73 80 76 81 70 82 71 83 74 84 72 85 51 86 52 87 60 88 53 89
REMARK SMILES IDX 54 90 58 91 61 92 55 93 56 94 59 95 57 96
REMARK H PARENT 7 18 13 23 13 24 13 25 81 49 49 60
REMARK Flexibility Score: inf
ROOT
ATOM      1  C   UNL A   1      32.626  29.765  25.622  1.00  0.00     0.202 C 
ENDROOT
BRANCH   1   2
ATOM      2  C   UNL A   1      33.222  28.965  26.784  1.00  0.00     0.261 C 
BRANCH   2   3
ATOM      3  O   UNL A   1      33.201  27.540  26.561  1.00  0.00    -0.459 OA
BRANCH   3   4
ATOM      4  C   UNL A   1      31.957  26.996  26.459  1.00  0.00     0.368 C 
ATOM      5  O   UNL A   1      31.051  27.196  27.265  1.00  0.00    -0.245 OA
BRANCH   4   6
ATOM      6  C   UNL A   1      31.772  26.018  25.258  1.00  0.00     0.198 C 
ATOM      7  C   UNL A   1      31.033  27.723  23.463  1.00  0.00     0.190 C 
ATOM      8  C   UNL A   1      32.205  27.260  22.571  1.00  0.00     0.065 C 
ATOM      9  C   UNL A   1      30.615  26.544  24.374  1.00  0.00     0.145 C 
ATOM     10  C   UNL A   1      33.391  26.778  23.403  1.00  0.00     0.013 C 
ATOM     11  C   UNL A   1      33.018  25.701  24.414  1.00  0.00     0.081 C 
BRANCH   7  12
ATOM     12  N   UNL A   1      29.886  28.335  22.745  1.00  0.00    -0.332 N 
ATOM     13  C   UNL A   1      27.786  30.386  22.286  1.00  0.00     0.026 C 
ATOM     14  C   UNL A   1      27.466  28.986  22.826  1.00  0.00     0.067 C 
ATOM     15  C   UNL A   1      29.004  30.262  21.371  1.00  0.00     0.067 C 
ATOM     16  C   UNL A   1      28.670  28.396  23.565  1.00  0.00     0.262 C 
ATOM     17  C   UNL A   1      30.201  29.579  22.035  1.00  0.00     0.262 C 
ATOM     18  H   UNL A   1      29.672  27.687  21.986  1.00  0.00     0.348 HD
BRANCH  13  19
ATOM     19  C   UNL A   1      27.897  31.415  23.434  1.00  0.00     0.163 C 
BRANCH  19  20
ATOM     20  O   UNL A   1      27.862  32.767  22.990  1.00  0.00    -0.384 OA
ATOM     21  C   UNL A   1      29.077  33.474  23.210  1.00  0.00     0.194 C 
ENDBRANCH  19  20
ENDBRANCH  13  19
ENDBRANCH   7  12
BRANCH   6  22
ATOM     22  N   UNL A   1      31.345  24.724  25.872  1.00  0.00    -0.343 N 
ATOM     23  H   UNL A   1      30.347  24.585  25.714  1.00  0.00     0.345 HD
ATOM     24  H   UNL A   1      31.530  24.746  26.874  1.00  0.00     0.345 HD
ATOM     25  H   UNL A   1      31.867  23.957  25.447  1.00  0.00     0.345 HD
ENDBRANCH   6  22
ENDBRANCH   4   6
ENDBRANCH   3   4
ENDBRANCH   2   3
ENDBRANCH   1   2
BRANCH   1  26
ATOM     26  O   UNL A   1      31.346  30.356  25.848  1.00  0.00    -0.374 OA
BRANCH  26  27
ATOM     27  C   UNL A   1      31.317  31.764  26.081  1.00  0.00     0.202 C 
BRANCH  27  28
ATOM     28  C   UNL A   1      31.933  32.222  27.406  1.00  0.00     0.261 C 
BRANCH  28  29
ATOM     29  O   UNL A   1      33.111  33.015  27.178  1.00  0.00    -0.460 OA
BRANCH  29  30
ATOM     30  C   UNL A   1      33.744  33.397  28.310  1.00  0.00     0.338 C 
ATOM     31  O   UNL A   1      33.284  34.045  29.233  1.00  0.00    -0.246 OA
BRANCH  30  32
ATOM     32  C   UNL A   1      35.069  32.759  28.391  1.00  0.00     0.060 A 
ATOM     33  C   UNL A   1      35.095  31.373  28.582  1.00  0.00     0.016 A 
ATOM     34  C   UNL A   1      36.244  33.510  28.434  1.00  0.00     0.016 A 
ATOM     35  C   UNL A   1      36.291  30.742  28.914  1.00  0.00     0.010 A 
ATOM     36  C   UNL A   1      37.446  32.874  28.774  1.00  0.00     0.010 A 
ATOM     37  C   UNL A   1      37.458  31.500  29.075  1.00  0.00    -0.014 A 
BRANCH  37  38
ATOM     38  C   UNL A   1      38.602  30.877  29.790  1.00  0.00     0.031 A 
ATOM     39  C   UNL A   1      38.812  31.218  31.242  1.00  0.00     0.074 A 
ATOM     40  C   UNL A   1      39.375  29.951  29.198  1.00  0.00     0.049 A 
ATOM     41  N   UNL A   1      39.672  30.727  32.099  1.00  0.00    -0.248 NA
ATOM     42  C   UNL A   1      37.923  32.247  31.809  1.00  0.00     0.031 C 
ATOM     43  C   UNL A   1      39.250  29.507  27.813  1.00  0.00     0.029 A 
ATOM     44  N   UNL A   1      40.411  29.204  29.703  1.00  0.00    -0.354 N 
ATOM     45  C   UNL A   1      39.422  31.378  33.300  1.00  0.00     0.074 A 
ATOM     46  C   UNL A   1      38.359  32.327  33.057  1.00  0.00     0.031 C 
ATOM     47  C   UNL A   1      40.174  28.558  27.576  1.00  0.00     0.029 A 
ATOM     48  C   UNL A   1      40.959  28.337  28.791  1.00  0.00     0.049 A 
ATOM     49  H   UNL A   1      40.730  29.283  30.630  1.00  0.00     0.167 HD
ATOM     50  C   UNL A   1      40.013  31.192  34.503  1.00  0.00     0.037 A 
ATOM     51  C   UNL A   1      41.975  27.464  28.925  1.00  0.00     0.037 A 
ATOM     52  C   UNL A   1      41.071  30.250  34.753  1.00  0.00     0.049 A 
ATOM     53  C   UNL A   1      42.650  27.308  30.264  1.00  0.00     0.074 A 
ATOM     54  C   UNL A   1      41.736  29.989  35.938  1.00  0.00     0.029 A 
ATOM     55  N   UNL A   1      41.619  29.413  33.792  1.00  0.00    -0.354 N 
ATOM     56  N   UNL A   1      42.387  27.908  31.399  1.00  0.00    -0.248 NA
ATOM     57  C   UNL A   1      43.758  26.344  30.340  1.00  0.00     0.031 C 
ATOM     58  C   UNL A   1      42.713  29.020  35.687  1.00  0.00     0.029 A 
ATOM     59  C   UNL A   1      42.627  28.647  34.356  1.00  0.00     0.049 A 
ATOM     60  H   UNL A   1      41.336  29.371  32.851  1.00  0.00     0.167 HD
ATOM     61  C   UNL A   1      43.270  27.372  32.328  1.00  0.00     0.074 A 
ATOM     62  C   UNL A   1      44.072  26.392  31.626  1.00  0.00     0.031 C 
ATOM     63  C   UNL A   1      43.404  27.664  33.646  1.00  0.00     0.037 A 
BRANCH  50  64
ATOM     64  C   UNL A   1      39.537  32.043  35.642  1.00  0.00     0.064 A 
ATOM     65  C   UNL A   1      40.061  33.324  35.870  1.00  0.00     0.173 A 
ATOM     66  C   UNL A   1      38.531  31.581  36.503  1.00  0.00     0.173 A 
ATOM     67  F   UNL A   1      41.038  33.803  35.084  1.00  0.00    -0.203 F 
ATOM     68  C   UNL A   1      39.610  34.104  36.931  1.00  0.00     0.198 A 
ATOM     69  C   UNL A   1      38.064  32.373  37.549  1.00  0.00     0.198 A 
ATOM     70  F   UNL A   1      37.997  30.364  36.327  1.00  0.00    -0.203 F 
ATOM     71  F   UNL A   1      40.154  35.307  37.157  1.00  0.00    -0.200 F 
ATOM     72  C   UNL A   1      38.609  33.630  37.767  1.00  0.00     0.200 A 
ATOM     73  F   UNL A   1      37.092  31.917  38.350  1.00  0.00    -0.200 F 
ATOM     74  F   UNL A   1      38.173  34.383  38.786  1.00  0.00    -0.200 F 
ENDBRANCH  50  64
BRANCH  51  75
ATOM     75  C   UNL A   1      42.413  26.652  27.760  1.00  0.00     0.064 A 
ATOM     76  C   UNL A   1      43.407  27.113  26.886  1.00  0.00     0.173 A 
ATOM     77  C   UNL A   1      41.829  25.406  27.487  1.00  0.00     0.173 A 
ATOM     78  F   UNL A   1      43.975  28.311  27.091  1.00  0.00    -0.203 F 
ATOM     79  C   UNL A   1      43.789  26.367  25.774  1.00  0.00     0.198 A 
ATOM     80  C   UNL A   1      42.230  24.649  26.389  1.00  0.00     0.198 A 
ATOM     81  F   UNL A   1      40.872  24.924  28.291  1.00  0.00    -0.203 F 
ATOM     82  F   UNL A   1      44.710  26.850  24.929  1.00  0.00    -0.200 F 
ATOM     83  C   UNL A   1      43.204  25.133  25.529  1.00  0.00     0.200 A 
ATOM     84  F   UNL A   1      41.668  23.455  26.160  1.00  0.00    -0.200 F 
ATOM     85  F   UNL A   1      43.572  24.415  24.459  1.00  0.00    -0.200 F 
ENDBRANCH  51  75
BRANCH  63  86
ATOM     86  C   UNL A   1      44.425  26.889  34.425  1.00  0.00     0.064 A 
ATOM     87  C   UNL A   1      45.733  27.363  34.600  1.00  0.00     0.173 A 
ATOM     88  C   UNL A   1      44.075  25.678  35.040  1.00  0.00     0.173 A 
ATOM     89  F   UNL A   1      46.118  28.510  34.022  1.00  0.00    -0.203 F 
ATOM     90  C   UNL A   1      46.662  26.640  35.344  1.00  0.00     0.198 A 
ATOM     91  C   UNL A   1      44.999  24.970  35.804  1.00  0.00     0.198 A 
ATOM     92  F   UNL A   1      42.834  25.186  34.910  1.00  0.00    -0.203 F 
ATOM     93  F   UNL A   1      47.918  27.090  35.463  1.00  0.00    -0.200 F 
ATOM     94  C   UNL A   1      46.293  25.447  35.950  1.00  0.00     0.200 A 
ATOM     95  F   UNL A   1      44.638  23.824  36.398  1.00  0.00    -0.200 F 
ATOM     96  F   UNL A   1      47.188  24.755  36.668  1.00  0.00    -0.200 F 
ENDBRANCH  63  86
ENDBRANCH  37  38
ENDBRANCH  30  32
ENDBRANCH  29  30
ENDBRANCH  28  29
ENDBRANCH  27  28
ENDBRANCH  26  27
ENDBRANCH   1  26
TORSDOF 18
ENDMDL
MODEL 2
REMARK VINA RESULT:     -11.2      0.885      7.327
REMARK SMILES COCC1CC[NH+]([C@@H]2CCC[C@@]([NH3+])(C(=O)OCCOCCOC(=O)c3ccc(-c4c5nc(c(-c6c(F)c(F)c(F)c(F)c6F)c6ccc([nH]6)c(-c6c(F)c(F)c(F)c(F)c6F)c6nc(c(-c7c(F)c(F)c(F)c(F)c7F)c7ccc4[nH]7)C=C6)C=C5)cc3)C2)CC1
REMARK SMILES IDX 18 1 17 2 16 3 14 4 15 5 12 6 8 7 9 8 88 9 10 10 11 11 7 12
REMARK SMILES IDX 4 13 5 14 90 15 6 16 89 17 3 19 2 20 1 21 13 22 19 26 20 27
REMARK SMILES IDX 21 28 22 29 23 30 24 31 25 32 26 33 87 34 27 35 86 36 28 37
REMARK SMILES IDX 29 38 30 39 80 40 31 41 85 42 79 43 81 44 32 45 84 46 78 47
REMARK SMILES IDX 77 48 33 50 65 51 45 52 64 53 46 54 49 55 63 56 82 57 47 58
REMARK SMILES IDX 48 59 62 61 83 62 50 63 34 64 35 65 43 66 36 67 37 68 41 69
REMARK SMILES IDX 44 70 38 71 39 72 42 73 40 74 66 75 67 76 75 77 68 78 69 79
REMARK SMILES IDX 73 80 76 81 70 82 71 83 74 84 72 85 51 86 52 87 60 88 53 89
REMARK SMILES IDX 54 90 58 91 61 92 55 93 56 94 59 95 57 96
REMARK H PARENT 7 18 13 23 13 24 13 25 81 49 49 60
REMARK Flexibility Score: inf
ROOT
ATOM      1  C   UNL A   1      33.471  28.543  26.071  1.00  0.00     0.202 C 
ENDROOT
BRANCH   1   2
ATOM      2  C   UNL A   1      33.489  27.150  25.435  1.00  0.00     0.261 C 
BRANCH   2   3
ATOM      3  O   UNL A   1      32.854  26.145  26.254  1.00  0.00    -0.459 OA
BRANCH   3   4
ATOM      4  C   UNL A   1      31.517  26.324  26.442  1.00  0.00     0.368 C 
ATOM      5  O   UNL A   1      31.036  27.082  27.283  1.00  0.00    -0.245 OA
BRANCH   4   6
ATOM      6  C   UNL A   1      30.609  25.424  25.549  1.00  0.00     0.198 C 
ATOM      7  C   UNL A   1      30.566  26.890  23.420  1.00  0.00     0.190 C 
ATOM      8  C   UNL A   1      31.109  25.693  22.611  1.00  0.00     0.065 C 
ATOM      9  C   UNL A   1      29.769  26.343  24.628  1.00  0.00     0.145 C 
ATOM     10  C   UNL A   1      31.988  24.784  23.468  1.00  0.00     0.013 C 
ATOM     11  C   UNL A   1      31.300  24.312  24.743  1.00  0.00     0.081 C 
BRANCH   7  12
ATOM     12  N   UNL A   1      29.812  27.901  22.637  1.00  0.00    -0.332 N 
ATOM     13  C   UNL A   1      28.458  30.512  22.214  1.00  0.00     0.026 C 
ATOM     14  C   UNL A   1      27.682  29.200  22.388  1.00  0.00     0.067 C 
ATOM     15  C   UNL A   1      29.789  30.177  21.541  1.00  0.00     0.067 C 
ATOM     16  C   UNL A   1      28.490  28.190  23.207  1.00  0.00     0.262 C 
ATOM     17  C   UNL A   1      30.586  29.092  22.267  1.00  0.00     0.262 C 
ATOM     18  H   UNL A   1      29.631  27.458  21.736  1.00  0.00     0.348 HD
BRANCH  13  19
ATOM     19  C   UNL A   1      28.544  31.290  23.547  1.00  0.00     0.163 C 
BRANCH  19  20
ATOM     20  O   UNL A   1      28.109  32.642  23.445  1.00  0.00    -0.384 OA
ATOM     21  C   UNL A   1      29.150  33.557  23.126  1.00  0.00     0.194 C 
ENDBRANCH  19  20
ENDBRANCH  13  19
ENDBRANCH   7  12
BRANCH   6  22
ATOM     22  N   UNL A   1      29.684  24.737  26.500  1.00  0.00    -0.343 N 
ATOM     23  H   UNL A   1      29.050  25.421  26.913  1.00  0.00     0.345 HD
ATOM     24  H   UNL A   1      30.227  24.289  27.237  1.00  0.00     0.345 HD
ATOM     25  H   UNL A   1      29.144  24.032  25.999  1.00  0.00     0.345 HD
ENDBRANCH   6  22
ENDBRANCH   4   6
ENDBRANCH   3   4
ENDBRANCH   2   3
ENDBRANCH   1   2
BRANCH   1  26
ATOM     26  O   UNL A   1      32.939  29.600  25.271  1.00  0.00    -0.374 OA
BRANCH  26  27
ATOM     27  C   UNL A   1      31.687  30.149  25.676  1.00  0.00     0.202 C 
BRANCH  27  28
ATOM     28  C   UNL A   1      31.758  31.535  26.325  1.00  0.00     0.261 C 
BRANCH  28  29
ATOM     29  O   UNL A   1      32.527  31.494  27.539  1.00  0.00    -0.460 OA
BRANCH  29  30
ATOM     30  C   UNL A   1      33.450  32.478  27.639  1.00  0.00     0.338 C 
ATOM     31  O   UNL A   1      33.256  33.680  27.624  1.00  0.00    -0.246 OA
BRANCH  30  32
ATOM     32  C   UNL A   1      34.767  31.906  27.965  1.00  0.00     0.060 A 
ATOM     33  C   UNL A   1      34.814  30.534  28.238  1.00  0.00     0.016 A 
ATOM     34  C   UNL A   1      35.892  32.712  28.151  1.00  0.00     0.016 A 
ATOM     35  C   UNL A   1      35.964  29.976  28.790  1.00  0.00     0.010 A 
ATOM     36  C   UNL A   1      37.046  32.149  28.713  1.00  0.00     0.010 A 
ATOM     37  C   UNL A   1      37.061  30.794  29.091  1.00  0.00    -0.014 A 
BRANCH  37  38
ATOM     38  C   UNL A   1      38.098  30.262  30.012  1.00  0.00     0.031 A 
ATOM     39  C   UNL A   1      39.110  29.289  29.466  1.00  0.00     0.074 A 
ATOM     40  C   UNL A   1      38.206  30.708  31.275  1.00  0.00     0.049 A 
ATOM     41  N   UNL A   1      40.164  28.769  30.045  1.00  0.00    -0.248 NA
ATOM     42  C   UNL A   1      38.914  28.850  28.075  1.00  0.00     0.031 C 
ATOM     43  C   UNL A   1      37.314  31.674  31.908  1.00  0.00     0.029 A 
ATOM     44  N   UNL A   1      39.131  30.412  32.245  1.00  0.00    -0.354 N 
ATOM     45  C   UNL A   1      40.755  27.953  29.089  1.00  0.00     0.074 A 
ATOM     46  C   UNL A   1      39.926  28.013  27.906  1.00  0.00     0.031 C 
ATOM     47  C   UNL A   1      37.738  31.899  33.165  1.00  0.00     0.029 A 
ATOM     48  C   UNL A   1      38.925  31.084  33.425  1.00  0.00     0.049 A 
ATOM     49  H   UNL A   1      39.873  29.780  32.108  1.00  0.00     0.167 HD
ATOM     50  C   UNL A   1      41.896  27.231  29.181  1.00  0.00     0.037 A 
ATOM     51  C   UNL A   1      39.618  31.044  34.578  1.00  0.00     0.037 A 
ATOM     52  C   UNL A   1      42.726  27.167  30.354  1.00  0.00     0.049 A 
ATOM     53  C   UNL A   1      40.859  30.194  34.672  1.00  0.00     0.074 A 
ATOM     54  C   UNL A   1      43.901  26.461  30.545  1.00  0.00     0.029 A 
ATOM     55  N   UNL A   1      42.462  27.836  31.539  1.00  0.00    -0.354 N 
ATOM     56  N   UNL A   1      41.425  29.449  33.754  1.00  0.00    -0.248 NA
ATOM     57  C   UNL A   1      41.564  30.190  35.963  1.00  0.00     0.031 C 
ATOM     58  C   UNL A   1      44.329  26.673  31.860  1.00  0.00     0.029 A 
ATOM     59  C   UNL A   1      43.445  27.546  32.472  1.00  0.00     0.049 A 
ATOM     60  H   UNL A   1      41.692  28.428  31.695  1.00  0.00     0.167 HD
ATOM     61  C   UNL A   1      42.565  28.917  34.342  1.00  0.00     0.074 A 
ATOM     62  C   UNL A   1      42.616  29.430  35.695  1.00  0.00     0.031 C 
ATOM     63  C   UNL A   1      43.489  28.079  33.809  1.00  0.00     0.037 A 
BRANCH  50  64
ATOM     64  C   UNL A   1      42.304  26.434  27.978  1.00  0.00     0.064 A 
ATOM     65  C   UNL A   1      41.806  25.142  27.751  1.00  0.00     0.173 A 
ATOM     66  C   UNL A   1      43.186  26.975  27.032  1.00  0.00     0.173 A 
ATOM     67  F   UNL A   1      40.973  24.575  28.637  1.00  0.00    -0.203 F 
ATOM     68  C   UNL A   1      42.193  24.413  26.630  1.00  0.00     0.198 A 
ATOM     69  C   UNL A   1      43.552  26.253  25.899  1.00  0.00     0.198 A 
ATOM     70  F   UNL A   1      43.690  28.206  27.204  1.00  0.00    -0.203 F 
ATOM     71  F   UNL A   1      41.739  23.165  26.454  1.00  0.00    -0.200 F 
ATOM     72  C   UNL A   1      43.061  24.970  25.702  1.00  0.00     0.200 A 
ATOM     73  F   UNL A   1      44.384  26.795  25.001  1.00  0.00    -0.200 F 
ATOM     74  F   UNL A   1      43.431  24.269  24.622  1.00  0.00    -0.200 F 
ENDBRANCH  50  64
BRANCH  51  75
ATOM     75  C   UNL A   1      39.163  31.847  35.743  1.00  0.00     0.064 A 
ATOM     76  C   UNL A   1      39.639  33.148  35.958  1.00  0.00     0.173 A 
ATOM     77  C   UNL A   1      38.259  31.320  36.676  1.00  0.00     0.173 A 
ATOM     78  F   UNL A   1      40.526  33.686  35.107  1.00  0.00    -0.203 F 
ATOM     79  C   UNL A   1      39.239  33.885  37.070  1.00  0.00     0.198 A 
ATOM     80  C   UNL A   1      37.841  32.067  37.775  1.00  0.00     0.198 A 
ATOM     81  F   UNL A   1      37.780  30.078  36.517  1.00  0.00    -0.203 F 
ATOM     82  F   UNL A   1      39.741  35.110  37.276  1.00  0.00    -0.200 F 
ATOM     83  C   UNL A   1      38.336  33.346  37.975  1.00  0.00     0.200 A 
ATOM     84  F   UNL A   1      36.963  31.545  38.642  1.00  0.00    -0.200 F 
ATOM     85  F   UNL A   1      37.952  34.055  39.045  1.00  0.00    -0.200 F 
ENDBRANCH  51  75
BRANCH  63  86
ATOM     86  C   UNL A   1      44.654  27.696  34.673  1.00  0.00     0.064 A 
ATOM     87  C   UNL A   1      45.837  28.448  34.689  1.00  0.00     0.173 A 
ATOM     88  C   UNL A   1      44.568  26.585  35.527  1.00  0.00     0.173 A 
ATOM     89  F   UNL A   1      45.972  29.511  33.883  1.00  0.00    -0.203 F 
ATOM     90  C   UNL A   1      46.901  28.090  35.513  1.00  0.00     0.198 A 
ATOM     91  C   UNL A   1      45.624  26.244  36.367  1.00  0.00     0.198 A 
ATOM     92  F   UNL A   1      43.454  25.838  35.554  1.00  0.00    -0.203 F 
ATOM     93  F   UNL A   1      48.038  28.799  35.481  1.00  0.00    -0.200 F 
ATOM     94  C   UNL A   1      46.792  26.992  36.354  1.00  0.00     0.200 A 
ATOM     95  F   UNL A   1      45.512  25.191  37.188  1.00  0.00    -0.200 F 
ATOM     96  F   UNL A   1      47.816  26.651  37.148  1.00  0.00    -0.200 F 
ENDBRANCH  63  86
ENDBRANCH  37  38
ENDBRANCH  30  32
ENDBRANCH  29  30
ENDBRANCH  28  29
ENDBRANCH  27  28
ENDBRANCH  26  27
ENDBRANCH   1  26
TORSDOF 18
ENDMDL
MODEL 3
REMARK VINA RESULT:     -11.2      2.785      4.585
REMARK SMILES COCC1CC[NH+]([C@@H]2CCC[C@@]([NH3+])(C(=O)OCCOCCOC(=O)c3ccc(-c4c5nc(c(-c6c(F)c(F)c(F)c(F)c6F)c6ccc([nH]6)c(-c6c(F)c(F)c(F)c(F)c6F)c6nc(c(-c7c(F)c(F)c(F)c(F)c7F)c7ccc4[nH]7)C=C6)C=C5)cc3)C2)CC1
REMARK SMILES IDX 18 1 17 2 16 3 14 4 15 5 12 6 8 7 9 8 88 9 10 10 11 11 7 12
REMARK SMILES IDX 4 13 5 14 90 15 6 16 89 17 3 19 2 20 1 21 13 22 19 26 20 27
REMARK SMILES IDX 21 28 22 29 23 30 24 31 25 32 26 33 87 34 27 35 86 36 28 37
REMARK SMILES IDX 29 38 30 39 80 40 31 41 85 42 79 43 81 44 32 45 84 46 78 47
REMARK SMILES IDX 77 48 33 50 65 51 45 52 64 53 46 54 49 55 63 56 82 57 47 58
REMARK SMILES IDX 48 59 62 61 83 62 50 63 34 64 35 65 43 66 36 67 37 68 41 69
REMARK SMILES IDX 44 70 38 71 39 72 42 73 40 74 66 75 67 76 75 77 68 78 69 79
REMARK SMILES IDX 73 80 76 81 70 82 71 83 74 84 72 85 51 86 52 87 60 88 53 89
REMARK SMILES IDX 54 90 58 91 61 92 55 93 56 94 59 95 57 96
REMARK H PARENT 7 18 13 23 13 24 13 25 81 49 49 60
REMARK Flexibility Score: inf
ROOT
ATOM      1  C   UNL A   1      33.104  27.852  25.082  1.00  0.00     0.202 C 
ENDROOT
BRANCH   1   2
ATOM      2  C   UNL A   1      33.403  27.108  23.778  1.00  0.00     0.261 C 
BRANCH   2   3
ATOM      3  O   UNL A   1      33.459  25.675  23.943  1.00  0.00    -0.459 OA
BRANCH   3   4
ATOM      4  C   UNL A   1      32.294  25.023  23.669  1.00  0.00     0.368 C 
ATOM      5  O   UNL A   1      31.668  25.147  22.618  1.00  0.00    -0.245 OA
BRANCH   4   6
ATOM      6  C   UNL A   1      31.755  24.141  24.836  1.00  0.00     0.198 C 
ATOM      7  C   UNL A   1      33.358  22.129  24.590  1.00  0.00     0.190 C 
ATOM      8  C   UNL A   1      33.792  22.323  26.058  1.00  0.00     0.065 C 
ATOM      9  C   UNL A   1      31.911  22.653  24.434  1.00  0.00     0.145 C 
ATOM     10  C   UNL A   1      33.703  23.787  26.485  1.00  0.00     0.013 C 
ATOM     11  C   UNL A   1      32.331  24.402  26.237  1.00  0.00     0.081 C 
BRANCH   7  12
ATOM     12  N   UNL A   1      33.541  20.759  24.045  1.00  0.00    -0.332 N 
ATOM     13  C   UNL A   1      33.281  17.800  24.067  1.00  0.00     0.026 C 
ATOM     14  C   UNL A   1      34.613  18.512  24.337  1.00  0.00     0.067 C 
ATOM     15  C   UNL A   1      32.477  18.671  23.103  1.00  0.00     0.067 C 
ATOM     16  C   UNL A   1      34.380  19.914  24.904  1.00  0.00     0.262 C 
ATOM     17  C   UNL A   1      32.308  20.115  23.579  1.00  0.00     0.262 C 
ATOM     18  H   UNL A   1      34.072  20.886  23.183  1.00  0.00     0.348 HD
BRANCH  13  19
ATOM     19  C   UNL A   1      32.577  17.415  25.388  1.00  0.00     0.163 C 
BRANCH  19  20
ATOM     20  O   UNL A   1      33.092  16.228  25.982  1.00  0.00    -0.384 OA
ATOM     21  C   UNL A   1      32.259  15.089  25.804  1.00  0.00     0.194 C 
ENDBRANCH  19  20
ENDBRANCH  13  19
ENDBRANCH   7  12
BRANCH   6  22
ATOM     22  N   UNL A   1      30.296  24.455  24.920  1.00  0.00    -0.343 N 
ATOM     23  H   UNL A   1      30.090  25.271  24.342  1.00  0.00     0.345 HD
ATOM     24  H   UNL A   1      30.047  24.654  25.888  1.00  0.00     0.345 HD
ATOM     25  H   UNL A   1      29.756  23.657  24.587  1.00  0.00     0.345 HD
ENDBRANCH   6  22
ENDBRANCH   4   6
ENDBRANCH   3   4
ENDBRANCH   2   3
ENDBRANCH   1   2
BRANCH   1  26
ATOM     26  O   UNL A   1      32.684  29.211  24.956  1.00  0.00    -0.374 OA
BRANCH  26  27
ATOM     27  C   UNL A   1      31.791  29.707  25.952  1.00  0.00     0.202 C 
BRANCH  27  28
ATOM     28  C   UNL A   1      32.057  31.141  26.416  1.00  0.00     0.261 C 
BRANCH  28  29
ATOM     29  O   UNL A   1      32.874  31.155  27.600  1.00  0.00    -0.460 OA
BRANCH  29  30
ATOM     30  C   UNL A   1      33.649  32.257  27.721  1.00  0.00     0.338 C 
ATOM     31  O   UNL A   1      33.281  33.411  27.846  1.00  0.00    -0.246 OA
BRANCH  30  32
ATOM     32  C   UNL A   1      35.062  31.869  27.873  1.00  0.00     0.060 A 
ATOM     33  C   UNL A   1      35.354  30.502  27.815  1.00  0.00     0.016 A 
ATOM     34  C   UNL A   1      36.046  32.798  28.216  1.00  0.00     0.016 A 
ATOM     35  C   UNL A   1      36.614  30.046  28.194  1.00  0.00     0.010 A 
ATOM     36  C   UNL A   1      37.311  32.336  28.603  1.00  0.00     0.010 A 
ATOM     37  C   UNL A   1      37.576  30.956  28.652  1.00  0.00    -0.014 A 
BRANCH  37  38
ATOM     38  C   UNL A   1      38.744  30.421  29.399  1.00  0.00     0.031 A 
ATOM     39  C   UNL A   1      38.926  30.833  30.836  1.00  0.00     0.074 A 
ATOM     40  C   UNL A   1      39.565  29.508  28.851  1.00  0.00     0.049 A 
ATOM     41  N   UNL A   1      39.804  30.421  31.717  1.00  0.00    -0.248 NA
ATOM     42  C   UNL A   1      37.986  31.840  31.354  1.00  0.00     0.031 C 
ATOM     43  C   UNL A   1      39.471  29.000  27.485  1.00  0.00     0.029 A 
ATOM     44  N   UNL A   1      40.632  28.836  29.392  1.00  0.00    -0.354 N 
ATOM     45  C   UNL A   1      39.514  31.111  32.888  1.00  0.00     0.074 A 
ATOM     46  C   UNL A   1      38.408  31.996  32.599  1.00  0.00     0.031 C 
ATOM     47  C   UNL A   1      40.441  28.088  27.294  1.00  0.00     0.029 A 
ATOM     48  C   UNL A   1      41.227  27.958  28.521  1.00  0.00     0.049 A 
ATOM     49  H   UNL A   1      40.941  28.969  30.317  1.00  0.00     0.167 HD
ATOM     50  C   UNL A   1      40.105  31.005  34.101  1.00  0.00     0.037 A 
ATOM     51  C   UNL A   1      42.284  27.142  28.698  1.00  0.00     0.037 A 
ATOM     52  C   UNL A   1      41.206  30.127  34.396  1.00  0.00     0.049 A 
ATOM     53  C   UNL A   1      42.957  27.077  30.045  1.00  0.00     0.074 A 
ATOM     54  C   UNL A   1      41.874  29.950  35.594  1.00  0.00     0.029 A 
ATOM     55  N   UNL A   1      41.801  29.278  33.475  1.00  0.00    -0.354 N 
ATOM     56  N   UNL A   1      42.657  27.711  31.152  1.00  0.00    -0.248 NA
ATOM     57  C   UNL A   1      44.109  26.171  30.168  1.00  0.00     0.031 C 
ATOM     58  C   UNL A   1      42.900  29.020  35.390  1.00  0.00     0.029 A 
ATOM     59  C   UNL A   1      42.840  28.586  34.076  1.00  0.00     0.049 A 
ATOM     60  H   UNL A   1      41.526  29.181  32.535  1.00  0.00     0.167 HD
ATOM     61  C   UNL A   1      43.558  27.259  32.108  1.00  0.00     0.074 A 
ATOM     62  C   UNL A   1      44.412  26.290  31.453  1.00  0.00     0.031 C 
ATOM     63  C   UNL A   1      43.669  27.613  33.412  1.00  0.00     0.037 A 
BRANCH  50  64
ATOM     64  C   UNL A   1      39.581  31.880  35.200  1.00  0.00     0.064 A 
ATOM     65  C   UNL A   1      39.996  33.213  35.338  1.00  0.00     0.173 A 
ATOM     66  C   UNL A   1      38.637  31.386  36.112  1.00  0.00     0.173 A 
ATOM     67  F   UNL A   1      40.910  33.725  34.500  1.00  0.00    -0.203 F 
ATOM     68  C   UNL A   1      39.501  34.014  36.363  1.00  0.00     0.198 A 
ATOM     69  C   UNL A   1      38.125  32.197  37.122  1.00  0.00     0.198 A 
ATOM     70  F   UNL A   1      38.208  30.119  36.023  1.00  0.00    -0.203 F 
ATOM     71  F   UNL A   1      39.942  35.271  36.503  1.00  0.00    -0.200 F 
ATOM     72  C   UNL A   1      38.562  33.508  37.251  1.00  0.00     0.200 A 
ATOM     73  F   UNL A   1      37.213  31.710  37.973  1.00  0.00    -0.200 F 
ATOM     74  F   UNL A   1      38.083  34.280  38.235  1.00  0.00    -0.200 F 
ENDBRANCH  50  64
BRANCH  51  75
ATOM     75  C   UNL A   1      42.768  26.303  27.571  1.00  0.00     0.064 A 
ATOM     76  C   UNL A   1      43.776  26.758  26.708  1.00  0.00     0.173 A 
ATOM     77  C   UNL A   1      42.218  25.038  27.323  1.00  0.00     0.173 A 
ATOM     78  F   UNL A   1      44.314  27.973  26.890  1.00  0.00    -0.203 F 
ATOM     79  C   UNL A   1      44.202  25.985  25.631  1.00  0.00     0.198 A 
ATOM     80  C   UNL A   1      42.663  24.255  26.260  1.00  0.00     0.198 A 
ATOM     81  F   UNL A   1      41.249  24.561  28.117  1.00  0.00    -0.203 F 
ATOM     82  F   UNL A   1      45.135  26.460  24.795  1.00  0.00    -0.200 F 
ATOM     83  C   UNL A   1      43.649  24.732  25.410  1.00  0.00     0.200 A 
ATOM     84  F   UNL A   1      42.131  23.042  26.055  1.00  0.00    -0.200 F 
ATOM     85  F   UNL A   1      44.059  23.988  24.373  1.00  0.00    -0.200 F 
ENDBRANCH  51  75
BRANCH  63  86
ATOM     86  C   UNL A   1      44.721  26.923  34.229  1.00  0.00     0.064 A 
ATOM     87  C   UNL A   1      46.007  27.461  34.379  1.00  0.00     0.173 A 
ATOM     88  C   UNL A   1      44.423  25.730  34.905  1.00  0.00     0.173 A 
ATOM     89  F   UNL A   1      46.344  28.592  33.743  1.00  0.00    -0.203 F 
ATOM     90  C   UNL A   1      46.965  26.816  35.158  1.00  0.00     0.198 A 
ATOM     91  C   UNL A   1      45.374  25.102  35.703  1.00  0.00     0.198 A 
ATOM     92  F   UNL A   1      43.204  25.180  34.801  1.00  0.00    -0.203 F 
ATOM     93  F   UNL A   1      48.201  27.325  35.253  1.00  0.00    -0.200 F 
ATOM     94  C   UNL A   1      46.647  25.641  35.824  1.00  0.00     0.200 A 
ATOM     95  F   UNL A   1      45.062  23.974  36.355  1.00  0.00    -0.200 F 
ATOM     96  F   UNL A   1      47.569  25.025  36.575  1.00  0.00    -0.200 F 
ENDBRANCH  63  86
ENDBRANCH  37  38
ENDBRANCH  30  32
ENDBRANCH  29  30
ENDBRANCH  28  29
ENDBRANCH  27  28
ENDBRANCH  26  27
ENDBRANCH   1  26
TORSDOF 18
ENDMDL
