MODEL 1
REMARK VINA RESULT:     -11.5      0.000      0.000
REMARK SMILES C[C@H]1OCC[C@H]1C(=O)Nc1ccsc1C(=O)OCCOCCOC(=O)c1ccc(-c2c3nc(c(-c4c(F)c(F)c(F)c(F)c4F)c4ccc([nH]4)c(-c4c(F)c(F)c(F)c(F)c4F)c4nc(c(-c5c(F)c(F)c(F)c(F)c5F)c5ccc2[nH]5)C=C4)C=C3)cc1
REMARK SMILES IDX 20 1 19 2 18 3 17 4 15 5 16 6 14 7 10 8 11 9 12 10 13 11
REMARK SMILES IDX 9 12 7 13 8 14 6 16 1 17 2 18 3 19 4 20 5 21 21 22 22 23
REMARK SMILES IDX 23 24 24 25 25 26 26 27 27 28 88 29 28 30 87 31 29 32 30 33
REMARK SMILES IDX 31 34 81 35 32 36 86 37 80 38 82 39 33 40 85 41 79 42 78 43
REMARK SMILES IDX 34 45 66 46 46 47 65 48 47 49 50 50 64 51 83 52 48 53 49 54
REMARK SMILES IDX 63 56 84 57 51 58 35 59 36 60 44 61 37 62 38 63 42 64 45 65
REMARK SMILES IDX 39 66 40 67 43 68 41 69 67 70 68 71 76 72 69 73 70 74 74 75
REMARK SMILES IDX 77 76 71 77 72 78 75 79 73 80 52 81 53 82 61 83 54 84 55 85
REMARK SMILES IDX 59 86 62 87 56 88 57 89 60 90 58 91
REMARK H PARENT 9 15 82 44 50 55
REMARK Flexibility Score: inf
ROOT
ATOM      1  O   UNL A   1      35.476  21.671  25.812  1.00  0.00    -0.374 OA
ENDROOT
BRANCH   1   2
ATOM      2  C   UNL A   1      34.565  21.418  26.882  1.00  0.00     0.202 C 
BRANCH   2   3
ATOM      3  C   UNL A   1      33.884  22.674  27.428  1.00  0.00     0.261 C 
BRANCH   3   4
ATOM      4  O   UNL A   1      33.214  23.372  26.362  1.00  0.00    -0.459 OA
BRANCH   4   5
ATOM      5  C   UNL A   1      31.896  23.650  26.595  1.00  0.00     0.350 C 
ATOM      6  O   UNL A   1      31.316  23.366  27.639  1.00  0.00    -0.245 OA
BRANCH   5   7
ATOM      7  C   UNL A   1      31.315  24.363  25.466  1.00  0.00     0.136 A 
ATOM      8  C   UNL A   1      30.772  25.647  25.334  1.00  0.00     0.066 A 
ATOM      9  C   UNL A   1      30.402  25.873  23.979  1.00  0.00     0.039 A 
ATOM     10  C   UNL A   1      30.531  24.771  23.167  1.00  0.00     0.068 A 
ATOM     11  S   UNL A   1      31.190  23.458  24.003  1.00  0.00    -0.135 S 
BRANCH   8  12
ATOM     12  N   UNL A   1      30.746  26.546  26.394  1.00  0.00    -0.324 N 
ATOM     13  C   UNL A   1      31.554  27.494  26.929  1.00  0.00     0.230 C 
ATOM     14  O   UNL A   1      31.214  27.869  28.066  1.00  0.00    -0.274 OA
ATOM     15  H   UNL A   1      29.902  26.475  26.897  1.00  0.00     0.169 HD
BRANCH  13  16
ATOM     16  C   UNL A   1      32.703  28.262  26.275  1.00  0.00     0.110 C 
ATOM     17  C   UNL A   1      31.160  29.587  24.676  1.00  0.00     0.039 C 
ATOM     18  C   UNL A   1      32.491  29.477  25.398  1.00  0.00     0.127 C 
ATOM     19  O   UNL A   1      32.788  30.626  26.203  1.00  0.00    -0.378 OA
ATOM     20  C   UNL A   1      33.610  30.220  27.306  1.00  0.00     0.161 C 
ATOM     21  C   UNL A   1      33.773  28.717  27.243  1.00  0.00     0.044 C 
ENDBRANCH  13  16
ENDBRANCH   8  12
ENDBRANCH   5   7
ENDBRANCH   4   5
ENDBRANCH   3   4
ENDBRANCH   2   3
ENDBRANCH   1   2
BRANCH   1  22
ATOM     22  C   UNL A   1      35.856  20.532  25.031  1.00  0.00     0.202 C 
BRANCH  22  23
ATOM     23  C   UNL A   1      37.369  20.314  24.923  1.00  0.00     0.261 C 
BRANCH  23  24
ATOM     24  O   UNL A   1      38.079  21.488  25.362  1.00  0.00    -0.460 OA
BRANCH  24  25
ATOM     25  C   UNL A   1      39.208  21.247  26.070  1.00  0.00     0.338 C 
ATOM     26  O   UNL A   1      39.854  20.215  26.101  1.00  0.00    -0.246 OA
BRANCH  25  27
ATOM     27  C   UNL A   1      39.686  22.502  26.688  1.00  0.00     0.060 A 
ATOM     28  C   UNL A   1      39.035  23.686  26.320  1.00  0.00     0.016 A 
ATOM     29  C   UNL A   1      40.763  22.535  27.577  1.00  0.00     0.016 A 
ATOM     30  C   UNL A   1      39.491  24.913  26.798  1.00  0.00     0.010 A 
ATOM     31  C   UNL A   1      41.226  23.769  28.048  1.00  0.00     0.010 A 
ATOM     32  C   UNL A   1      40.614  24.964  27.633  1.00  0.00    -0.014 A 
BRANCH  32  33
ATOM     33  C   UNL A   1      41.230  26.276  27.947  1.00  0.00     0.031 A 
ATOM     34  C   UNL A   1      42.641  26.540  27.501  1.00  0.00     0.074 A 
ATOM     35  C   UNL A   1      40.537  27.228  28.594  1.00  0.00     0.049 A 
ATOM     36  N   UNL A   1      43.386  27.601  27.681  1.00  0.00    -0.248 NA
ATOM     37  C   UNL A   1      43.302  25.460  26.751  1.00  0.00     0.031 C 
ATOM     38  C   UNL A   1      39.154  27.103  29.048  1.00  0.00     0.029 A 
ATOM     39  N   UNL A   1      40.909  28.489  28.984  1.00  0.00    -0.354 N 
ATOM     40  C   UNL A   1      44.600  27.316  27.073  1.00  0.00     0.074 A 
ATOM     41  C   UNL A   1      44.505  25.973  26.540  1.00  0.00     0.031 C 
ATOM     42  C   UNL A   1      38.796  28.241  29.667  1.00  0.00     0.029 A 
ATOM     43  C   UNL A   1      39.932  29.160  29.677  1.00  0.00     0.049 A 
ATOM     44  H   UNL A   1      41.793  28.876  28.787  1.00  0.00     0.167 HD
ATOM     45  C   UNL A   1      45.694  28.106  26.960  1.00  0.00     0.037 A 
ATOM     46  C   UNL A   1      39.962  30.371  30.267  1.00  0.00     0.037 A 
ATOM     47  C   UNL A   1      45.789  29.442  27.487  1.00  0.00     0.049 A 
ATOM     48  C   UNL A   1      41.212  31.208  30.179  1.00  0.00     0.074 A 
ATOM     49  C   UNL A   1      46.847  30.329  27.404  1.00  0.00     0.029 A 
ATOM     50  N   UNL A   1      44.787  30.078  28.204  1.00  0.00    -0.354 N 
ATOM     51  N   UNL A   1      42.345  30.944  29.576  1.00  0.00    -0.248 NA
ATOM     52  C   UNL A   1      41.184  32.514  30.855  1.00  0.00     0.031 C 
ATOM     53  C   UNL A   1      46.502  31.488  28.110  1.00  0.00     0.029 A 
ATOM     54  C   UNL A   1      45.212  31.339  28.591  1.00  0.00     0.049 A 
ATOM     55  H   UNL A   1      43.904  29.692  28.408  1.00  0.00     0.167 HD
ATOM     56  C   UNL A   1      43.152  32.057  29.773  1.00  0.00     0.074 A 
ATOM     57  C   UNL A   1      42.377  33.005  30.546  1.00  0.00     0.031 C 
ATOM     58  C   UNL A   1      44.422  32.275  29.352  1.00  0.00     0.037 A 
BRANCH  45  59
ATOM     59  C   UNL A   1      46.890  27.535  26.256  1.00  0.00     0.064 A 
ATOM     60  C   UNL A   1      47.081  27.705  24.877  1.00  0.00     0.173 A 
ATOM     61  C   UNL A   1      47.870  26.838  26.976  1.00  0.00     0.173 A 
ATOM     62  F   UNL A   1      46.164  28.352  24.142  1.00  0.00    -0.203 F 
ATOM     63  C   UNL A   1      48.201  27.175  24.241  1.00  0.00     0.198 A 
ATOM     64  C   UNL A   1      49.001  26.331  26.341  1.00  0.00     0.198 A 
ATOM     65  F   UNL A   1      47.734  26.651  28.298  1.00  0.00    -0.203 F 
ATOM     66  F   UNL A   1      48.343  27.311  22.914  1.00  0.00    -0.200 F 
ATOM     67  C   UNL A   1      49.162  26.494  24.973  1.00  0.00     0.200 A 
ATOM     68  F   UNL A   1      49.933  25.682  27.053  1.00  0.00    -0.200 F 
ATOM     69  F   UNL A   1      50.241  25.989  24.361  1.00  0.00    -0.200 F 
ENDBRANCH  45  59
BRANCH  46  70
ATOM     70  C   UNL A   1      38.770  30.865  31.002  1.00  0.00     0.064 A 
ATOM     71  C   UNL A   1      37.737  31.539  30.337  1.00  0.00     0.173 A 
ATOM     72  C   UNL A   1      38.646  30.685  32.387  1.00  0.00     0.173 A 
ATOM     73  F   UNL A   1      37.823  31.759  29.016  1.00  0.00    -0.203 F 
ATOM     74  C   UNL A   1      36.631  32.026  31.032  1.00  0.00     0.198 A 
ATOM     75  C   UNL A   1      37.529  31.149  33.077  1.00  0.00     0.198 A 
ATOM     76  F   UNL A   1      39.611  30.051  33.071  1.00  0.00    -0.203 F 
ATOM     77  F   UNL A   1      35.678  32.704  30.379  1.00  0.00    -0.200 F 
ATOM     78  C   UNL A   1      36.526  31.825  32.400  1.00  0.00     0.200 A 
ATOM     79  F   UNL A   1      37.426  30.946  34.397  1.00  0.00    -0.200 F 
ATOM     80  F   UNL A   1      35.461  32.292  33.066  1.00  0.00    -0.200 F 
ENDBRANCH  46  70
BRANCH  58  81
ATOM     81  C   UNL A   1      45.043  33.601  29.681  1.00  0.00     0.064 A 
ATOM     82  C   UNL A   1      45.850  33.775  30.814  1.00  0.00     0.173 A 
ATOM     83  C   UNL A   1      44.866  34.698  28.824  1.00  0.00     0.173 A 
ATOM     84  F   UNL A   1      46.038  32.759  31.671  1.00  0.00    -0.203 F 
ATOM     85  C   UNL A   1      46.441  35.005  31.090  1.00  0.00     0.198 A 
ATOM     86  C   UNL A   1      45.480  35.920  29.089  1.00  0.00     0.198 A 
ATOM     87  F   UNL A   1      44.109  34.582  27.724  1.00  0.00    -0.203 F 
ATOM     88  F   UNL A   1      47.175  35.160  32.200  1.00  0.00    -0.200 F 
ATOM     89  C   UNL A   1      46.262  36.073  30.224  1.00  0.00     0.200 A 
ATOM     90  F   UNL A   1      45.317  36.947  28.244  1.00  0.00    -0.200 F 
ATOM     91  F   UNL A   1      46.838  37.254  30.486  1.00  0.00    -0.200 F 
ENDBRANCH  58  81
ENDBRANCH  32  33
ENDBRANCH  25  27
ENDBRANCH  24  25
ENDBRANCH  23  24
ENDBRANCH  22  23
ENDBRANCH   1  22
TORSDOF 16
ENDMDL
MODEL 2
REMARK VINA RESULT:     -11.3      2.135      3.987
REMARK SMILES C[C@H]1OCC[C@H]1C(=O)Nc1ccsc1C(=O)OCCOCCOC(=O)c1ccc(-c2c3nc(c(-c4c(F)c(F)c(F)c(F)c4F)c4ccc([nH]4)c(-c4c(F)c(F)c(F)c(F)c4F)c4nc(c(-c5c(F)c(F)c(F)c(F)c5F)c5ccc2[nH]5)C=C4)C=C3)cc1
REMARK SMILES IDX 20 1 19 2 18 3 17 4 15 5 16 6 14 7 10 8 11 9 12 10 13 11
REMARK SMILES IDX 9 12 7 13 8 14 6 16 1 17 2 18 3 19 4 20 5 21 21 22 22 23
REMARK SMILES IDX 23 24 24 25 25 26 26 27 27 28 88 29 28 30 87 31 29 32 30 33
REMARK SMILES IDX 31 34 81 35 32 36 86 37 80 38 82 39 33 40 85 41 79 42 78 43
REMARK SMILES IDX 34 45 66 46 46 47 65 48 47 49 50 50 64 51 83 52 48 53 49 54
REMARK SMILES IDX 63 56 84 57 51 58 35 59 36 60 44 61 37 62 38 63 42 64 45 65
REMARK SMILES IDX 39 66 40 67 43 68 41 69 67 70 68 71 76 72 69 73 70 74 74 75
REMARK SMILES IDX 77 76 71 77 72 78 75 79 73 80 52 81 53 82 61 83 54 84 55 85
REMARK SMILES IDX 59 86 62 87 56 88 57 89 60 90 58 91
REMARK H PARENT 9 15 82 44 50 55
REMARK Flexibility Score: inf
ROOT
ATOM      1  O   UNL A   1      38.133  21.697  24.877  1.00  0.00    -0.374 OA
ENDROOT
BRANCH   1   2
ATOM      2  C   UNL A   1      36.918  22.432  24.728  1.00  0.00     0.202 C 
BRANCH   2   3
ATOM      3  C   UNL A   1      36.681  23.469  25.827  1.00  0.00     0.261 C 
BRANCH   3   4
ATOM      4  O   UNL A   1      35.350  23.330  26.354  1.00  0.00    -0.459 OA
BRANCH   4   5
ATOM      5  C   UNL A   1      34.394  24.064  25.706  1.00  0.00     0.350 C 
ATOM      6  O   UNL A   1      34.622  25.131  25.145  1.00  0.00    -0.245 OA
BRANCH   5   7
ATOM      7  C   UNL A   1      33.111  23.376  25.738  1.00  0.00     0.136 A 
ATOM      8  C   UNL A   1      32.721  22.079  25.386  1.00  0.00     0.066 A 
ATOM      9  C   UNL A   1      31.342  21.896  25.681  1.00  0.00     0.039 A 
ATOM     10  C   UNL A   1      30.699  23.035  26.101  1.00  0.00     0.068 A 
ATOM     11  S   UNL A   1      31.768  24.337  26.237  1.00  0.00    -0.135 S 
BRANCH   8  12
ATOM     12  N   UNL A   1      33.636  21.134  24.934  1.00  0.00    -0.324 N 
ATOM     13  C   UNL A   1      33.729  19.784  24.850  1.00  0.00     0.230 C 
ATOM     14  O   UNL A   1      34.878  19.368  24.611  1.00  0.00    -0.274 OA
ATOM     15  H   UNL A   1      34.444  21.567  24.573  1.00  0.00     0.169 HD
BRANCH  13  16
ATOM     16  C   UNL A   1      32.613  18.739  24.845  1.00  0.00     0.110 C 
ATOM     17  C   UNL A   1      32.598  18.488  22.271  1.00  0.00     0.039 C 
ATOM     18  C   UNL A   1      32.269  17.903  23.633  1.00  0.00     0.127 C 
ATOM     19  O   UNL A   1      32.853  16.610  23.841  1.00  0.00    -0.378 OA
ATOM     20  C   UNL A   1      33.095  16.431  25.245  1.00  0.00     0.161 C 
ATOM     21  C   UNL A   1      32.721  17.714  25.953  1.00  0.00     0.044 C 
ENDBRANCH  13  16
ENDBRANCH   8  12
ENDBRANCH   5   7
ENDBRANCH   4   5
ENDBRANCH   3   4
ENDBRANCH   2   3
ENDBRANCH   1   2
BRANCH   1  22
ATOM     22  C   UNL A   1      37.990  20.291  25.109  1.00  0.00     0.202 C 
BRANCH  22  23
ATOM     23  C   UNL A   1      39.261  19.598  25.612  1.00  0.00     0.261 C 
BRANCH  23  24
ATOM     24  O   UNL A   1      40.292  20.570  25.875  1.00  0.00    -0.460 OA
BRANCH  24  25
ATOM     25  C   UNL A   1      40.735  20.606  27.155  1.00  0.00     0.338 C 
ATOM     26  O   UNL A   1      41.033  19.658  27.860  1.00  0.00    -0.246 OA
BRANCH  25  27
ATOM     27  C   UNL A   1      40.999  22.005  27.551  1.00  0.00     0.060 A 
ATOM     28  C   UNL A   1      40.335  23.010  26.837  1.00  0.00     0.016 A 
ATOM     29  C   UNL A   1      41.897  22.337  28.569  1.00  0.00     0.016 A 
ATOM     30  C   UNL A   1      40.604  24.351  27.101  1.00  0.00     0.010 A 
ATOM     31  C   UNL A   1      42.174  23.684  28.827  1.00  0.00     0.010 A 
ATOM     32  C   UNL A   1      41.555  24.695  28.071  1.00  0.00    -0.014 A 
BRANCH  32  33
ATOM     33  C   UNL A   1      42.004  26.103  28.184  1.00  0.00     0.031 A 
ATOM     34  C   UNL A   1      43.327  26.493  27.588  1.00  0.00     0.074 A 
ATOM     35  C   UNL A   1      41.235  27.028  28.784  1.00  0.00     0.049 A 
ATOM     36  N   UNL A   1      43.929  27.656  27.584  1.00  0.00    -0.248 NA
ATOM     37  C   UNL A   1      44.075  25.427  26.902  1.00  0.00     0.031 C 
ATOM     38  C   UNL A   1      39.921  26.780  29.372  1.00  0.00     0.029 A 
ATOM     39  N   UNL A   1      41.456  28.365  29.001  1.00  0.00    -0.354 N 
ATOM     40  C   UNL A   1      45.122  27.461  26.903  1.00  0.00     0.074 A 
ATOM     41  C   UNL A   1      45.175  26.063  26.530  1.00  0.00     0.031 C 
ATOM     42  C   UNL A   1      39.455  27.927  29.894  1.00  0.00     0.029 A 
ATOM     43  C   UNL A   1      40.449  28.981  29.702  1.00  0.00     0.049 A 
ATOM     44  H   UNL A   1      42.260  28.837  28.684  1.00  0.00     0.167 HD
ATOM     45  C   UNL A   1      46.084  28.367  26.608  1.00  0.00     0.037 A 
ATOM     46  C   UNL A   1      40.355  30.247  30.152  1.00  0.00     0.037 A 
ATOM     47  C   UNL A   1      46.030  29.757  26.976  1.00  0.00     0.049 A 
ATOM     48  C   UNL A   1      41.466  31.222  29.862  1.00  0.00     0.074 A 
ATOM     49  C   UNL A   1      46.946  30.758  26.704  1.00  0.00     0.029 A 
ATOM     50  N   UNL A   1      45.006  30.339  27.708  1.00  0.00    -0.354 N 
ATOM     51  N   UNL A   1      42.576  31.038  29.192  1.00  0.00    -0.248 NA
ATOM     52  C   UNL A   1      41.306  32.585  30.392  1.00  0.00     0.031 C 
ATOM     53  C   UNL A   1      46.497  31.938  27.308  1.00  0.00     0.029 A 
ATOM     54  C   UNL A   1      45.278  31.682  27.916  1.00  0.00     0.049 A 
ATOM     55  H   UNL A   1      44.203  29.868  28.030  1.00  0.00     0.167 HD
ATOM     56  C   UNL A   1      43.233  32.261  29.194  1.00  0.00     0.074 A 
ATOM     57  C   UNL A   1      42.393  33.186  29.926  1.00  0.00     0.031 C 
ATOM     58  C   UNL A   1      44.425  32.591  28.639  1.00  0.00     0.037 A 
BRANCH  45  59
ATOM     59  C   UNL A   1      47.291  27.876  25.865  1.00  0.00     0.064 A 
ATOM     60  C   UNL A   1      47.301  27.768  24.467  1.00  0.00     0.173 A 
ATOM     61  C   UNL A   1      48.462  27.541  26.560  1.00  0.00     0.173 A 
ATOM     62  F   UNL A   1      46.200  28.063  23.759  1.00  0.00    -0.203 F 
ATOM     63  C   UNL A   1      48.434  27.318  23.792  1.00  0.00     0.198 A 
ATOM     64  C   UNL A   1      49.601  27.116  25.880  1.00  0.00     0.198 A 
ATOM     65  F   UNL A   1      48.505  27.630  27.898  1.00  0.00    -0.203 F 
ATOM     66  F   UNL A   1      48.407  27.180  22.459  1.00  0.00    -0.200 F 
ATOM     67  C   UNL A   1      49.583  26.998  24.499  1.00  0.00     0.200 A 
ATOM     68  F   UNL A   1      50.714  26.816  26.564  1.00  0.00    -0.200 F 
ATOM     69  F   UNL A   1      50.674  26.570  23.848  1.00  0.00    -0.200 F 
ENDBRANCH  45  59
BRANCH  46  70
ATOM     70  C   UNL A   1      39.163  30.667  30.934  1.00  0.00     0.064 A 
ATOM     71  C   UNL A   1      39.098  30.467  32.318  1.00  0.00     0.173 A 
ATOM     72  C   UNL A   1      38.059  31.263  30.307  1.00  0.00     0.173 A 
ATOM     73  F   UNL A   1      40.118  29.876  32.959  1.00  0.00    -0.203 F 
ATOM     74  C   UNL A   1      37.969  30.837  33.046  1.00  0.00     0.198 A 
ATOM     75  C   UNL A   1      36.941  31.656  31.039  1.00  0.00     0.198 A 
ATOM     76  F   UNL A   1      38.070  31.471  28.982  1.00  0.00    -0.203 F 
ATOM     77  F   UNL A   1      37.915  30.598  34.363  1.00  0.00    -0.200 F 
ATOM     78  C   UNL A   1      36.894  31.437  32.406  1.00  0.00     0.200 A 
ATOM     79  F   UNL A   1      35.908  32.242  30.418  1.00  0.00    -0.200 F 
ATOM     80  F   UNL A   1      35.809  31.794  33.108  1.00  0.00    -0.200 F 
ENDBRANCH  46  70
BRANCH  58  81
ATOM     81  C   UNL A   1      44.878  34.016  28.766  1.00  0.00     0.064 A 
ATOM     82  C   UNL A   1      45.706  34.434  29.817  1.00  0.00     0.173 A 
ATOM     83  C   UNL A   1      44.517  34.963  27.795  1.00  0.00     0.173 A 
ATOM     84  F   UNL A   1      46.067  33.569  30.777  1.00  0.00    -0.203 F 
ATOM     85  C   UNL A   1      46.140  35.755  29.904  1.00  0.00     0.198 A 
ATOM     86  C   UNL A   1      44.974  36.276  27.871  1.00  0.00     0.198 A 
ATOM     87  F   UNL A   1      43.733  34.611  26.766  1.00  0.00    -0.203 F 
ATOM     88  F   UNL A   1      46.897  36.142  30.939  1.00  0.00    -0.200 F 
ATOM     89  C   UNL A   1      45.780  36.672  28.928  1.00  0.00     0.200 A 
ATOM     90  F   UNL A   1      44.636  37.157  26.920  1.00  0.00    -0.200 F 
ATOM     91  F   UNL A   1      46.205  37.940  29.009  1.00  0.00    -0.200 F 
ENDBRANCH  58  81
ENDBRANCH  32  33
ENDBRANCH  25  27
ENDBRANCH  24  25
ENDBRANCH  23  24
ENDBRANCH  22  23
ENDBRANCH   1  22
TORSDOF 16
ENDMDL
MODEL 3
REMARK VINA RESULT:     -11.2      1.365      2.781
REMARK SMILES C[C@H]1OCC[C@H]1C(=O)Nc1ccsc1C(=O)OCCOCCOC(=O)c1ccc(-c2c3nc(c(-c4c(F)c(F)c(F)c(F)c4F)c4ccc([nH]4)c(-c4c(F)c(F)c(F)c(F)c4F)c4nc(c(-c5c(F)c(F)c(F)c(F)c5F)c5ccc2[nH]5)C=C4)C=C3)cc1
REMARK SMILES IDX 20 1 19 2 18 3 17 4 15 5 16 6 14 7 10 8 11 9 12 10 13 11
REMARK SMILES IDX 9 12 7 13 8 14 6 16 1 17 2 18 3 19 4 20 5 21 21 22 22 23
REMARK SMILES IDX 23 24 24 25 25 26 26 27 27 28 88 29 28 30 87 31 29 32 30 33
REMARK SMILES IDX 31 34 81 35 32 36 86 37 80 38 82 39 33 40 85 41 79 42 78 43
REMARK SMILES IDX 34 45 66 46 46 47 65 48 47 49 50 50 64 51 83 52 48 53 49 54
REMARK SMILES IDX 63 56 84 57 51 58 35 59 36 60 44 61 37 62 38 63 42 64 45 65
REMARK SMILES IDX 39 66 40 67 43 68 41 69 67 70 68 71 76 72 69 73 70 74 74 75
REMARK SMILES IDX 77 76 71 77 72 78 75 79 73 80 52 81 53 82 61 83 54 84 55 85
REMARK SMILES IDX 59 86 62 87 56 88 57 89 60 90 58 91
REMARK H PARENT 9 15 82 44 50 55
REMARK Flexibility Score: inf
ROOT
ATOM      1  O   UNL A   1      35.810  21.895  24.690  1.00  0.00    -0.374 OA
ENDROOT
BRANCH   1   2
ATOM      2  C   UNL A   1      35.216  22.649  25.748  1.00  0.00     0.202 C 
BRANCH   2   3
ATOM      3  C   UNL A   1      35.616  24.125  25.759  1.00  0.00     0.261 C 
BRANCH   3   4
ATOM      4  O   UNL A   1      34.709  24.886  24.941  1.00  0.00    -0.459 OA
BRANCH   4   5
ATOM      5  C   UNL A   1      33.668  25.460  25.617  1.00  0.00     0.350 C 
ATOM      6  O   UNL A   1      32.951  24.852  26.405  1.00  0.00    -0.245 OA
BRANCH   5   7
ATOM      7  C   UNL A   1      33.577  26.881  25.307  1.00  0.00     0.136 A 
ATOM      8  C   UNL A   1      33.558  27.588  24.099  1.00  0.00     0.066 A 
ATOM      9  C   UNL A   1      33.385  28.975  24.359  1.00  0.00     0.039 A 
ATOM     10  C   UNL A   1      33.413  29.308  25.693  1.00  0.00     0.068 A 
ATOM     11  S   UNL A   1      33.558  27.937  26.671  1.00  0.00    -0.135 S 
BRANCH   8  12
ATOM     12  N   UNL A   1      33.588  26.942  22.868  1.00  0.00    -0.324 N 
ATOM     13  C   UNL A   1      32.811  26.082  22.165  1.00  0.00     0.230 C 
ATOM     14  O   UNL A   1      33.387  25.554  21.196  1.00  0.00    -0.274 OA
ATOM     15  H   UNL A   1      34.403  27.173  22.367  1.00  0.00     0.169 HD
BRANCH  13  16
ATOM     16  C   UNL A   1      31.313  25.805  22.300  1.00  0.00     0.110 C 
ATOM     17  C   UNL A   1      31.647  23.485  23.394  1.00  0.00     0.039 C 
ATOM     18  C   UNL A   1      30.753  24.689  23.153  1.00  0.00     0.127 C 
ATOM     19  O   UNL A   1      30.285  25.290  24.368  1.00  0.00    -0.378 OA
ATOM     20  C   UNL A   1      30.065  26.690  24.138  1.00  0.00     0.161 C 
ATOM     21  C   UNL A   1      30.497  27.007  22.723  1.00  0.00     0.044 C 
ENDBRANCH  13  16
ENDBRANCH   8  12
ENDBRANCH   5   7
ENDBRANCH   4   5
ENDBRANCH   3   4
ENDBRANCH   2   3
ENDBRANCH   1   2
BRANCH   1  22
ATOM     22  C   UNL A   1      36.067  20.515  24.972  1.00  0.00     0.202 C 
BRANCH  22  23
ATOM     23  C   UNL A   1      37.552  20.141  25.011  1.00  0.00     0.261 C 
BRANCH  23  24
ATOM     24  O   UNL A   1      38.357  21.306  25.274  1.00  0.00    -0.460 OA
BRANCH  24  25
ATOM     25  C   UNL A   1      39.411  21.103  26.100  1.00  0.00     0.338 C 
ATOM     26  O   UNL A   1      40.034  20.068  26.262  1.00  0.00    -0.246 OA
BRANCH  25  27
ATOM     27  C   UNL A   1      39.851  22.393  26.673  1.00  0.00     0.060 A 
ATOM     28  C   UNL A   1      39.218  23.551  26.204  1.00  0.00     0.016 A 
ATOM     29  C   UNL A   1      40.877  22.481  27.617  1.00  0.00     0.016 A 
ATOM     30  C   UNL A   1      39.644  24.805  26.638  1.00  0.00     0.010 A 
ATOM     31  C   UNL A   1      41.310  23.741  28.044  1.00  0.00     0.010 A 
ATOM     32  C   UNL A   1      40.718  24.908  27.530  1.00  0.00    -0.014 A 
BRANCH  32  33
ATOM     33  C   UNL A   1      41.314  26.239  27.805  1.00  0.00     0.031 A 
ATOM     34  C   UNL A   1      42.716  26.516  27.343  1.00  0.00     0.074 A 
ATOM     35  C   UNL A   1      40.607  27.196  28.431  1.00  0.00     0.049 A 
ATOM     36  N   UNL A   1      43.444  27.594  27.490  1.00  0.00    -0.248 NA
ATOM     37  C   UNL A   1      43.392  25.428  26.617  1.00  0.00     0.031 C 
ATOM     38  C   UNL A   1      39.229  27.058  28.897  1.00  0.00     0.029 A 
ATOM     39  N   UNL A   1      40.959  28.474  28.784  1.00  0.00    -0.354 N 
ATOM     40  C   UNL A   1      44.659  27.315  26.881  1.00  0.00     0.074 A 
ATOM     41  C   UNL A   1      44.584  25.957  26.385  1.00  0.00     0.031 C 
ATOM     42  C   UNL A   1      38.855  28.206  29.488  1.00  0.00     0.029 A 
ATOM     43  C   UNL A   1      39.974  29.145  29.466  1.00  0.00     0.049 A 
ATOM     44  H   UNL A   1      41.834  28.871  28.571  1.00  0.00     0.167 HD
ATOM     45  C   UNL A   1      45.738  28.121  26.740  1.00  0.00     0.037 A 
ATOM     46  C   UNL A   1      39.987  30.372  30.023  1.00  0.00     0.037 A 
ATOM     47  C   UNL A   1      45.811  29.472  27.230  1.00  0.00     0.049 A 
ATOM     48  C   UNL A   1      41.221  31.228  29.904  1.00  0.00     0.074 A 
ATOM     49  C   UNL A   1      46.853  30.375  27.116  1.00  0.00     0.029 A 
ATOM     50  N   UNL A   1      44.803  30.109  27.936  1.00  0.00    -0.354 N 
ATOM     51  N   UNL A   1      42.354  30.968  29.301  1.00  0.00    -0.248 NA
ATOM     52  C   UNL A   1      41.173  32.551  30.544  1.00  0.00     0.031 C 
ATOM     53  C   UNL A   1      46.492  31.546  27.793  1.00  0.00     0.029 A 
ATOM     54  C   UNL A   1      45.207  31.388  28.286  1.00  0.00     0.049 A 
ATOM     55  H   UNL A   1      43.929  29.713  28.156  1.00  0.00     0.167 HD
ATOM     56  C   UNL A   1      43.143  32.100  29.463  1.00  0.00     0.074 A 
ATOM     57  C   UNL A   1      42.355  33.054  30.214  1.00  0.00     0.031 C 
ATOM     58  C   UNL A   1      44.406  32.329  29.027  1.00  0.00     0.037 A 
BRANCH  45  59
ATOM     59  C   UNL A   1      46.939  27.552  26.043  1.00  0.00     0.064 A 
ATOM     60  C   UNL A   1      47.959  26.900  26.750  1.00  0.00     0.173 A 
ATOM     61  C   UNL A   1      47.053  27.635  24.648  1.00  0.00     0.173 A 
ATOM     62  F   UNL A   1      47.902  26.808  28.087  1.00  0.00    -0.203 F 
ATOM     63  C   UNL A   1      49.063  26.371  26.086  1.00  0.00     0.198 A 
ATOM     64  C   UNL A   1      48.146  27.083  23.985  1.00  0.00     0.198 A 
ATOM     65  F   UNL A   1      46.102  28.248  23.925  1.00  0.00    -0.203 F 
ATOM     66  F   UNL A   1      50.048  25.789  26.785  1.00  0.00    -0.200 F 
ATOM     67  C   UNL A   1      49.153  26.457  24.705  1.00  0.00     0.200 A 
ATOM     68  F   UNL A   1      48.226  27.160  22.649  1.00  0.00    -0.200 F 
ATOM     69  F   UNL A   1      50.213  25.944  24.067  1.00  0.00    -0.200 F 
ENDBRANCH  45  59
BRANCH  46  70
ATOM     70  C   UNL A   1      38.790  30.865  30.752  1.00  0.00     0.064 A 
ATOM     71  C   UNL A   1      38.672  30.708  32.139  1.00  0.00     0.173 A 
ATOM     72  C   UNL A   1      37.735  31.491  30.072  1.00  0.00     0.173 A 
ATOM     73  F   UNL A   1      39.643  30.092  32.828  1.00  0.00    -0.203 F 
ATOM     74  C   UNL A   1      37.536  31.147  32.818  1.00  0.00     0.198 A 
ATOM     75  C   UNL A   1      36.612  31.952  30.756  1.00  0.00     0.198 A 
ATOM     76  F   UNL A   1      37.798  31.660  28.743  1.00  0.00    -0.203 F 
ATOM     77  F   UNL A   1      37.429  30.947  34.138  1.00  0.00    -0.200 F 
ATOM     78  C   UNL A   1      36.511  31.774  32.126  1.00  0.00     0.200 A 
ATOM     79  F   UNL A   1      35.626  32.564  30.085  1.00  0.00    -0.200 F 
ATOM     80  F   UNL A   1      35.421  32.197  32.781  1.00  0.00    -0.200 F 
ENDBRANCH  46  70
BRANCH  58  81
ATOM     81  C   UNL A   1      45.005  33.675  29.316  1.00  0.00     0.064 A 
ATOM     82  C   UNL A   1      45.777  33.905  30.463  1.00  0.00     0.173 A 
ATOM     83  C   UNL A   1      44.843  34.732  28.409  1.00  0.00     0.173 A 
ATOM     84  F   UNL A   1      45.950  32.929  31.368  1.00  0.00    -0.203 F 
ATOM     85  C   UNL A   1      46.349  35.152  30.703  1.00  0.00     0.198 A 
ATOM     86  C   UNL A   1      45.438  35.970  28.638  1.00  0.00     0.198 A 
ATOM     87  F   UNL A   1      44.119  34.561  27.293  1.00  0.00    -0.203 F 
ATOM     88  F   UNL A   1      47.050  35.361  31.826  1.00  0.00    -0.200 F 
ATOM     89  C   UNL A   1      46.185  36.180  29.787  1.00  0.00     0.200 A 
ATOM     90  F   UNL A   1      45.289  36.959  27.745  1.00  0.00    -0.200 F 
ATOM     91  F   UNL A   1      46.743  37.377  30.015  1.00  0.00    -0.200 F 
ENDBRANCH  58  81
ENDBRANCH  32  33
ENDBRANCH  25  27
ENDBRANCH  24  25
ENDBRANCH  23  24
ENDBRANCH  22  23
ENDBRANCH   1  22
TORSDOF 16
ENDMDL
