MODEL 1
REMARK VINA RESULT:      -9.8      0.000      0.000
REMARK SMILES CCNC(=O)C[NH2+][C@@H](C)[C@@H](C)C(=O)OCCOCCOC(=O)c1ccc(-c2c3nc(c(-c4c(F)c(F)c(F)c(F)c4F)c4ccc([nH]4)c(-c4c(F)c(F)c(F)c(F)c4F)c4nc(c(-c5c(F)c(F)c(F)c(F)c5F)c5ccc2[nH]5)C=C4)C=C3)cc1
REMARK SMILES IDX 15 1 14 2 12 3 13 4 10 5 11 6 8 7 9 8 7 9 6 12 4 13 3 14
REMARK SMILES IDX 5 16 2 17 1 18 16 19 17 20 18 21 19 22 20 23 21 24 22 25
REMARK SMILES IDX 23 26 24 27 85 28 25 29 84 30 26 31 27 32 28 33 78 34 29 35
REMARK SMILES IDX 83 36 77 37 79 38 30 39 82 40 76 41 75 42 31 44 63 45 43 46
REMARK SMILES IDX 62 47 44 48 47 49 61 50 80 51 45 52 46 53 60 55 81 56 48 57
REMARK SMILES IDX 32 58 33 59 41 60 34 61 35 62 39 63 42 64 36 65 37 66 40 67
REMARK SMILES IDX 38 68 64 69 65 70 73 71 66 72 67 73 71 74 74 75 68 76 69 77
REMARK SMILES IDX 72 78 70 79 49 80 50 81 58 82 51 83 52 84 56 85 59 86 53 87
REMARK SMILES IDX 54 88 57 89 55 90
REMARK H PARENT 7 10 7 11 3 15 79 43 47 54
REMARK Flexibility Score: inf
ROOT
ATOM      1  C   UNL A   1      33.447  26.925  23.706  1.00  0.00     0.261 C 
ENDROOT
BRANCH   1   2
ATOM      2  O   UNL A   1      32.308  26.232  23.152  1.00  0.00    -0.463 OA
BRANCH   2   3
ATOM      3  C   UNL A   1      32.606  25.090  22.480  1.00  0.00     0.314 C 
ATOM      4  O   UNL A   1      33.365  25.030  21.519  1.00  0.00    -0.252 OA
BRANCH   3   5
ATOM      5  C   UNL A   1      31.832  23.870  22.952  1.00  0.00     0.154 C 
ATOM      6  C   UNL A   1      30.713  24.386  23.864  1.00  0.00     0.026 C 
BRANCH   5   7
ATOM      7  C   UNL A   1      32.619  22.701  23.602  1.00  0.00     0.193 C 
ATOM      8  C   UNL A   1      32.540  22.705  25.127  1.00  0.00     0.076 C 
BRANCH   7   9
ATOM      9  N   UNL A   1      34.025  22.804  23.154  1.00  0.00    -0.336 N 
ATOM     10  H   UNL A   1      34.204  22.054  22.487  1.00  0.00     0.346 HD
ATOM     11  H   UNL A   1      34.133  23.733  22.746  1.00  0.00     0.346 HD
BRANCH   9  12
ATOM     12  C   UNL A   1      35.016  22.703  24.237  1.00  0.00     0.362 C 
BRANCH  12  13
ATOM     13  C   UNL A   1      36.413  23.042  23.710  1.00  0.00     0.275 C 
ATOM     14  N   UNL A   1      37.342  23.571  24.560  1.00  0.00    -0.351 N 
ATOM     15  H   UNL A   1      38.179  23.883  24.145  1.00  0.00     0.163 HD
ATOM     16  O   UNL A   1      36.714  22.868  22.527  1.00  0.00    -0.269 OA
BRANCH  14  17
ATOM     17  C   UNL A   1      37.246  23.730  25.997  1.00  0.00     0.112 C 
ATOM     18  C   UNL A   1      38.565  24.217  26.570  1.00  0.00     0.027 C 
ENDBRANCH  14  17
ENDBRANCH  12  13
ENDBRANCH   9  12
ENDBRANCH   7   9
ENDBRANCH   5   7
ENDBRANCH   3   5
ENDBRANCH   2   3
ENDBRANCH   1   2
BRANCH   1  19
ATOM     19  C   UNL A   1      33.327  28.452  23.675  1.00  0.00     0.202 C 
BRANCH  19  20
ATOM     20  O   UNL A   1      33.043  29.110  24.907  1.00  0.00    -0.374 OA
BRANCH  20  21
ATOM     21  C   UNL A   1      31.771  29.738  25.040  1.00  0.00     0.202 C 
BRANCH  21  22
ATOM     22  C   UNL A   1      31.670  30.813  26.133  1.00  0.00     0.261 C 
BRANCH  22  23
ATOM     23  O   UNL A   1      32.630  30.597  27.186  1.00  0.00    -0.460 OA
BRANCH  23  24
ATOM     24  C   UNL A   1      33.434  31.655  27.433  1.00  0.00     0.338 C 
ATOM     25  O   UNL A   1      33.102  32.830  27.529  1.00  0.00    -0.246 OA
BRANCH  24  26
ATOM     26  C   UNL A   1      34.801  31.213  27.766  1.00  0.00     0.060 A 
ATOM     27  C   UNL A   1      34.981  29.842  27.983  1.00  0.00     0.016 A 
ATOM     28  C   UNL A   1      35.845  32.112  28.000  1.00  0.00     0.016 A 
ATOM     29  C   UNL A   1      36.166  29.376  28.543  1.00  0.00     0.010 A 
ATOM     30  C   UNL A   1      37.042  31.638  28.561  1.00  0.00     0.010 A 
ATOM     31  C   UNL A   1      37.177  30.279  28.901  1.00  0.00    -0.014 A 
BRANCH  31  32
ATOM     32  C   UNL A   1      38.230  29.802  29.838  1.00  0.00     0.031 A 
ATOM     33  C   UNL A   1      39.279  28.851  29.321  1.00  0.00     0.074 A 
ATOM     34  C   UNL A   1      38.342  30.306  31.079  1.00  0.00     0.049 A 
ATOM     35  N   UNL A   1      40.386  28.440  29.890  1.00  0.00    -0.248 NA
ATOM     36  C   UNL A   1      39.057  28.297  27.977  1.00  0.00     0.031 C 
ATOM     37  C   UNL A   1      37.421  31.261  31.688  1.00  0.00     0.029 A 
ATOM     38  N   UNL A   1      39.307  30.106  32.036  1.00  0.00    -0.354 N 
ATOM     39  C   UNL A   1      40.988  27.587  28.972  1.00  0.00     0.074 A 
ATOM     40  C   UNL A   1      40.104  27.502  27.831  1.00  0.00     0.031 C 
ATOM     41  C   UNL A   1      37.881  31.589  32.908  1.00  0.00     0.029 A 
ATOM     42  C   UNL A   1      39.121  30.858  33.169  1.00  0.00     0.049 A 
ATOM     43  H   UNL A   1      40.059  29.481  31.921  1.00  0.00     0.167 HD
ATOM     44  C   UNL A   1      42.179  26.948  29.057  1.00  0.00     0.037 A 
ATOM     45  C   UNL A   1      39.877  30.961  34.280  1.00  0.00     0.037 A 
ATOM     46  C   UNL A   1      43.070  27.033  30.184  1.00  0.00     0.049 A 
ATOM     47  C   UNL A   1      41.171  30.196  34.377  1.00  0.00     0.074 A 
ATOM     48  C   UNL A   1      44.307  26.437  30.356  1.00  0.00     0.029 A 
ATOM     49  N   UNL A   1      42.811  27.755  31.340  1.00  0.00    -0.354 N 
ATOM     50  N   UNL A   1      41.753  29.430  33.487  1.00  0.00    -0.248 NA
ATOM     51  C   UNL A   1      41.921  30.325  35.636  1.00  0.00     0.031 C 
ATOM     52  C   UNL A   1      44.776  26.761  31.635  1.00  0.00     0.029 A 
ATOM     53  C   UNL A   1      43.854  27.600  32.239  1.00  0.00     0.049 A 
ATOM     54  H   UNL A   1      42.005  28.299  31.497  1.00  0.00     0.167 HD
ATOM     55  C   UNL A   1      42.951  29.019  34.059  1.00  0.00     0.074 A 
ATOM     56  C   UNL A   1      43.015  29.625  35.373  1.00  0.00     0.031 C 
ATOM     57  C   UNL A   1      43.914  28.218  33.538  1.00  0.00     0.037 A 
BRANCH  44  58
ATOM     58  C   UNL A   1      42.573  26.078  27.899  1.00  0.00     0.064 A 
ATOM     59  C   UNL A   1      42.125  24.753  27.785  1.00  0.00     0.173 A 
ATOM     60  C   UNL A   1      43.415  26.576  26.893  1.00  0.00     0.173 A 
ATOM     61  F   UNL A   1      41.332  24.225  28.729  1.00  0.00    -0.203 F 
ATOM     62  C   UNL A   1      42.538  23.946  26.727  1.00  0.00     0.198 A 
ATOM     63  C   UNL A   1      43.801  25.776  25.821  1.00  0.00     0.198 A 
ATOM     64  F   UNL A   1      43.868  27.837  26.953  1.00  0.00    -0.203 F 
ATOM     65  F   UNL A   1      42.147  22.665  26.671  1.00  0.00    -0.200 F 
ATOM     66  C   UNL A   1      43.371  24.459  25.744  1.00  0.00     0.200 A 
ATOM     67  F   UNL A   1      44.598  26.276  24.868  1.00  0.00    -0.200 F 
ATOM     68  F   UNL A   1      43.771  23.681  24.729  1.00  0.00    -0.200 F 
ENDBRANCH  44  58
BRANCH  45  69
ATOM     69  C   UNL A   1      39.452  31.862  35.382  1.00  0.00     0.064 A 
ATOM     70  C   UNL A   1      38.571  31.420  36.377  1.00  0.00     0.173 A 
ATOM     71  C   UNL A   1      39.910  33.186  35.455  1.00  0.00     0.173 A 
ATOM     72  F   UNL A   1      38.085  30.170  36.334  1.00  0.00    -0.203 F 
ATOM     73  C   UNL A   1      38.153  32.270  37.399  1.00  0.00     0.198 A 
ATOM     74  C   UNL A   1      39.511  34.028  36.491  1.00  0.00     0.198 A 
ATOM     75  F   UNL A   1      40.751  33.657  34.524  1.00  0.00    -0.203 F 
ATOM     76  F   UNL A   1      37.280  31.833  38.317  1.00  0.00    -0.200 F 
ATOM     77  C   UNL A   1      38.629  33.571  37.459  1.00  0.00     0.200 A 
ATOM     78  F   UNL A   1      39.979  35.281  36.549  1.00  0.00    -0.200 F 
ATOM     79  F   UNL A   1      38.231  34.388  38.444  1.00  0.00    -0.200 F 
ENDBRANCH  45  69
BRANCH  57  80
ATOM     80  C   UNL A   1      45.145  27.987  34.368  1.00  0.00     0.064 A 
ATOM     81  C   UNL A   1      45.228  26.938  35.294  1.00  0.00     0.173 A 
ATOM     82  C   UNL A   1      46.268  28.814  34.212  1.00  0.00     0.173 A 
ATOM     83  F   UNL A   1      44.178  26.127  35.492  1.00  0.00    -0.203 F 
ATOM     84  C   UNL A   1      46.379  26.744  36.056  1.00  0.00     0.198 A 
ATOM     85  C   UNL A   1      47.428  28.599  34.953  1.00  0.00     0.198 A 
ATOM     86  F   UNL A   1      46.246  29.828  33.333  1.00  0.00    -0.203 F 
ATOM     87  F   UNL A   1      46.416  25.766  36.972  1.00  0.00    -0.200 F 
ATOM     88  C   UNL A   1      47.478  27.570  35.880  1.00  0.00     0.200 A 
ATOM     89  F   UNL A   1      48.494  29.392  34.772  1.00  0.00    -0.200 F 
ATOM     90  F   UNL A   1      48.584  27.381  36.612  1.00  0.00    -0.200 F 
ENDBRANCH  57  80
ENDBRANCH  31  32
ENDBRANCH  24  26
ENDBRANCH  23  24
ENDBRANCH  22  23
ENDBRANCH  21  22
ENDBRANCH  20  21
ENDBRANCH  19  20
ENDBRANCH   1  19
TORSDOF 19
ENDMDL
MODEL 2
REMARK VINA RESULT:      -9.6      4.523      9.833
REMARK SMILES CCNC(=O)C[NH2+][C@@H](C)[C@@H](C)C(=O)OCCOCCOC(=O)c1ccc(-c2c3nc(c(-c4c(F)c(F)c(F)c(F)c4F)c4ccc([nH]4)c(-c4c(F)c(F)c(F)c(F)c4F)c4nc(c(-c5c(F)c(F)c(F)c(F)c5F)c5ccc2[nH]5)C=C4)C=C3)cc1
REMARK SMILES IDX 15 1 14 2 12 3 13 4 10 5 11 6 8 7 9 8 7 9 6 12 4 13 3 14
REMARK SMILES IDX 5 16 2 17 1 18 16 19 17 20 18 21 19 22 20 23 21 24 22 25
REMARK SMILES IDX 23 26 24 27 85 28 25 29 84 30 26 31 27 32 28 33 78 34 29 35
REMARK SMILES IDX 83 36 77 37 79 38 30 39 82 40 76 41 75 42 31 44 63 45 43 46
REMARK SMILES IDX 62 47 44 48 47 49 61 50 80 51 45 52 46 53 60 55 81 56 48 57
REMARK SMILES IDX 32 58 33 59 41 60 34 61 35 62 39 63 42 64 36 65 37 66 40 67
REMARK SMILES IDX 38 68 64 69 65 70 73 71 66 72 67 73 71 74 74 75 68 76 69 77
REMARK SMILES IDX 72 78 70 79 49 80 50 81 58 82 51 83 52 84 56 85 59 86 53 87
REMARK SMILES IDX 54 88 57 89 55 90
REMARK H PARENT 7 10 7 11 3 15 79 43 47 54
REMARK Flexibility Score: inf
ROOT
ATOM      1  C   UNL A   1      35.867  23.364  24.700  1.00  0.00     0.261 C 
ENDROOT
BRANCH   1   2
ATOM      2  O   UNL A   1      34.438  23.549  24.778  1.00  0.00    -0.463 OA
BRANCH   2   3
ATOM      3  C   UNL A   1      33.842  23.897  23.607  1.00  0.00     0.314 C 
ATOM      4  O   UNL A   1      34.182  24.852  22.916  1.00  0.00    -0.252 OA
BRANCH   3   5
ATOM      5  C   UNL A   1      32.626  23.058  23.254  1.00  0.00     0.154 C 
ATOM      6  C   UNL A   1      31.547  23.391  24.290  1.00  0.00     0.026 C 
BRANCH   5   7
ATOM      7  C   UNL A   1      32.810  21.527  23.078  1.00  0.00     0.193 C 
ATOM      8  C   UNL A   1      31.879  20.934  22.022  1.00  0.00     0.076 C 
BRANCH   7   9
ATOM      9  N   UNL A   1      32.577  20.893  24.393  1.00  0.00    -0.336 N 
ATOM     10  H   UNL A   1      32.632  21.615  25.110  1.00  0.00     0.346 HD
ATOM     11  H   UNL A   1      31.659  20.451  24.345  1.00  0.00     0.346 HD
BRANCH   9  12
ATOM     12  C   UNL A   1      33.538  19.831  24.734  1.00  0.00     0.362 C 
BRANCH  12  13
ATOM     13  C   UNL A   1      32.794  18.567  25.175  1.00  0.00     0.275 C 
ATOM     14  N   UNL A   1      32.533  17.587  24.261  1.00  0.00    -0.351 N 
ATOM     15  H   UNL A   1      31.949  16.855  24.566  1.00  0.00     0.163 HD
ATOM     16  O   UNL A   1      32.407  18.422  26.336  1.00  0.00    -0.269 OA
BRANCH  14  17
ATOM     17  C   UNL A   1      33.010  17.493  22.895  1.00  0.00     0.112 C 
ATOM     18  C   UNL A   1      34.261  16.637  22.823  1.00  0.00     0.027 C 
ENDBRANCH  14  17
ENDBRANCH  12  13
ENDBRANCH   9  12
ENDBRANCH   7   9
ENDBRANCH   5   7
ENDBRANCH   3   5
ENDBRANCH   2   3
ENDBRANCH   1   2
BRANCH   1  19
ATOM     19  C   UNL A   1      36.367  22.065  25.340  1.00  0.00     0.202 C 
BRANCH  19  20
ATOM     20  O   UNL A   1      37.423  21.375  24.677  1.00  0.00    -0.374 OA
BRANCH  20  21
ATOM     21  C   UNL A   1      37.553  19.977  24.922  1.00  0.00     0.202 C 
BRANCH  21  22
ATOM     22  C   UNL A   1      38.895  19.526  25.516  1.00  0.00     0.261 C 
BRANCH  22  23
ATOM     23  O   UNL A   1      39.802  20.633  25.690  1.00  0.00    -0.460 OA
BRANCH  23  24
ATOM     24  C   UNL A   1      40.501  20.605  26.847  1.00  0.00     0.338 C 
ATOM     25  O   UNL A   1      41.037  19.632  27.364  1.00  0.00    -0.246 OA
BRANCH  24  26
ATOM     26  C   UNL A   1      40.713  21.967  27.369  1.00  0.00     0.060 A 
ATOM     27  C   UNL A   1      39.998  22.996  26.746  1.00  0.00     0.016 A 
ATOM     28  C   UNL A   1      41.680  22.260  28.335  1.00  0.00     0.016 A 
ATOM     29  C   UNL A   1      40.324  24.324  27.001  1.00  0.00     0.010 A 
ATOM     30  C   UNL A   1      42.004  23.601  28.594  1.00  0.00     0.010 A 
ATOM     31  C   UNL A   1      41.376  24.634  27.873  1.00  0.00    -0.014 A 
BRANCH  31  32
ATOM     32  C   UNL A   1      41.942  26.009  27.812  1.00  0.00     0.031 A 
ATOM     33  C   UNL A   1      41.231  27.116  28.547  1.00  0.00     0.074 A 
ATOM     34  C   UNL A   1      43.135  26.250  27.240  1.00  0.00     0.049 A 
ATOM     35  N   UNL A   1      41.620  28.344  28.786  1.00  0.00    -0.248 NA
ATOM     36  C   UNL A   1      39.905  26.792  29.096  1.00  0.00     0.031 C 
ATOM     37  C   UNL A   1      43.946  25.263  26.533  1.00  0.00     0.029 A 
ATOM     38  N   UNL A   1      43.886  27.399  27.198  1.00  0.00    -0.354 N 
ATOM     39  C   UNL A   1      40.592  28.931  29.514  1.00  0.00     0.074 A 
ATOM     40  C   UNL A   1      39.543  27.944  29.637  1.00  0.00     0.031 C 
ATOM     41  C   UNL A   1      45.098  25.841  26.152  1.00  0.00     0.029 A 
ATOM     42  C   UNL A   1      45.099  27.240  26.578  1.00  0.00     0.049 A 
ATOM     43  H   UNL A   1      43.581  28.256  27.575  1.00  0.00     0.167 HD
ATOM     44  C   UNL A   1      40.531  30.173  30.053  1.00  0.00     0.037 A 
ATOM     45  C   UNL A   1      46.105  28.119  26.394  1.00  0.00     0.037 A 
ATOM     46  C   UNL A   1      41.572  31.160  29.943  1.00  0.00     0.049 A 
ATOM     47  C   UNL A   1      45.992  29.513  26.952  1.00  0.00     0.074 A 
ATOM     48  C   UNL A   1      41.610  32.439  30.470  1.00  0.00     0.029 A 
ATOM     49  N   UNL A   1      42.758  30.979  29.248  1.00  0.00    -0.354 N 
ATOM     50  N   UNL A   1      45.037  30.044  27.677  1.00  0.00    -0.248 NA
ATOM     51  C   UNL A   1      47.110  30.428  26.675  1.00  0.00     0.031 C 
ATOM     52  C   UNL A   1      42.800  33.049  30.055  1.00  0.00     0.029 A 
ATOM     53  C   UNL A   1      43.525  32.132  29.312  1.00  0.00     0.049 A 
ATOM     54  H   UNL A   1      43.018  30.153  28.780  1.00  0.00     0.167 HD
ATOM     55  C   UNL A   1      45.454  31.335  27.976  1.00  0.00     0.074 A 
ATOM     56  C   UNL A   1      46.752  31.507  27.356  1.00  0.00     0.031 C 
ATOM     57  C   UNL A   1      44.822  32.289  28.704  1.00  0.00     0.037 A 
BRANCH  44  58
ATOM     58  C   UNL A   1      39.275  30.537  30.791  1.00  0.00     0.064 A 
ATOM     59  C   UNL A   1      39.144  30.329  32.173  1.00  0.00     0.173 A 
ATOM     60  C   UNL A   1      38.186  31.093  30.104  1.00  0.00     0.173 A 
ATOM     61  F   UNL A   1      40.151  29.784  32.872  1.00  0.00    -0.203 F 
ATOM     62  C   UNL A   1      37.955  30.631  32.832  1.00  0.00     0.198 A 
ATOM     63  C   UNL A   1      37.010  31.421  30.772  1.00  0.00     0.198 A 
ATOM     64  F   UNL A   1      38.262  31.315  28.783  1.00  0.00    -0.203 F 
ATOM     65  F   UNL A   1      37.830  30.368  34.140  1.00  0.00    -0.200 F 
ATOM     66  C   UNL A   1      36.891  31.180  32.133  1.00  0.00     0.200 A 
ATOM     67  F   UNL A   1      35.986  31.960  30.096  1.00  0.00    -0.200 F 
ATOM     68  F   UNL A   1      35.745  31.465  32.767  1.00  0.00    -0.200 F 
ENDBRANCH  44  58
BRANCH  45  69
ATOM     69  C   UNL A   1      47.337  27.692  25.681  1.00  0.00     0.064 A 
ATOM     70  C   UNL A   1      47.424  27.763  24.284  1.00  0.00     0.173 A 
ATOM     71  C   UNL A   1      48.446  27.196  26.381  1.00  0.00     0.173 A 
ATOM     72  F   UNL A   1      46.378  28.205  23.570  1.00  0.00    -0.203 F 
ATOM     73  C   UNL A   1      48.569  27.343  23.612  1.00  0.00     0.198 A 
ATOM     74  C   UNL A   1      49.601  26.799  25.709  1.00  0.00     0.198 A 
ATOM     75  F   UNL A   1      48.410  27.105  27.718  1.00  0.00    -0.203 F 
ATOM     76  F   UNL A   1      48.612  27.386  22.274  1.00  0.00    -0.200 F 
ATOM     77  C   UNL A   1      49.659  26.868  24.325  1.00  0.00     0.200 A 
ATOM     78  F   UNL A   1      50.654  26.349  26.403  1.00  0.00    -0.200 F 
ATOM     79  F   UNL A   1      50.764  26.468  23.680  1.00  0.00    -0.200 F 
ENDBRANCH  45  69
BRANCH  57  80
ATOM     80  C   UNL A   1      45.543  33.589  28.916  1.00  0.00     0.064 A 
ATOM     81  C   UNL A   1      46.420  33.783  29.992  1.00  0.00     0.173 A 
ATOM     82  C   UNL A   1      45.373  34.647  28.010  1.00  0.00     0.173 A 
ATOM     83  F   UNL A   1      46.609  32.808  30.893  1.00  0.00    -0.203 F 
ATOM     84  C   UNL A   1      47.077  34.998  30.170  1.00  0.00     0.198 A 
ATOM     85  C   UNL A   1      46.054  35.851  28.174  1.00  0.00     0.198 A 
ATOM     86  F   UNL A   1      44.551  34.512  26.957  1.00  0.00    -0.203 F 
ATOM     87  F   UNL A   1      47.872  35.178  31.235  1.00  0.00    -0.200 F 
ATOM     88  C   UNL A   1      46.898  36.028  29.259  1.00  0.00     0.200 A 
ATOM     89  F   UNL A   1      45.888  36.840  27.285  1.00  0.00    -0.200 F 
ATOM     90  F   UNL A   1      47.532  37.195  29.432  1.00  0.00    -0.200 F 
ENDBRANCH  57  80
ENDBRANCH  31  32
ENDBRANCH  24  26
ENDBRANCH  23  24
ENDBRANCH  22  23
ENDBRANCH  21  22
ENDBRANCH  20  21
ENDBRANCH  19  20
ENDBRANCH   1  19
TORSDOF 19
ENDMDL
MODEL 3
REMARK VINA RESULT:      -9.4      1.512      2.846
REMARK SMILES CCNC(=O)C[NH2+][C@@H](C)[C@@H](C)C(=O)OCCOCCOC(=O)c1ccc(-c2c3nc(c(-c4c(F)c(F)c(F)c(F)c4F)c4ccc([nH]4)c(-c4c(F)c(F)c(F)c(F)c4F)c4nc(c(-c5c(F)c(F)c(F)c(F)c5F)c5ccc2[nH]5)C=C4)C=C3)cc1
REMARK SMILES IDX 15 1 14 2 12 3 13 4 10 5 11 6 8 7 9 8 7 9 6 12 4 13 3 14
REMARK SMILES IDX 5 16 2 17 1 18 16 19 17 20 18 21 19 22 20 23 21 24 22 25
REMARK SMILES IDX 23 26 24 27 85 28 25 29 84 30 26 31 27 32 28 33 78 34 29 35
REMARK SMILES IDX 83 36 77 37 79 38 30 39 82 40 76 41 75 42 31 44 63 45 43 46
REMARK SMILES IDX 62 47 44 48 47 49 61 50 80 51 45 52 46 53 60 55 81 56 48 57
REMARK SMILES IDX 32 58 33 59 41 60 34 61 35 62 39 63 42 64 36 65 37 66 40 67
REMARK SMILES IDX 38 68 64 69 65 70 73 71 66 72 67 73 71 74 74 75 68 76 69 77
REMARK SMILES IDX 72 78 70 79 49 80 50 81 58 82 51 83 52 84 56 85 59 86 53 87
REMARK SMILES IDX 54 88 57 89 55 90
REMARK H PARENT 7 10 7 11 3 15 79 43 47 54
REMARK Flexibility Score: inf
ROOT
ATOM      1  C   UNL A   1      32.883  25.918  25.508  1.00  0.00     0.261 C 
ENDROOT
BRANCH   1   2
ATOM      2  O   UNL A   1      32.677  25.372  24.188  1.00  0.00    -0.463 OA
BRANCH   2   3
ATOM      3  C   UNL A   1      33.779  24.812  23.624  1.00  0.00     0.314 C 
ATOM      4  O   UNL A   1      34.064  24.892  22.434  1.00  0.00    -0.252 OA
BRANCH   3   5
ATOM      5  C   UNL A   1      34.606  23.969  24.579  1.00  0.00     0.154 C 
ATOM      6  C   UNL A   1      35.897  23.604  23.838  1.00  0.00     0.026 C 
BRANCH   5   7
ATOM      7  C   UNL A   1      33.942  22.728  25.235  1.00  0.00     0.193 C 
ATOM      8  C   UNL A   1      34.534  22.390  26.602  1.00  0.00     0.076 C 
BRANCH   7   9
ATOM      9  N   UNL A   1      34.099  21.591  24.303  1.00  0.00    -0.336 N 
ATOM     10  H   UNL A   1      33.293  21.574  23.680  1.00  0.00     0.346 HD
ATOM     11  H   UNL A   1      34.980  21.738  23.810  1.00  0.00     0.346 HD
BRANCH   9  12
ATOM     12  C   UNL A   1      34.200  20.278  24.961  1.00  0.00     0.362 C 
BRANCH  12  13
ATOM     13  C   UNL A   1      32.837  19.580  24.961  1.00  0.00     0.275 C 
ATOM     14  N   UNL A   1      32.766  18.241  24.704  1.00  0.00    -0.351 N 
ATOM     15  H   UNL A   1      31.861  17.868  24.595  1.00  0.00     0.163 HD
ATOM     16  O   UNL A   1      31.795  20.206  25.170  1.00  0.00    -0.269 OA
BRANCH  14  17
ATOM     17  C   UNL A   1      33.862  17.302  24.567  1.00  0.00     0.112 C 
ATOM     18  C   UNL A   1      34.088  16.953  23.107  1.00  0.00     0.027 C 
ENDBRANCH  14  17
ENDBRANCH  12  13
ENDBRANCH   9  12
ENDBRANCH   7   9
ENDBRANCH   5   7
ENDBRANCH   3   5
ENDBRANCH   2   3
ENDBRANCH   1   2
BRANCH   1  19
ATOM     19  C   UNL A   1      31.603  26.422  26.184  1.00  0.00     0.202 C 
BRANCH  19  20
ATOM     20  O   UNL A   1      31.524  27.816  26.472  1.00  0.00    -0.374 OA
BRANCH  20  21
ATOM     21  C   UNL A   1      31.505  28.717  25.368  1.00  0.00     0.202 C 
BRANCH  21  22
ATOM     22  C   UNL A   1      31.998  30.141  25.663  1.00  0.00     0.261 C 
BRANCH  22  23
ATOM     23  O   UNL A   1      32.449  30.281  27.025  1.00  0.00    -0.460 OA
BRANCH  23  24
ATOM     24  C   UNL A   1      33.150  31.411  27.267  1.00  0.00     0.338 C 
ATOM     25  O   UNL A   1      32.714  32.554  27.328  1.00  0.00    -0.246 OA
BRANCH  24  26
ATOM     26  C   UNL A   1      34.542  31.098  27.643  1.00  0.00     0.060 A 
ATOM     27  C   UNL A   1      34.886  29.743  27.704  1.00  0.00     0.016 A 
ATOM     28  C   UNL A   1      35.445  32.079  28.062  1.00  0.00     0.016 A 
ATOM     29  C   UNL A   1      36.087  29.355  28.288  1.00  0.00     0.010 A 
ATOM     30  C   UNL A   1      36.659  31.685  28.647  1.00  0.00     0.010 A 
ATOM     31  C   UNL A   1      36.949  30.320  28.827  1.00  0.00    -0.014 A 
BRANCH  31  32
ATOM     32  C   UNL A   1      38.000  29.856  29.774  1.00  0.00     0.031 A 
ATOM     33  C   UNL A   1      39.070  28.925  29.265  1.00  0.00     0.074 A 
ATOM     34  C   UNL A   1      38.090  30.356  31.019  1.00  0.00     0.049 A 
ATOM     35  N   UNL A   1      40.178  28.530  29.844  1.00  0.00    -0.248 NA
ATOM     36  C   UNL A   1      38.872  28.374  27.915  1.00  0.00     0.031 C 
ATOM     37  C   UNL A   1      37.146  31.292  31.622  1.00  0.00     0.029 A 
ATOM     38  N   UNL A   1      39.047  30.168  31.985  1.00  0.00    -0.354 N 
ATOM     39  C   UNL A   1      40.804  27.692  28.929  1.00  0.00     0.074 A 
ATOM     40  C   UNL A   1      39.935  27.598  27.778  1.00  0.00     0.031 C 
ATOM     41  C   UNL A   1      37.586  31.622  32.849  1.00  0.00     0.029 A 
ATOM     42  C   UNL A   1      38.836  30.911  33.119  1.00  0.00     0.049 A 
ATOM     43  H   UNL A   1      39.810  29.555  31.876  1.00  0.00     0.167 HD
ATOM     44  C   UNL A   1      42.005  27.073  29.025  1.00  0.00     0.037 A 
ATOM     45  C   UNL A   1      39.577  31.021  34.239  1.00  0.00     0.037 A 
ATOM     46  C   UNL A   1      42.881  27.167  30.162  1.00  0.00     0.049 A 
ATOM     47  C   UNL A   1      40.883  30.277  34.348  1.00  0.00     0.074 A 
ATOM     48  C   UNL A   1      44.126  26.591  30.344  1.00  0.00     0.029 A 
ATOM     49  N   UNL A   1      42.597  27.879  31.318  1.00  0.00    -0.354 N 
ATOM     50  N   UNL A   1      41.488  29.525  33.461  1.00  0.00    -0.248 NA
ATOM     51  C   UNL A   1      41.617  30.413  35.616  1.00  0.00     0.031 C 
ATOM     52  C   UNL A   1      44.575  26.916  31.630  1.00  0.00     0.029 A 
ATOM     53  C   UNL A   1      43.632  27.737  32.228  1.00  0.00     0.049 A 
ATOM     54  H   UNL A   1      41.781  28.408  31.468  1.00  0.00     0.167 HD
ATOM     55  C   UNL A   1      42.686  29.132  34.045  1.00  0.00     0.074 A 
ATOM     56  C   UNL A   1      42.724  29.732  35.362  1.00  0.00     0.031 C 
ATOM     57  C   UNL A   1      43.668  28.350  33.531  1.00  0.00     0.037 A 
BRANCH  44  58
ATOM     58  C   UNL A   1      42.426  26.214  27.867  1.00  0.00     0.064 A 
ATOM     59  C   UNL A   1      43.308  26.683  26.882  1.00  0.00     0.173 A 
ATOM     60  C   UNL A   1      41.932  24.907  27.739  1.00  0.00     0.173 A 
ATOM     61  F   UNL A   1      43.793  27.932  26.949  1.00  0.00    -0.203 F 
ATOM     62  C   UNL A   1      43.650  25.888  25.790  1.00  0.00     0.198 A 
ATOM     63  C   UNL A   1      42.301  24.105  26.663  1.00  0.00     0.198 A 
ATOM     64  F   UNL A   1      41.089  24.410  28.656  1.00  0.00    -0.203 F 
ATOM     65  F   UNL A   1      44.446  26.378  24.829  1.00  0.00    -0.200 F 
ATOM     66  C   UNL A   1      43.151  24.599  25.684  1.00  0.00     0.200 A 
ATOM     67  F   UNL A   1      41.825  22.856  26.567  1.00  0.00    -0.200 F 
ATOM     68  F   UNL A   1      43.477  23.836  24.632  1.00  0.00    -0.200 F 
ENDBRANCH  44  58
BRANCH  45  69
ATOM     69  C   UNL A   1      39.125  31.910  35.341  1.00  0.00     0.064 A 
ATOM     70  C   UNL A   1      39.434  33.276  35.339  1.00  0.00     0.173 A 
ATOM     71  C   UNL A   1      38.383  31.408  36.420  1.00  0.00     0.173 A 
ATOM     72  F   UNL A   1      40.165  33.796  34.341  1.00  0.00    -0.203 F 
ATOM     73  C   UNL A   1      39.030  34.108  36.381  1.00  0.00     0.198 A 
ATOM     74  C   UNL A   1      37.958  32.246  37.450  1.00  0.00     0.198 A 
ATOM     75  F   UNL A   1      38.065  30.107  36.469  1.00  0.00    -0.203 F 
ATOM     76  F   UNL A   1      39.372  35.402  36.374  1.00  0.00    -0.200 F 
ATOM     77  C   UNL A   1      38.286  33.593  37.433  1.00  0.00     0.200 A 
ATOM     78  F   UNL A   1      37.233  31.745  38.459  1.00  0.00    -0.200 F 
ATOM     79  F   UNL A   1      37.893  34.393  38.433  1.00  0.00    -0.200 F 
ENDBRANCH  45  69
BRANCH  57  80
ATOM     80  C   UNL A   1      44.893  28.136  34.374  1.00  0.00     0.064 A 
ATOM     81  C   UNL A   1      46.012  28.975  34.281  1.00  0.00     0.173 A 
ATOM     82  C   UNL A   1      44.935  27.089  35.308  1.00  0.00     0.173 A 
ATOM     83  F   UNL A   1      46.029  29.982  33.395  1.00  0.00    -0.203 F 
ATOM     84  C   UNL A   1      47.139  28.757  35.070  1.00  0.00     0.198 A 
ATOM     85  C   UNL A   1      46.051  26.892  36.117  1.00  0.00     0.198 A 
ATOM     86  F   UNL A   1      43.887  26.261  35.444  1.00  0.00    -0.203 F 
ATOM     87  F   UNL A   1      48.217  29.542  34.927  1.00  0.00    -0.200 F 
ATOM     88  C   UNL A   1      47.155  27.720  35.991  1.00  0.00     0.200 A 
ATOM     89  F   UNL A   1      46.059  25.896  37.014  1.00  0.00    -0.200 F 
ATOM     90  F   UNL A   1      48.239  27.513  36.750  1.00  0.00    -0.200 F 
ENDBRANCH  57  80
ENDBRANCH  31  32
ENDBRANCH  24  26
ENDBRANCH  23  24
ENDBRANCH  22  23
ENDBRANCH  21  22
ENDBRANCH  20  21
ENDBRANCH  19  20
ENDBRANCH   1  19
TORSDOF 19
ENDMDL
