MODEL 1
REMARK VINA RESULT:     -11.6      0.000      0.000
REMARK SMILES [NH3+]C1CC[NH+](CC(=O)Nc2cc(Cl)ccc2C(=O)OCCOCCOC(=O)c2ccc(-c3c4nc(c(-c5c(F)c(F)c(F)c(F)c5F)c5ccc([nH]5)c(-c5c(F)c(F)c(F)c(F)c5F)c5nc(c(-c6c(F)c(F)c(F)c(F)c6F)c6ccc3[nH]6)C=C5)C=C4)cc2)CC1
REMARK SMILES IDX 21 1 20 2 19 3 17 4 18 5 16 6 10 7 11 8 12 9 15 10 13 11
REMARK SMILES IDX 14 12 9 13 7 14 8 15 6 17 5 18 2 19 3 20 92 21 4 22 91 23
REMARK SMILES IDX 1 25 22 29 23 30 24 31 25 32 26 33 27 34 28 35 29 36 90 37
REMARK SMILES IDX 30 38 89 39 31 40 32 41 33 42 83 43 34 44 88 45 82 46 84 47
REMARK SMILES IDX 35 48 87 49 81 50 80 51 36 53 68 54 48 55 67 56 49 57 52 58
REMARK SMILES IDX 66 59 85 60 50 61 51 62 65 64 86 65 53 66 37 67 38 68 46 69
REMARK SMILES IDX 39 70 40 71 44 72 47 73 41 74 42 75 45 76 43 77 69 78 70 79
REMARK SMILES IDX 78 80 71 81 72 82 76 83 79 84 73 85 74 86 77 87 75 88 54 89
REMARK SMILES IDX 55 90 63 91 56 92 57 93 61 94 64 95 58 96 59 97 62 98 60 99
REMARK H PARENT 9 16 5 24 1 26 1 27 1 28 84 52 52 63
REMARK Flexibility Score: inf
ROOT
ATOM      1  C   UNL A   1      33.671  28.168  24.235  1.00  0.00     0.202 C 
ENDROOT
BRANCH   1   2
ATOM      2  C   UNL A   1      33.182  28.427  22.808  1.00  0.00     0.261 C 
BRANCH   2   3
ATOM      3  O   UNL A   1      32.497  27.256  22.327  1.00  0.00    -0.460 OA
BRANCH   3   4
ATOM      4  C   UNL A   1      31.188  27.170  22.668  1.00  0.00     0.340 C 
ATOM      5  O   UNL A   1      30.280  27.795  22.158  1.00  0.00    -0.246 OA
BRANCH   4   6
ATOM      6  C   UNL A   1      30.967  26.073  23.667  1.00  0.00     0.083 A 
ATOM      7  C   UNL A   1      31.365  24.712  23.528  1.00  0.00     0.057 A 
ATOM      8  C   UNL A   1      31.010  23.836  24.559  1.00  0.00     0.047 A 
ATOM      9  C   UNL A   1      30.341  24.283  25.706  1.00  0.00     0.043 A 
ATOM     10  C   UNL A   1      30.242  26.491  24.803  1.00  0.00     0.019 A 
ATOM     11  Cl  UNL A   1      30.022  23.180  26.988  1.00  0.00    -0.084 Cl
ATOM     12  C   UNL A   1      29.942  25.603  25.828  1.00  0.00     0.021 A 
BRANCH   7  13
ATOM     13  N   UNL A   1      32.091  24.308  22.380  1.00  0.00    -0.320 N 
ATOM     14  C   UNL A   1      33.116  23.462  22.065  1.00  0.00     0.279 C 
ATOM     15  O   UNL A   1      33.455  23.463  20.870  1.00  0.00    -0.268 OA
ATOM     16  H   UNL A   1      31.761  24.773  21.577  1.00  0.00     0.170 HD
BRANCH  14  17
ATOM     17  C   UNL A   1      33.841  22.539  23.038  1.00  0.00     0.363 C 
BRANCH  17  18
ATOM     18  N   UNL A   1      34.702  23.176  24.048  1.00  0.00    -0.327 N 
ATOM     19  C   UNL A   1      36.876  21.712  25.467  1.00  0.00     0.192 C 
ATOM     20  C   UNL A   1      35.411  21.613  25.917  1.00  0.00     0.126 C 
ATOM     21  C   UNL A   1      36.974  22.155  24.008  1.00  0.00     0.126 C 
ATOM     22  C   UNL A   1      34.512  22.758  25.439  1.00  0.00     0.268 C 
ATOM     23  C   UNL A   1      36.105  23.377  23.726  1.00  0.00     0.268 C 
ATOM     24  H   UNL A   1      34.299  24.111  23.982  1.00  0.00     0.348 HD
BRANCH  19  25
ATOM     25  N   UNL A   1      37.661  22.603  26.327  1.00  0.00    -0.355 N 
ATOM     26  H   UNL A   1      38.505  22.121  26.636  1.00  0.00     0.344 HD
ATOM     27  H   UNL A   1      37.104  22.870  27.140  1.00  0.00     0.344 HD
ATOM     28  H   UNL A   1      37.920  23.440  25.804  1.00  0.00     0.344 HD
ENDBRANCH  19  25
ENDBRANCH  17  18
ENDBRANCH  14  17
ENDBRANCH   7  13
ENDBRANCH   4   6
ENDBRANCH   3   4
ENDBRANCH   2   3
ENDBRANCH   1   2
BRANCH   1  29
ATOM     29  O   UNL A   1      33.323  29.181  25.183  1.00  0.00    -0.374 OA
BRANCH  29  30
ATOM     30  C   UNL A   1      31.985  29.679  25.126  1.00  0.00     0.202 C 
BRANCH  30  31
ATOM     31  C   UNL A   1      31.648  30.817  26.093  1.00  0.00     0.261 C 
BRANCH  31  32
ATOM     32  O   UNL A   1      32.493  30.776  27.255  1.00  0.00    -0.460 OA
BRANCH  32  33
ATOM     33  C   UNL A   1      33.257  31.880  27.428  1.00  0.00     0.338 C 
ATOM     34  O   UNL A   1      32.898  33.043  27.360  1.00  0.00    -0.246 OA
BRANCH  33  35
ATOM     35  C   UNL A   1      34.599  31.497  27.907  1.00  0.00     0.060 A 
ATOM     36  C   UNL A   1      34.797  30.148  28.231  1.00  0.00     0.016 A 
ATOM     37  C   UNL A   1      35.621  32.430  28.094  1.00  0.00     0.016 A 
ATOM     38  C   UNL A   1      35.994  29.738  28.811  1.00  0.00     0.010 A 
ATOM     39  C   UNL A   1      36.822  32.018  28.684  1.00  0.00     0.010 A 
ATOM     40  C   UNL A   1      36.993  30.681  29.084  1.00  0.00    -0.014 A 
BRANCH  40  41
ATOM     41  C   UNL A   1      38.141  30.289  29.934  1.00  0.00     0.031 A 
ATOM     42  C   UNL A   1      39.171  29.349  29.372  1.00  0.00     0.074 A 
ATOM     43  C   UNL A   1      38.292  30.802  31.167  1.00  0.00     0.049 A 
ATOM     44  N   UNL A   1      40.242  28.853  29.937  1.00  0.00    -0.248 NA
ATOM     45  C   UNL A   1      38.967  28.910  27.981  1.00  0.00     0.031 C 
ATOM     46  C   UNL A   1      37.383  31.755  31.800  1.00  0.00     0.029 A 
ATOM     47  N   UNL A   1      39.269  30.588  32.107  1.00  0.00    -0.354 N 
ATOM     48  C   UNL A   1      40.838  28.050  28.974  1.00  0.00     0.074 A 
ATOM     49  C   UNL A   1      39.993  28.094  27.800  1.00  0.00     0.031 C 
ATOM     50  C   UNL A   1      37.839  32.035  33.033  1.00  0.00     0.029 A 
ATOM     51  C   UNL A   1      39.052  31.258  33.284  1.00  0.00     0.049 A 
ATOM     52  H   UNL A   1      40.049  30.008  31.952  1.00  0.00     0.167 HD
ATOM     53  C   UNL A   1      41.993  27.349  29.057  1.00  0.00     0.037 A 
ATOM     54  C   UNL A   1      39.744  31.228  34.439  1.00  0.00     0.037 A 
ATOM     55  C   UNL A   1      42.826  27.299  30.229  1.00  0.00     0.049 A 
ATOM     56  C   UNL A   1      40.985  30.380  34.533  1.00  0.00     0.074 A 
ATOM     57  C   UNL A   1      44.009  26.607  30.419  1.00  0.00     0.029 A 
ATOM     58  N   UNL A   1      42.559  27.969  31.414  1.00  0.00    -0.354 N 
ATOM     59  N   UNL A   1      41.546  29.626  33.618  1.00  0.00    -0.248 NA
ATOM     60  C   UNL A   1      41.696  30.384  35.820  1.00  0.00     0.031 C 
ATOM     61  C   UNL A   1      44.437  26.825  31.734  1.00  0.00     0.029 A 
ATOM     62  C   UNL A   1      43.547  27.694  32.346  1.00  0.00     0.049 A 
ATOM     63  H   UNL A   1      41.782  28.554  31.571  1.00  0.00     0.167 HD
ATOM     64  C   UNL A   1      42.682  29.087  34.207  1.00  0.00     0.074 A 
ATOM     65  C   UNL A   1      42.741  29.613  35.555  1.00  0.00     0.031 C 
ATOM     66  C   UNL A   1      43.595  28.233  33.681  1.00  0.00     0.037 A 
BRANCH  53  67
ATOM     67  C   UNL A   1      42.415  26.564  27.851  1.00  0.00     0.064 A 
ATOM     68  C   UNL A   1      43.332  27.081  26.923  1.00  0.00     0.173 A 
ATOM     69  C   UNL A   1      41.929  25.265  27.639  1.00  0.00     0.173 A 
ATOM     70  F   UNL A   1      43.815  28.324  27.072  1.00  0.00    -0.203 F 
ATOM     71  C   UNL A   1      43.732  26.334  25.818  1.00  0.00     0.198 A 
ATOM     72  C   UNL A   1      42.351  24.510  26.547  1.00  0.00     0.198 A 
ATOM     73  F   UNL A   1      41.052  24.722  28.497  1.00  0.00    -0.203 F 
ATOM     74  F   UNL A   1      44.578  26.864  24.923  1.00  0.00    -0.200 F 
ATOM     75  C   UNL A   1      43.247  25.048  25.635  1.00  0.00     0.200 A 
ATOM     76  F   UNL A   1      41.891  23.264  26.379  1.00  0.00    -0.200 F 
ATOM     77  F   UNL A   1      43.640  24.326  24.576  1.00  0.00    -0.200 F 
ENDBRANCH  53  67
BRANCH  54  78
ATOM     78  C   UNL A   1      39.269  32.014  35.606  1.00  0.00     0.064 A 
ATOM     79  C   UNL A   1      39.654  33.350  35.788  1.00  0.00     0.173 A 
ATOM     80  C   UNL A   1      38.428  31.440  36.571  1.00  0.00     0.173 A 
ATOM     81  F   UNL A   1      40.478  33.934  34.907  1.00  0.00    -0.203 F 
ATOM     82  C   UNL A   1      39.230  34.075  36.899  1.00  0.00     0.198 A 
ATOM     83  C   UNL A   1      37.982  32.175  37.667  1.00  0.00     0.198 A 
ATOM     84  F   UNL A   1      38.034  30.164  36.446  1.00  0.00    -0.203 F 
ATOM     85  F   UNL A   1      39.649  35.336  37.073  1.00  0.00    -0.200 F 
ATOM     86  C   UNL A   1      38.388  33.490  37.834  1.00  0.00     0.200 A 
ATOM     87  F   UNL A   1      37.161  31.609  38.562  1.00  0.00    -0.200 F 
ATOM     88  F   UNL A   1      37.979  34.190  38.900  1.00  0.00    -0.200 F 
ENDBRANCH  54  78
BRANCH  66  89
ATOM     89  C   UNL A   1      44.755  27.841  34.549  1.00  0.00     0.064 A 
ATOM     90  C   UNL A   1      44.717  26.695  35.356  1.00  0.00     0.173 A 
ATOM     91  C   UNL A   1      45.936  28.598  34.537  1.00  0.00     0.173 A 
ATOM     92  F   UNL A   1      43.606  25.945  35.412  1.00  0.00    -0.203 F 
ATOM     93  C   UNL A   1      45.811  26.334  36.137  1.00  0.00     0.198 A 
ATOM     94  C   UNL A   1      47.039  28.218  35.296  1.00  0.00     0.198 A 
ATOM     95  F   UNL A   1      46.027  29.699  33.775  1.00  0.00    -0.203 F 
ATOM     96  F   UNL A   1      45.737  25.260  36.936  1.00  0.00    -0.200 F 
ATOM     97  C   UNL A   1      46.974  27.092  36.102  1.00  0.00     0.200 A 
ATOM     98  F   UNL A   1      48.166  28.943  35.250  1.00  0.00    -0.200 F 
ATOM     99  F   UNL A   1      48.028  26.739  36.849  1.00  0.00    -0.200 F 
ENDBRANCH  66  89
ENDBRANCH  40  41
ENDBRANCH  33  35
ENDBRANCH  32  33
ENDBRANCH  31  32
ENDBRANCH  30  31
ENDBRANCH  29  30
ENDBRANCH   1  29
TORSDOF 18
ENDMDL
MODEL 2
REMARK VINA RESULT:     -11.6      1.854      7.556
REMARK SMILES [NH3+]C1CC[NH+](CC(=O)Nc2cc(Cl)ccc2C(=O)OCCOCCOC(=O)c2ccc(-c3c4nc(c(-c5c(F)c(F)c(F)c(F)c5F)c5ccc([nH]5)c(-c5c(F)c(F)c(F)c(F)c5F)c5nc(c(-c6c(F)c(F)c(F)c(F)c6F)c6ccc3[nH]6)C=C5)C=C4)cc2)CC1
REMARK SMILES IDX 21 1 20 2 19 3 17 4 18 5 16 6 10 7 11 8 12 9 15 10 13 11
REMARK SMILES IDX 14 12 9 13 7 14 8 15 6 17 5 18 2 19 3 20 92 21 4 22 91 23
REMARK SMILES IDX 1 25 22 29 23 30 24 31 25 32 26 33 27 34 28 35 29 36 90 37
REMARK SMILES IDX 30 38 89 39 31 40 32 41 33 42 83 43 34 44 88 45 82 46 84 47
REMARK SMILES IDX 35 48 87 49 81 50 80 51 36 53 68 54 48 55 67 56 49 57 52 58
REMARK SMILES IDX 66 59 85 60 50 61 51 62 65 64 86 65 53 66 37 67 38 68 46 69
REMARK SMILES IDX 39 70 40 71 44 72 47 73 41 74 42 75 45 76 43 77 69 78 70 79
REMARK SMILES IDX 78 80 71 81 72 82 76 83 79 84 73 85 74 86 77 87 75 88 54 89
REMARK SMILES IDX 55 90 63 91 56 92 57 93 61 94 64 95 58 96 59 97 62 98 60 99
REMARK H PARENT 9 16 5 24 1 26 1 27 1 28 84 52 52 63
REMARK Flexibility Score: inf
ROOT
ATOM      1  C   UNL A   1      33.096  30.428  26.870  1.00  0.00     0.202 C 
ENDROOT
BRANCH   1   2
ATOM      2  C   UNL A   1      33.510  29.097  27.504  1.00  0.00     0.261 C 
BRANCH   2   3
ATOM      3  O   UNL A   1      33.581  28.091  26.479  1.00  0.00    -0.460 OA
BRANCH   3   4
ATOM      4  C   UNL A   1      32.471  27.326  26.340  1.00  0.00     0.340 C 
ATOM      5  O   UNL A   1      31.580  27.216  27.159  1.00  0.00    -0.246 OA
BRANCH   4   6
ATOM      6  C   UNL A   1      32.392  26.741  24.962  1.00  0.00     0.083 A 
ATOM      7  C   UNL A   1      31.670  25.573  24.580  1.00  0.00     0.057 A 
ATOM      8  C   UNL A   1      31.775  25.166  23.246  1.00  0.00     0.047 A 
ATOM      9  C   UNL A   1      32.511  25.903  22.308  1.00  0.00     0.043 A 
ATOM     10  C   UNL A   1      33.175  27.435  24.015  1.00  0.00     0.019 A 
ATOM     11  Cl  UNL A   1      32.519  25.413  20.659  1.00  0.00    -0.084 Cl
ATOM     12  C   UNL A   1      33.223  27.027  22.688  1.00  0.00     0.021 A 
BRANCH   7  13
ATOM     13  N   UNL A   1      30.890  24.886  25.543  1.00  0.00    -0.320 N 
ATOM     14  C   UNL A   1      31.072  23.969  26.540  1.00  0.00     0.279 C 
ATOM     15  O   UNL A   1      30.037  23.615  27.128  1.00  0.00    -0.268 OA
ATOM     16  H   UNL A   1      29.942  25.143  25.474  1.00  0.00     0.170 HD
BRANCH  14  17
ATOM     17  C   UNL A   1      32.409  23.380  26.975  1.00  0.00     0.363 C 
BRANCH  17  18
ATOM     18  N   UNL A   1      32.616  21.942  26.735  1.00  0.00    -0.327 N 
ATOM     19  C   UNL A   1      34.728  20.899  24.909  1.00  0.00     0.192 C 
ATOM     20  C   UNL A   1      33.377  21.400  24.376  1.00  0.00     0.126 C 
ATOM     21  C   UNL A   1      35.023  21.481  26.291  1.00  0.00     0.126 C 
ATOM     22  C   UNL A   1      32.249  21.432  25.412  1.00  0.00     0.268 C 
ATOM     23  C   UNL A   1      33.835  21.330  27.236  1.00  0.00     0.268 C 
ATOM     24  H   UNL A   1      31.893  21.606  27.372  1.00  0.00     0.348 HD
BRANCH  19  25
ATOM     25  N   UNL A   1      34.802  19.435  24.942  1.00  0.00    -0.355 N 
ATOM     26  H   UNL A   1      34.488  19.100  25.853  1.00  0.00     0.344 HD
ATOM     27  H   UNL A   1      35.765  19.139  24.784  1.00  0.00     0.344 HD
ATOM     28  H   UNL A   1      34.203  19.047  24.214  1.00  0.00     0.344 HD
ENDBRANCH  19  25
ENDBRANCH  17  18
ENDBRANCH  14  17
ENDBRANCH   7  13
ENDBRANCH   4   6
ENDBRANCH   3   4
ENDBRANCH   2   3
ENDBRANCH   1   2
BRANCH   1  29
ATOM     29  O   UNL A   1      31.766  30.855  27.180  1.00  0.00    -0.374 OA
BRANCH  29  30
ATOM     30  C   UNL A   1      31.350  32.104  26.626  1.00  0.00     0.202 C 
BRANCH  30  31
ATOM     31  C   UNL A   1      32.311  33.280  26.816  1.00  0.00     0.261 C 
BRANCH  31  32
ATOM     32  O   UNL A   1      32.462  33.605  28.209  1.00  0.00    -0.460 OA
BRANCH  32  33
ATOM     33  C   UNL A   1      33.535  34.382  28.486  1.00  0.00     0.338 C 
ATOM     34  O   UNL A   1      33.548  35.592  28.646  1.00  0.00    -0.246 OA
BRANCH  33  35
ATOM     35  C   UNL A   1      34.714  33.539  28.763  1.00  0.00     0.060 A 
ATOM     36  C   UNL A   1      34.484  32.320  29.415  1.00  0.00     0.016 A 
ATOM     37  C   UNL A   1      36.013  33.946  28.455  1.00  0.00     0.016 A 
ATOM     38  C   UNL A   1      35.557  31.534  29.824  1.00  0.00     0.010 A 
ATOM     39  C   UNL A   1      37.093  33.159  28.875  1.00  0.00     0.010 A 
ATOM     40  C   UNL A   1      36.867  31.975  29.598  1.00  0.00    -0.014 A 
BRANCH  40  41
ATOM     41  C   UNL A   1      37.988  31.273  30.266  1.00  0.00     0.031 A 
ATOM     42  C   UNL A   1      38.291  31.595  31.702  1.00  0.00     0.074 A 
ATOM     43  C   UNL A   1      38.690  30.326  29.620  1.00  0.00     0.049 A 
ATOM     44  N   UNL A   1      39.233  31.125  32.480  1.00  0.00    -0.248 NA
ATOM     45  C   UNL A   1      37.411  32.581  32.352  1.00  0.00     0.031 C 
ATOM     46  C   UNL A   1      38.459  29.898  28.242  1.00  0.00     0.029 A 
ATOM     47  N   UNL A   1      39.745  29.556  30.042  1.00  0.00    -0.354 N 
ATOM     48  C   UNL A   1      39.057  31.753  33.706  1.00  0.00     0.074 A 
ATOM     49  C   UNL A   1      37.942  32.664  33.562  1.00  0.00     0.031 C 
ATOM     50  C   UNL A   1      39.355  28.948  27.927  1.00  0.00     0.029 A 
ATOM     51  C   UNL A   1      40.240  28.726  29.070  1.00  0.00     0.049 A 
ATOM     52  H   UNL A   1      40.111  29.597  30.955  1.00  0.00     0.167 HD
ATOM     53  C   UNL A   1      39.755  31.574  34.853  1.00  0.00     0.037 A 
ATOM     54  C   UNL A   1      41.302  27.897  29.095  1.00  0.00     0.037 A 
ATOM     55  C   UNL A   1      40.868  30.674  34.991  1.00  0.00     0.049 A 
ATOM     56  C   UNL A   1      42.110  27.773  30.360  1.00  0.00     0.074 A 
ATOM     57  C   UNL A   1      41.650  30.432  36.106  1.00  0.00     0.029 A 
ATOM     58  N   UNL A   1      41.361  29.870  33.974  1.00  0.00    -0.354 N 
ATOM     59  N   UNL A   1      41.936  28.366  31.516  1.00  0.00    -0.248 NA
ATOM     60  C   UNL A   1      43.260  26.857  30.325  1.00  0.00     0.031 C 
ATOM     61  C   UNL A   1      42.642  29.510  35.753  1.00  0.00     0.029 A 
ATOM     62  C   UNL A   1      42.446  29.140  34.431  1.00  0.00     0.049 A 
ATOM     63  H   UNL A   1      40.993  29.823  33.061  1.00  0.00     0.167 HD
ATOM     64  C   UNL A   1      42.935  27.880  32.351  1.00  0.00     0.074 A 
ATOM     65  C   UNL A   1      43.702  26.931  31.573  1.00  0.00     0.031 C 
ATOM     66  C   UNL A   1      43.193  28.193  33.645  1.00  0.00     0.037 A 
BRANCH  53  67
ATOM     67  C   UNL A   1      39.342  32.384  36.047  1.00  0.00     0.064 A 
ATOM     68  C   UNL A   1      39.878  33.657  36.290  1.00  0.00     0.173 A 
ATOM     69  C   UNL A   1      38.371  31.899  36.935  1.00  0.00     0.173 A 
ATOM     70  F   UNL A   1      40.821  34.160  35.478  1.00  0.00    -0.203 F 
ATOM     71  C   UNL A   1      39.471  34.407  37.390  1.00  0.00     0.198 A 
ATOM     72  C   UNL A   1      37.947  32.664  38.020  1.00  0.00     0.198 A 
ATOM     73  F   UNL A   1      37.825  30.689  36.747  1.00  0.00    -0.203 F 
ATOM     74  F   UNL A   1      40.027  35.605  37.626  1.00  0.00    -0.200 F 
ATOM     75  C   UNL A   1      38.501  33.914  38.249  1.00  0.00     0.200 A 
ATOM     76  F   UNL A   1      37.001  32.189  38.842  1.00  0.00    -0.200 F 
ATOM     77  F   UNL A   1      38.104  34.641  39.303  1.00  0.00    -0.200 F 
ENDBRANCH  53  67
BRANCH  54  78
ATOM     78  C   UNL A   1      41.673  27.133  27.876  1.00  0.00     0.064 A 
ATOM     79  C   UNL A   1      41.185  25.837  27.656  1.00  0.00     0.173 A 
ATOM     80  C   UNL A   1      42.533  27.679  26.913  1.00  0.00     0.173 A 
ATOM     81  F   UNL A   1      40.380  25.262  28.561  1.00  0.00    -0.203 F 
ATOM     82  C   UNL A   1      41.558  25.112  26.526  1.00  0.00     0.198 A 
ATOM     83  C   UNL A   1      42.883  26.964  25.770  1.00  0.00     0.198 A 
ATOM     84  F   UNL A   1      43.031  28.914  27.079  1.00  0.00    -0.203 F 
ATOM     85  F   UNL A   1      41.113  23.859  26.361  1.00  0.00    -0.200 F 
ATOM     86  C   UNL A   1      42.400  25.679  25.580  1.00  0.00     0.200 A 
ATOM     87  F   UNL A   1      43.688  27.518  24.854  1.00  0.00    -0.200 F 
ATOM     88  F   UNL A   1      42.754  24.980  24.493  1.00  0.00    -0.200 F 
ENDBRANCH  54  78
BRANCH  66  89
ATOM     89  C   UNL A   1      44.330  27.477  34.314  1.00  0.00     0.064 A 
ATOM     90  C   UNL A   1      44.155  26.230  34.932  1.00  0.00     0.173 A 
ATOM     91  C   UNL A   1      45.622  28.026  34.296  1.00  0.00     0.173 A 
ATOM     92  F   UNL A   1      42.938  25.669  34.987  1.00  0.00    -0.203 F 
ATOM     93  C   UNL A   1      45.227  25.570  35.528  1.00  0.00     0.198 A 
ATOM     94  C   UNL A   1      46.697  27.349  34.866  1.00  0.00     0.198 A 
ATOM     95  F   UNL A   1      45.845  29.212  33.710  1.00  0.00    -0.203 F 
ATOM     96  F   UNL A   1      45.028  24.401  36.152  1.00  0.00    -0.200 F 
ATOM     97  C   UNL A   1      46.498  26.127  35.488  1.00  0.00     0.200 A 
ATOM     98  F   UNL A   1      47.926  27.881  34.814  1.00  0.00    -0.200 F 
ATOM     99  F   UNL A   1      47.529  25.487  36.056  1.00  0.00    -0.200 F 
ENDBRANCH  66  89
ENDBRANCH  40  41
ENDBRANCH  33  35
ENDBRANCH  32  33
ENDBRANCH  31  32
ENDBRANCH  30  31
ENDBRANCH  29  30
ENDBRANCH   1  29
TORSDOF 18
ENDMDL
MODEL 3
REMARK VINA RESULT:     -11.5      4.388      7.499
REMARK SMILES [NH3+]C1CC[NH+](CC(=O)Nc2cc(Cl)ccc2C(=O)OCCOCCOC(=O)c2ccc(-c3c4nc(c(-c5c(F)c(F)c(F)c(F)c5F)c5ccc([nH]5)c(-c5c(F)c(F)c(F)c(F)c5F)c5nc(c(-c6c(F)c(F)c(F)c(F)c6F)c6ccc3[nH]6)C=C5)C=C4)cc2)CC1
REMARK SMILES IDX 21 1 20 2 19 3 17 4 18 5 16 6 10 7 11 8 12 9 15 10 13 11
REMARK SMILES IDX 14 12 9 13 7 14 8 15 6 17 5 18 2 19 3 20 92 21 4 22 91 23
REMARK SMILES IDX 1 25 22 29 23 30 24 31 25 32 26 33 27 34 28 35 29 36 90 37
REMARK SMILES IDX 30 38 89 39 31 40 32 41 33 42 83 43 34 44 88 45 82 46 84 47
REMARK SMILES IDX 35 48 87 49 81 50 80 51 36 53 68 54 48 55 67 56 49 57 52 58
REMARK SMILES IDX 66 59 85 60 50 61 51 62 65 64 86 65 53 66 37 67 38 68 46 69
REMARK SMILES IDX 39 70 40 71 44 72 47 73 41 74 42 75 45 76 43 77 69 78 70 79
REMARK SMILES IDX 78 80 71 81 72 82 76 83 79 84 73 85 74 86 77 87 75 88 54 89
REMARK SMILES IDX 55 90 63 91 56 92 57 93 61 94 64 95 58 96 59 97 62 98 60 99
REMARK H PARENT 9 16 5 24 1 26 1 27 1 28 84 52 52 63
REMARK Flexibility Score: inf
ROOT
ATOM      1  C   UNL A   1      37.227  22.220  25.324  1.00  0.00     0.202 C 
ENDROOT
BRANCH   1   2
ATOM      2  C   UNL A   1      36.142  23.121  25.921  1.00  0.00     0.261 C 
BRANCH   2   3
ATOM      3  O   UNL A   1      35.746  24.094  24.938  1.00  0.00    -0.460 OA
BRANCH   3   4
ATOM      4  C   UNL A   1      34.709  23.729  24.147  1.00  0.00     0.340 C 
ATOM      5  O   UNL A   1      34.789  23.404  22.978  1.00  0.00    -0.246 OA
BRANCH   4   6
ATOM      6  C   UNL A   1      33.442  23.618  24.941  1.00  0.00     0.083 A 
ATOM      7  C   UNL A   1      32.871  24.631  25.765  1.00  0.00     0.057 A 
ATOM      8  C   UNL A   1      31.707  24.300  26.467  1.00  0.00     0.047 A 
ATOM      9  C   UNL A   1      31.093  23.048  26.325  1.00  0.00     0.043 A 
ATOM     10  C   UNL A   1      32.841  22.344  24.858  1.00  0.00     0.019 A 
ATOM     11  Cl  UNL A   1      29.606  22.734  27.132  1.00  0.00    -0.084 Cl
ATOM     12  C   UNL A   1      31.661  22.063  25.536  1.00  0.00     0.021 A 
BRANCH   7  13
ATOM     13  N   UNL A   1      33.487  25.905  25.839  1.00  0.00    -0.320 N 
ATOM     14  C   UNL A   1      33.172  27.209  25.581  1.00  0.00     0.279 C 
ATOM     15  O   UNL A   1      34.090  28.023  25.773  1.00  0.00    -0.268 OA
ATOM     16  H   UNL A   1      34.411  25.827  26.172  1.00  0.00     0.170 HD
BRANCH  14  17
ATOM     17  C   UNL A   1      31.818  27.720  25.104  1.00  0.00     0.363 C 
BRANCH  17  18
ATOM     18  N   UNL A   1      31.602  27.784  23.649  1.00  0.00    -0.327 N 
ATOM     19  C   UNL A   1      32.410  25.591  21.801  1.00  0.00     0.192 C 
ATOM     20  C   UNL A   1      33.417  26.639  22.296  1.00  0.00     0.126 C 
ATOM     21  C   UNL A   1      31.205  25.501  22.737  1.00  0.00     0.126 C 
ATOM     22  C   UNL A   1      32.792  27.940  22.809  1.00  0.00     0.268 C 
ATOM     23  C   UNL A   1      30.632  26.878  23.058  1.00  0.00     0.268 C 
ATOM     24  H   UNL A   1      31.131  28.690  23.634  1.00  0.00     0.348 HD
BRANCH  19  25
ATOM     25  N   UNL A   1      31.973  25.850  20.425  1.00  0.00    -0.355 N 
ATOM     26  H   UNL A   1      32.535  25.294  19.780  1.00  0.00     0.344 HD
ATOM     27  H   UNL A   1      32.089  26.840  20.212  1.00  0.00     0.344 HD
ATOM     28  H   UNL A   1      30.991  25.593  20.326  1.00  0.00     0.344 HD
ENDBRANCH  19  25
ENDBRANCH  17  18
ENDBRANCH  14  17
ENDBRANCH   7  13
ENDBRANCH   4   6
ENDBRANCH   3   4
ENDBRANCH   2   3
ENDBRANCH   1   2
BRANCH   1  29
ATOM     29  O   UNL A   1      36.939  20.820  25.368  1.00  0.00    -0.374 OA
BRANCH  29  30
ATOM     30  C   UNL A   1      37.916  19.947  24.798  1.00  0.00     0.202 C 
BRANCH  30  31
ATOM     31  C   UNL A   1      39.043  19.497  25.731  1.00  0.00     0.261 C 
BRANCH  31  32
ATOM     32  O   UNL A   1      40.122  20.447  25.735  1.00  0.00    -0.460 OA
BRANCH  32  33
ATOM     33  C   UNL A   1      40.856  20.451  26.873  1.00  0.00     0.338 C 
ATOM     34  O   UNL A   1      41.424  19.502  27.387  1.00  0.00    -0.246 OA
BRANCH  33  35
ATOM     35  C   UNL A   1      41.050  21.835  27.346  1.00  0.00     0.060 A 
ATOM     36  C   UNL A   1      40.430  22.851  26.608  1.00  0.00     0.016 A 
ATOM     37  C   UNL A   1      41.859  22.145  28.440  1.00  0.00     0.016 A 
ATOM     38  C   UNL A   1      40.673  24.186  26.917  1.00  0.00     0.010 A 
ATOM     39  C   UNL A   1      42.110  23.488  28.746  1.00  0.00     0.010 A 
ATOM     40  C   UNL A   1      41.553  24.509  27.957  1.00  0.00    -0.014 A 
BRANCH  40  41
ATOM     41  C   UNL A   1      42.010  25.911  28.105  1.00  0.00     0.031 A 
ATOM     42  C   UNL A   1      43.343  26.303  27.533  1.00  0.00     0.074 A 
ATOM     43  C   UNL A   1      41.227  26.832  28.692  1.00  0.00     0.049 A 
ATOM     44  N   UNL A   1      43.954  27.460  27.562  1.00  0.00    -0.248 NA
ATOM     45  C   UNL A   1      44.089  25.245  26.830  1.00  0.00     0.031 C 
ATOM     46  C   UNL A   1      39.897  26.580  29.244  1.00  0.00     0.029 A 
ATOM     47  N   UNL A   1      41.442  28.168  28.923  1.00  0.00    -0.354 N 
ATOM     48  C   UNL A   1      45.150  27.271  26.881  1.00  0.00     0.074 A 
ATOM     49  C   UNL A   1      45.198  25.880  26.482  1.00  0.00     0.031 C 
ATOM     50  C   UNL A   1      39.418  27.724  29.762  1.00  0.00     0.029 A 
ATOM     51  C   UNL A   1      40.420  28.777  29.605  1.00  0.00     0.049 A 
ATOM     52  H   UNL A   1      42.253  28.642  28.628  1.00  0.00     0.167 HD
ATOM     53  C   UNL A   1      46.115  28.179  26.604  1.00  0.00     0.037 A 
ATOM     54  C   UNL A   1      40.318  30.038  30.069  1.00  0.00     0.037 A 
ATOM     55  C   UNL A   1      46.069  29.558  27.010  1.00  0.00     0.049 A 
ATOM     56  C   UNL A   1      41.440  31.010  29.814  1.00  0.00     0.074 A 
ATOM     57  C   UNL A   1      47.003  30.555  26.791  1.00  0.00     0.029 A 
ATOM     58  N   UNL A   1      45.030  30.133  27.727  1.00  0.00    -0.354 N 
ATOM     59  N   UNL A   1      42.565  30.827  29.167  1.00  0.00    -0.248 NA
ATOM     60  C   UNL A   1      41.273  32.370  30.349  1.00  0.00     0.031 C 
ATOM     61  C   UNL A   1      46.548  31.724  27.410  1.00  0.00     0.029 A 
ATOM     62  C   UNL A   1      45.306  31.469  27.971  1.00  0.00     0.049 A 
ATOM     63  H   UNL A   1      44.215  29.662  28.018  1.00  0.00     0.167 HD
ATOM     64  C   UNL A   1      43.228  32.047  29.196  1.00  0.00     0.074 A 
ATOM     65  C   UNL A   1      42.371  32.970  29.910  1.00  0.00     0.031 C 
ATOM     66  C   UNL A   1      44.438  32.375  28.677  1.00  0.00     0.037 A 
BRANCH  53  67
ATOM     67  C   UNL A   1      47.313  27.703  25.836  1.00  0.00     0.064 A 
ATOM     68  C   UNL A   1      47.337  27.716  24.433  1.00  0.00     0.173 A 
ATOM     69  C   UNL A   1      48.463  27.266  26.508  1.00  0.00     0.173 A 
ATOM     70  F   UNL A   1      46.257  28.110  23.743  1.00  0.00    -0.203 F 
ATOM     71  C   UNL A   1      48.463  27.291  23.732  1.00  0.00     0.198 A 
ATOM     72  C   UNL A   1      49.598  26.867  25.805  1.00  0.00     0.198 A 
ATOM     73  F   UNL A   1      48.493  27.236  27.849  1.00  0.00    -0.203 F 
ATOM     74  F   UNL A   1      48.449  27.274  22.392  1.00  0.00    -0.200 F 
ATOM     75  C   UNL A   1      49.594  26.875  24.418  1.00  0.00     0.200 A 
ATOM     76  F   UNL A   1      50.693  26.476  26.469  1.00  0.00    -0.200 F 
ATOM     77  F   UNL A   1      50.680  26.475  23.742  1.00  0.00    -0.200 F 
ENDBRANCH  53  67
BRANCH  54  78
ATOM     78  C   UNL A   1      39.115  30.448  30.837  1.00  0.00     0.064 A 
ATOM     79  C   UNL A   1      38.002  31.009  30.198  1.00  0.00     0.173 A 
ATOM     80  C   UNL A   1      39.060  30.297  32.231  1.00  0.00     0.173 A 
ATOM     81  F   UNL A   1      38.017  31.198  28.871  1.00  0.00    -0.203 F 
ATOM     82  C   UNL A   1      36.886  31.419  30.925  1.00  0.00     0.198 A 
ATOM     83  C   UNL A   1      37.933  30.681  32.954  1.00  0.00     0.198 A 
ATOM     84  F   UNL A   1      40.101  29.768  32.892  1.00  0.00    -0.203 F 
ATOM     85  F   UNL A   1      35.853  31.994  30.295  1.00  0.00    -0.200 F 
ATOM     86  C   UNL A   1      36.850  31.248  32.301  1.00  0.00     0.200 A 
ATOM     87  F   UNL A   1      37.898  30.504  34.282  1.00  0.00    -0.200 F 
ATOM     88  F   UNL A   1      35.774  31.640  32.998  1.00  0.00    -0.200 F 
ENDBRANCH  54  78
BRANCH  66  89
ATOM     89  C   UNL A   1      44.892  33.797  28.831  1.00  0.00     0.064 A 
ATOM     90  C   UNL A   1      45.681  34.206  29.916  1.00  0.00     0.173 A 
ATOM     91  C   UNL A   1      44.572  34.753  27.854  1.00  0.00     0.173 A 
ATOM     92  F   UNL A   1      46.003  33.333  30.883  1.00  0.00    -0.203 F 
ATOM     93  C   UNL A   1      46.113  35.525  30.030  1.00  0.00     0.198 A 
ATOM     94  C   UNL A   1      45.031  36.063  27.956  1.00  0.00     0.198 A 
ATOM     95  F   UNL A   1      43.828  34.412  26.791  1.00  0.00    -0.203 F 
ATOM     96  F   UNL A   1      46.827  35.904  31.099  1.00  0.00    -0.200 F 
ATOM     97  C   UNL A   1      45.793  36.450  29.046  1.00  0.00     0.200 A 
ATOM     98  F   UNL A   1      44.733  36.953  26.998  1.00  0.00    -0.200 F 
ATOM     99  F   UNL A   1      46.216  37.717  29.155  1.00  0.00    -0.200 F 
ENDBRANCH  66  89
ENDBRANCH  40  41
ENDBRANCH  33  35
ENDBRANCH  32  33
ENDBRANCH  31  32
ENDBRANCH  30  31
ENDBRANCH  29  30
ENDBRANCH   1  29
TORSDOF 18
ENDMDL
