MODEL 1
REMARK VINA RESULT:     -11.6      0.000      0.000
REMARK SMILES CC1(C(=O)N2CC(CC(=O)OCCOCCOC(=O)c3ccc(-c4c5nc(c(-c6c(F)c(F)c(F)c(F)c6F)c6ccc([nH]6)c(-c6c(F)c(F)c(F)c(F)c6F)c6nc(c(-c7c(F)c(F)c(F)c(F)c7F)c7ccc4[nH]7)C=C6)C=C5)cc3)C2)CCCC1
REMARK SMILES IDX 14 1 13 2 12 3 11 4 9 5 10 6 8 7 7 8 3 9 4 10 5 11 6 12
REMARK SMILES IDX 83 13 2 14 1 15 84 16 87 17 85 18 86 19 15 20 16 21 17 22
REMARK SMILES IDX 18 23 19 24 20 25 21 26 82 27 22 28 81 29 23 30 24 31 25 32
REMARK SMILES IDX 75 33 26 34 80 35 74 36 76 37 27 38 79 39 73 40 72 41 28 43
REMARK SMILES IDX 60 44 40 45 59 46 41 47 44 48 58 49 77 50 42 51 43 52 57 54
REMARK SMILES IDX 78 55 45 56 29 57 30 58 38 59 31 60 32 61 36 62 39 63 33 64
REMARK SMILES IDX 34 65 37 66 35 67 61 68 62 69 70 70 63 71 64 72 68 73 71 74
REMARK SMILES IDX 65 75 66 76 69 77 67 78 46 79 47 80 55 81 48 82 49 83 53 84
REMARK SMILES IDX 56 85 50 86 51 87 54 88 52 89
REMARK H PARENT 76 42 44 53
REMARK Flexibility Score: inf
ROOT
ATOM      1  O   UNL A   1      41.421  20.655  25.797  1.00  0.00    -0.374 OA
ENDROOT
BRANCH   1   2
ATOM      2  C   UNL A   1      40.383  21.313  26.522  1.00  0.00     0.202 C 
BRANCH   2   3
ATOM      3  C   UNL A   1      39.042  21.458  25.799  1.00  0.00     0.261 C 
BRANCH   3   4
ATOM      4  O   UNL A   1      38.206  22.452  26.426  1.00  0.00    -0.463 OA
BRANCH   4   5
ATOM      5  C   UNL A   1      37.310  23.057  25.604  1.00  0.00     0.306 C 
ATOM      6  O   UNL A   1      37.548  23.438  24.464  1.00  0.00    -0.252 OA
BRANCH   5   7
ATOM      7  C   UNL A   1      35.960  23.256  26.240  1.00  0.00     0.130 C 
BRANCH   7   8
ATOM      8  C   UNL A   1      34.744  22.697  25.513  1.00  0.00     0.039 C 
ATOM      9  C   UNL A   1      32.776  20.101  25.025  1.00  0.00     0.228 C 
ATOM     10  O   UNL A   1      31.631  20.544  25.097  1.00  0.00    -0.274 OA
ATOM     11  N   UNL A   1      33.860  20.814  25.489  1.00  0.00    -0.342 N 
ATOM     12  C   UNL A   1      33.798  21.922  26.431  1.00  0.00     0.125 C 
ATOM     13  C   UNL A   1      34.925  21.415  24.689  1.00  0.00     0.125 C 
BRANCH   9  14
ATOM     14  C   UNL A   1      33.088  18.674  24.543  1.00  0.00     0.047 C 
ATOM     15  C   UNL A   1      32.428  18.360  23.196  1.00  0.00     0.022 C 
ATOM     16  C   UNL A   1      32.679  17.632  25.602  1.00  0.00     0.016 C 
ATOM     17  C   UNL A   1      34.613  18.469  24.495  1.00  0.00     0.016 C 
ATOM     18  C   UNL A   1      33.587  16.430  25.363  1.00  0.00     0.001 C 
ATOM     19  C   UNL A   1      34.846  16.976  24.698  1.00  0.00     0.001 C 
ENDBRANCH   9  14
ENDBRANCH   7   8
ENDBRANCH   5   7
ENDBRANCH   4   5
ENDBRANCH   3   4
ENDBRANCH   2   3
ENDBRANCH   1   2
BRANCH   1  20
ATOM     20  C   UNL A   1      42.765  20.883  26.216  1.00  0.00     0.202 C 
BRANCH  20  21
ATOM     21  C   UNL A   1      43.630  21.751  25.292  1.00  0.00     0.261 C 
BRANCH  21  22
ATOM     22  O   UNL A   1      42.947  22.940  24.847  1.00  0.00    -0.460 OA
BRANCH  22  23
ATOM     23  C   UNL A   1      43.661  24.085  24.975  1.00  0.00     0.338 C 
ATOM     24  O   UNL A   1      44.646  24.424  24.334  1.00  0.00    -0.246 OA
BRANCH  23  25
ATOM     25  C   UNL A   1      42.985  25.005  25.908  1.00  0.00     0.060 A 
ATOM     26  C   UNL A   1      43.539  26.284  26.069  1.00  0.00     0.016 A 
ATOM     27  C   UNL A   1      41.887  24.608  26.671  1.00  0.00     0.016 A 
ATOM     28  C   UNL A   1      43.017  27.156  27.022  1.00  0.00     0.010 A 
ATOM     29  C   UNL A   1      41.371  25.483  27.636  1.00  0.00     0.010 A 
ATOM     30  C   UNL A   1      41.951  26.748  27.835  1.00  0.00    -0.014 A 
BRANCH  30  31
ATOM     31  C   UNL A   1      41.531  27.600  28.975  1.00  0.00     0.031 A 
ATOM     32  C   UNL A   1      42.303  27.537  30.263  1.00  0.00     0.074 A 
ATOM     33  C   UNL A   1      40.488  28.441  28.856  1.00  0.00     0.049 A 
ATOM     34  N   UNL A   1      42.085  28.159  31.394  1.00  0.00    -0.248 NA
ATOM     35  C   UNL A   1      43.480  26.654  30.277  1.00  0.00     0.031 C 
ATOM     36  C   UNL A   1      39.690  28.630  27.647  1.00  0.00     0.029 A 
ATOM     37  N   UNL A   1      39.920  29.291  29.772  1.00  0.00    -0.354 N 
ATOM     38  C   UNL A   1      43.093  27.742  32.254  1.00  0.00     0.074 A 
ATOM     39  C   UNL A   1      43.907  26.793  31.524  1.00  0.00     0.031 C 
ATOM     40  C   UNL A   1      38.725  29.530  27.899  1.00  0.00     0.029 A 
ATOM     41  C   UNL A   1      38.817  29.955  29.295  1.00  0.00     0.049 A 
ATOM     42  H   UNL A   1      40.269  29.412  30.684  1.00  0.00     0.167 HD
ATOM     43  C   UNL A   1      43.322  28.122  33.534  1.00  0.00     0.037 A 
ATOM     44  C   UNL A   1      37.967  30.792  29.922  1.00  0.00     0.037 A 
ATOM     45  C   UNL A   1      42.514  29.066  34.260  1.00  0.00     0.049 A 
ATOM     46  C   UNL A   1      38.196  31.134  31.371  1.00  0.00     0.074 A 
ATOM     47  C   UNL A   1      42.680  29.530  35.554  1.00  0.00     0.029 A 
ATOM     48  N   UNL A   1      41.380  29.685  33.756  1.00  0.00    -0.354 N 
ATOM     49  N   UNL A   1      39.162  30.752  32.171  1.00  0.00    -0.248 NA
ATOM     50  C   UNL A   1      37.212  32.023  32.006  1.00  0.00     0.031 C 
ATOM     51  C   UNL A   1      41.619  30.393  35.849  1.00  0.00     0.029 A 
ATOM     52  C   UNL A   1      40.820  30.504  34.722  1.00  0.00     0.049 A 
ATOM     53  H   UNL A   1      41.026  29.561  32.845  1.00  0.00     0.167 HD
ATOM     54  C   UNL A   1      38.919  31.372  33.389  1.00  0.00     0.074 A 
ATOM     55  C   UNL A   1      37.719  32.165  33.223  1.00  0.00     0.031 C 
ATOM     56  C   UNL A   1      39.628  31.293  34.542  1.00  0.00     0.037 A 
BRANCH  43  57
ATOM     57  C   UNL A   1      44.485  27.495  34.244  1.00  0.00     0.064 A 
ATOM     58  C   UNL A   1      45.749  28.102  34.264  1.00  0.00     0.173 A 
ATOM     59  C   UNL A   1      44.321  26.293  34.948  1.00  0.00     0.173 A 
ATOM     60  F   UNL A   1      45.959  29.247  33.595  1.00  0.00    -0.203 F 
ATOM     61  C   UNL A   1      46.813  27.517  34.945  1.00  0.00     0.198 A 
ATOM     62  C   UNL A   1      45.381  25.723  35.649  1.00  0.00     0.198 A 
ATOM     63  F   UNL A   1      43.131  25.675  34.964  1.00  0.00    -0.203 F 
ATOM     64  F   UNL A   1      48.023  28.093  34.918  1.00  0.00    -0.200 F 
ATOM     65  C   UNL A   1      46.627  26.332  35.642  1.00  0.00     0.200 A 
ATOM     66  F   UNL A   1      45.196  24.584  36.331  1.00  0.00    -0.200 F 
ATOM     67  F   UNL A   1      47.650  25.773  36.303  1.00  0.00    -0.200 F 
ENDBRANCH  43  57
BRANCH  44  68
ATOM     68  C   UNL A   1      36.803  31.351  29.187  1.00  0.00     0.064 A 
ATOM     69  C   UNL A   1      36.759  32.703  28.823  1.00  0.00     0.173 A 
ATOM     70  C   UNL A   1      35.701  30.548  28.854  1.00  0.00     0.173 A 
ATOM     71  F   UNL A   1      37.775  33.516  29.145  1.00  0.00    -0.203 F 
ATOM     72  C   UNL A   1      35.652  33.235  28.163  1.00  0.00     0.198 A 
ATOM     73  C   UNL A   1      34.607  31.074  28.172  1.00  0.00     0.198 A 
ATOM     74  F   UNL A   1      35.693  29.248  29.184  1.00  0.00    -0.203 F 
ATOM     75  F   UNL A   1      35.616  34.540  27.864  1.00  0.00    -0.200 F 
ATOM     76  C   UNL A   1      34.580  32.419  27.834  1.00  0.00     0.200 A 
ATOM     77  F   UNL A   1      33.579  30.280  27.846  1.00  0.00    -0.200 F 
ATOM     78  F   UNL A   1      33.517  32.930  27.198  1.00  0.00    -0.200 F 
ENDBRANCH  44  68
BRANCH  56  79
ATOM     79  C   UNL A   1      39.146  32.104  35.708  1.00  0.00     0.064 A 
ATOM     80  C   UNL A   1      38.317  31.552  36.696  1.00  0.00     0.173 A 
ATOM     81  C   UNL A   1      39.559  33.436  35.867  1.00  0.00     0.173 A 
ATOM     82  F   UNL A   1      37.882  30.288  36.582  1.00  0.00    -0.203 F 
ATOM     83  C   UNL A   1      37.906  32.309  37.789  1.00  0.00     0.198 A 
ATOM     84  C   UNL A   1      39.168  34.182  36.975  1.00  0.00     0.198 A 
ATOM     85  F   UNL A   1      40.357  34.010  34.953  1.00  0.00    -0.203 F 
ATOM     86  F   UNL A   1      37.082  31.773  38.701  1.00  0.00    -0.200 F 
ATOM     87  C   UNL A   1      38.338  33.620  37.933  1.00  0.00     0.200 A 
ATOM     88  F   UNL A   1      39.596  35.444  37.118  1.00  0.00    -0.200 F 
ATOM     89  F   UNL A   1      37.948  34.342  38.992  1.00  0.00    -0.200 F 
ENDBRANCH  56  79
ENDBRANCH  30  31
ENDBRANCH  23  25
ENDBRANCH  22  23
ENDBRANCH  21  22
ENDBRANCH  20  21
ENDBRANCH   1  20
TORSDOF 16
ENDMDL
MODEL 2
REMARK VINA RESULT:     -11.6      3.092      8.338
REMARK SMILES CC1(C(=O)N2CC(CC(=O)OCCOCCOC(=O)c3ccc(-c4c5nc(c(-c6c(F)c(F)c(F)c(F)c6F)c6ccc([nH]6)c(-c6c(F)c(F)c(F)c(F)c6F)c6nc(c(-c7c(F)c(F)c(F)c(F)c7F)c7ccc4[nH]7)C=C6)C=C5)cc3)C2)CCCC1
REMARK SMILES IDX 14 1 13 2 12 3 11 4 9 5 10 6 8 7 7 8 3 9 4 10 5 11 6 12
REMARK SMILES IDX 83 13 2 14 1 15 84 16 87 17 85 18 86 19 15 20 16 21 17 22
REMARK SMILES IDX 18 23 19 24 20 25 21 26 82 27 22 28 81 29 23 30 24 31 25 32
REMARK SMILES IDX 75 33 26 34 80 35 74 36 76 37 27 38 79 39 73 40 72 41 28 43
REMARK SMILES IDX 60 44 40 45 59 46 41 47 44 48 58 49 77 50 42 51 43 52 57 54
REMARK SMILES IDX 78 55 45 56 29 57 30 58 38 59 31 60 32 61 36 62 39 63 33 64
REMARK SMILES IDX 34 65 37 66 35 67 61 68 62 69 70 70 63 71 64 72 68 73 71 74
REMARK SMILES IDX 65 75 66 76 69 77 67 78 46 79 47 80 55 81 48 82 49 83 53 84
REMARK SMILES IDX 56 85 50 86 51 87 54 88 52 89
REMARK H PARENT 76 42 44 53
REMARK Flexibility Score: inf
ROOT
ATOM      1  O   UNL A   1      31.051  27.552  26.975  1.00  0.00    -0.374 OA
ENDROOT
BRANCH   1   2
ATOM      2  C   UNL A   1      31.094  27.418  25.556  1.00  0.00     0.202 C 
BRANCH   2   3
ATOM      3  C   UNL A   1      31.642  26.093  25.018  1.00  0.00     0.261 C 
BRANCH   3   4
ATOM      4  O   UNL A   1      31.963  25.180  26.087  1.00  0.00    -0.463 OA
BRANCH   4   5
ATOM      5  C   UNL A   1      31.126  24.118  26.211  1.00  0.00     0.306 C 
ATOM      6  O   UNL A   1      30.577  23.773  27.251  1.00  0.00    -0.252 OA
BRANCH   5   7
ATOM      7  C   UNL A   1      30.943  23.351  24.928  1.00  0.00     0.130 C 
BRANCH   7   8
ATOM      8  C   UNL A   1      32.055  22.399  24.507  1.00  0.00     0.039 C 
ATOM      9  C   UNL A   1      35.185  21.458  24.925  1.00  0.00     0.228 C 
ATOM     10  O   UNL A   1      35.147  20.232  25.003  1.00  0.00    -0.274 OA
ATOM     11  N   UNL A   1      34.051  22.230  25.068  1.00  0.00    -0.342 N 
ATOM     12  C   UNL A   1      32.810  21.794  25.692  1.00  0.00     0.125 C 
ATOM     13  C   UNL A   1      33.381  23.008  24.029  1.00  0.00     0.125 C 
BRANCH   9  14
ATOM     14  C   UNL A   1      36.501  22.244  24.799  1.00  0.00     0.047 C 
ATOM     15  C   UNL A   1      36.754  22.725  23.367  1.00  0.00     0.022 C 
ATOM     16  C   UNL A   1      37.692  21.409  25.309  1.00  0.00     0.016 C 
ATOM     17  C   UNL A   1      36.501  23.410  25.805  1.00  0.00     0.016 C 
ATOM     18  C   UNL A   1      38.736  22.425  25.765  1.00  0.00     0.001 C 
ATOM     19  C   UNL A   1      37.965  23.690  26.128  1.00  0.00     0.001 C 
ENDBRANCH   9  14
ENDBRANCH   7   8
ENDBRANCH   5   7
ENDBRANCH   4   5
ENDBRANCH   3   4
ENDBRANCH   2   3
ENDBRANCH   1   2
BRANCH   1  20
ATOM     20  C   UNL A   1      31.790  28.624  27.558  1.00  0.00     0.202 C 
BRANCH  20  21
ATOM     21  C   UNL A   1      31.770  29.958  26.800  1.00  0.00     0.261 C 
BRANCH  21  22
ATOM     22  O   UNL A   1      33.089  30.412  26.440  1.00  0.00    -0.460 OA
BRANCH  22  23
ATOM     23  C   UNL A   1      33.571  31.420  27.207  1.00  0.00     0.338 C 
ATOM     24  O   UNL A   1      32.986  32.439  27.551  1.00  0.00    -0.246 OA
BRANCH  23  25
ATOM     25  C   UNL A   1      34.891  31.059  27.754  1.00  0.00     0.060 A 
ATOM     26  C   UNL A   1      35.109  29.712  28.079  1.00  0.00     0.016 A 
ATOM     27  C   UNL A   1      35.867  32.019  28.022  1.00  0.00     0.016 A 
ATOM     28  C   UNL A   1      36.292  29.328  28.707  1.00  0.00     0.010 A 
ATOM     29  C   UNL A   1      37.050  31.632  28.663  1.00  0.00     0.010 A 
ATOM     30  C   UNL A   1      37.256  30.290  29.033  1.00  0.00    -0.014 A 
BRANCH  30  31
ATOM     31  C   UNL A   1      38.417  29.909  29.875  1.00  0.00     0.031 A 
ATOM     32  C   UNL A   1      39.419  28.924  29.340  1.00  0.00     0.074 A 
ATOM     33  C   UNL A   1      38.593  30.455  31.091  1.00  0.00     0.049 A 
ATOM     34  N   UNL A   1      40.480  28.421  29.919  1.00  0.00    -0.248 NA
ATOM     35  C   UNL A   1      39.196  28.444  27.968  1.00  0.00     0.031 C 
ATOM     36  C   UNL A   1      37.720  31.454  31.701  1.00  0.00     0.029 A 
ATOM     37  N   UNL A   1      39.566  30.235  32.034  1.00  0.00    -0.354 N 
ATOM     38  C   UNL A   1      41.048  27.563  28.985  1.00  0.00     0.074 A 
ATOM     39  C   UNL A   1      40.201  27.594  27.812  1.00  0.00     0.031 C 
ATOM     40  C   UNL A   1      38.190  31.754  32.924  1.00  0.00     0.029 A 
ATOM     41  C   UNL A   1      39.376  30.943  33.195  1.00  0.00     0.049 A 
ATOM     42  H   UNL A   1      40.327  29.628  31.892  1.00  0.00     0.167 HD
ATOM     43  C   UNL A   1      42.178  26.825  29.095  1.00  0.00     0.037 A 
ATOM     44  C   UNL A   1      40.068  30.921  34.351  1.00  0.00     0.037 A 
ATOM     45  C   UNL A   1      43.021  26.795  30.261  1.00  0.00     0.049 A 
ATOM     46  C   UNL A   1      41.274  30.026  34.477  1.00  0.00     0.074 A 
ATOM     47  C   UNL A   1      44.198  26.093  30.458  1.00  0.00     0.029 A 
ATOM     48  N   UNL A   1      42.773  27.494  31.432  1.00  0.00    -0.354 N 
ATOM     49  N   UNL A   1      41.816  29.235  33.583  1.00  0.00    -0.248 NA
ATOM     50  C   UNL A   1      41.963  30.021  35.776  1.00  0.00     0.031 C 
ATOM     51  C   UNL A   1      44.636  26.329  31.765  1.00  0.00     0.029 A 
ATOM     52  C   UNL A   1      43.757  27.217  32.367  1.00  0.00     0.049 A 
ATOM     53  H   UNL A   1      42.008  28.098  31.579  1.00  0.00     0.167 HD
ATOM     54  C   UNL A   1      42.920  28.661  34.199  1.00  0.00     0.074 A 
ATOM     55  C   UNL A   1      42.979  29.201  35.541  1.00  0.00     0.031 C 
ATOM     56  C   UNL A   1      43.807  27.766  33.697  1.00  0.00     0.037 A 
BRANCH  43  57
ATOM     57  C   UNL A   1      42.557  25.963  27.928  1.00  0.00     0.064 A 
ATOM     58  C   UNL A   1      42.080  24.651  27.795  1.00  0.00     0.173 A 
ATOM     59  C   UNL A   1      43.375  26.471  26.908  1.00  0.00     0.173 A 
ATOM     60  F   UNL A   1      41.304  24.115  28.751  1.00  0.00    -0.203 F 
ATOM     61  C   UNL A   1      42.426  23.871  26.695  1.00  0.00     0.198 A 
ATOM     62  C   UNL A   1      43.699  25.698  25.796  1.00  0.00     0.198 A 
ATOM     63  F   UNL A   1      43.855  27.721  26.985  1.00  0.00    -0.203 F 
ATOM     64  F   UNL A   1      41.990  22.606  26.608  1.00  0.00    -0.200 F 
ATOM     65  C   UNL A   1      43.229  24.397  25.693  1.00  0.00     0.200 A 
ATOM     66  F   UNL A   1      44.466  26.210  24.825  1.00  0.00    -0.200 F 
ATOM     67  F   UNL A   1      43.555  23.647  24.631  1.00  0.00    -0.200 F 
ENDBRANCH  43  57
BRANCH  44  68
ATOM     68  C   UNL A   1      39.625  31.759  35.495  1.00  0.00     0.064 A 
ATOM     69  C   UNL A   1      38.636  31.310  36.380  1.00  0.00     0.173 A 
ATOM     70  C   UNL A   1      40.169  33.033  35.714  1.00  0.00     0.173 A 
ATOM     71  F   UNL A   1      38.067  30.111  36.195  1.00  0.00    -0.203 F 
ATOM     72  C   UNL A   1      38.198  32.111  37.434  1.00  0.00     0.198 A 
ATOM     73  C   UNL A   1      39.750  33.822  36.782  1.00  0.00     0.198 A 
ATOM     74  F   UNL A   1      41.117  33.510  34.892  1.00  0.00    -0.203 F 
ATOM     75  F   UNL A   1      37.221  31.676  38.241  1.00  0.00    -0.200 F 
ATOM     76  C   UNL A   1      38.759  33.363  37.637  1.00  0.00     0.200 A 
ATOM     77  F   UNL A   1      40.302  35.026  36.981  1.00  0.00    -0.200 F 
ATOM     78  F   UNL A   1      38.339  34.131  38.651  1.00  0.00    -0.200 F 
ENDBRANCH  44  68
BRANCH  56  79
ATOM     79  C   UNL A   1      44.934  27.336  34.588  1.00  0.00     0.064 A 
ATOM     80  C   UNL A   1      46.133  28.061  34.659  1.00  0.00     0.173 A 
ATOM     81  C   UNL A   1      44.795  26.214  35.421  1.00  0.00     0.173 A 
ATOM     82  F   UNL A   1      46.321  29.131  33.873  1.00  0.00    -0.203 F 
ATOM     83  C   UNL A   1      47.156  27.667  35.517  1.00  0.00     0.198 A 
ATOM     84  C   UNL A   1      45.809  25.839  36.296  1.00  0.00     0.198 A 
ATOM     85  F   UNL A   1      43.666  25.490  35.394  1.00  0.00    -0.203 F 
ATOM     86  F   UNL A   1      48.309  28.352  35.540  1.00  0.00    -0.200 F 
ATOM     87  C   UNL A   1      46.991  26.563  36.340  1.00  0.00     0.200 A 
ATOM     88  F   UNL A   1      45.643  24.779  37.099  1.00  0.00    -0.200 F 
ATOM     89  F   UNL A   1      47.975  26.192  37.171  1.00  0.00    -0.200 F 
ENDBRANCH  56  79
ENDBRANCH  30  31
ENDBRANCH  23  25
ENDBRANCH  22  23
ENDBRANCH  21  22
ENDBRANCH  20  21
ENDBRANCH   1  20
TORSDOF 16
ENDMDL
MODEL 3
REMARK VINA RESULT:     -11.5      1.542      2.554
REMARK SMILES CC1(C(=O)N2CC(CC(=O)OCCOCCOC(=O)c3ccc(-c4c5nc(c(-c6c(F)c(F)c(F)c(F)c6F)c6ccc([nH]6)c(-c6c(F)c(F)c(F)c(F)c6F)c6nc(c(-c7c(F)c(F)c(F)c(F)c7F)c7ccc4[nH]7)C=C6)C=C5)cc3)C2)CCCC1
REMARK SMILES IDX 14 1 13 2 12 3 11 4 9 5 10 6 8 7 7 8 3 9 4 10 5 11 6 12
REMARK SMILES IDX 83 13 2 14 1 15 84 16 87 17 85 18 86 19 15 20 16 21 17 22
REMARK SMILES IDX 18 23 19 24 20 25 21 26 82 27 22 28 81 29 23 30 24 31 25 32
REMARK SMILES IDX 75 33 26 34 80 35 74 36 76 37 27 38 79 39 73 40 72 41 28 43
REMARK SMILES IDX 60 44 40 45 59 46 41 47 44 48 58 49 77 50 42 51 43 52 57 54
REMARK SMILES IDX 78 55 45 56 29 57 30 58 38 59 31 60 32 61 36 62 39 63 33 64
REMARK SMILES IDX 34 65 37 66 35 67 61 68 62 69 70 70 63 71 64 72 68 73 71 74
REMARK SMILES IDX 65 75 66 76 69 77 67 78 46 79 47 80 55 81 48 82 49 83 53 84
REMARK SMILES IDX 56 85 50 86 51 87 54 88 52 89
REMARK H PARENT 76 42 44 53
REMARK Flexibility Score: inf
ROOT
ATOM      1  O   UNL A   1      41.628  19.846  26.110  1.00  0.00    -0.374 OA
ENDROOT
BRANCH   1   2
ATOM      2  C   UNL A   1      40.208  19.981  26.125  1.00  0.00     0.202 C 
BRANCH   2   3
ATOM      3  C   UNL A   1      39.666  21.413  26.134  1.00  0.00     0.261 C 
BRANCH   3   4
ATOM      4  O   UNL A   1      38.358  21.488  25.532  1.00  0.00    -0.463 OA
BRANCH   4   5
ATOM      5  C   UNL A   1      37.739  22.692  25.641  1.00  0.00     0.306 C 
ATOM      6  O   UNL A   1      38.256  23.709  26.086  1.00  0.00    -0.252 OA
BRANCH   5   7
ATOM      7  C   UNL A   1      36.306  22.668  25.182  1.00  0.00     0.130 C 
BRANCH   7   8
ATOM      8  C   UNL A   1      35.244  23.181  26.147  1.00  0.00     0.039 C 
ATOM      9  C   UNL A   1      32.146  24.233  26.530  1.00  0.00     0.228 C 
ATOM     10  O   UNL A   1      31.718  23.631  27.513  1.00  0.00    -0.274 OA
ATOM     11  N   UNL A   1      33.286  23.828  25.871  1.00  0.00    -0.342 N 
ATOM     12  C   UNL A   1      33.885  22.504  25.961  1.00  0.00     0.125 C 
ATOM     13  C   UNL A   1      34.571  24.523  25.827  1.00  0.00     0.125 C 
BRANCH   9  14
ATOM     14  C   UNL A   1      31.385  25.396  25.871  1.00  0.00     0.047 C 
ATOM     15  C   UNL A   1      29.878  25.329  26.139  1.00  0.00     0.022 C 
ATOM     16  C   UNL A   1      31.664  25.450  24.357  1.00  0.00     0.016 C 
ATOM     17  C   UNL A   1      31.990  26.734  26.335  1.00  0.00     0.016 C 
ATOM     18  C   UNL A   1      31.461  26.909  23.957  1.00  0.00     0.001 C 
ATOM     19  C   UNL A   1      31.719  27.733  25.214  1.00  0.00     0.001 C 
ENDBRANCH   9  14
ENDBRANCH   7   8
ENDBRANCH   5   7
ENDBRANCH   4   5
ENDBRANCH   3   4
ENDBRANCH   2   3
ENDBRANCH   1   2
BRANCH   1  20
ATOM     20  C   UNL A   1      42.400  20.961  26.549  1.00  0.00     0.202 C 
BRANCH  20  21
ATOM     21  C   UNL A   1      43.345  21.587  25.513  1.00  0.00     0.261 C 
BRANCH  21  22
ATOM     22  O   UNL A   1      42.808  22.790  24.928  1.00  0.00    -0.460 OA
BRANCH  22  23
ATOM     23  C   UNL A   1      43.586  23.890  25.081  1.00  0.00     0.338 C 
ATOM     24  O   UNL A   1      44.608  24.169  24.470  1.00  0.00    -0.246 OA
BRANCH  23  25
ATOM     25  C   UNL A   1      42.939  24.848  25.995  1.00  0.00     0.060 A 
ATOM     26  C   UNL A   1      43.542  26.106  26.145  1.00  0.00     0.016 A 
ATOM     27  C   UNL A   1      41.819  24.505  26.753  1.00  0.00     0.016 A 
ATOM     28  C   UNL A   1      43.047  27.010  27.082  1.00  0.00     0.010 A 
ATOM     29  C   UNL A   1      41.329  25.413  27.700  1.00  0.00     0.010 A 
ATOM     30  C   UNL A   1      41.958  26.657  27.889  1.00  0.00    -0.014 A 
BRANCH  30  31
ATOM     31  C   UNL A   1      41.561  27.540  29.014  1.00  0.00     0.031 A 
ATOM     32  C   UNL A   1      42.348  27.496  30.294  1.00  0.00     0.074 A 
ATOM     33  C   UNL A   1      40.527  28.391  28.887  1.00  0.00     0.049 A 
ATOM     34  N   UNL A   1      42.151  28.147  31.413  1.00  0.00    -0.248 NA
ATOM     35  C   UNL A   1      43.513  26.600  30.315  1.00  0.00     0.031 C 
ATOM     36  C   UNL A   1      39.718  28.561  27.684  1.00  0.00     0.029 A 
ATOM     37  N   UNL A   1      39.980  29.268  29.791  1.00  0.00    -0.354 N 
ATOM     38  C   UNL A   1      43.164  27.737  32.271  1.00  0.00     0.074 A 
ATOM     39  C   UNL A   1      43.957  26.762  31.553  1.00  0.00     0.031 C 
ATOM     40  C   UNL A   1      38.766  29.479  27.926  1.00  0.00     0.029 A 
ATOM     41  C   UNL A   1      38.879  29.934  29.311  1.00  0.00     0.049 A 
ATOM     42  H   UNL A   1      40.342  29.405  30.695  1.00  0.00     0.167 HD
ATOM     43  C   UNL A   1      43.412  28.144  33.539  1.00  0.00     0.037 A 
ATOM     44  C   UNL A   1      38.047  30.795  29.928  1.00  0.00     0.037 A 
ATOM     45  C   UNL A   1      42.624  29.114  34.252  1.00  0.00     0.049 A 
ATOM     46  C   UNL A   1      38.297  31.168  31.367  1.00  0.00     0.074 A 
ATOM     47  C   UNL A   1      42.811  29.605  35.533  1.00  0.00     0.029 A 
ATOM     48  N   UNL A   1      41.492  29.735  33.747  1.00  0.00    -0.354 N 
ATOM     49  N   UNL A   1      39.268  30.793  32.163  1.00  0.00    -0.248 NA
ATOM     50  C   UNL A   1      37.332  32.084  31.992  1.00  0.00     0.031 C 
ATOM     51  C   UNL A   1      41.764  30.488  35.820  1.00  0.00     0.029 A 
ATOM     52  C   UNL A   1      40.953  30.583  34.701  1.00  0.00     0.049 A 
ATOM     53  H   UNL A   1      41.126  29.595  32.843  1.00  0.00     0.167 HD
ATOM     54  C   UNL A   1      39.047  31.444  33.369  1.00  0.00     0.074 A 
ATOM     55  C   UNL A   1      37.855  32.247  33.199  1.00  0.00     0.031 C 
ATOM     56  C   UNL A   1      39.769  31.382  34.516  1.00  0.00     0.037 A 
BRANCH  43  57
ATOM     57  C   UNL A   1      44.575  27.519  34.250  1.00  0.00     0.064 A 
ATOM     58  C   UNL A   1      45.852  28.100  34.224  1.00  0.00     0.173 A 
ATOM     59  C   UNL A   1      44.401  26.347  35.000  1.00  0.00     0.173 A 
ATOM     60  F   UNL A   1      46.072  29.215  33.509  1.00  0.00    -0.203 F 
ATOM     61  C   UNL A   1      46.917  27.517  34.906  1.00  0.00     0.198 A 
ATOM     62  C   UNL A   1      45.463  25.781  35.702  1.00  0.00     0.198 A 
ATOM     63  F   UNL A   1      43.200  25.755  35.061  1.00  0.00    -0.203 F 
ATOM     64  F   UNL A   1      48.137  28.067  34.835  1.00  0.00    -0.200 F 
ATOM     65  C   UNL A   1      46.720  26.363  35.650  1.00  0.00     0.200 A 
ATOM     66  F   UNL A   1      45.268  24.672  36.428  1.00  0.00    -0.200 F 
ATOM     67  F   UNL A   1      47.745  25.808  36.311  1.00  0.00    -0.200 F 
ENDBRANCH  43  57
BRANCH  44  68
ATOM     68  C   UNL A   1      36.881  31.352  29.194  1.00  0.00     0.064 A 
ATOM     69  C   UNL A   1      36.847  32.698  28.805  1.00  0.00     0.173 A 
ATOM     70  C   UNL A   1      35.769  30.554  28.886  1.00  0.00     0.173 A 
ATOM     71  F   UNL A   1      37.874  33.507  29.102  1.00  0.00    -0.203 F 
ATOM     72  C   UNL A   1      35.738  33.227  28.146  1.00  0.00     0.198 A 
ATOM     73  C   UNL A   1      34.673  31.077  28.205  1.00  0.00     0.198 A 
ATOM     74  F   UNL A   1      35.752  29.260  29.241  1.00  0.00    -0.203 F 
ATOM     75  F   UNL A   1      35.712  34.527  27.823  1.00  0.00    -0.200 F 
ATOM     76  C   UNL A   1      34.655  32.416  27.842  1.00  0.00     0.200 A 
ATOM     77  F   UNL A   1      33.635  30.287  27.904  1.00  0.00    -0.200 F 
ATOM     78  F   UNL A   1      33.591  32.925  27.207  1.00  0.00    -0.200 F 
ENDBRANCH  44  68
BRANCH  56  79
ATOM     79  C   UNL A   1      39.310  32.226  35.668  1.00  0.00     0.064 A 
ATOM     80  C   UNL A   1      38.438  31.724  36.646  1.00  0.00     0.173 A 
ATOM     81  C   UNL A   1      39.789  33.536  35.825  1.00  0.00     0.173 A 
ATOM     82  F   UNL A   1      37.941  30.483  36.533  1.00  0.00    -0.203 F 
ATOM     83  C   UNL A   1      38.049  32.509  37.728  1.00  0.00     0.198 A 
ATOM     84  C   UNL A   1      39.419  34.309  36.922  1.00  0.00     0.198 A 
ATOM     85  F   UNL A   1      40.629  34.061  34.921  1.00  0.00    -0.203 F 
ATOM     86  F   UNL A   1      37.185  32.023  38.629  1.00  0.00    -0.200 F 
ATOM     87  C   UNL A   1      38.545  33.797  37.869  1.00  0.00     0.200 A 
ATOM     88  F   UNL A   1      39.908  35.548  37.063  1.00  0.00    -0.200 F 
ATOM     89  F   UNL A   1      38.176  34.547  38.917  1.00  0.00    -0.200 F 
ENDBRANCH  56  79
ENDBRANCH  30  31
ENDBRANCH  23  25
ENDBRANCH  22  23
ENDBRANCH  21  22
ENDBRANCH  20  21
ENDBRANCH   1  20
TORSDOF 16
ENDMDL
