MODEL 1
REMARK VINA RESULT:     -10.7      0.000      0.000
REMARK SMILES O=CN1CCC[C@@H](C(=O)OCCOCCOC(=O)c2ccc(-c3c4nc(c(-c5c(F)c(F)c(F)c(F)c5F)c5ccc([nH]5)c(-c5c(F)c(F)c(F)c(F)c5F)c5nc(c(-c6c(F)c(F)c(F)c(F)c6F)c6ccc3[nH]6)C=C5)C=C4)cc2)C1
REMARK SMILES IDX 14 1 13 2 12 3 11 4 10 5 8 6 9 7 7 8 3 9 4 10 82 11 5 12
REMARK SMILES IDX 6 13 2 14 1 15 15 16 16 17 17 18 18 19 19 20 20 21 81 22
REMARK SMILES IDX 21 23 80 24 22 25 23 26 24 27 74 28 25 29 79 30 73 31 75 32
REMARK SMILES IDX 26 33 78 34 72 35 71 36 27 38 59 39 39 40 58 41 40 42 43 43
REMARK SMILES IDX 57 44 76 45 41 46 42 47 56 49 77 50 44 51 28 52 29 53 37 54
REMARK SMILES IDX 30 55 31 56 35 57 38 58 32 59 33 60 36 61 34 62 60 63 61 64
REMARK SMILES IDX 69 65 62 66 63 67 67 68 70 69 64 70 65 71 68 72 66 73 45 74
REMARK SMILES IDX 46 75 54 76 47 77 48 78 52 79 55 80 49 81 50 82 53 83 51 84
REMARK H PARENT 75 37 43 48
REMARK Flexibility Score: inf
ROOT
ATOM      1  C   UNL A   1      42.794  20.699  26.199  1.00  0.00     0.202 C 
ENDROOT
BRANCH   1   2
ATOM      2  O   UNL A   1      41.506  20.384  25.667  1.00  0.00    -0.374 OA
BRANCH   2   3
ATOM      3  C   UNL A   1      40.370  20.615  26.500  1.00  0.00     0.202 C 
BRANCH   3   4
ATOM      4  C   UNL A   1      39.517  21.835  26.145  1.00  0.00     0.261 C 
BRANCH   4   5
ATOM      5  O   UNL A   1      38.363  21.433  25.393  1.00  0.00    -0.463 OA
BRANCH   5   6
ATOM      6  C   UNL A   1      37.425  22.400  25.200  1.00  0.00     0.310 C 
ATOM      7  O   UNL A   1      37.537  23.568  25.544  1.00  0.00    -0.252 OA
BRANCH   6   8
ATOM      8  C   UNL A   1      36.227  21.840  24.463  1.00  0.00     0.119 C 
ATOM      9  N   UNL A   1      34.207  20.495  24.831  1.00  0.00    -0.344 N 
ATOM     10  C   UNL A   1      33.308  21.593  24.524  1.00  0.00     0.119 C 
ATOM     11  C   UNL A   1      35.510  20.855  25.378  1.00  0.00     0.134 C 
ATOM     12  C   UNL A   1      33.962  22.510  23.497  1.00  0.00     0.022 C 
ATOM     13  C   UNL A   1      35.320  22.997  24.000  1.00  0.00     0.019 C 
BRANCH   9  14
ATOM     14  C   UNL A   1      33.892  19.188  24.527  1.00  0.00     0.339 C 
ATOM     15  O   UNL A   1      34.646  18.229  24.626  1.00  0.00    -0.279 OA
ENDBRANCH   9  14
ENDBRANCH   6   8
ENDBRANCH   5   6
ENDBRANCH   4   5
ENDBRANCH   3   4
ENDBRANCH   2   3
ENDBRANCH   1   2
BRANCH   1  16
ATOM     16  C   UNL A   1      43.647  21.688  25.394  1.00  0.00     0.261 C 
BRANCH  16  17
ATOM     17  O   UNL A   1      42.892  22.829  24.948  1.00  0.00    -0.460 OA
BRANCH  17  18
ATOM     18  C   UNL A   1      43.555  24.006  25.002  1.00  0.00     0.338 C 
ATOM     19  O   UNL A   1      44.506  24.358  24.313  1.00  0.00    -0.246 OA
BRANCH  18  20
ATOM     20  C   UNL A   1      42.865  24.938  25.911  1.00  0.00     0.060 A 
ATOM     21  C   UNL A   1      43.383  26.235  26.025  1.00  0.00     0.016 A 
ATOM     22  C   UNL A   1      41.788  24.530  26.701  1.00  0.00     0.016 A 
ATOM     23  C   UNL A   1      42.852  27.119  26.962  1.00  0.00     0.010 A 
ATOM     24  C   UNL A   1      41.266  25.415  27.651  1.00  0.00     0.010 A 
ATOM     25  C   UNL A   1      41.817  26.699  27.809  1.00  0.00    -0.014 A 
BRANCH  25  26
ATOM     26  C   UNL A   1      41.416  27.554  28.951  1.00  0.00     0.031 A 
ATOM     27  C   UNL A   1      42.199  27.470  30.232  1.00  0.00     0.074 A 
ATOM     28  C   UNL A   1      40.387  28.411  28.842  1.00  0.00     0.049 A 
ATOM     29  N   UNL A   1      42.006  28.092  31.368  1.00  0.00    -0.248 NA
ATOM     30  C   UNL A   1      43.356  26.561  30.233  1.00  0.00     0.031 C 
ATOM     31  C   UNL A   1      39.580  28.611  27.641  1.00  0.00     0.029 A 
ATOM     32  N   UNL A   1      39.839  29.267  29.765  1.00  0.00    -0.354 N 
ATOM     33  C   UNL A   1      43.011  27.648  32.217  1.00  0.00     0.074 A 
ATOM     34  C   UNL A   1      43.797  26.685  31.476  1.00  0.00     0.031 C 
ATOM     35  C   UNL A   1      38.629  29.525  27.903  1.00  0.00     0.029 A 
ATOM     36  C   UNL A   1      38.743  29.948  29.299  1.00  0.00     0.049 A 
ATOM     37  H   UNL A   1      40.200  29.383  30.674  1.00  0.00     0.167 HD
ATOM     38  C   UNL A   1      43.258  28.017  33.496  1.00  0.00     0.037 A 
ATOM     39  C   UNL A   1      37.913  30.797  29.935  1.00  0.00     0.037 A 
ATOM     40  C   UNL A   1      42.475  28.974  34.231  1.00  0.00     0.049 A 
ATOM     41  C   UNL A   1      38.167  31.134  31.381  1.00  0.00     0.074 A 
ATOM     42  C   UNL A   1      42.657  29.428  35.525  1.00  0.00     0.029 A 
ATOM     43  N   UNL A   1      41.351  29.618  33.735  1.00  0.00    -0.354 N 
ATOM     44  N   UNL A   1      39.134  30.731  32.169  1.00  0.00    -0.248 NA
ATOM     45  C   UNL A   1      37.211  32.047  32.026  1.00  0.00     0.031 C 
ATOM     46  C   UNL A   1      41.617  30.312  35.828  1.00  0.00     0.029 A 
ATOM     47  C   UNL A   1      40.814  30.447  34.706  1.00  0.00     0.049 A 
ATOM     48  H   UNL A   1      40.988  29.504  32.827  1.00  0.00     0.167 HD
ATOM     49  C   UNL A   1      38.921  31.358  33.390  1.00  0.00     0.074 A 
ATOM     50  C   UNL A   1      37.738  32.179  33.236  1.00  0.00     0.031 C 
ATOM     51  C   UNL A   1      39.641  31.265  34.535  1.00  0.00     0.037 A 
BRANCH  38  52
ATOM     52  C   UNL A   1      44.413  27.360  34.192  1.00  0.00     0.064 A 
ATOM     53  C   UNL A   1      44.265  26.146  34.878  1.00  0.00     0.173 A 
ATOM     54  C   UNL A   1      45.692  27.936  34.143  1.00  0.00     0.173 A 
ATOM     55  F   UNL A   1      43.061  25.562  34.965  1.00  0.00    -0.203 F 
ATOM     56  C   UNL A   1      45.351  25.544  35.509  1.00  0.00     0.198 A 
ATOM     57  C   UNL A   1      46.779  27.319  34.754  1.00  0.00     0.198 A 
ATOM     58  F   UNL A   1      45.886  29.096  33.497  1.00  0.00    -0.203 F 
ATOM     59  F   UNL A   1      45.180  24.405  36.195  1.00  0.00    -0.200 F 
ATOM     60  C   UNL A   1      46.608  26.127  35.441  1.00  0.00     0.200 A 
ATOM     61  F   UNL A   1      47.995  27.879  34.678  1.00  0.00    -0.200 F 
ATOM     62  F   UNL A   1      47.653  25.544  36.044  1.00  0.00    -0.200 F 
ENDBRANCH  38  52
BRANCH  39  63
ATOM     63  C   UNL A   1      36.752  31.378  29.213  1.00  0.00     0.064 A 
ATOM     64  C   UNL A   1      36.748  32.722  28.814  1.00  0.00     0.173 A 
ATOM     65  C   UNL A   1      35.618  30.607  28.923  1.00  0.00     0.173 A 
ATOM     66  F   UNL A   1      37.799  33.506  29.093  1.00  0.00    -0.203 F 
ATOM     67  C   UNL A   1      35.646  33.275  28.164  1.00  0.00     0.198 A 
ATOM     68  C   UNL A   1      34.527  31.154  28.250  1.00  0.00     0.198 A 
ATOM     69  F   UNL A   1      35.570  29.317  29.288  1.00  0.00    -0.203 F 
ATOM     70  F   UNL A   1      35.650  34.573  27.832  1.00  0.00    -0.200 F 
ATOM     71  C   UNL A   1      34.540  32.490  27.878  1.00  0.00     0.200 A 
ATOM     72  F   UNL A   1      33.463  30.390  27.968  1.00  0.00    -0.200 F 
ATOM     73  F   UNL A   1      33.481  33.022  27.251  1.00  0.00    -0.200 F 
ENDBRANCH  39  63
BRANCH  51  74
ATOM     74  C   UNL A   1      39.195  32.096  35.702  1.00  0.00     0.064 A 
ATOM     75  C   UNL A   1      38.313  31.593  36.668  1.00  0.00     0.173 A 
ATOM     76  C   UNL A   1      39.698  33.393  35.882  1.00  0.00     0.173 A 
ATOM     77  F   UNL A   1      37.793  30.363  36.532  1.00  0.00    -0.203 F 
ATOM     78  C   UNL A   1      37.934  32.367  37.762  1.00  0.00     0.198 A 
ATOM     79  C   UNL A   1      39.340  34.153  36.992  1.00  0.00     0.198 A 
ATOM     80  F   UNL A   1      40.552  33.918  34.989  1.00  0.00    -0.203 F 
ATOM     81  F   UNL A   1      37.058  31.881  38.653  1.00  0.00    -0.200 F 
ATOM     82  C   UNL A   1      38.454  33.642  37.928  1.00  0.00     0.200 A 
ATOM     83  F   UNL A   1      39.853  35.381  37.156  1.00  0.00    -0.200 F 
ATOM     84  F   UNL A   1      38.095  34.381  38.986  1.00  0.00    -0.200 F 
ENDBRANCH  51  74
ENDBRANCH  25  26
ENDBRANCH  18  20
ENDBRANCH  17  18
ENDBRANCH  16  17
ENDBRANCH   1  16
TORSDOF 15
ENDMDL
MODEL 2
REMARK VINA RESULT:     -10.5      4.661      8.944
REMARK SMILES O=CN1CCC[C@@H](C(=O)OCCOCCOC(=O)c2ccc(-c3c4nc(c(-c5c(F)c(F)c(F)c(F)c5F)c5ccc([nH]5)c(-c5c(F)c(F)c(F)c(F)c5F)c5nc(c(-c6c(F)c(F)c(F)c(F)c6F)c6ccc3[nH]6)C=C5)C=C4)cc2)C1
REMARK SMILES IDX 14 1 13 2 12 3 11 4 10 5 8 6 9 7 7 8 3 9 4 10 82 11 5 12
REMARK SMILES IDX 6 13 2 14 1 15 15 16 16 17 17 18 18 19 19 20 20 21 81 22
REMARK SMILES IDX 21 23 80 24 22 25 23 26 24 27 74 28 25 29 79 30 73 31 75 32
REMARK SMILES IDX 26 33 78 34 72 35 71 36 27 38 59 39 39 40 58 41 40 42 43 43
REMARK SMILES IDX 57 44 76 45 41 46 42 47 56 49 77 50 44 51 28 52 29 53 37 54
REMARK SMILES IDX 30 55 31 56 35 57 38 58 32 59 33 60 36 61 34 62 60 63 61 64
REMARK SMILES IDX 69 65 62 66 63 67 67 68 70 69 64 70 65 71 68 72 66 73 45 74
REMARK SMILES IDX 46 75 54 76 47 77 48 78 52 79 55 80 49 81 50 82 53 83 51 84
REMARK H PARENT 75 37 43 48
REMARK Flexibility Score: inf
ROOT
ATOM      1  C   UNL A   1      36.654  22.284  24.018  1.00  0.00     0.202 C 
ENDROOT
BRANCH   1   2
ATOM      2  O   UNL A   1      35.674  22.917  24.843  1.00  0.00    -0.374 OA
BRANCH   2   3
ATOM      3  C   UNL A   1      34.302  22.610  24.596  1.00  0.00     0.202 C 
BRANCH   3   4
ATOM      4  C   UNL A   1      33.450  22.313  25.832  1.00  0.00     0.261 C 
BRANCH   4   5
ATOM      5  O   UNL A   1      33.580  20.933  26.205  1.00  0.00    -0.463 OA
BRANCH   5   6
ATOM      6  C   UNL A   1      32.765  20.068  25.544  1.00  0.00     0.310 C 
ATOM      7  O   UNL A   1      31.686  20.360  25.045  1.00  0.00    -0.252 OA
BRANCH   6   8
ATOM      8  C   UNL A   1      33.390  18.692  25.476  1.00  0.00     0.119 C 
ATOM      9  N   UNL A   1      32.877  16.384  24.814  1.00  0.00    -0.344 N 
ATOM     10  C   UNL A   1      33.852  16.379  23.736  1.00  0.00     0.119 C 
ATOM     11  C   UNL A   1      32.298  17.677  25.160  1.00  0.00     0.134 C 
ATOM     12  C   UNL A   1      35.021  17.284  24.108  1.00  0.00     0.022 C 
ATOM     13  C   UNL A   1      34.527  18.692  24.435  1.00  0.00     0.019 C 
BRANCH   9  14
ATOM     14  C   UNL A   1      32.590  15.250  25.541  1.00  0.00     0.339 C 
ATOM     15  O   UNL A   1      33.222  14.202  25.512  1.00  0.00    -0.279 OA
ENDBRANCH   9  14
ENDBRANCH   6   8
ENDBRANCH   5   6
ENDBRANCH   4   5
ENDBRANCH   3   4
ENDBRANCH   2   3
ENDBRANCH   1   2
BRANCH   1  16
ATOM     16  C   UNL A   1      37.449  21.136  24.654  1.00  0.00     0.261 C 
BRANCH  16  17
ATOM     17  O   UNL A   1      37.855  21.430  26.003  1.00  0.00    -0.460 OA
BRANCH  17  18
ATOM     18  C   UNL A   1      39.180  21.309  26.238  1.00  0.00     0.338 C 
ATOM     19  O   UNL A   1      39.913  20.380  25.914  1.00  0.00    -0.246 OA
BRANCH  18  20
ATOM     20  C   UNL A   1      39.713  22.558  26.808  1.00  0.00     0.060 A 
ATOM     21  C   UNL A   1      39.207  23.766  26.309  1.00  0.00     0.016 A 
ATOM     22  C   UNL A   1      40.745  22.554  27.748  1.00  0.00     0.016 A 
ATOM     23  C   UNL A   1      39.763  24.977  26.716  1.00  0.00     0.010 A 
ATOM     24  C   UNL A   1      41.311  23.770  28.145  1.00  0.00     0.010 A 
ATOM     25  C   UNL A   1      40.845  24.983  27.606  1.00  0.00    -0.014 A 
BRANCH  25  26
ATOM     26  C   UNL A   1      41.579  26.247  27.855  1.00  0.00     0.031 A 
ATOM     27  C   UNL A   1      40.895  27.347  28.617  1.00  0.00     0.074 A 
ATOM     28  C   UNL A   1      42.844  26.403  27.430  1.00  0.00     0.049 A 
ATOM     29  N   UNL A   1      41.328  28.545  28.917  1.00  0.00    -0.248 NA
ATOM     30  C   UNL A   1      39.539  27.056  29.109  1.00  0.00     0.031 C 
ATOM     31  C   UNL A   1      43.625  25.395  26.719  1.00  0.00     0.029 A 
ATOM     32  N   UNL A   1      43.691  27.479  27.532  1.00  0.00    -0.354 N 
ATOM     33  C   UNL A   1      40.299  29.152  29.626  1.00  0.00     0.074 A 
ATOM     34  C   UNL A   1      39.211  28.201  29.690  1.00  0.00     0.031 C 
ATOM     35  C   UNL A   1      44.837  25.904  26.433  1.00  0.00     0.029 A 
ATOM     36  C   UNL A   1      44.902  27.283  26.916  1.00  0.00     0.049 A 
ATOM     37  H   UNL A   1      43.453  28.311  28.002  1.00  0.00     0.167 HD
ATOM     38  C   UNL A   1      40.270  30.388  30.178  1.00  0.00     0.037 A 
ATOM     39  C   UNL A   1      45.934  28.132  26.742  1.00  0.00     0.037 A 
ATOM     40  C   UNL A   1      41.353  31.333  30.112  1.00  0.00     0.049 A 
ATOM     41  C   UNL A   1      45.847  29.527  27.303  1.00  0.00     0.074 A 
ATOM     42  C   UNL A   1      41.427  32.602  30.657  1.00  0.00     0.029 A 
ATOM     43  N   UNL A   1      42.552  31.110  29.451  1.00  0.00    -0.354 N 
ATOM     44  N   UNL A   1      44.883  30.084  27.994  1.00  0.00    -0.248 NA
ATOM     45  C   UNL A   1      46.996  30.412  27.058  1.00  0.00     0.031 C 
ATOM     46  C   UNL A   1      42.652  33.166  30.286  1.00  0.00     0.029 A 
ATOM     47  C   UNL A   1      43.362  32.229  29.552  1.00  0.00     0.049 A 
ATOM     48  H   UNL A   1      42.793  30.280  28.980  1.00  0.00     0.167 HD
ATOM     49  C   UNL A   1      45.316  31.370  28.290  1.00  0.00     0.074 A 
ATOM     50  C   UNL A   1      46.636  31.509  27.712  1.00  0.00     0.031 C 
ATOM     51  C   UNL A   1      44.679  32.348  28.979  1.00  0.00     0.037 A 
BRANCH  38  52
ATOM     52  C   UNL A   1      39.012  30.800  30.883  1.00  0.00     0.064 A 
ATOM     53  C   UNL A   1      38.866  30.662  32.271  1.00  0.00     0.173 A 
ATOM     54  C   UNL A   1      37.951  31.372  30.164  1.00  0.00     0.173 A 
ATOM     55  F   UNL A   1      39.847  30.108  33.000  1.00  0.00    -0.203 F 
ATOM     56  C   UNL A   1      37.696  31.061  32.911  1.00  0.00     0.198 A 
ATOM     57  C   UNL A   1      36.792  31.793  30.811  1.00  0.00     0.198 A 
ATOM     58  F   UNL A   1      38.042  31.529  28.835  1.00  0.00    -0.203 F 
ATOM     59  F   UNL A   1      37.561  30.882  34.232  1.00  0.00    -0.200 F 
ATOM     60  C   UNL A   1      36.663  31.631  32.182  1.00  0.00     0.200 A 
ATOM     61  F   UNL A   1      35.800  32.354  30.106  1.00  0.00    -0.200 F 
ATOM     62  F   UNL A   1      35.539  32.020  32.801  1.00  0.00    -0.200 F 
ENDBRANCH  38  52
BRANCH  39  63
ATOM     63  C   UNL A   1      47.137  27.690  25.990  1.00  0.00     0.064 A 
ATOM     64  C   UNL A   1      47.184  27.767  24.591  1.00  0.00     0.173 A 
ATOM     65  C   UNL A   1      48.254  27.165  26.655  1.00  0.00     0.173 A 
ATOM     66  F   UNL A   1      46.129  28.236  23.911  1.00  0.00    -0.203 F 
ATOM     67  C   UNL A   1      48.301  27.322  23.885  1.00  0.00     0.198 A 
ATOM     68  C   UNL A   1      49.380  26.745  25.948  1.00  0.00     0.198 A 
ATOM     69  F   UNL A   1      48.256  27.065  27.992  1.00  0.00    -0.203 F 
ATOM     70  F   UNL A   1      48.303  27.366  22.546  1.00  0.00    -0.200 F 
ATOM     71  C   UNL A   1      49.399  26.817  24.564  1.00  0.00     0.200 A 
ATOM     72  F   UNL A   1      50.443  26.266  26.609  1.00  0.00    -0.200 F 
ATOM     73  F   UNL A   1      50.473  26.392  23.884  1.00  0.00    -0.200 F 
ENDBRANCH  39  63
BRANCH  51  74
ATOM     74  C   UNL A   1      45.411  33.642  29.180  1.00  0.00     0.064 A 
ATOM     75  C   UNL A   1      45.265  34.715  28.291  1.00  0.00     0.173 A 
ATOM     76  C   UNL A   1      46.228  33.826  30.306  1.00  0.00     0.173 A 
ATOM     77  F   UNL A   1      44.507  34.583  27.192  1.00  0.00    -0.203 F 
ATOM     78  C   UNL A   1      45.928  35.921  28.510  1.00  0.00     0.198 A 
ATOM     79  C   UNL A   1      46.866  35.042  30.537  1.00  0.00     0.198 A 
ATOM     80  F   UNL A   1      46.394  32.832  31.192  1.00  0.00    -0.203 F 
ATOM     81  F   UNL A   1      45.806  36.921  27.626  1.00  0.00    -0.200 F 
ATOM     82  C   UNL A   1      46.720  36.086  29.636  1.00  0.00     0.200 A 
ATOM     83  F   UNL A   1      47.622  35.203  31.633  1.00  0.00    -0.200 F 
ATOM     84  F   UNL A   1      47.350  37.250  29.850  1.00  0.00    -0.200 F 
ENDBRANCH  51  74
ENDBRANCH  25  26
ENDBRANCH  18  20
ENDBRANCH  17  18
ENDBRANCH  16  17
ENDBRANCH   1  16
TORSDOF 15
ENDMDL
MODEL 3
REMARK VINA RESULT:     -10.5      0.228      2.044
REMARK SMILES O=CN1CCC[C@@H](C(=O)OCCOCCOC(=O)c2ccc(-c3c4nc(c(-c5c(F)c(F)c(F)c(F)c5F)c5ccc([nH]5)c(-c5c(F)c(F)c(F)c(F)c5F)c5nc(c(-c6c(F)c(F)c(F)c(F)c6F)c6ccc3[nH]6)C=C5)C=C4)cc2)C1
REMARK SMILES IDX 14 1 13 2 12 3 11 4 10 5 8 6 9 7 7 8 3 9 4 10 82 11 5 12
REMARK SMILES IDX 6 13 2 14 1 15 15 16 16 17 17 18 18 19 19 20 20 21 81 22
REMARK SMILES IDX 21 23 80 24 22 25 23 26 24 27 74 28 25 29 79 30 73 31 75 32
REMARK SMILES IDX 26 33 78 34 72 35 71 36 27 38 59 39 39 40 58 41 40 42 43 43
REMARK SMILES IDX 57 44 76 45 41 46 42 47 56 49 77 50 44 51 28 52 29 53 37 54
REMARK SMILES IDX 30 55 31 56 35 57 38 58 32 59 33 60 36 61 34 62 60 63 61 64
REMARK SMILES IDX 69 65 62 66 63 67 67 68 70 69 64 70 65 71 68 72 66 73 45 74
REMARK SMILES IDX 46 75 54 76 47 77 48 78 52 79 55 80 49 81 50 82 53 83 51 84
REMARK H PARENT 75 37 43 48
REMARK Flexibility Score: inf
ROOT
ATOM      1  C   UNL A   1      42.840  20.660  26.170  1.00  0.00     0.202 C 
ENDROOT
BRANCH   1   2
ATOM      2  O   UNL A   1      41.552  20.338  25.642  1.00  0.00    -0.374 OA
BRANCH   2   3
ATOM      3  C   UNL A   1      40.432  20.433  26.521  1.00  0.00     0.202 C 
BRANCH   3   4
ATOM      4  C   UNL A   1      39.568  21.688  26.372  1.00  0.00     0.261 C 
BRANCH   4   5
ATOM      5  O   UNL A   1      38.516  21.457  25.424  1.00  0.00    -0.463 OA
BRANCH   5   6
ATOM      6  C   UNL A   1      37.612  22.465  25.296  1.00  0.00     0.310 C 
ATOM      7  O   UNL A   1      37.747  23.593  25.749  1.00  0.00    -0.252 OA
BRANCH   6   8
ATOM      8  C   UNL A   1      36.418  22.011  24.483  1.00  0.00     0.119 C 
ATOM      9  N   UNL A   1      34.318  20.757  24.695  1.00  0.00    -0.344 N 
ATOM     10  C   UNL A   1      33.490  21.918  24.416  1.00  0.00     0.119 C 
ATOM     11  C   UNL A   1      35.614  21.017  25.313  1.00  0.00     0.134 C 
ATOM     12  C   UNL A   1      34.233  22.853  23.469  1.00  0.00     0.022 C 
ATOM     13  C   UNL A   1      35.592  23.238  24.051  1.00  0.00     0.019 C 
BRANCH   9  14
ATOM     14  C   UNL A   1      33.950  19.488  24.307  1.00  0.00     0.339 C 
ATOM     15  O   UNL A   1      34.516  18.451  24.624  1.00  0.00    -0.279 OA
ENDBRANCH   9  14
ENDBRANCH   6   8
ENDBRANCH   5   6
ENDBRANCH   4   5
ENDBRANCH   3   4
ENDBRANCH   2   3
ENDBRANCH   1   2
BRANCH   1  16
ATOM     16  C   UNL A   1      43.704  21.618  25.341  1.00  0.00     0.261 C 
BRANCH  16  17
ATOM     17  O   UNL A   1      42.984  22.797  24.937  1.00  0.00    -0.460 OA
BRANCH  17  18
ATOM     18  C   UNL A   1      43.677  23.953  25.046  1.00  0.00     0.338 C 
ATOM     19  O   UNL A   1      44.654  24.300  24.392  1.00  0.00    -0.246 OA
BRANCH  18  20
ATOM     20  C   UNL A   1      42.991  24.873  25.969  1.00  0.00     0.060 A 
ATOM     21  C   UNL A   1      43.459  26.192  26.037  1.00  0.00     0.016 A 
ATOM     22  C   UNL A   1      41.967  24.437  26.813  1.00  0.00     0.016 A 
ATOM     23  C   UNL A   1      42.935  27.071  26.983  1.00  0.00     0.010 A 
ATOM     24  C   UNL A   1      41.452  25.318  27.771  1.00  0.00     0.010 A 
ATOM     25  C   UNL A   1      41.956  26.626  27.882  1.00  0.00    -0.014 A 
BRANCH  25  26
ATOM     26  C   UNL A   1      41.572  27.485  29.027  1.00  0.00     0.031 A 
ATOM     27  C   UNL A   1      42.363  27.396  30.301  1.00  0.00     0.074 A 
ATOM     28  C   UNL A   1      40.548  28.350  28.925  1.00  0.00     0.049 A 
ATOM     29  N   UNL A   1      42.185  28.021  31.437  1.00  0.00    -0.248 NA
ATOM     30  C   UNL A   1      43.514  26.478  30.293  1.00  0.00     0.031 C 
ATOM     31  C   UNL A   1      39.734  28.556  27.730  1.00  0.00     0.029 A 
ATOM     32  N   UNL A   1      40.016  29.213  29.851  1.00  0.00    -0.354 N 
ATOM     33  C   UNL A   1      43.193  27.570  32.279  1.00  0.00     0.074 A 
ATOM     34  C   UNL A   1      43.965  26.600  31.533  1.00  0.00     0.031 C 
ATOM     35  C   UNL A   1      38.793  29.478  27.998  1.00  0.00     0.029 A 
ATOM     36  C   UNL A   1      38.921  29.902  29.392  1.00  0.00     0.049 A 
ATOM     37  H   UNL A   1      40.384  29.326  30.757  1.00  0.00     0.167 HD
ATOM     38  C   UNL A   1      43.453  27.938  33.555  1.00  0.00     0.037 A 
ATOM     39  C   UNL A   1      38.103  30.758  30.035  1.00  0.00     0.037 A 
ATOM     40  C   UNL A   1      42.684  28.902  34.296  1.00  0.00     0.049 A 
ATOM     41  C   UNL A   1      38.372  31.095  31.478  1.00  0.00     0.074 A 
ATOM     42  C   UNL A   1      42.881  29.357  35.588  1.00  0.00     0.029 A 
ATOM     43  N   UNL A   1      41.562  29.555  33.808  1.00  0.00    -0.354 N 
ATOM     44  N   UNL A   1      39.341  30.685  32.259  1.00  0.00    -0.248 NA
ATOM     45  C   UNL A   1      37.429  32.017  32.129  1.00  0.00     0.031 C 
ATOM     46  C   UNL A   1      41.850  30.250  35.898  1.00  0.00     0.029 A 
ATOM     47  C   UNL A   1      41.040  30.390  34.782  1.00  0.00     0.049 A 
ATOM     48  H   UNL A   1      41.191  29.443  32.903  1.00  0.00     0.167 HD
ATOM     49  C   UNL A   1      39.143  31.316  33.480  1.00  0.00     0.074 A 
ATOM     50  C   UNL A   1      37.966  32.146  33.335  1.00  0.00     0.031 C 
ATOM     51  C   UNL A   1      39.872  31.217  34.619  1.00  0.00     0.037 A 
BRANCH  38  52
ATOM     52  C   UNL A   1      44.608  27.273  34.244  1.00  0.00     0.064 A 
ATOM     53  C   UNL A   1      45.895  27.830  34.226  1.00  0.00     0.173 A 
ATOM     54  C   UNL A   1      44.418  26.081  34.960  1.00  0.00     0.173 A 
ATOM     55  F   UNL A   1      46.132  28.962  33.545  1.00  0.00    -0.203 F 
ATOM     56  C   UNL A   1      46.954  27.206  34.881  1.00  0.00     0.198 A 
ATOM     57  C   UNL A   1      45.473  25.474  35.634  1.00  0.00     0.198 A 
ATOM     58  F   UNL A   1      43.205  25.510  35.010  1.00  0.00    -0.203 F 
ATOM     59  F   UNL A   1      48.185  27.733  34.817  1.00  0.00    -0.200 F 
ATOM     60  C   UNL A   1      46.741  26.033  35.589  1.00  0.00     0.200 A 
ATOM     61  F   UNL A   1      45.262  24.346  36.326  1.00  0.00    -0.200 F 
ATOM     62  F   UNL A   1      47.760  25.436  36.224  1.00  0.00    -0.200 F 
ENDBRANCH  38  52
BRANCH  39  63
ATOM     63  C   UNL A   1      36.942  31.348  29.321  1.00  0.00     0.064 A 
ATOM     64  C   UNL A   1      35.813  30.576  29.013  1.00  0.00     0.173 A 
ATOM     65  C   UNL A   1      36.946  32.691  28.916  1.00  0.00     0.173 A 
ATOM     66  F   UNL A   1      35.775  29.281  29.354  1.00  0.00    -0.203 F 
ATOM     67  C   UNL A   1      34.737  31.123  28.315  1.00  0.00     0.198 A 
ATOM     68  C   UNL A   1      35.858  33.243  28.241  1.00  0.00     0.198 A 
ATOM     69  F   UNL A   1      38.004  33.470  29.182  1.00  0.00    -0.203 F 
ATOM     70  F   UNL A   1      33.689  30.352  27.995  1.00  0.00    -0.200 F 
ATOM     71  C   UNL A   1      34.759  32.456  27.935  1.00  0.00     0.200 A 
ATOM     72  F   UNL A   1      35.879  34.535  27.884  1.00  0.00    -0.200 F 
ATOM     73  F   UNL A   1      33.722  32.982  27.267  1.00  0.00    -0.200 F 
ENDBRANCH  39  63
BRANCH  51  74
ATOM     74  C   UNL A   1      39.442  32.053  35.789  1.00  0.00     0.064 A 
ATOM     75  C   UNL A   1      39.969  33.332  36.012  1.00  0.00     0.173 A 
ATOM     76  C   UNL A   1      38.451  31.587  36.667  1.00  0.00     0.173 A 
ATOM     77  F   UNL A   1      40.929  33.816  35.208  1.00  0.00    -0.203 F 
ATOM     78  C   UNL A   1      39.535  34.108  37.084  1.00  0.00     0.198 A 
ATOM     79  C   UNL A   1      38.000  32.376  37.722  1.00  0.00     0.198 A 
ATOM     80  F   UNL A   1      37.909  30.372  36.492  1.00  0.00    -0.203 F 
ATOM     81  F   UNL A   1      40.082  35.312  37.303  1.00  0.00    -0.200 F 
ATOM     82  C   UNL A   1      38.546  33.633  37.933  1.00  0.00     0.200 A 
ATOM     83  F   UNL A   1      37.035  31.920  38.533  1.00  0.00    -0.200 F 
ATOM     84  F   UNL A   1      38.124  34.385  38.959  1.00  0.00    -0.200 F 
ENDBRANCH  51  74
ENDBRANCH  25  26
ENDBRANCH  18  20
ENDBRANCH  17  18
ENDBRANCH  16  17
ENDBRANCH   1  16
TORSDOF 15
ENDMDL
