MODEL 1
REMARK VINA RESULT:     -11.4      0.000      0.000
REMARK SMILES O=C(CSc1nnc(-c2ccncc2)s1)Nc1cccc(C(=O)OCCOCCOC(=O)c2ccc(-c3c4nc(c(-c5c(F)c(F)c(F)c(F)c5F)c5ccc([nH]5)c(-c5c(F)c(F)c(F)c(F)c5F)c5nc(c(-c6c(F)c(F)c(F)c(F)c6F)c6ccc3[nH]6)C=C5)C=C4)cc2)c1
REMARK SMILES IDX 25 1 24 2 22 3 23 4 21 5 17 6 18 7 96 8 19 9 20 10 16 11
REMARK SMILES IDX 1 12 2 13 3 15 4 16 5 17 6 18 15 19 7 20 8 21 9 22 10 23
REMARK SMILES IDX 14 24 11 25 13 26 12 27 26 28 27 29 28 30 29 31 30 32 31 33
REMARK SMILES IDX 32 34 33 35 34 36 95 37 35 38 94 39 36 40 37 41 38 42 88 43
REMARK SMILES IDX 39 44 93 45 87 46 89 47 40 48 92 49 86 50 85 51 41 53 73 54
REMARK SMILES IDX 53 55 72 56 54 57 57 58 71 59 90 60 55 61 56 62 70 64 91 65
REMARK SMILES IDX 58 66 42 67 43 68 51 69 44 70 45 71 49 72 52 73 46 74 47 75
REMARK SMILES IDX 50 76 48 77 74 78 75 79 83 80 76 81 77 82 81 83 84 84 78 85
REMARK SMILES IDX 79 86 82 87 80 88 59 89 60 90 68 91 61 92 62 93 66 94 69 95
REMARK SMILES IDX 63 96 64 97 67 98 65 99
REMARK H PARENT 16 14 89 52 57 63
REMARK Flexibility Score: inf
ROOT
ATOM      1  C   UNL A   1      34.770  32.175  28.945  1.00  0.00     0.261 C 
ENDROOT
BRANCH   1   2
ATOM      2  O   UNL A   1      34.910  31.565  27.651  1.00  0.00    -0.460 OA
BRANCH   2   3
ATOM      3  C   UNL A   1      35.002  30.214  27.646  1.00  0.00     0.338 C 
ATOM      4  O   UNL A   1      35.761  29.527  28.315  1.00  0.00    -0.246 OA
BRANCH   3   5
ATOM      5  C   UNL A   1      33.894  29.645  26.846  1.00  0.00     0.062 A 
ATOM      6  C   UNL A   1      32.860  27.849  25.590  1.00  0.00     0.042 A 
ATOM      7  C   UNL A   1      31.793  28.706  25.285  1.00  0.00     0.026 A 
ATOM      8  C   UNL A   1      33.924  28.333  26.355  1.00  0.00     0.041 A 
ATOM      9  C   UNL A   1      31.765  30.016  25.768  1.00  0.00     0.003 A 
ATOM     10  C   UNL A   1      32.809  30.482  26.561  1.00  0.00     0.016 A 
BRANCH   6  11
ATOM     11  N   UNL A   1      32.764  26.522  25.120  1.00  0.00    -0.325 N 
ATOM     12  O   UNL A   1      33.735  26.675  23.013  1.00  0.00    -0.274 OA
ATOM     13  C   UNL A   1      33.245  26.014  23.927  1.00  0.00     0.234 C 
ATOM     14  H   UNL A   1      32.301  25.884  25.710  1.00  0.00     0.169 HD
BRANCH  13  15
ATOM     15  C   UNL A   1      33.017  24.522  23.728  1.00  0.00     0.177 C 
BRANCH  15  16
ATOM     16  S   UNL A   1      32.319  23.651  25.157  1.00  0.00    -0.084 SA
BRANCH  16  17
ATOM     17  C   UNL A   1      33.021  22.062  24.965  1.00  0.00     0.175 A 
ATOM     18  N   UNL A   1      34.311  21.846  25.077  1.00  0.00    -0.131 NA
ATOM     19  S   UNL A   1      32.085  20.650  24.710  1.00  0.00    -0.086 S 
ATOM     20  N   UNL A   1      34.619  20.502  25.005  1.00  0.00    -0.137 NA
ATOM     21  C   UNL A   1      33.551  19.752  24.808  1.00  0.00     0.148 A 
BRANCH  21  22
ATOM     22  C   UNL A   1      33.545  18.291  24.771  1.00  0.00     0.015 A 
ATOM     23  C   UNL A   1      34.297  17.570  23.841  1.00  0.00     0.031 A 
ATOM     24  C   UNL A   1      32.772  17.587  25.699  1.00  0.00     0.031 A 
ATOM     25  C   UNL A   1      34.229  16.187  23.868  1.00  0.00     0.111 A 
ATOM     26  C   UNL A   1      32.762  16.204  25.638  1.00  0.00     0.111 A 
ATOM     27  N   UNL A   1      33.470  15.491  24.739  1.00  0.00    -0.265 NA
ENDBRANCH  21  22
ENDBRANCH  16  17
ENDBRANCH  15  16
ENDBRANCH  13  15
ENDBRANCH   6  11
ENDBRANCH   3   5
ENDBRANCH   2   3
ENDBRANCH   1   2
BRANCH   1  28
ATOM     28  C   UNL A   1      35.085  33.673  28.875  1.00  0.00     0.202 C 
BRANCH  28  29
ATOM     29  O   UNL A   1      34.118  34.478  28.200  1.00  0.00    -0.374 OA
BRANCH  29  30
ATOM     30  C   UNL A   1      34.059  35.856  28.571  1.00  0.00     0.202 C 
BRANCH  30  31
ATOM     31  C   UNL A   1      32.869  36.258  29.449  1.00  0.00     0.261 C 
BRANCH  31  32
ATOM     32  O   UNL A   1      32.568  35.250  30.432  1.00  0.00    -0.460 OA
BRANCH  32  33
ATOM     33  C   UNL A   1      32.698  35.647  31.717  1.00  0.00     0.338 C 
ATOM     34  O   UNL A   1      31.938  36.358  32.359  1.00  0.00    -0.246 OA
BRANCH  33  35
ATOM     35  C   UNL A   1      33.845  34.958  32.337  1.00  0.00     0.060 A 
ATOM     36  C   UNL A   1      35.099  35.576  32.250  1.00  0.00     0.016 A 
ATOM     37  C   UNL A   1      33.710  33.704  32.937  1.00  0.00     0.016 A 
ATOM     38  C   UNL A   1      36.234  34.923  32.728  1.00  0.00     0.010 A 
ATOM     39  C   UNL A   1      34.851  33.047  33.407  1.00  0.00     0.010 A 
ATOM     40  C   UNL A   1      36.121  33.639  33.277  1.00  0.00    -0.014 A 
BRANCH  40  41
ATOM     41  C   UNL A   1      37.341  32.861  33.599  1.00  0.00     0.031 A 
ATOM     42  C   UNL A   1      38.066  33.141  34.886  1.00  0.00     0.074 A 
ATOM     43  C   UNL A   1      37.795  31.917  32.759  1.00  0.00     0.049 A 
ATOM     44  N   UNL A   1      39.190  32.643  35.333  1.00  0.00    -0.248 NA
ATOM     45  C   UNL A   1      37.441  34.122  35.788  1.00  0.00     0.031 C 
ATOM     46  C   UNL A   1      37.160  31.529  31.502  1.00  0.00     0.029 A 
ATOM     47  N   UNL A   1      38.912  31.120  32.832  1.00  0.00    -0.354 N 
ATOM     48  C   UNL A   1      39.413  33.256  36.559  1.00  0.00     0.074 A 
ATOM     49  C   UNL A   1      38.322  34.182  36.775  1.00  0.00     0.031 C 
ATOM     50  C   UNL A   1      37.905  30.579  30.911  1.00  0.00     0.029 A 
ATOM     51  C   UNL A   1      39.087  30.320  31.732  1.00  0.00     0.049 A 
ATOM     52  H   UNL A   1      39.527  31.123  33.601  1.00  0.00     0.167 HD
ATOM     53  C   UNL A   1      40.433  33.056  37.427  1.00  0.00     0.037 A 
ATOM     54  C   UNL A   1      40.103  29.494  31.410  1.00  0.00     0.037 A 
ATOM     55  C   UNL A   1      41.513  32.130  37.211  1.00  0.00     0.049 A 
ATOM     56  C   UNL A   1      41.261  29.342  32.363  1.00  0.00     0.074 A 
ATOM     57  C   UNL A   1      42.579  31.837  38.044  1.00  0.00     0.029 A 
ATOM     58  N   UNL A   1      41.668  31.351  36.074  1.00  0.00    -0.354 N 
ATOM     59  N   UNL A   1      41.454  29.905  33.531  1.00  0.00    -0.248 NA
ATOM     60  C   UNL A   1      42.344  28.437  31.950  1.00  0.00     0.031 C 
ATOM     61  C   UNL A   1      43.407  30.920  37.388  1.00  0.00     0.029 A 
ATOM     62  C   UNL A   1      42.828  30.599  36.171  1.00  0.00     0.049 A 
ATOM     63  H   UNL A   1      41.046  31.335  35.311  1.00  0.00     0.167 HD
ATOM     64  C   UNL A   1      42.658  29.402  34.005  1.00  0.00     0.074 A 
ATOM     65  C   UNL A   1      43.150  28.482  33.001  1.00  0.00     0.031 C 
ATOM     66  C   UNL A   1      43.299  29.679  35.168  1.00  0.00     0.037 A 
BRANCH  53  67
ATOM     67  C   UNL A   1      40.447  33.879  38.683  1.00  0.00     0.064 A 
ATOM     68  C   UNL A   1      39.775  33.466  39.844  1.00  0.00     0.173 A 
ATOM     69  C   UNL A   1      41.175  35.077  38.737  1.00  0.00     0.173 A 
ATOM     70  F   UNL A   1      39.054  32.335  39.840  1.00  0.00    -0.203 F 
ATOM     71  C   UNL A   1      39.812  34.236  41.004  1.00  0.00     0.198 A 
ATOM     72  C   UNL A   1      41.234  35.829  39.907  1.00  0.00     0.198 A 
ATOM     73  F   UNL A   1      41.838  35.514  37.656  1.00  0.00    -0.203 F 
ATOM     74  F   UNL A   1      39.127  33.845  42.088  1.00  0.00    -0.200 F 
ATOM     75  C   UNL A   1      40.547  35.411  41.037  1.00  0.00     0.200 A 
ATOM     76  F   UNL A   1      41.955  36.958  39.941  1.00  0.00    -0.200 F 
ATOM     77  F   UNL A   1      40.589  36.147  42.157  1.00  0.00    -0.200 F 
ENDBRANCH  53  67
BRANCH  54  78
ATOM     78  C   UNL A   1      40.080  28.761  30.119  1.00  0.00     0.064 A 
ATOM     79  C   UNL A   1      39.498  27.491  30.017  1.00  0.00     0.173 A 
ATOM     80  C   UNL A   1      40.658  29.308  28.962  1.00  0.00     0.173 A 
ATOM     81  F   UNL A   1      38.959  26.913  31.102  1.00  0.00    -0.203 F 
ATOM     82  C   UNL A   1      39.506  26.789  28.813  1.00  0.00     0.198 A 
ATOM     83  C   UNL A   1      40.641  28.618  27.753  1.00  0.00     0.198 A 
ATOM     84  F   UNL A   1      41.235  30.517  29.008  1.00  0.00    -0.203 F 
ATOM     85  F   UNL A   1      38.986  25.556  28.756  1.00  0.00    -0.200 F 
ATOM     86  C   UNL A   1      40.072  27.355  27.681  1.00  0.00     0.200 A 
ATOM     87  F   UNL A   1      41.183  29.171  26.660  1.00  0.00    -0.200 F 
ATOM     88  F   UNL A   1      40.080  26.679  26.524  1.00  0.00    -0.200 F 
ENDBRANCH  54  78
BRANCH  66  89
ATOM     89  C   UNL A   1      44.583  28.949  35.442  1.00  0.00     0.064 A 
ATOM     90  C   UNL A   1      44.603  27.716  36.109  1.00  0.00     0.173 A 
ATOM     91  C   UNL A   1      45.803  29.466  34.980  1.00  0.00     0.173 A 
ATOM     92  F   UNL A   1      43.465  27.186  36.583  1.00  0.00    -0.203 F 
ATOM     93  C   UNL A   1      45.800  27.037  36.321  1.00  0.00     0.198 A 
ATOM     94  C   UNL A   1      46.994  28.770  35.168  1.00  0.00     0.198 A 
ATOM     95  F   UNL A   1      45.838  30.638  34.329  1.00  0.00    -0.203 F 
ATOM     96  F   UNL A   1      45.801  25.880  36.997  1.00  0.00    -0.200 F 
ATOM     97  C   UNL A   1      46.993  27.560  35.843  1.00  0.00     0.200 A 
ATOM     98  F   UNL A   1      48.143  29.270  34.691  1.00  0.00    -0.200 F 
ATOM     99  F   UNL A   1      48.142  26.899  36.037  1.00  0.00    -0.200 F 
ENDBRANCH  66  89
ENDBRANCH  40  41
ENDBRANCH  33  35
ENDBRANCH  32  33
ENDBRANCH  31  32
ENDBRANCH  30  31
ENDBRANCH  29  30
ENDBRANCH  28  29
ENDBRANCH   1  28
TORSDOF 19
ENDMDL
MODEL 2
REMARK VINA RESULT:     -11.3      6.774     12.766
REMARK SMILES O=C(CSc1nnc(-c2ccncc2)s1)Nc1cccc(C(=O)OCCOCCOC(=O)c2ccc(-c3c4nc(c(-c5c(F)c(F)c(F)c(F)c5F)c5ccc([nH]5)c(-c5c(F)c(F)c(F)c(F)c5F)c5nc(c(-c6c(F)c(F)c(F)c(F)c6F)c6ccc3[nH]6)C=C5)C=C4)cc2)c1
REMARK SMILES IDX 25 1 24 2 22 3 23 4 21 5 17 6 18 7 96 8 19 9 20 10 16 11
REMARK SMILES IDX 1 12 2 13 3 15 4 16 5 17 6 18 15 19 7 20 8 21 9 22 10 23
REMARK SMILES IDX 14 24 11 25 13 26 12 27 26 28 27 29 28 30 29 31 30 32 31 33
REMARK SMILES IDX 32 34 33 35 34 36 95 37 35 38 94 39 36 40 37 41 38 42 88 43
REMARK SMILES IDX 39 44 93 45 87 46 89 47 40 48 92 49 86 50 85 51 41 53 73 54
REMARK SMILES IDX 53 55 72 56 54 57 57 58 71 59 90 60 55 61 56 62 70 64 91 65
REMARK SMILES IDX 58 66 42 67 43 68 51 69 44 70 45 71 49 72 52 73 46 74 47 75
REMARK SMILES IDX 50 76 48 77 74 78 75 79 83 80 76 81 77 82 81 83 84 84 78 85
REMARK SMILES IDX 79 86 82 87 80 88 59 89 60 90 68 91 61 92 62 93 66 94 69 95
REMARK SMILES IDX 63 96 64 97 67 98 65 99
REMARK H PARENT 16 14 89 52 57 63
REMARK Flexibility Score: inf
ROOT
ATOM      1  C   UNL A   1      38.835  21.919  25.507  1.00  0.00     0.261 C 
ENDROOT
BRANCH   1   2
ATOM      2  O   UNL A   1      37.430  21.733  25.744  1.00  0.00    -0.460 OA
BRANCH   2   3
ATOM      3  C   UNL A   1      36.865  20.671  25.121  1.00  0.00     0.338 C 
ATOM      4  O   UNL A   1      37.418  19.631  24.796  1.00  0.00    -0.246 OA
BRANCH   3   5
ATOM      5  C   UNL A   1      35.397  20.857  25.059  1.00  0.00     0.062 A 
ATOM      6  C   UNL A   1      33.410  22.244  25.080  1.00  0.00     0.042 A 
ATOM      7  C   UNL A   1      32.626  21.082  25.014  1.00  0.00     0.026 A 
ATOM      8  C   UNL A   1      34.801  22.123  25.126  1.00  0.00     0.041 A 
ATOM      9  C   UNL A   1      33.218  19.819  24.954  1.00  0.00     0.003 A 
ATOM     10  C   UNL A   1      34.605  19.707  24.963  1.00  0.00     0.016 A 
BRANCH   6  11
ATOM     11  N   UNL A   1      32.722  23.476  25.061  1.00  0.00    -0.325 N 
ATOM     12  O   UNL A   1      31.916  23.622  27.237  1.00  0.00    -0.274 OA
ATOM     13  C   UNL A   1      32.090  24.104  26.118  1.00  0.00     0.234 C 
ATOM     14  H   UNL A   1      32.691  23.943  24.195  1.00  0.00     0.169 HD
BRANCH  13  15
ATOM     15  C   UNL A   1      31.471  25.453  25.784  1.00  0.00     0.177 C 
BRANCH  15  16
ATOM     16  S   UNL A   1      30.570  25.521  24.212  1.00  0.00    -0.084 SA
BRANCH  16  17
ATOM     17  C   UNL A   1      30.337  27.243  24.025  1.00  0.00     0.175 A 
ATOM     18  N   UNL A   1      31.212  28.120  24.456  1.00  0.00    -0.131 NA
ATOM     19  S   UNL A   1      29.004  27.921  23.188  1.00  0.00    -0.086 S 
ATOM     20  N   UNL A   1      30.874  29.410  24.093  1.00  0.00    -0.137 NA
ATOM     21  C   UNL A   1      29.737  29.461  23.427  1.00  0.00     0.148 A 
BRANCH  21  22
ATOM     22  C   UNL A   1      29.161  30.669  22.839  1.00  0.00     0.015 A 
ATOM     23  C   UNL A   1      28.698  30.705  21.522  1.00  0.00     0.031 A 
ATOM     24  C   UNL A   1      29.057  31.827  23.618  1.00  0.00     0.031 A 
ATOM     25  C   UNL A   1      28.173  31.892  21.039  1.00  0.00     0.111 A 
ATOM     26  C   UNL A   1      28.527  32.967  23.040  1.00  0.00     0.111 A 
ATOM     27  N   UNL A   1      28.088  33.025  21.766  1.00  0.00    -0.265 NA
ENDBRANCH  21  22
ENDBRANCH  16  17
ENDBRANCH  15  16
ENDBRANCH  13  15
ENDBRANCH   6  11
ENDBRANCH   3   5
ENDBRANCH   2   3
ENDBRANCH   1   2
BRANCH   1  28
ATOM     28  C   UNL A   1      39.587  22.110  26.829  1.00  0.00     0.202 C 
BRANCH  28  29
ATOM     29  O   UNL A   1      40.419  21.021  27.230  1.00  0.00    -0.374 OA
BRANCH  29  30
ATOM     30  C   UNL A   1      40.646  19.996  26.261  1.00  0.00     0.202 C 
BRANCH  30  31
ATOM     31  C   UNL A   1      42.037  19.352  26.288  1.00  0.00     0.261 C 
BRANCH  31  32
ATOM     32  O   UNL A   1      42.622  19.293  24.974  1.00  0.00    -0.460 OA
BRANCH  32  33
ATOM     33  C   UNL A   1      43.968  19.415  24.941  1.00  0.00     0.338 C 
ATOM     34  O   UNL A   1      44.789  18.549  24.672  1.00  0.00    -0.246 OA
BRANCH  33  35
ATOM     35  C   UNL A   1      44.345  20.828  25.125  1.00  0.00     0.060 A 
ATOM     36  C   UNL A   1      45.122  21.155  26.244  1.00  0.00     0.016 A 
ATOM     37  C   UNL A   1      43.896  21.826  24.256  1.00  0.00     0.016 A 
ATOM     38  C   UNL A   1      45.421  22.487  26.522  1.00  0.00     0.010 A 
ATOM     39  C   UNL A   1      44.190  23.163  24.542  1.00  0.00     0.010 A 
ATOM     40  C   UNL A   1      44.926  23.501  25.691  1.00  0.00    -0.014 A 
BRANCH  40  41
ATOM     41  C   UNL A   1      45.068  24.922  26.092  1.00  0.00     0.031 A 
ATOM     42  C   UNL A   1      46.413  25.583  25.968  1.00  0.00     0.074 A 
ATOM     43  C   UNL A   1      44.015  25.613  26.557  1.00  0.00     0.049 A 
ATOM     44  N   UNL A   1      46.786  26.784  26.331  1.00  0.00    -0.248 NA
ATOM     45  C   UNL A   1      47.483  24.778  25.357  1.00  0.00     0.031 C 
ATOM     46  C   UNL A   1      42.656  25.093  26.689  1.00  0.00     0.029 A 
ATOM     47  N   UNL A   1      43.930  26.903  27.021  1.00  0.00    -0.354 N 
ATOM     48  C   UNL A   1      48.132  26.874  26.004  1.00  0.00     0.074 A 
ATOM     49  C   UNL A   1      48.519  25.600  25.438  1.00  0.00     0.031 C 
ATOM     50  C   UNL A   1      41.873  26.050  27.216  1.00  0.00     0.029 A 
ATOM     51  C   UNL A   1      42.684  27.235  27.491  1.00  0.00     0.049 A 
ATOM     52  H   UNL A   1      44.690  27.529  27.016  1.00  0.00     0.167 HD
ATOM     53  C   UNL A   1      48.967  27.930  26.157  1.00  0.00     0.037 A 
ATOM     54  C   UNL A   1      42.257  28.357  28.102  1.00  0.00     0.037 A 
ATOM     55  C   UNL A   1      48.578  29.198  26.716  1.00  0.00     0.049 A 
ATOM     56  C   UNL A   1      43.223  29.493  28.324  1.00  0.00     0.074 A 
ATOM     57  C   UNL A   1      49.344  30.338  26.887  1.00  0.00     0.029 A 
ATOM     58  N   UNL A   1      47.311  29.490  27.200  1.00  0.00    -0.354 N 
ATOM     59  N   UNL A   1      44.488  29.582  27.990  1.00  0.00    -0.248 NA
ATOM     60  C   UNL A   1      42.700  30.685  29.007  1.00  0.00     0.031 C 
ATOM     61  C   UNL A   1      48.556  31.302  27.524  1.00  0.00     0.029 A 
ATOM     62  C   UNL A   1      47.283  30.783  27.699  1.00  0.00     0.049 A 
ATOM     63  H   UNL A   1      46.546  28.870  27.192  1.00  0.00     0.167 HD
ATOM     64  C   UNL A   1      44.902  30.844  28.394  1.00  0.00     0.074 A 
ATOM     65  C   UNL A   1      43.753  31.491  28.990  1.00  0.00     0.031 C 
ATOM     66  C   UNL A   1      46.127  31.416  28.280  1.00  0.00     0.037 A 
BRANCH  53  67
ATOM     67  C   UNL A   1      50.398  27.750  25.741  1.00  0.00     0.064 A 
ATOM     68  C   UNL A   1      50.800  27.873  24.402  1.00  0.00     0.173 A 
ATOM     69  C   UNL A   1      51.388  27.489  26.702  1.00  0.00     0.173 A 
ATOM     70  F   UNL A   1      49.890  28.108  23.444  1.00  0.00    -0.203 F 
ATOM     71  C   UNL A   1      52.135  27.717  24.038  1.00  0.00     0.198 A 
ATOM     72  C   UNL A   1      52.725  27.363  26.337  1.00  0.00     0.198 A 
ATOM     73  F   UNL A   1      51.058  27.366  27.995  1.00  0.00    -0.203 F 
ATOM     74  F   UNL A   1      52.489  27.796  22.747  1.00  0.00    -0.200 F 
ATOM     75  C   UNL A   1      53.097  27.470  25.006  1.00  0.00     0.200 A 
ATOM     76  F   UNL A   1      53.655  27.137  27.275  1.00  0.00    -0.200 F 
ATOM     77  F   UNL A   1      54.383  27.330  24.654  1.00  0.00    -0.200 F 
ENDBRANCH  53  67
BRANCH  54  78
ATOM     78  C   UNL A   1      40.849  28.457  28.567  1.00  0.00     0.064 A 
ATOM     79  C   UNL A   1      39.842  28.952  27.726  1.00  0.00     0.173 A 
ATOM     80  C   UNL A   1      40.484  28.076  29.867  1.00  0.00     0.173 A 
ATOM     81  F   UNL A   1      40.147  29.357  26.484  1.00  0.00    -0.203 F 
ATOM     82  C   UNL A   1      38.529  29.077  28.173  1.00  0.00     0.198 A 
ATOM     83  C   UNL A   1      39.165  28.175  30.303  1.00  0.00     0.198 A 
ATOM     84  F   UNL A   1      41.410  27.603  30.713  1.00  0.00    -0.203 F 
ATOM     85  F   UNL A   1      37.596  29.599  27.365  1.00  0.00    -0.200 F 
ATOM     86  C   UNL A   1      38.190  28.683  29.458  1.00  0.00     0.200 A 
ATOM     87  F   UNL A   1      38.840  27.787  31.544  1.00  0.00    -0.200 F 
ATOM     88  F   UNL A   1      36.926  28.803  29.887  1.00  0.00    -0.200 F 
ENDBRANCH  54  78
BRANCH  66  89
ATOM     89  C   UNL A   1      46.282  32.827  28.772  1.00  0.00     0.064 A 
ATOM     90  C   UNL A   1      46.698  33.110  30.081  1.00  0.00     0.173 A 
ATOM     91  C   UNL A   1      46.064  33.908  27.904  1.00  0.00     0.173 A 
ATOM     92  F   UNL A   1      46.905  32.113  30.954  1.00  0.00    -0.203 F 
ATOM     93  C   UNL A   1      46.871  34.424  30.508  1.00  0.00     0.198 A 
ATOM     94  C   UNL A   1      46.267  35.219  28.325  1.00  0.00     0.198 A 
ATOM     95  F   UNL A   1      45.673  33.691  26.639  1.00  0.00    -0.203 F 
ATOM     96  F   UNL A   1      47.230  34.673  31.775  1.00  0.00    -0.200 F 
ATOM     97  C   UNL A   1      46.664  35.476  29.628  1.00  0.00     0.200 A 
ATOM     98  F   UNL A   1      46.082  36.233  27.469  1.00  0.00    -0.200 F 
ATOM     99  F   UNL A   1      46.844  36.739  30.037  1.00  0.00    -0.200 F 
ENDBRANCH  66  89
ENDBRANCH  40  41
ENDBRANCH  33  35
ENDBRANCH  32  33
ENDBRANCH  31  32
ENDBRANCH  30  31
ENDBRANCH  29  30
ENDBRANCH  28  29
ENDBRANCH   1  28
TORSDOF 19
ENDMDL
MODEL 3
REMARK VINA RESULT:     -10.8      5.071     12.163
REMARK SMILES O=C(CSc1nnc(-c2ccncc2)s1)Nc1cccc(C(=O)OCCOCCOC(=O)c2ccc(-c3c4nc(c(-c5c(F)c(F)c(F)c(F)c5F)c5ccc([nH]5)c(-c5c(F)c(F)c(F)c(F)c5F)c5nc(c(-c6c(F)c(F)c(F)c(F)c6F)c6ccc3[nH]6)C=C5)C=C4)cc2)c1
REMARK SMILES IDX 25 1 24 2 22 3 23 4 21 5 17 6 18 7 96 8 19 9 20 10 16 11
REMARK SMILES IDX 1 12 2 13 3 15 4 16 5 17 6 18 15 19 7 20 8 21 9 22 10 23
REMARK SMILES IDX 14 24 11 25 13 26 12 27 26 28 27 29 28 30 29 31 30 32 31 33
REMARK SMILES IDX 32 34 33 35 34 36 95 37 35 38 94 39 36 40 37 41 38 42 88 43
REMARK SMILES IDX 39 44 93 45 87 46 89 47 40 48 92 49 86 50 85 51 41 53 73 54
REMARK SMILES IDX 53 55 72 56 54 57 57 58 71 59 90 60 55 61 56 62 70 64 91 65
REMARK SMILES IDX 58 66 42 67 43 68 51 69 44 70 45 71 49 72 52 73 46 74 47 75
REMARK SMILES IDX 50 76 48 77 74 78 75 79 83 80 76 81 77 82 81 83 84 84 78 85
REMARK SMILES IDX 79 86 82 87 80 88 59 89 60 90 68 91 61 92 62 93 66 94 69 95
REMARK SMILES IDX 63 96 64 97 67 98 65 99
REMARK H PARENT 16 14 89 52 57 63
REMARK Flexibility Score: inf
ROOT
ATOM      1  C   UNL A   1      47.397  26.292  31.140  1.00  0.00     0.261 C 
ENDROOT
BRANCH   1   2
ATOM      2  O   UNL A   1      46.878  25.385  30.154  1.00  0.00    -0.460 OA
BRANCH   2   3
ATOM      3  C   UNL A   1      46.732  25.893  28.907  1.00  0.00     0.338 C 
ATOM      4  O   UNL A   1      47.135  26.974  28.503  1.00  0.00    -0.246 OA
BRANCH   3   5
ATOM      5  C   UNL A   1      46.175  24.855  28.010  1.00  0.00     0.062 A 
ATOM      6  C   UNL A   1      44.595  23.091  27.496  1.00  0.00     0.042 A 
ATOM      7  C   UNL A   1      45.263  22.878  26.281  1.00  0.00     0.026 A 
ATOM      8  C   UNL A   1      45.072  24.070  28.371  1.00  0.00     0.041 A 
ATOM      9  C   UNL A   1      46.366  23.656  25.923  1.00  0.00     0.003 A 
ATOM     10  C   UNL A   1      46.814  24.654  26.781  1.00  0.00     0.016 A 
BRANCH   6  11
ATOM     11  N   UNL A   1      43.447  22.307  27.736  1.00  0.00    -0.325 N 
ATOM     12  O   UNL A   1      42.885  21.589  25.598  1.00  0.00    -0.274 OA
ATOM     13  C   UNL A   1      42.718  21.575  26.816  1.00  0.00     0.234 C 
ATOM     14  H   UNL A   1      43.128  22.277  28.668  1.00  0.00     0.169 HD
BRANCH  13  15
ATOM     15  C   UNL A   1      41.548  20.796  27.399  1.00  0.00     0.177 C 
BRANCH  15  16
ATOM     16  S   UNL A   1      40.449  20.026  26.179  1.00  0.00    -0.084 SA
BRANCH  16  17
ATOM     17  C   UNL A   1      39.210  21.248  26.015  1.00  0.00     0.175 A 
ATOM     18  N   UNL A   1      39.357  22.463  26.487  1.00  0.00    -0.131 NA
ATOM     19  S   UNL A   1      37.752  20.991  25.154  1.00  0.00    -0.086 S 
ATOM     20  N   UNL A   1      38.302  23.284  26.137  1.00  0.00    -0.137 NA
ATOM     21  C   UNL A   1      37.381  22.648  25.440  1.00  0.00     0.148 A 
BRANCH  21  22
ATOM     22  C   UNL A   1      36.191  23.266  24.857  1.00  0.00     0.015 A 
ATOM     23  C   UNL A   1      35.416  24.191  25.561  1.00  0.00     0.031 A 
ATOM     24  C   UNL A   1      35.818  22.934  23.551  1.00  0.00     0.031 A 
ATOM     25  C   UNL A   1      34.300  24.724  24.939  1.00  0.00     0.111 A 
ATOM     26  C   UNL A   1      34.678  23.513  23.021  1.00  0.00     0.111 A 
ATOM     27  N   UNL A   1      33.909  24.397  23.690  1.00  0.00    -0.265 NA
ENDBRANCH  21  22
ENDBRANCH  16  17
ENDBRANCH  15  16
ENDBRANCH  13  15
ENDBRANCH   6  11
ENDBRANCH   3   5
ENDBRANCH   2   3
ENDBRANCH   1   2
BRANCH   1  28
ATOM     28  C   UNL A   1      48.764  25.818  31.646  1.00  0.00     0.202 C 
BRANCH  28  29
ATOM     29  O   UNL A   1      48.998  25.985  33.044  1.00  0.00    -0.374 OA
BRANCH  29  30
ATOM     30  C   UNL A   1      48.763  24.846  33.874  1.00  0.00     0.202 C 
BRANCH  30  31
ATOM     31  C   UNL A   1      49.027  25.048  35.370  1.00  0.00     0.261 C 
BRANCH  31  32
ATOM     32  O   UNL A   1      48.840  26.420  35.763  1.00  0.00    -0.460 OA
BRANCH  32  33
ATOM     33  C   UNL A   1      47.736  26.658  36.506  1.00  0.00     0.338 C 
ATOM     34  O   UNL A   1      47.660  26.740  37.724  1.00  0.00    -0.246 OA
BRANCH  33  35
ATOM     35  C   UNL A   1      46.601  26.978  35.621  1.00  0.00     0.060 A 
ATOM     36  C   UNL A   1      46.705  28.120  34.817  1.00  0.00     0.016 A 
ATOM     37  C   UNL A   1      45.431  26.214  35.623  1.00  0.00     0.016 A 
ATOM     38  C   UNL A   1      45.623  28.527  34.039  1.00  0.00     0.010 A 
ATOM     39  C   UNL A   1      44.344  26.629  34.849  1.00  0.00     0.010 A 
ATOM     40  C   UNL A   1      44.423  27.804  34.078  1.00  0.00    -0.014 A 
BRANCH  40  41
ATOM     41  C   UNL A   1      43.211  28.341  33.415  1.00  0.00     0.031 A 
ATOM     42  C   UNL A   1      42.970  28.021  31.966  1.00  0.00     0.074 A 
ATOM     43  C   UNL A   1      42.338  29.103  34.093  1.00  0.00     0.049 A 
ATOM     44  N   UNL A   1      42.026  28.446  31.166  1.00  0.00    -0.248 NA
ATOM     45  C   UNL A   1      43.928  27.101  31.332  1.00  0.00     0.031 C 
ATOM     46  C   UNL A   1      42.444  29.452  35.508  1.00  0.00     0.029 A 
ATOM     47  N   UNL A   1      41.192  29.735  33.675  1.00  0.00    -0.354 N 
ATOM     48  C   UNL A   1      42.281  27.856  29.935  1.00  0.00     0.074 A 
ATOM     49  C   UNL A   1      43.483  27.064  30.085  1.00  0.00     0.031 C 
ATOM     50  C   UNL A   1      41.414  30.250  35.838  1.00  0.00     0.029 A 
ATOM     51  C   UNL A   1      40.598  30.496  34.650  1.00  0.00     0.049 A 
ATOM     52  H   UNL A   1      40.832  29.648  32.762  1.00  0.00     0.167 HD
ATOM     53  C   UNL A   1      41.570  27.962  28.787  1.00  0.00     0.037 A 
ATOM     54  C   UNL A   1      39.535  31.320  34.581  1.00  0.00     0.037 A 
ATOM     55  C   UNL A   1      40.372  28.746  28.643  1.00  0.00     0.049 A 
ATOM     56  C   UNL A   1      38.802  31.474  33.273  1.00  0.00     0.074 A 
ATOM     57  C   UNL A   1      39.566  28.895  27.528  1.00  0.00     0.029 A 
ATOM     58  N   UNL A   1      39.812  29.521  29.649  1.00  0.00    -0.354 N 
ATOM     59  N   UNL A   1      39.033  30.895  32.120  1.00  0.00    -0.248 NA
ATOM     60  C   UNL A   1      37.659  32.399  33.259  1.00  0.00     0.031 C 
ATOM     61  C   UNL A   1      38.548  29.801  27.843  1.00  0.00     0.029 A 
ATOM     62  C   UNL A   1      38.687  30.174  29.171  1.00  0.00     0.049 A 
ATOM     63  H   UNL A   1      40.162  29.596  30.566  1.00  0.00     0.167 HD
ATOM     64  C   UNL A   1      38.051  31.359  31.255  1.00  0.00     0.074 A 
ATOM     65  C   UNL A   1      37.215  32.262  32.017  1.00  0.00     0.031 C 
ATOM     66  C   UNL A   1      37.859  31.061  29.945  1.00  0.00     0.037 A 
BRANCH  53  67
ATOM     67  C   UNL A   1      42.088  27.233  27.581  1.00  0.00     0.064 A 
ATOM     68  C   UNL A   1      43.176  27.713  26.837  1.00  0.00     0.173 A 
ATOM     69  C   UNL A   1      41.511  26.015  27.189  1.00  0.00     0.173 A 
ATOM     70  F   UNL A   1      43.754  28.879  27.163  1.00  0.00    -0.203 F 
ATOM     71  C   UNL A   1      43.651  27.014  25.730  1.00  0.00     0.198 A 
ATOM     72  C   UNL A   1      42.007  25.304  26.099  1.00  0.00     0.198 A 
ATOM     73  F   UNL A   1      40.471  25.509  27.868  1.00  0.00    -0.203 F 
ATOM     74  F   UNL A   1      44.664  27.514  25.008  1.00  0.00    -0.200 F 
ATOM     75  C   UNL A   1      43.072  25.807  25.367  1.00  0.00     0.200 A 
ATOM     76  F   UNL A   1      41.455  24.132  25.757  1.00  0.00    -0.200 F 
ATOM     77  F   UNL A   1      43.537  25.131  24.307  1.00  0.00    -0.200 F 
ENDBRANCH  53  67
BRANCH  54  78
ATOM     78  C   UNL A   1      39.109  32.081  35.784  1.00  0.00     0.064 A 
ATOM     79  C   UNL A   1      39.550  33.393  36.005  1.00  0.00     0.173 A 
ATOM     80  C   UNL A   1      38.266  31.505  36.748  1.00  0.00     0.173 A 
ATOM     81  F   UNL A   1      40.380  33.976  35.127  1.00  0.00    -0.203 F 
ATOM     82  C   UNL A   1      39.177  34.095  37.149  1.00  0.00     0.198 A 
ATOM     83  C   UNL A   1      37.872  32.217  37.878  1.00  0.00     0.198 A 
ATOM     84  F   UNL A   1      37.823  30.250  36.588  1.00  0.00    -0.203 F 
ATOM     85  F   UNL A   1      39.652  35.330  37.359  1.00  0.00    -0.200 F 
ATOM     86  C   UNL A   1      38.334  33.509  38.081  1.00  0.00     0.200 A 
ATOM     87  F   UNL A   1      37.052  31.651  38.772  1.00  0.00    -0.200 F 
ATOM     88  F   UNL A   1      37.976  34.185  39.182  1.00  0.00    -0.200 F 
ENDBRANCH  54  78
BRANCH  66  89
ATOM     89  C   UNL A   1      36.677  31.685  29.259  1.00  0.00     0.064 A 
ATOM     90  C   UNL A   1      35.552  30.931  28.896  1.00  0.00     0.173 A 
ATOM     91  C   UNL A   1      36.648  33.066  29.014  1.00  0.00     0.173 A 
ATOM     92  F   UNL A   1      35.536  29.604  29.096  1.00  0.00    -0.203 F 
ATOM     93  C   UNL A   1      34.451  31.533  28.294  1.00  0.00     0.198 A 
ATOM     94  C   UNL A   1      35.534  33.670  28.440  1.00  0.00     0.198 A 
ATOM     95  F   UNL A   1      37.696  33.835  29.351  1.00  0.00    -0.203 F 
ATOM     96  F   UNL A   1      33.403  30.787  27.917  1.00  0.00    -0.200 F 
ATOM     97  C   UNL A   1      34.438  32.903  28.074  1.00  0.00     0.200 A 
ATOM     98  F   UNL A   1      35.518  34.996  28.243  1.00  0.00    -0.200 F 
ATOM     99  F   UNL A   1      33.373  33.483  27.506  1.00  0.00    -0.200 F 
ENDBRANCH  66  89
ENDBRANCH  40  41
ENDBRANCH  33  35
ENDBRANCH  32  33
ENDBRANCH  31  32
ENDBRANCH  30  31
ENDBRANCH  29  30
ENDBRANCH  28  29
ENDBRANCH   1  28
TORSDOF 19
ENDMDL
