MODEL 1
REMARK VINA RESULT:     -11.6      0.000      0.000
REMARK SMILES O=C(Cc1csc(N2C(=O)C[C@H](Nc3cccc(F)c3)C2=O)n1)OCCOCCOC(=O)c1ccc(-c2c3nc(c(-c4c(F)c(F)c(F)c(F)c4F)c4ccc([nH]4)c(-c4c(F)c(F)c(F)c(F)c4F)c4nc(c(-c5c(F)c(F)c(F)c(F)c5F)c5ccc2[nH]5)C=C4)C=C3)cc1
REMARK SMILES IDX 26 1 25 2 24 3 2 4 1 5 3 6 4 7 5 8 23 9 6 10 7 11 8 12 9 13
REMARK SMILES IDX 21 14 10 15 11 16 12 17 22 18 13 19 14 21 15 22 20 23 16 24
REMARK SMILES IDX 18 25 17 26 19 27 27 28 28 29 29 30 30 31 31 32 32 33 33 34
REMARK SMILES IDX 34 35 95 36 35 37 94 38 36 39 37 40 38 41 88 42 39 43 93 44
REMARK SMILES IDX 87 45 89 46 40 47 92 48 86 49 85 50 41 52 73 53 53 54 72 55
REMARK SMILES IDX 54 56 57 57 71 58 90 59 55 60 56 61 70 63 91 64 58 65 42 66
REMARK SMILES IDX 43 67 51 68 44 69 45 70 49 71 52 72 46 73 47 74 50 75 48 76
REMARK SMILES IDX 74 77 75 78 83 79 76 80 77 81 81 82 84 83 78 84 79 85 82 86
REMARK SMILES IDX 80 87 59 88 60 89 68 90 61 91 62 92 66 93 69 94 63 95 64 96
REMARK SMILES IDX 67 97 65 98
REMARK H PARENT 13 20 89 51 57 62
REMARK Flexibility Score: inf
ROOT
ATOM      1  C   UNL A   1      32.810  29.451  27.167  1.00  0.00     0.202 C 
ENDROOT
BRANCH   1   2
ATOM      2  C   UNL A   1      31.717  28.477  27.574  1.00  0.00     0.261 C 
BRANCH   2   3
ATOM      3  O   UNL A   1      31.839  27.187  26.946  1.00  0.00    -0.463 OA
BRANCH   3   4
ATOM      4  C   UNL A   1      31.017  26.684  25.993  1.00  0.00     0.311 C 
ATOM      5  O   UNL A   1      29.941  26.188  26.330  1.00  0.00    -0.252 OA
BRANCH   4   6
ATOM      6  C   UNL A   1      31.434  26.698  24.543  1.00  0.00     0.179 C 
BRANCH   6   7
ATOM      7  C   UNL A   1      32.360  25.591  24.176  1.00  0.00     0.065 A 
ATOM      8  C   UNL A   1      33.625  25.696  23.624  1.00  0.00     0.093 A 
ATOM      9  N   UNL A   1      31.987  24.300  24.511  1.00  0.00    -0.224 NA
ATOM     10  S   UNL A   1      34.427  24.186  23.734  1.00  0.00    -0.104 S 
ATOM     11  C   UNL A   1      33.002  23.478  24.385  1.00  0.00     0.199 A 
BRANCH  11  12
ATOM     12  N   UNL A   1      32.988  22.128  24.625  1.00  0.00    -0.223 N 
ATOM     13  C   UNL A   1      33.592  21.592  25.725  1.00  0.00     0.238 C 
ATOM     14  C   UNL A   1      32.463  21.195  23.770  1.00  0.00     0.258 C 
ATOM     15  O   UNL A   1      34.209  22.146  26.624  1.00  0.00    -0.274 OA
ATOM     16  C   UNL A   1      33.314  20.120  25.748  1.00  0.00     0.136 C 
ATOM     17  C   UNL A   1      32.534  19.848  24.472  1.00  0.00     0.179 C 
ATOM     18  O   UNL A   1      32.047  21.364  22.630  1.00  0.00    -0.272 OA
BRANCH  17  19
ATOM     19  N   UNL A   1      33.203  18.814  23.680  1.00  0.00    -0.373 N 
ATOM     20  H   UNL A   1      33.511  19.000  22.764  1.00  0.00     0.161 HD
BRANCH  19  21
ATOM     21  C   UNL A   1      33.394  17.561  24.254  1.00  0.00     0.038 A 
ATOM     22  C   UNL A   1      32.315  16.789  24.702  1.00  0.00     0.026 A 
ATOM     23  C   UNL A   1      34.690  17.095  24.488  1.00  0.00     0.065 A 
ATOM     24  C   UNL A   1      32.522  15.563  25.344  1.00  0.00     0.005 A 
ATOM     25  C   UNL A   1      34.891  15.883  25.144  1.00  0.00     0.125 A 
ATOM     26  C   UNL A   1      33.819  15.110  25.570  1.00  0.00     0.039 A 
ATOM     27  F   UNL A   1      36.141  15.464  25.382  1.00  0.00    -0.207 F 
ENDBRANCH  19  21
ENDBRANCH  17  19
ENDBRANCH  11  12
ENDBRANCH   6   7
ENDBRANCH   4   6
ENDBRANCH   3   4
ENDBRANCH   2   3
ENDBRANCH   1   2
BRANCH   1  28
ATOM     28  O   UNL A   1      32.534  30.255  26.029  1.00  0.00    -0.374 OA
BRANCH  28  29
ATOM     29  C   UNL A   1      31.384  31.104  26.127  1.00  0.00     0.202 C 
BRANCH  29  30
ATOM     30  C   UNL A   1      31.548  32.371  26.978  1.00  0.00     0.261 C 
BRANCH  30  31
ATOM     31  O   UNL A   1      32.856  32.956  26.836  1.00  0.00    -0.460 OA
BRANCH  31  32
ATOM     32  C   UNL A   1      33.281  33.702  27.884  1.00  0.00     0.338 C 
ATOM     33  O   UNL A   1      32.685  34.613  28.437  1.00  0.00    -0.246 OA
BRANCH  32  34
ATOM     34  C   UNL A   1      34.510  33.095  28.434  1.00  0.00     0.060 A 
ATOM     35  C   UNL A   1      34.389  31.911  29.175  1.00  0.00     0.016 A 
ATOM     36  C   UNL A   1      35.760  33.676  28.223  1.00  0.00     0.016 A 
ATOM     37  C   UNL A   1      35.520  31.316  29.734  1.00  0.00     0.010 A 
ATOM     38  C   UNL A   1      36.889  33.089  28.795  1.00  0.00     0.010 A 
ATOM     39  C   UNL A   1      36.772  31.921  29.572  1.00  0.00    -0.014 A 
BRANCH  39  40
ATOM     40  C   UNL A   1      37.957  31.420  30.302  1.00  0.00     0.031 A 
ATOM     41  C   UNL A   1      38.840  30.410  29.631  1.00  0.00     0.074 A 
ATOM     42  C   UNL A   1      38.208  31.825  31.560  1.00  0.00     0.049 A 
ATOM     43  N   UNL A   1      39.821  29.704  30.131  1.00  0.00    -0.248 NA
ATOM     44  C   UNL A   1      38.578  30.149  28.205  1.00  0.00     0.031 C 
ATOM     45  C   UNL A   1      37.441  32.830  32.290  1.00  0.00     0.029 A 
ATOM     46  N   UNL A   1      39.164  31.411  32.457  1.00  0.00    -0.354 N 
ATOM     47  C   UNL A   1      40.275  28.903  29.092  1.00  0.00     0.074 A 
ATOM     48  C   UNL A   1      39.459  29.197  27.935  1.00  0.00     0.031 C 
ATOM     49  C   UNL A   1      37.932  32.933  33.536  1.00  0.00     0.029 A 
ATOM     50  C   UNL A   1      39.014  31.965  33.705  1.00  0.00     0.049 A 
ATOM     51  H   UNL A   1      39.883  30.781  32.228  1.00  0.00     0.167 HD
ATOM     52  C   UNL A   1      41.283  28.005  29.115  1.00  0.00     0.037 A 
ATOM     53  C   UNL A   1      39.647  31.685  34.863  1.00  0.00     0.037 A 
ATOM     54  C   UNL A   1      42.099  27.740  30.269  1.00  0.00     0.049 A 
ATOM     55  C   UNL A   1      40.725  30.632  34.874  1.00  0.00     0.074 A 
ATOM     56  C   UNL A   1      43.182  26.886  30.375  1.00  0.00     0.029 A 
ATOM     57  N   UNL A   1      41.916  28.317  31.515  1.00  0.00    -0.354 N 
ATOM     58  N   UNL A   1      41.174  29.901  33.882  1.00  0.00    -0.248 NA
ATOM     59  C   UNL A   1      41.383  30.356  36.161  1.00  0.00     0.031 C 
ATOM     60  C   UNL A   1      43.612  26.894  31.702  1.00  0.00     0.029 A 
ATOM     61  C   UNL A   1      42.842  27.806  32.408  1.00  0.00     0.049 A 
ATOM     62  H   UNL A   1      41.231  28.991  31.734  1.00  0.00     0.167 HD
ATOM     63  C   UNL A   1      42.176  29.100  34.417  1.00  0.00     0.074 A 
ATOM     64  C   UNL A   1      42.279  29.440  35.819  1.00  0.00     0.031 C 
ATOM     65  C   UNL A   1      42.939  28.167  33.799  1.00  0.00     0.037 A 
BRANCH  52  66
ATOM     66  C   UNL A   1      41.573  27.218  27.871  1.00  0.00     0.064 A 
ATOM     67  C   UNL A   1      40.980  25.960  27.683  1.00  0.00     0.173 A 
ATOM     68  C   UNL A   1      42.533  27.640  26.942  1.00  0.00     0.173 A 
ATOM     69  F   UNL A   1      40.058  25.511  28.548  1.00  0.00    -0.203 F 
ATOM     70  C   UNL A   1      41.364  25.138  26.628  1.00  0.00     0.198 A 
ATOM     71  C   UNL A   1      42.896  26.825  25.872  1.00  0.00     0.198 A 
ATOM     72  F   UNL A   1      43.120  28.839  27.072  1.00  0.00    -0.203 F 
ATOM     73  F   UNL A   1      40.823  23.918  26.500  1.00  0.00    -0.200 F 
ATOM     74  C   UNL A   1      42.324  25.569  25.725  1.00  0.00     0.200 A 
ATOM     75  F   UNL A   1      43.810  27.249  24.989  1.00  0.00    -0.200 F 
ATOM     76  F   UNL A   1      42.702  24.771  24.718  1.00  0.00    -0.200 F 
ENDBRANCH  52  66
BRANCH  53  77
ATOM     77  C   UNL A   1      39.246  32.387  36.111  1.00  0.00     0.064 A 
ATOM     78  C   UNL A   1      38.318  31.820  37.000  1.00  0.00     0.173 A 
ATOM     79  C   UNL A   1      39.771  33.644  36.439  1.00  0.00     0.173 A 
ATOM     80  F   UNL A   1      37.785  30.617  36.737  1.00  0.00    -0.203 F 
ATOM     81  C   UNL A   1      37.915  32.492  38.151  1.00  0.00     0.198 A 
ATOM     82  C   UNL A   1      39.393  34.302  37.608  1.00  0.00     0.198 A 
ATOM     83  F   UNL A   1      40.680  34.219  35.637  1.00  0.00    -0.203 F 
ATOM     84  F   UNL A   1      37.000  31.942  38.960  1.00  0.00    -0.200 F 
ATOM     85  C   UNL A   1      38.458  33.730  38.459  1.00  0.00     0.200 A 
ATOM     86  F   UNL A   1      39.942  35.484  37.916  1.00  0.00    -0.200 F 
ATOM     87  F   UNL A   1      38.084  34.369  39.575  1.00  0.00    -0.200 F 
ENDBRANCH  53  77
BRANCH  65  88
ATOM     88  C   UNL A   1      43.978  27.448  34.609  1.00  0.00     0.064 A 
ATOM     89  C   UNL A   1      43.662  26.239  35.249  1.00  0.00     0.173 A 
ATOM     90  C   UNL A   1      45.228  28.023  34.869  1.00  0.00     0.173 A 
ATOM     91  F   UNL A   1      42.471  25.656  35.043  1.00  0.00    -0.203 F 
ATOM     92  C   UNL A   1      44.547  25.653  36.148  1.00  0.00     0.198 A 
ATOM     93  C   UNL A   1      46.124  27.418  35.745  1.00  0.00     0.198 A 
ATOM     94  F   UNL A   1      45.579  29.174  34.273  1.00  0.00    -0.203 F 
ATOM     95  F   UNL A   1      44.200  24.530  36.793  1.00  0.00    -0.200 F 
ATOM     96  C   UNL A   1      45.777  26.242  36.397  1.00  0.00     0.200 A 
ATOM     97  F   UNL A   1      47.320  27.978  35.971  1.00  0.00    -0.200 F 
ATOM     98  F   UNL A   1      46.625  25.682  37.268  1.00  0.00    -0.200 F 
ENDBRANCH  65  88
ENDBRANCH  39  40
ENDBRANCH  32  34
ENDBRANCH  31  32
ENDBRANCH  30  31
ENDBRANCH  29  30
ENDBRANCH  28  29
ENDBRANCH   1  28
TORSDOF 18
ENDMDL
MODEL 2
REMARK VINA RESULT:     -11.5      3.263      9.303
REMARK SMILES O=C(Cc1csc(N2C(=O)C[C@H](Nc3cccc(F)c3)C2=O)n1)OCCOCCOC(=O)c1ccc(-c2c3nc(c(-c4c(F)c(F)c(F)c(F)c4F)c4ccc([nH]4)c(-c4c(F)c(F)c(F)c(F)c4F)c4nc(c(-c5c(F)c(F)c(F)c(F)c5F)c5ccc2[nH]5)C=C4)C=C3)cc1
REMARK SMILES IDX 26 1 25 2 24 3 2 4 1 5 3 6 4 7 5 8 23 9 6 10 7 11 8 12 9 13
REMARK SMILES IDX 21 14 10 15 11 16 12 17 22 18 13 19 14 21 15 22 20 23 16 24
REMARK SMILES IDX 18 25 17 26 19 27 27 28 28 29 29 30 30 31 31 32 32 33 33 34
REMARK SMILES IDX 34 35 95 36 35 37 94 38 36 39 37 40 38 41 88 42 39 43 93 44
REMARK SMILES IDX 87 45 89 46 40 47 92 48 86 49 85 50 41 52 73 53 53 54 72 55
REMARK SMILES IDX 54 56 57 57 71 58 90 59 55 60 56 61 70 63 91 64 58 65 42 66
REMARK SMILES IDX 43 67 51 68 44 69 45 70 49 71 52 72 46 73 47 74 50 75 48 76
REMARK SMILES IDX 74 77 75 78 83 79 76 80 77 81 81 82 84 83 78 84 79 85 82 86
REMARK SMILES IDX 80 87 59 88 60 89 68 90 61 91 62 92 66 93 69 94 63 95 64 96
REMARK SMILES IDX 67 97 65 98
REMARK H PARENT 13 20 89 51 57 62
REMARK Flexibility Score: inf
ROOT
ATOM      1  C   UNL A   1      40.288  21.520  26.103  1.00  0.00     0.202 C 
ENDROOT
BRANCH   1   2
ATOM      2  C   UNL A   1      38.865  21.116  25.752  1.00  0.00     0.261 C 
BRANCH   2   3
ATOM      3  O   UNL A   1      38.066  22.209  25.262  1.00  0.00    -0.463 OA
BRANCH   3   4
ATOM      4  C   UNL A   1      36.807  22.516  25.659  1.00  0.00     0.311 C 
ATOM      5  O   UNL A   1      36.587  23.621  26.155  1.00  0.00    -0.252 OA
BRANCH   4   6
ATOM      6  C   UNL A   1      35.698  21.501  25.529  1.00  0.00     0.179 C 
BRANCH   6   7
ATOM      7  C   UNL A   1      34.356  22.029  25.898  1.00  0.00     0.065 A 
ATOM      8  C   UNL A   1      33.685  21.869  27.098  1.00  0.00     0.093 A 
ATOM      9  N   UNL A   1      33.726  22.872  24.998  1.00  0.00    -0.224 NA
ATOM     10  S   UNL A   1      32.366  22.961  27.169  1.00  0.00    -0.104 S 
ATOM     11  C   UNL A   1      32.704  23.472  25.563  1.00  0.00     0.199 A 
BRANCH  11  12
ATOM     12  N   UNL A   1      31.854  24.365  24.964  1.00  0.00    -0.223 N 
ATOM     13  C   UNL A   1      31.075  24.008  23.902  1.00  0.00     0.238 C 
ATOM     14  C   UNL A   1      31.765  25.692  25.296  1.00  0.00     0.258 C 
ATOM     15  O   UNL A   1      30.989  22.934  23.324  1.00  0.00    -0.274 OA
ATOM     16  C   UNL A   1      30.198  25.169  23.546  1.00  0.00     0.136 C 
ATOM     17  C   UNL A   1      30.621  26.284  24.489  1.00  0.00     0.179 C 
ATOM     18  O   UNL A   1      32.480  26.328  26.060  1.00  0.00    -0.272 OA
BRANCH  17  19
ATOM     19  N   UNL A   1      31.003  27.475  23.726  1.00  0.00    -0.373 N 
ATOM     20  H   UNL A   1      31.904  27.558  23.340  1.00  0.00     0.161 HD
BRANCH  19  21
ATOM     21  C   UNL A   1      30.060  28.484  23.559  1.00  0.00     0.038 A 
ATOM     22  C   UNL A   1      28.927  28.301  22.756  1.00  0.00     0.026 A 
ATOM     23  C   UNL A   1      30.288  29.745  24.115  1.00  0.00     0.065 A 
ATOM     24  C   UNL A   1      28.023  29.347  22.536  1.00  0.00     0.005 A 
ATOM     25  C   UNL A   1      29.394  30.787  23.877  1.00  0.00     0.125 A 
ATOM     26  C   UNL A   1      28.261  30.598  23.097  1.00  0.00     0.039 A 
ATOM     27  F   UNL A   1      29.641  31.996  24.398  1.00  0.00    -0.207 F 
ENDBRANCH  19  21
ENDBRANCH  17  19
ENDBRANCH  11  12
ENDBRANCH   6   7
ENDBRANCH   4   6
ENDBRANCH   3   4
ENDBRANCH   2   3
ENDBRANCH   1   2
BRANCH   1  28
ATOM     28  O   UNL A   1      40.902  20.782  27.151  1.00  0.00    -0.374 OA
BRANCH  28  29
ATOM     29  C   UNL A   1      42.216  20.284  26.878  1.00  0.00     0.202 C 
BRANCH  29  30
ATOM     30  C   UNL A   1      43.042  21.075  25.853  1.00  0.00     0.261 C 
BRANCH  30  31
ATOM     31  O   UNL A   1      43.619  22.265  26.422  1.00  0.00    -0.460 OA
BRANCH  31  32
ATOM     32  C   UNL A   1      43.446  23.401  25.705  1.00  0.00     0.338 C 
ATOM     33  O   UNL A   1      43.518  23.533  24.493  1.00  0.00    -0.246 OA
BRANCH  32  34
ATOM     34  C   UNL A   1      42.915  24.451  26.598  1.00  0.00     0.060 A 
ATOM     35  C   UNL A   1      43.390  25.761  26.437  1.00  0.00     0.016 A 
ATOM     36  C   UNL A   1      41.965  24.156  27.575  1.00  0.00     0.016 A 
ATOM     37  C   UNL A   1      42.935  26.779  27.274  1.00  0.00     0.010 A 
ATOM     38  C   UNL A   1      41.522  25.172  28.422  1.00  0.00     0.010 A 
ATOM     39  C   UNL A   1      42.022  26.481  28.292  1.00  0.00    -0.014 A 
BRANCH  39  40
ATOM     40  C   UNL A   1      41.662  27.494  29.309  1.00  0.00     0.031 A 
ATOM     41  C   UNL A   1      42.424  27.517  30.601  1.00  0.00     0.074 A 
ATOM     42  C   UNL A   1      40.640  28.343  29.099  1.00  0.00     0.049 A 
ATOM     43  N   UNL A   1      42.179  28.187  31.696  1.00  0.00    -0.248 NA
ATOM     44  C   UNL A   1      43.621  26.660  30.675  1.00  0.00     0.031 C 
ATOM     45  C   UNL A   1      39.862  28.434  27.866  1.00  0.00     0.029 A 
ATOM     46  N   UNL A   1      40.062  29.269  29.933  1.00  0.00    -0.354 N 
ATOM     47  C   UNL A   1      43.171  27.817  32.593  1.00  0.00     0.074 A 
ATOM     48  C   UNL A   1      44.019  26.856  31.924  1.00  0.00     0.031 C 
ATOM     49  C   UNL A   1      38.883  29.340  28.035  1.00  0.00     0.029 A 
ATOM     50  C   UNL A   1      38.938  29.854  29.403  1.00  0.00     0.049 A 
ATOM     51  H   UNL A   1      40.418  29.490  30.823  1.00  0.00     0.167 HD
ATOM     52  C   UNL A   1      43.348  28.247  33.861  1.00  0.00     0.037 A 
ATOM     53  C   UNL A   1      38.031  30.672  29.974  1.00  0.00     0.037 A 
ATOM     54  C   UNL A   1      42.508  29.220  34.505  1.00  0.00     0.049 A 
ATOM     55  C   UNL A   1      38.218  31.087  31.411  1.00  0.00     0.074 A 
ATOM     56  C   UNL A   1      42.639  29.762  35.771  1.00  0.00     0.029 A 
ATOM     57  N   UNL A   1      41.378  29.788  33.938  1.00  0.00    -0.354 N 
ATOM     58  N   UNL A   1      39.177  30.761  32.245  1.00  0.00    -0.248 NA
ATOM     59  C   UNL A   1      37.200  31.974  31.993  1.00  0.00     0.031 C 
ATOM     60  C   UNL A   1      41.551  30.606  35.997  1.00  0.00     0.029 A 
ATOM     61  C   UNL A   1      40.779  30.644  34.845  1.00  0.00     0.049 A 
ATOM     62  H   UNL A   1      41.050  29.610  33.026  1.00  0.00     0.167 HD
ATOM     63  C   UNL A   1      38.891  31.419  33.435  1.00  0.00     0.074 A 
ATOM     64  C   UNL A   1      37.676  32.172  33.216  1.00  0.00     0.031 C 
ATOM     65  C   UNL A   1      39.576  31.398  34.604  1.00  0.00     0.037 A 
BRANCH  52  66
ATOM     66  C   UNL A   1      44.478  27.675  34.664  1.00  0.00     0.064 A 
ATOM     67  C   UNL A   1      44.255  26.573  35.504  1.00  0.00     0.173 A 
ATOM     68  C   UNL A   1      45.735  28.293  34.708  1.00  0.00     0.173 A 
ATOM     69  F   UNL A   1      43.066  25.950  35.499  1.00  0.00    -0.203 F 
ATOM     70  C   UNL A   1      45.237  26.132  36.385  1.00  0.00     0.198 A 
ATOM     71  C   UNL A   1      46.726  27.833  35.573  1.00  0.00     0.198 A 
ATOM     72  F   UNL A   1      46.001  29.342  33.916  1.00  0.00    -0.203 F 
ATOM     73  F   UNL A   1      44.982  25.112  37.216  1.00  0.00    -0.200 F 
ATOM     74  C   UNL A   1      46.471  26.765  36.422  1.00  0.00     0.200 A 
ATOM     75  F   UNL A   1      47.924  28.433  35.597  1.00  0.00    -0.200 F 
ATOM     76  F   UNL A   1      47.411  26.349  37.281  1.00  0.00    -0.200 F 
ENDBRANCH  52  66
BRANCH  53  77
ATOM     77  C   UNL A   1      36.846  31.118  29.194  1.00  0.00     0.064 A 
ATOM     78  C   UNL A   1      35.802  30.231  28.884  1.00  0.00     0.173 A 
ATOM     79  C   UNL A   1      36.735  32.436  28.731  1.00  0.00     0.173 A 
ATOM     80  F   UNL A   1      35.855  28.958  29.304  1.00  0.00    -0.203 F 
ATOM     81  C   UNL A   1      34.709  30.638  28.124  1.00  0.00     0.198 A 
ATOM     82  C   UNL A   1      35.624  32.852  27.998  1.00  0.00     0.198 A 
ATOM     83  F   UNL A   1      37.692  33.330  29.021  1.00  0.00    -0.203 F 
ATOM     84  F   UNL A   1      33.747  29.760  27.812  1.00  0.00    -0.200 F 
ATOM     85  C   UNL A   1      34.617  31.951  27.687  1.00  0.00     0.200 A 
ATOM     86  F   UNL A   1      35.526  34.128  27.603  1.00  0.00    -0.200 F 
ATOM     87  F   UNL A   1      33.556  32.348  26.970  1.00  0.00    -0.200 F 
ENDBRANCH  53  77
BRANCH  65  88
ATOM     88  C   UNL A   1      39.059  32.223  35.745  1.00  0.00     0.064 A 
ATOM     89  C   UNL A   1      39.505  33.543  35.922  1.00  0.00     0.173 A 
ATOM     90  C   UNL A   1      38.241  31.667  36.737  1.00  0.00     0.173 A 
ATOM     91  F   UNL A   1      40.302  34.116  35.006  1.00  0.00    -0.203 F 
ATOM     92  C   UNL A   1      39.181  34.260  37.069  1.00  0.00     0.198 A 
ATOM     93  C   UNL A   1      37.892  32.398  37.868  1.00  0.00     0.198 A 
ATOM     94  F   UNL A   1      37.781  30.413  36.607  1.00  0.00    -0.203 F 
ATOM     95  F   UNL A   1      39.668  35.497  37.245  1.00  0.00    -0.200 F 
ATOM     96  C   UNL A   1      38.376  33.688  38.042  1.00  0.00     0.200 A 
ATOM     97  F   UNL A   1      37.099  31.852  38.800  1.00  0.00    -0.200 F 
ATOM     98  F   UNL A   1      38.071  34.376  39.150  1.00  0.00    -0.200 F 
ENDBRANCH  65  88
ENDBRANCH  39  40
ENDBRANCH  32  34
ENDBRANCH  31  32
ENDBRANCH  30  31
ENDBRANCH  29  30
ENDBRANCH  28  29
ENDBRANCH   1  28
TORSDOF 18
ENDMDL
MODEL 3
REMARK VINA RESULT:     -11.4      4.475      8.600
REMARK SMILES O=C(Cc1csc(N2C(=O)C[C@H](Nc3cccc(F)c3)C2=O)n1)OCCOCCOC(=O)c1ccc(-c2c3nc(c(-c4c(F)c(F)c(F)c(F)c4F)c4ccc([nH]4)c(-c4c(F)c(F)c(F)c(F)c4F)c4nc(c(-c5c(F)c(F)c(F)c(F)c5F)c5ccc2[nH]5)C=C4)C=C3)cc1
REMARK SMILES IDX 26 1 25 2 24 3 2 4 1 5 3 6 4 7 5 8 23 9 6 10 7 11 8 12 9 13
REMARK SMILES IDX 21 14 10 15 11 16 12 17 22 18 13 19 14 21 15 22 20 23 16 24
REMARK SMILES IDX 18 25 17 26 19 27 27 28 28 29 29 30 30 31 31 32 32 33 33 34
REMARK SMILES IDX 34 35 95 36 35 37 94 38 36 39 37 40 38 41 88 42 39 43 93 44
REMARK SMILES IDX 87 45 89 46 40 47 92 48 86 49 85 50 41 52 73 53 53 54 72 55
REMARK SMILES IDX 54 56 57 57 71 58 90 59 55 60 56 61 70 63 91 64 58 65 42 66
REMARK SMILES IDX 43 67 51 68 44 69 45 70 49 71 52 72 46 73 47 74 50 75 48 76
REMARK SMILES IDX 74 77 75 78 83 79 76 80 77 81 81 82 84 83 78 84 79 85 82 86
REMARK SMILES IDX 80 87 59 88 60 89 68 90 61 91 62 92 66 93 69 94 63 95 64 96
REMARK SMILES IDX 67 97 65 98
REMARK H PARENT 13 20 89 51 57 62
REMARK Flexibility Score: inf
ROOT
ATOM      1  C   UNL A   1      34.454  32.290  27.638  1.00  0.00     0.202 C 
ENDROOT
BRANCH   1   2
ATOM      2  C   UNL A   1      34.793  30.819  27.806  1.00  0.00     0.261 C 
BRANCH   2   3
ATOM      3  O   UNL A   1      33.665  29.946  27.604  1.00  0.00    -0.463 OA
BRANCH   3   4
ATOM      4  C   UNL A   1      32.754  30.041  26.606  1.00  0.00     0.311 C 
ATOM      5  O   UNL A   1      31.712  30.668  26.802  1.00  0.00    -0.252 OA
BRANCH   4   6
ATOM      6  C   UNL A   1      32.996  29.353  25.285  1.00  0.00     0.179 C 
BRANCH   6   7
ATOM      7  C   UNL A   1      32.017  28.273  24.983  1.00  0.00     0.065 A 
ATOM      8  C   UNL A   1      30.801  28.391  24.333  1.00  0.00     0.093 A 
ATOM      9  N   UNL A   1      32.384  26.970  25.278  1.00  0.00    -0.224 NA
ATOM     10  S   UNL A   1      30.227  26.836  23.900  1.00  0.00    -0.104 S 
ATOM     11  C   UNL A   1      31.561  26.119  24.712  1.00  0.00     0.199 A 
BRANCH  11  12
ATOM     12  N   UNL A   1      31.621  24.751  24.799  1.00  0.00    -0.223 N 
ATOM     13  C   UNL A   1      31.107  24.081  25.870  1.00  0.00     0.238 C 
ATOM     14  C   UNL A   1      32.262  23.946  23.895  1.00  0.00     0.258 C 
ATOM     15  O   UNL A   1      30.551  24.515  26.869  1.00  0.00    -0.274 OA
ATOM     16  C   UNL A   1      31.241  22.610  25.618  1.00  0.00     0.136 C 
ATOM     17  C   UNL A   1      31.976  22.506  24.291  1.00  0.00     0.179 C 
ATOM     18  O   UNL A   1      32.977  24.281  22.959  1.00  0.00    -0.272 OA
BRANCH  17  19
ATOM     19  N   UNL A   1      33.185  21.693  24.444  1.00  0.00    -0.373 N 
ATOM     20  H   UNL A   1      34.001  22.075  24.839  1.00  0.00     0.161 HD
BRANCH  19  21
ATOM     21  C   UNL A   1      33.150  20.369  24.020  1.00  0.00     0.038 A 
ATOM     22  C   UNL A   1      32.229  19.932  23.059  1.00  0.00     0.026 A 
ATOM     23  C   UNL A   1      33.976  19.423  24.631  1.00  0.00     0.065 A 
ATOM     24  C   UNL A   1      32.154  18.584  22.693  1.00  0.00     0.005 A 
ATOM     25  C   UNL A   1      33.884  18.079  24.275  1.00  0.00     0.125 A 
ATOM     26  C   UNL A   1      32.984  17.652  23.309  1.00  0.00     0.039 A 
ATOM     27  F   UNL A   1      34.667  17.182  24.889  1.00  0.00    -0.207 F 
ENDBRANCH  19  21
ENDBRANCH  17  19
ENDBRANCH  11  12
ENDBRANCH   6   7
ENDBRANCH   4   6
ENDBRANCH   3   4
ENDBRANCH   2   3
ENDBRANCH   1   2
BRANCH   1  28
ATOM     28  O   UNL A   1      33.681  32.872  28.679  1.00  0.00    -0.374 OA
BRANCH  28  29
ATOM     29  C   UNL A   1      34.329  33.895  29.443  1.00  0.00     0.202 C 
BRANCH  29  30
ATOM     30  C   UNL A   1      34.597  33.571  30.919  1.00  0.00     0.261 C 
BRANCH  30  31
ATOM     31  O   UNL A   1      35.085  32.229  31.101  1.00  0.00    -0.460 OA
BRANCH  31  32
ATOM     32  C   UNL A   1      35.959  32.056  32.122  1.00  0.00     0.338 C 
ATOM     33  O   UNL A   1      35.712  32.041  33.317  1.00  0.00    -0.246 OA
BRANCH  32  34
ATOM     34  C   UNL A   1      37.264  31.647  31.565  1.00  0.00     0.060 A 
ATOM     35  C   UNL A   1      37.460  31.760  30.181  1.00  0.00     0.016 A 
ATOM     36  C   UNL A   1      38.281  31.163  32.388  1.00  0.00     0.016 A 
ATOM     37  C   UNL A   1      38.668  31.362  29.610  1.00  0.00     0.010 A 
ATOM     38  C   UNL A   1      39.484  30.750  31.813  1.00  0.00     0.010 A 
ATOM     39  C   UNL A   1      39.674  30.825  30.421  1.00  0.00    -0.014 A 
BRANCH  39  40
ATOM     40  C   UNL A   1      40.889  30.225  29.827  1.00  0.00     0.031 A 
ATOM     41  C   UNL A   1      42.077  31.106  29.579  1.00  0.00     0.074 A 
ATOM     42  C   UNL A   1      40.909  28.929  29.471  1.00  0.00     0.049 A 
ATOM     43  N   UNL A   1      43.175  30.851  28.916  1.00  0.00    -0.248 NA
ATOM     44  C   UNL A   1      42.019  32.466  30.144  1.00  0.00     0.031 C 
ATOM     45  C   UNL A   1      39.827  27.975  29.704  1.00  0.00     0.029 A 
ATOM     46  N   UNL A   1      41.866  28.199  28.807  1.00  0.00    -0.354 N 
ATOM     47  C   UNL A   1      43.924  32.018  28.964  1.00  0.00     0.074 A 
ATOM     48  C   UNL A   1      43.157  32.990  29.710  1.00  0.00     0.031 C 
ATOM     49  C   UNL A   1      40.164  26.793  29.160  1.00  0.00     0.029 A 
ATOM     50  C   UNL A   1      41.461  26.923  28.499  1.00  0.00     0.049 A 
ATOM     51  H   UNL A   1      42.752  28.556  28.575  1.00  0.00     0.167 HD
ATOM     52  C   UNL A   1      45.143  32.247  28.429  1.00  0.00     0.037 A 
ATOM     53  C   UNL A   1      42.050  25.986  27.729  1.00  0.00     0.037 A 
ATOM     54  C   UNL A   1      45.903  31.262  27.708  1.00  0.00     0.049 A 
ATOM     55  C   UNL A   1      43.381  26.290  27.090  1.00  0.00     0.074 A 
ATOM     56  C   UNL A   1      47.172  31.382  27.174  1.00  0.00     0.029 A 
ATOM     57  N   UNL A   1      45.459  29.982  27.413  1.00  0.00    -0.354 N 
ATOM     58  N   UNL A   1      44.101  27.383  27.166  1.00  0.00    -0.248 NA
ATOM     59  C   UNL A   1      43.982  25.240  26.254  1.00  0.00     0.031 C 
ATOM     60  C   UNL A   1      47.471  30.199  26.496  1.00  0.00     0.029 A 
ATOM     61  C   UNL A   1      46.416  29.316  26.668  1.00  0.00     0.049 A 
ATOM     62  H   UNL A   1      44.594  29.603  27.693  1.00  0.00     0.167 HD
ATOM     63  C   UNL A   1      45.244  27.145  26.412  1.00  0.00     0.074 A 
ATOM     64  C   UNL A   1      45.129  25.800  25.894  1.00  0.00     0.031 C 
ATOM     65  C   UNL A   1      46.291  27.969  26.172  1.00  0.00     0.037 A 
BRANCH  52  66
ATOM     66  C   UNL A   1      45.748  33.611  28.576  1.00  0.00     0.064 A 
ATOM     67  C   UNL A   1      46.473  33.937  29.733  1.00  0.00     0.173 A 
ATOM     68  C   UNL A   1      45.498  34.630  27.647  1.00  0.00     0.173 A 
ATOM     69  F   UNL A   1      46.735  32.996  30.653  1.00  0.00    -0.203 F 
ATOM     70  C   UNL A   1      46.895  35.240  29.971  1.00  0.00     0.198 A 
ATOM     71  C   UNL A   1      45.945  35.929  27.876  1.00  0.00     0.198 A 
ATOM     72  F   UNL A   1      44.820  34.366  26.520  1.00  0.00    -0.203 F 
ATOM     73  F   UNL A   1      47.539  35.538  31.108  1.00  0.00    -0.200 F 
ATOM     74  C   UNL A   1      46.628  36.237  29.044  1.00  0.00     0.200 A 
ATOM     75  F   UNL A   1      45.703  36.889  26.972  1.00  0.00    -0.200 F 
ATOM     76  F   UNL A   1      47.023  37.495  29.281  1.00  0.00    -0.200 F 
ENDBRANCH  52  66
BRANCH  53  77
ATOM     77  C   UNL A   1      41.363  24.688  27.491  1.00  0.00     0.064 A 
ATOM     78  C   UNL A   1      40.211  24.610  26.691  1.00  0.00     0.173 A 
ATOM     79  C   UNL A   1      41.833  23.500  28.067  1.00  0.00     0.173 A 
ATOM     80  F   UNL A   1      39.718  25.716  26.113  1.00  0.00    -0.203 F 
ATOM     81  C   UNL A   1      39.547  23.402  26.496  1.00  0.00     0.198 A 
ATOM     82  C   UNL A   1      41.187  22.286  27.844  1.00  0.00     0.198 A 
ATOM     83  F   UNL A   1      42.944  23.515  28.819  1.00  0.00    -0.203 F 
ATOM     84  F   UNL A   1      38.429  23.365  25.758  1.00  0.00    -0.200 F 
ATOM     85  C   UNL A   1      40.039  22.238  27.067  1.00  0.00     0.200 A 
ATOM     86  F   UNL A   1      41.682  21.159  28.374  1.00  0.00    -0.200 F 
ATOM     87  F   UNL A   1      39.410  21.072  26.866  1.00  0.00    -0.200 F 
ENDBRANCH  53  77
BRANCH  65  88
ATOM     88  C   UNL A   1      47.422  27.455  25.331  1.00  0.00     0.064 A 
ATOM     89  C   UNL A   1      48.547  26.874  25.938  1.00  0.00     0.173 A 
ATOM     90  C   UNL A   1      47.457  27.665  23.946  1.00  0.00     0.173 A 
ATOM     91  F   UNL A   1      48.567  26.664  27.264  1.00  0.00    -0.203 F 
ATOM     92  C   UNL A   1      49.679  26.558  25.193  1.00  0.00     0.198 A 
ATOM     93  C   UNL A   1      48.579  27.319  23.199  1.00  0.00     0.198 A 
ATOM     94  F   UNL A   1      46.401  28.208  23.319  1.00  0.00    -0.203 F 
ATOM     95  F   UNL A   1      50.764  26.061  25.804  1.00  0.00    -0.200 F 
ATOM     96  C   UNL A   1      49.695  26.782  23.825  1.00  0.00     0.200 A 
ATOM     97  F   UNL A   1      48.587  27.519  21.874  1.00  0.00    -0.200 F 
ATOM     98  F   UNL A   1      50.788  26.485  23.111  1.00  0.00    -0.200 F 
ENDBRANCH  65  88
ENDBRANCH  39  40
ENDBRANCH  32  34
ENDBRANCH  31  32
ENDBRANCH  30  31
ENDBRANCH  29  30
ENDBRANCH  28  29
ENDBRANCH   1  28
TORSDOF 18
ENDMDL
