MODEL 1
REMARK VINA RESULT:     -12.0      0.000      0.000
REMARK SMILES CC(C)(C(=O)N1C[C@@H]2c3ccccc3OC[C@]2(C(=O)OCCOCCOC(=O)c2ccc(-c3c4nc(c(-c5c(F)c(F)c(F)c(F)c5F)c5ccc([nH]5)c(-c5c(F)c(F)c(F)c(F)c5F)c5nc(c(-c6c(F)c(F)c(F)c(F)c6F)c6ccc3[nH]6)C=C5)C=C4)cc2)C1)[NH+]1CCOCC1
REMARK SMILES IDX 22 1 21 2 20 3 18 4 19 5 17 6 6 7 7 8 92 9 8 10 9 11 16 12
REMARK SMILES IDX 10 13 14 14 15 15 11 16 13 17 12 18 4 19 5 20 2 21 1 22 3 23
REMARK SMILES IDX 93 24 94 25 98 26 95 28 97 29 96 30 23 31 24 32 25 33 26 34
REMARK SMILES IDX 27 35 28 36 29 37 30 38 91 39 31 40 90 41 32 42 33 43 34 44
REMARK SMILES IDX 84 45 35 46 89 47 83 48 85 49 36 50 88 51 82 52 81 53 37 55
REMARK SMILES IDX 69 56 49 57 68 58 50 59 53 60 67 61 86 62 51 63 52 64 66 66
REMARK SMILES IDX 87 67 54 68 38 69 39 70 47 71 40 72 41 73 45 74 48 75 42 76
REMARK SMILES IDX 43 77 46 78 44 79 70 80 71 81 79 82 72 83 73 84 77 85 80 86
REMARK SMILES IDX 74 87 75 88 78 89 76 90 55 91 56 92 64 93 57 94 58 95 62 96
REMARK SMILES IDX 65 97 59 98 60 99 63 100 61 101
REMARK H PARENT 93 27 85 54 53 65
REMARK Flexibility Score: inf
ROOT
ATOM      1  C   UNL A   1      33.595  29.612  27.585  1.00  0.00     0.202 C 
ENDROOT
BRANCH   1   2
ATOM      2  C   UNL A   1      34.508  28.584  26.865  1.00  0.00     0.261 C 
BRANCH   2   3
ATOM      3  O   UNL A   1      33.648  27.536  26.372  1.00  0.00    -0.463 OA
BRANCH   3   4
ATOM      4  C   UNL A   1      32.267  27.527  26.370  1.00  0.00     0.318 C 
ATOM      5  O   UNL A   1      31.548  27.611  27.348  1.00  0.00    -0.251 OA
BRANCH   4   6
ATOM      6  C   UNL A   1      31.876  27.377  24.882  1.00  0.00     0.128 C 
ATOM      7  N   UNL A   1      32.240  25.335  23.645  1.00  0.00    -0.335 N 
ATOM      8  C   UNL A   1      30.998  25.908  23.174  1.00  0.00     0.129 C 
ATOM      9  C   UNL A   1      32.915  26.321  24.442  1.00  0.00     0.142 C 
ATOM     10  C   UNL A   1      30.536  26.809  24.342  1.00  0.00     0.065 C 
ATOM     11  C   UNL A   1      29.571  27.848  23.812  1.00  0.00     0.000 A 
ATOM     12  C   UNL A   1      32.108  28.806  24.396  1.00  0.00     0.251 C 
ATOM     13  C   UNL A   1      28.236  27.568  23.501  1.00  0.00     0.008 A 
ATOM     14  C   UNL A   1      30.036  29.119  23.489  1.00  0.00     0.122 A 
ATOM     15  O   UNL A   1      31.371  29.318  23.312  1.00  0.00    -0.492 OA
ATOM     16  C   UNL A   1      27.392  28.577  23.012  1.00  0.00     0.001 A 
ATOM     17  C   UNL A   1      29.191  30.160  23.114  1.00  0.00     0.047 A 
ATOM     18  C   UNL A   1      27.850  29.888  22.885  1.00  0.00     0.004 A 
BRANCH   7  19
ATOM     19  C   UNL A   1      32.861  24.264  23.004  1.00  0.00     0.283 C 
ATOM     20  O   UNL A   1      33.278  24.444  21.856  1.00  0.00    -0.268 OA
BRANCH  19  21
ATOM     21  C   UNL A   1      32.706  22.798  23.648  1.00  0.00     0.171 C 
ATOM     22  C   UNL A   1      31.425  22.598  24.484  1.00  0.00     0.090 C 
ATOM     23  C   UNL A   1      32.508  21.928  22.376  1.00  0.00     0.090 C 
BRANCH  21  24
ATOM     24  N   UNL A   1      33.935  22.214  24.292  1.00  0.00    -0.319 N 
ATOM     25  C   UNL A   1      33.930  22.044  25.761  1.00  0.00     0.291 C 
ATOM     26  C   UNL A   1      35.292  22.638  23.913  1.00  0.00     0.291 C 
ATOM     27  H   UNL A   1      33.775  21.331  23.805  1.00  0.00     0.349 HD
ATOM     28  C   UNL A   1      34.376  23.324  26.491  1.00  0.00     0.221 C 
ATOM     29  C   UNL A   1      35.834  23.842  24.703  1.00  0.00     0.221 C 
ATOM     30  O   UNL A   1      35.713  23.676  26.124  1.00  0.00    -0.370 OA
ENDBRANCH  21  24
ENDBRANCH  19  21
ENDBRANCH   7  19
ENDBRANCH   4   6
ENDBRANCH   3   4
ENDBRANCH   2   3
ENDBRANCH   1   2
BRANCH   1  31
ATOM     31  O   UNL A   1      33.445  30.910  26.992  1.00  0.00    -0.374 OA
BRANCH  31  32
ATOM     32  C   UNL A   1      32.129  31.445  26.891  1.00  0.00     0.202 C 
BRANCH  32  33
ATOM     33  C   UNL A   1      31.936  32.951  27.163  1.00  0.00     0.261 C 
BRANCH  33  34
ATOM     34  O   UNL A   1      33.174  33.665  27.252  1.00  0.00    -0.460 OA
BRANCH  34  35
ATOM     35  C   UNL A   1      33.275  34.413  28.374  1.00  0.00     0.338 C 
ATOM     36  O   UNL A   1      32.528  35.310  28.746  1.00  0.00    -0.246 OA
BRANCH  35  37
ATOM     37  C   UNL A   1      34.335  33.872  29.230  1.00  0.00     0.060 A 
ATOM     38  C   UNL A   1      34.082  32.892  30.190  1.00  0.00     0.016 A 
ATOM     39  C   UNL A   1      35.635  34.327  28.987  1.00  0.00     0.016 A 
ATOM     40  C   UNL A   1      35.157  32.340  30.893  1.00  0.00     0.010 A 
ATOM     41  C   UNL A   1      36.703  33.774  29.685  1.00  0.00     0.010 A 
ATOM     42  C   UNL A   1      36.474  32.760  30.626  1.00  0.00    -0.014 A 
BRANCH  42  43
ATOM     43  C   UNL A   1      37.634  32.055  31.223  1.00  0.00     0.031 A 
ATOM     44  C   UNL A   1      38.122  32.392  32.599  1.00  0.00     0.074 A 
ATOM     45  C   UNL A   1      38.280  31.142  30.476  1.00  0.00     0.049 A 
ATOM     46  N   UNL A   1      39.120  31.874  33.269  1.00  0.00    -0.248 NA
ATOM     47  C   UNL A   1      37.409  33.462  33.313  1.00  0.00     0.031 C 
ATOM     48  C   UNL A   1      37.916  30.770  29.107  1.00  0.00     0.029 A 
ATOM     49  N   UNL A   1      39.372  30.361  30.753  1.00  0.00    -0.354 N 
ATOM     50  C   UNL A   1      39.133  32.523  34.494  1.00  0.00     0.074 A 
ATOM     51  C   UNL A   1      38.089  33.526  34.451  1.00  0.00     0.031 C 
ATOM     52  C   UNL A   1      38.749  29.809  28.677  1.00  0.00     0.029 A 
ATOM     53  C   UNL A   1      39.723  29.520  29.725  1.00  0.00     0.049 A 
ATOM     54  H   UNL A   1      39.858  30.398  31.609  1.00  0.00     0.167 HD
ATOM     55  C   UNL A   1      39.927  32.280  35.564  1.00  0.00     0.037 A 
ATOM     56  C   UNL A   1      40.717  28.616  29.640  1.00  0.00     0.037 A 
ATOM     57  C   UNL A   1      40.978  31.293  35.585  1.00  0.00     0.049 A 
ATOM     58  C   UNL A   1      41.628  28.420  30.821  1.00  0.00     0.074 A 
ATOM     59  C   UNL A   1      41.831  30.966  36.626  1.00  0.00     0.029 A 
ATOM     60  N   UNL A   1      41.323  30.477  34.517  1.00  0.00    -0.354 N 
ATOM     61  N   UNL A   1      41.589  28.992  32.000  1.00  0.00    -0.248 NA
ATOM     62  C   UNL A   1      42.718  27.447  30.662  1.00  0.00     0.031 C 
ATOM     63  C   UNL A   1      42.725  29.994  36.171  1.00  0.00     0.029 A 
ATOM     64  C   UNL A   1      42.392  29.668  34.867  1.00  0.00     0.049 A 
ATOM     65  H   UNL A   1      40.874  30.474  33.641  1.00  0.00     0.167 HD
ATOM     66  C   UNL A   1      42.623  28.426  32.733  1.00  0.00     0.074 A 
ATOM     67  C   UNL A   1      43.262  27.454  31.871  1.00  0.00     0.031 C 
ATOM     68  C   UNL A   1      43.009  28.692  34.005  1.00  0.00     0.037 A 
BRANCH  55  69
ATOM     69  C   UNL A   1      39.684  33.067  36.819  1.00  0.00     0.064 A 
ATOM     70  C   UNL A   1      40.388  34.253  37.076  1.00  0.00     0.173 A 
ATOM     71  C   UNL A   1      38.671  32.698  37.717  1.00  0.00     0.173 A 
ATOM     72  F   UNL A   1      41.366  34.651  36.250  1.00  0.00    -0.203 F 
ATOM     73  C   UNL A   1      40.097  35.034  38.190  1.00  0.00     0.198 A 
ATOM     74  C   UNL A   1      38.360  33.500  38.814  1.00  0.00     0.198 A 
ATOM     75  F   UNL A   1      37.961  31.579  37.515  1.00  0.00    -0.203 F 
ATOM     76  F   UNL A   1      40.807  36.144  38.432  1.00  0.00    -0.200 F 
ATOM     77  C   UNL A   1      39.074  34.665  39.051  1.00  0.00     0.200 A 
ATOM     78  F   UNL A   1      37.360  33.150  39.634  1.00  0.00    -0.200 F 
ATOM     79  F   UNL A   1      38.777  35.431  40.109  1.00  0.00    -0.200 F 
ENDBRANCH  55  69
BRANCH  56  80
ATOM     80  C   UNL A   1      40.871  27.793  28.411  1.00  0.00     0.064 A 
ATOM     81  C   UNL A   1      40.189  26.577  28.275  1.00  0.00     0.173 A 
ATOM     82  C   UNL A   1      41.696  28.200  27.352  1.00  0.00     0.173 A 
ATOM     83  F   UNL A   1      39.402  26.136  29.268  1.00  0.00    -0.203 F 
ATOM     84  C   UNL A   1      40.340  25.788  27.137  1.00  0.00     0.198 A 
ATOM     85  C   UNL A   1      41.821  27.426  26.201  1.00  0.00     0.198 A 
ATOM     86  F   UNL A   1      42.368  29.357  27.429  1.00  0.00    -0.203 F 
ATOM     87  F   UNL A   1      39.713  24.607  27.055  1.00  0.00    -0.200 F 
ATOM     88  C   UNL A   1      41.151  26.217  26.097  1.00  0.00     0.200 A 
ATOM     89  F   UNL A   1      42.593  27.852  25.191  1.00  0.00    -0.200 F 
ATOM     90  F   UNL A   1      41.292  25.462  25.000  1.00  0.00    -0.200 F 
ENDBRANCH  56  80
BRANCH  68  91
ATOM     91  C   UNL A   1      44.158  27.901  34.563  1.00  0.00     0.064 A 
ATOM     92  C   UNL A   1      43.964  26.656  35.179  1.00  0.00     0.173 A 
ATOM     93  C   UNL A   1      45.476  28.361  34.413  1.00  0.00     0.173 A 
ATOM     94  F   UNL A   1      42.725  26.177  35.358  1.00  0.00    -0.203 F 
ATOM     95  C   UNL A   1      45.046  25.909  35.639  1.00  0.00     0.198 A 
ATOM     96  C   UNL A   1      46.556  27.597  34.844  1.00  0.00     0.198 A 
ATOM     97  F   UNL A   1      45.718  29.542  33.823  1.00  0.00    -0.203 F 
ATOM     98  F   UNL A   1      44.833  24.741  36.261  1.00  0.00    -0.200 F 
ATOM     99  C   UNL A   1      46.340  26.374  35.462  1.00  0.00     0.200 A 
ATOM    100  F   UNL A   1      47.807  28.038  34.653  1.00  0.00    -0.200 F 
ATOM    101  F   UNL A   1      47.380  25.644  35.888  1.00  0.00    -0.200 F 
ENDBRANCH  68  91
ENDBRANCH  42  43
ENDBRANCH  35  37
ENDBRANCH  34  35
ENDBRANCH  33  34
ENDBRANCH  32  33
ENDBRANCH  31  32
ENDBRANCH   1  31
TORSDOF 17
ENDMDL
MODEL 2
REMARK VINA RESULT:     -11.9      0.836      6.955
REMARK SMILES CC(C)(C(=O)N1C[C@@H]2c3ccccc3OC[C@]2(C(=O)OCCOCCOC(=O)c2ccc(-c3c4nc(c(-c5c(F)c(F)c(F)c(F)c5F)c5ccc([nH]5)c(-c5c(F)c(F)c(F)c(F)c5F)c5nc(c(-c6c(F)c(F)c(F)c(F)c6F)c6ccc3[nH]6)C=C5)C=C4)cc2)C1)[NH+]1CCOCC1
REMARK SMILES IDX 22 1 21 2 20 3 18 4 19 5 17 6 6 7 7 8 92 9 8 10 9 11 16 12
REMARK SMILES IDX 10 13 14 14 15 15 11 16 13 17 12 18 4 19 5 20 2 21 1 22 3 23
REMARK SMILES IDX 93 24 94 25 98 26 95 28 97 29 96 30 23 31 24 32 25 33 26 34
REMARK SMILES IDX 27 35 28 36 29 37 30 38 91 39 31 40 90 41 32 42 33 43 34 44
REMARK SMILES IDX 84 45 35 46 89 47 83 48 85 49 36 50 88 51 82 52 81 53 37 55
REMARK SMILES IDX 69 56 49 57 68 58 50 59 53 60 67 61 86 62 51 63 52 64 66 66
REMARK SMILES IDX 87 67 54 68 38 69 39 70 47 71 40 72 41 73 45 74 48 75 42 76
REMARK SMILES IDX 43 77 46 78 44 79 70 80 71 81 79 82 72 83 73 84 77 85 80 86
REMARK SMILES IDX 74 87 75 88 78 89 76 90 55 91 56 92 64 93 57 94 58 95 62 96
REMARK SMILES IDX 65 97 59 98 60 99 63 100 61 101
REMARK H PARENT 93 27 85 54 53 65
REMARK Flexibility Score: inf
ROOT
ATOM      1  C   UNL A   1      31.791  29.701  27.292  1.00  0.00     0.202 C 
ENDROOT
BRANCH   1   2
ATOM      2  C   UNL A   1      32.805  28.526  27.268  1.00  0.00     0.261 C 
BRANCH   2   3
ATOM      3  O   UNL A   1      32.698  27.910  25.968  1.00  0.00    -0.463 OA
BRANCH   3   4
ATOM      4  C   UNL A   1      33.368  28.275  24.817  1.00  0.00     0.318 C 
ATOM      5  O   UNL A   1      34.401  28.915  24.763  1.00  0.00    -0.251 OA
BRANCH   4   6
ATOM      6  C   UNL A   1      32.512  27.703  23.664  1.00  0.00     0.128 C 
ATOM      7  N   UNL A   1      32.524  25.358  23.081  1.00  0.00    -0.335 N 
ATOM      8  C   UNL A   1      31.176  25.844  22.887  1.00  0.00     0.129 C 
ATOM      9  C   UNL A   1      33.387  26.493  23.264  1.00  0.00     0.142 C 
ATOM     10  C   UNL A   1      31.093  27.091  23.797  1.00  0.00     0.065 C 
ATOM     11  C   UNL A   1      29.967  27.981  23.314  1.00  0.00     0.000 A 
ATOM     12  C   UNL A   1      32.516  28.893  22.707  1.00  0.00     0.251 C 
ATOM     13  C   UNL A   1      28.617  27.712  23.560  1.00  0.00     0.008 A 
ATOM     14  C   UNL A   1      30.250  29.056  22.476  1.00  0.00     0.122 A 
ATOM     15  O   UNL A   1      31.443  29.097  21.821  1.00  0.00    -0.492 OA
ATOM     16  C   UNL A   1      27.620  28.579  23.083  1.00  0.00     0.001 A 
ATOM     17  C   UNL A   1      29.289  29.987  22.092  1.00  0.00     0.047 A 
ATOM     18  C   UNL A   1      27.960  29.752  22.409  1.00  0.00     0.004 A 
BRANCH   7  19
ATOM     19  C   UNL A   1      32.938  24.102  22.643  1.00  0.00     0.283 C 
ATOM     20  O   UNL A   1      33.276  23.988  21.460  1.00  0.00    -0.268 OA
BRANCH  19  21
ATOM     21  C   UNL A   1      32.644  22.832  23.584  1.00  0.00     0.171 C 
ATOM     22  C   UNL A   1      31.403  22.980  24.489  1.00  0.00     0.090 C 
ATOM     23  C   UNL A   1      32.257  21.757  22.530  1.00  0.00     0.090 C 
BRANCH  21  24
ATOM     24  N   UNL A   1      33.829  22.230  24.290  1.00  0.00    -0.319 N 
ATOM     25  C   UNL A   1      33.787  22.154  25.767  1.00  0.00     0.291 C 
ATOM     26  C   UNL A   1      35.212  22.562  23.917  1.00  0.00     0.291 C 
ATOM     27  H   UNL A   1      33.633  21.327  23.856  1.00  0.00     0.349 HD
ATOM     28  C   UNL A   1      34.283  23.453  26.425  1.00  0.00     0.221 C 
ATOM     29  C   UNL A   1      35.799  23.785  24.642  1.00  0.00     0.221 C 
ATOM     30  O   UNL A   1      35.643  23.715  26.067  1.00  0.00    -0.370 OA
ENDBRANCH  21  24
ENDBRANCH  19  21
ENDBRANCH   7  19
ENDBRANCH   4   6
ENDBRANCH   3   4
ENDBRANCH   2   3
ENDBRANCH   1   2
BRANCH   1  31
ATOM     31  O   UNL A   1      31.896  30.701  26.268  1.00  0.00    -0.374 OA
BRANCH  31  32
ATOM     32  C   UNL A   1      31.247  31.949  26.491  1.00  0.00     0.202 C 
BRANCH  32  33
ATOM     33  C   UNL A   1      32.128  33.189  26.741  1.00  0.00     0.261 C 
BRANCH  33  34
ATOM     34  O   UNL A   1      32.279  33.496  28.132  1.00  0.00    -0.460 OA
BRANCH  34  35
ATOM     35  C   UNL A   1      33.281  34.372  28.376  1.00  0.00     0.338 C 
ATOM     36  O   UNL A   1      33.212  35.594  28.421  1.00  0.00    -0.246 OA
BRANCH  35  37
ATOM     37  C   UNL A   1      34.484  33.640  28.783  1.00  0.00     0.060 A 
ATOM     38  C   UNL A   1      35.757  34.203  28.694  1.00  0.00     0.016 A 
ATOM     39  C   UNL A   1      34.291  32.373  29.343  1.00  0.00     0.016 A 
ATOM     40  C   UNL A   1      36.848  33.492  29.204  1.00  0.00     0.010 A 
ATOM     41  C   UNL A   1      35.377  31.670  29.853  1.00  0.00     0.010 A 
ATOM     42  C   UNL A   1      36.659  32.234  29.809  1.00  0.00    -0.014 A 
BRANCH  42  43
ATOM     43  C   UNL A   1      37.770  31.557  30.519  1.00  0.00     0.031 A 
ATOM     44  C   UNL A   1      38.584  30.492  29.850  1.00  0.00     0.074 A 
ATOM     45  C   UNL A   1      37.996  31.880  31.806  1.00  0.00     0.049 A 
ATOM     46  N   UNL A   1      39.588  29.801  30.328  1.00  0.00    -0.248 NA
ATOM     47  C   UNL A   1      38.215  30.142  28.470  1.00  0.00     0.031 C 
ATOM     48  C   UNL A   1      37.233  32.871  32.568  1.00  0.00     0.029 A 
ATOM     49  N   UNL A   1      38.925  31.415  32.701  1.00  0.00    -0.354 N 
ATOM     50  C   UNL A   1      39.995  28.964  29.299  1.00  0.00     0.074 A 
ATOM     51  C   UNL A   1      39.086  29.179  28.194  1.00  0.00     0.031 C 
ATOM     52  C   UNL A   1      37.747  32.964  33.804  1.00  0.00     0.029 A 
ATOM     53  C   UNL A   1      38.851  32.019  33.933  1.00  0.00     0.049 A 
ATOM     54  H   UNL A   1      39.582  30.716  32.481  1.00  0.00     0.167 HD
ATOM     55  C   UNL A   1      41.052  28.117  29.277  1.00  0.00     0.037 A 
ATOM     56  C   UNL A   1      39.595  31.832  35.040  1.00  0.00     0.037 A 
ATOM     57  C   UNL A   1      41.938  27.895  30.393  1.00  0.00     0.049 A 
ATOM     58  C   UNL A   1      40.717  30.830  35.005  1.00  0.00     0.074 A 
ATOM     59  C   UNL A   1      43.042  27.063  30.464  1.00  0.00     0.029 A 
ATOM     60  N   UNL A   1      41.818  28.504  31.634  1.00  0.00    -0.354 N 
ATOM     61  N   UNL A   1      41.137  30.093  34.006  1.00  0.00    -0.248 NA
ATOM     62  C   UNL A   1      41.473  30.639  36.250  1.00  0.00     0.031 C 
ATOM     63  C   UNL A   1      43.557  27.127  31.760  1.00  0.00     0.029 A 
ATOM     64  C   UNL A   1      42.813  28.045  32.483  1.00  0.00     0.049 A 
ATOM     65  H   UNL A   1      41.129  29.164  31.875  1.00  0.00     0.167 HD
ATOM     66  C   UNL A   1      42.224  29.378  34.489  1.00  0.00     0.074 A 
ATOM     67  C   UNL A   1      42.410  29.782  35.867  1.00  0.00     0.031 C 
ATOM     68  C   UNL A   1      42.996  28.468  33.848  1.00  0.00     0.037 A 
BRANCH  55  69
ATOM     69  C   UNL A   1      41.340  27.379  28.001  1.00  0.00     0.064 A 
ATOM     70  C   UNL A   1      42.178  27.931  27.021  1.00  0.00     0.173 A 
ATOM     71  C   UNL A   1      40.870  26.072  27.801  1.00  0.00     0.173 A 
ATOM     72  F   UNL A   1      42.655  29.175  27.162  1.00  0.00    -0.203 F 
ATOM     73  C   UNL A   1      42.523  27.209  25.882  1.00  0.00     0.198 A 
ATOM     74  C   UNL A   1      41.244  25.341  26.676  1.00  0.00     0.198 A 
ATOM     75  F   UNL A   1      40.073  25.492  28.712  1.00  0.00    -0.203 F 
ATOM     76  F   UNL A   1      43.296  27.772  24.943  1.00  0.00    -0.200 F 
ATOM     77  C   UNL A   1      42.068  25.910  25.716  1.00  0.00     0.200 A 
ATOM     78  F   UNL A   1      40.817  24.079  26.527  1.00  0.00    -0.200 F 
ATOM     79  F   UNL A   1      42.422  25.207  24.632  1.00  0.00    -0.200 F 
ENDBRANCH  55  69
BRANCH  56  80
ATOM     80  C   UNL A   1      39.334  32.645  36.257  1.00  0.00     0.064 A 
ATOM     81  C   UNL A   1      38.390  32.230  37.205  1.00  0.00     0.173 A 
ATOM     82  C   UNL A   1      40.018  33.846  36.500  1.00  0.00     0.173 A 
ATOM     83  F   UNL A   1      37.697  31.099  37.010  1.00  0.00    -0.203 F 
ATOM     84  C   UNL A   1      38.124  32.994  38.340  1.00  0.00     0.198 A 
ATOM     85  C   UNL A   1      39.775  34.591  37.651  1.00  0.00     0.198 A 
ATOM     86  F   UNL A   1      40.935  34.286  35.626  1.00  0.00    -0.203 F 
ATOM     87  F   UNL A   1      37.182  32.597  39.206  1.00  0.00    -0.200 F 
ATOM     88  C   UNL A   1      38.822  34.170  38.565  1.00  0.00     0.200 A 
ATOM     89  F   UNL A   1      40.463  35.720  37.873  1.00  0.00    -0.200 F 
ATOM     90  F   UNL A   1      38.570  34.902  39.659  1.00  0.00    -0.200 F 
ENDBRANCH  56  80
BRANCH  68  91
ATOM     91  C   UNL A   1      44.138  27.861  34.614  1.00  0.00     0.064 A 
ATOM     92  C   UNL A   1      44.000  26.647  35.301  1.00  0.00     0.173 A 
ATOM     93  C   UNL A   1      45.405  28.465  34.596  1.00  0.00     0.173 A 
ATOM     94  F   UNL A   1      42.809  26.034  35.358  1.00  0.00    -0.203 F 
ATOM     95  C   UNL A   1      45.085  26.069  35.958  1.00  0.00     0.198 A 
ATOM     96  C   UNL A   1      46.494  27.869  35.226  1.00  0.00     0.198 A 
ATOM     97  F   UNL A   1      45.595  29.624  33.946  1.00  0.00    -0.203 F 
ATOM     98  F   UNL A   1      44.919  24.928  36.642  1.00  0.00    -0.200 F 
ATOM     99  C   UNL A   1      46.331  26.674  35.910  1.00  0.00     0.200 A 
ATOM    100  F   UNL A   1      47.702  28.444  35.161  1.00  0.00    -0.200 F 
ATOM    101  F   UNL A   1      47.377  26.106  36.526  1.00  0.00    -0.200 F 
ENDBRANCH  68  91
ENDBRANCH  42  43
ENDBRANCH  35  37
ENDBRANCH  34  35
ENDBRANCH  33  34
ENDBRANCH  32  33
ENDBRANCH  31  32
ENDBRANCH   1  31
TORSDOF 17
ENDMDL
MODEL 3
REMARK VINA RESULT:     -11.4      4.023      8.711
REMARK SMILES CC(C)(C(=O)N1C[C@@H]2c3ccccc3OC[C@]2(C(=O)OCCOCCOC(=O)c2ccc(-c3c4nc(c(-c5c(F)c(F)c(F)c(F)c5F)c5ccc([nH]5)c(-c5c(F)c(F)c(F)c(F)c5F)c5nc(c(-c6c(F)c(F)c(F)c(F)c6F)c6ccc3[nH]6)C=C5)C=C4)cc2)C1)[NH+]1CCOCC1
REMARK SMILES IDX 22 1 21 2 20 3 18 4 19 5 17 6 6 7 7 8 92 9 8 10 9 11 16 12
REMARK SMILES IDX 10 13 14 14 15 15 11 16 13 17 12 18 4 19 5 20 2 21 1 22 3 23
REMARK SMILES IDX 93 24 94 25 98 26 95 28 97 29 96 30 23 31 24 32 25 33 26 34
REMARK SMILES IDX 27 35 28 36 29 37 30 38 91 39 31 40 90 41 32 42 33 43 34 44
REMARK SMILES IDX 84 45 35 46 89 47 83 48 85 49 36 50 88 51 82 52 81 53 37 55
REMARK SMILES IDX 69 56 49 57 68 58 50 59 53 60 67 61 86 62 51 63 52 64 66 66
REMARK SMILES IDX 87 67 54 68 38 69 39 70 47 71 40 72 41 73 45 74 48 75 42 76
REMARK SMILES IDX 43 77 46 78 44 79 70 80 71 81 79 82 72 83 73 84 77 85 80 86
REMARK SMILES IDX 74 87 75 88 78 89 76 90 55 91 56 92 64 93 57 94 58 95 62 96
REMARK SMILES IDX 65 97 59 98 60 99 63 100 61 101
REMARK H PARENT 93 27 85 54 53 65
REMARK Flexibility Score: inf
ROOT
ATOM      1  C   UNL A   1      33.759  24.924  22.698  1.00  0.00     0.202 C 
ENDROOT
BRANCH   1   2
ATOM      2  C   UNL A   1      33.556  26.324  22.060  1.00  0.00     0.261 C 
BRANCH   2   3
ATOM      3  O   UNL A   1      32.275  26.806  22.514  1.00  0.00    -0.463 OA
BRANCH   3   4
ATOM      4  C   UNL A   1      31.955  28.098  22.883  1.00  0.00     0.318 C 
ATOM      5  O   UNL A   1      31.873  29.056  22.139  1.00  0.00    -0.251 OA
BRANCH   4   6
ATOM      6  C   UNL A   1      31.749  28.030  24.414  1.00  0.00     0.128 C 
ATOM      7  N   UNL A   1      31.172  25.980  25.555  1.00  0.00    -0.335 N 
ATOM      8  C   UNL A   1      32.056  26.724  26.426  1.00  0.00     0.129 C 
ATOM      9  C   UNL A   1      30.752  26.852  24.492  1.00  0.00     0.142 C 
ATOM     10  C   UNL A   1      32.828  27.658  25.465  1.00  0.00     0.065 C 
ATOM     11  C   UNL A   1      33.382  28.827  26.252  1.00  0.00     0.000 A 
ATOM     12  C   UNL A   1      31.181  29.423  24.673  1.00  0.00     0.251 C 
ATOM     13  C   UNL A   1      34.512  28.734  27.070  1.00  0.00     0.008 A 
ATOM     14  C   UNL A   1      32.682  30.030  26.283  1.00  0.00     0.122 A 
ATOM     15  O   UNL A   1      31.370  30.050  25.918  1.00  0.00    -0.492 OA
ATOM     16  C   UNL A   1      34.974  29.858  27.776  1.00  0.00     0.001 A 
ATOM     17  C   UNL A   1      33.187  31.181  26.880  1.00  0.00     0.047 A 
ATOM     18  C   UNL A   1      34.353  31.097  27.625  1.00  0.00     0.004 A 
BRANCH   7  19
ATOM     19  C   UNL A   1      30.480  24.847  25.980  1.00  0.00     0.283 C 
ATOM     20  O   UNL A   1      29.638  24.989  26.872  1.00  0.00    -0.268 OA
BRANCH  19  21
ATOM     21  C   UNL A   1      31.037  23.404  25.538  1.00  0.00     0.171 C 
ATOM     22  C   UNL A   1      30.285  22.210  26.161  1.00  0.00     0.090 C 
ATOM     23  C   UNL A   1      30.662  23.385  24.030  1.00  0.00     0.090 C 
BRANCH  21  24
ATOM     24  N   UNL A   1      32.532  23.233  25.537  1.00  0.00    -0.319 N 
ATOM     25  C   UNL A   1      33.090  22.049  24.847  1.00  0.00     0.291 C 
ATOM     26  C   UNL A   1      33.345  23.451  26.742  1.00  0.00     0.291 C 
ATOM     27  H   UNL A   1      32.632  24.082  24.978  1.00  0.00     0.349 HD
ATOM     28  C   UNL A   1      33.131  20.815  25.765  1.00  0.00     0.221 C 
ATOM     29  C   UNL A   1      33.519  22.209  27.634  1.00  0.00     0.221 C 
ATOM     30  O   UNL A   1      33.963  21.057  26.903  1.00  0.00    -0.370 OA
ENDBRANCH  21  24
ENDBRANCH  19  21
ENDBRANCH   7  19
ENDBRANCH   4   6
ENDBRANCH   3   4
ENDBRANCH   2   3
ENDBRANCH   1   2
BRANCH   1  31
ATOM     31  O   UNL A   1      34.875  24.743  23.584  1.00  0.00    -0.374 OA
BRANCH  31  32
ATOM     32  C   UNL A   1      35.493  23.461  23.618  1.00  0.00     0.202 C 
BRANCH  32  33
ATOM     33  C   UNL A   1      36.937  23.367  24.150  1.00  0.00     0.261 C 
BRANCH  33  34
ATOM     34  O   UNL A   1      37.049  23.730  25.531  1.00  0.00    -0.460 OA
BRANCH  34  35
ATOM     35  C   UNL A   1      38.155  23.225  26.124  1.00  0.00     0.338 C 
ATOM     36  O   UNL A   1      38.544  22.064  26.118  1.00  0.00    -0.246 OA
BRANCH  35  37
ATOM     37  C   UNL A   1      38.975  24.322  26.646  1.00  0.00     0.060 A 
ATOM     38  C   UNL A   1      39.783  25.101  25.817  1.00  0.00     0.016 A 
ATOM     39  C   UNL A   1      38.851  24.607  28.009  1.00  0.00     0.016 A 
ATOM     40  C   UNL A   1      40.450  26.202  26.364  1.00  0.00     0.010 A 
ATOM     41  C   UNL A   1      39.514  25.704  28.550  1.00  0.00     0.010 A 
ATOM     42  C   UNL A   1      40.299  26.523  27.726  1.00  0.00    -0.014 A 
BRANCH  42  43
ATOM     43  C   UNL A   1      40.845  27.787  28.276  1.00  0.00     0.031 A 
ATOM     44  C   UNL A   1      42.319  27.984  28.450  1.00  0.00     0.074 A 
ATOM     45  C   UNL A   1      39.979  28.737  28.672  1.00  0.00     0.049 A 
ATOM     46  N   UNL A   1      42.962  29.025  28.916  1.00  0.00    -0.248 NA
ATOM     47  C   UNL A   1      43.189  26.861  28.069  1.00  0.00     0.031 C 
ATOM     48  C   UNL A   1      38.521  28.630  28.589  1.00  0.00     0.029 A 
ATOM     49  N   UNL A   1      40.190  29.975  29.223  1.00  0.00    -0.354 N 
ATOM     50  C   UNL A   1      44.309  28.701  28.848  1.00  0.00     0.074 A 
ATOM     51  C   UNL A   1      44.392  27.338  28.365  1.00  0.00     0.031 C 
ATOM     52  C   UNL A   1      37.971  29.769  29.039  1.00  0.00     0.029 A 
ATOM     53  C   UNL A   1      39.032  30.671  29.472  1.00  0.00     0.049 A 
ATOM     54  H   UNL A   1      41.087  30.331  29.419  1.00  0.00     0.167 HD
ATOM     55  C   UNL A   1      45.375  29.485  29.137  1.00  0.00     0.037 A 
ATOM     56  C   UNL A   1      38.851  31.901  29.988  1.00  0.00     0.037 A 
ATOM     57  C   UNL A   1      45.278  30.833  29.638  1.00  0.00     0.049 A 
ATOM     58  C   UNL A   1      40.055  32.720  30.366  1.00  0.00     0.074 A 
ATOM     59  C   UNL A   1      46.303  31.711  29.952  1.00  0.00     0.029 A 
ATOM     60  N   UNL A   1      44.090  31.497  29.904  1.00  0.00    -0.354 N 
ATOM     61  N   UNL A   1      41.327  32.430  30.235  1.00  0.00    -0.248 NA
ATOM     62  C   UNL A   1      39.799  34.040  30.958  1.00  0.00     0.031 C 
ATOM     63  C   UNL A   1      45.736  32.883  30.457  1.00  0.00     0.029 A 
ATOM     64  C   UNL A   1      44.357  32.763  30.402  1.00  0.00     0.049 A 
ATOM     65  H   UNL A   1      43.190  31.125  29.760  1.00  0.00     0.167 HD
ATOM     66  C   UNL A   1      42.020  33.541  30.695  1.00  0.00     0.074 A 
ATOM     67  C   UNL A   1      41.029  34.517  31.093  1.00  0.00     0.031 C 
ATOM     68  C   UNL A   1      43.360  33.732  30.780  1.00  0.00     0.037 A 
BRANCH  55  69
ATOM     69  C   UNL A   1      46.749  28.928  28.896  1.00  0.00     0.064 A 
ATOM     70  C   UNL A   1      47.431  28.227  29.901  1.00  0.00     0.173 A 
ATOM     71  C   UNL A   1      47.343  28.997  27.626  1.00  0.00     0.173 A 
ATOM     72  F   UNL A   1      46.909  28.131  31.131  1.00  0.00    -0.203 F 
ATOM     73  C   UNL A   1      48.662  27.628  29.650  1.00  0.00     0.198 A 
ATOM     74  C   UNL A   1      48.559  28.368  27.369  1.00  0.00     0.198 A 
ATOM     75  F   UNL A   1      46.729  29.647  26.626  1.00  0.00    -0.203 F 
ATOM     76  F   UNL A   1      49.310  26.994  30.637  1.00  0.00    -0.200 F 
ATOM     77  C   UNL A   1      49.219  27.687  28.381  1.00  0.00     0.200 A 
ATOM     78  F   UNL A   1      49.087  28.411  26.138  1.00  0.00    -0.200 F 
ATOM     79  F   UNL A   1      50.392  27.087  28.134  1.00  0.00    -0.200 F 
ENDBRANCH  55  69
BRANCH  56  80
ATOM     80  C   UNL A   1      37.477  32.452  30.130  1.00  0.00     0.064 A 
ATOM     81  C   UNL A   1      36.944  33.305  29.155  1.00  0.00     0.173 A 
ATOM     82  C   UNL A   1      36.670  32.142  31.235  1.00  0.00     0.173 A 
ATOM     83  F   UNL A   1      37.683  33.647  28.088  1.00  0.00    -0.203 F 
ATOM     84  C   UNL A   1      35.666  33.843  29.286  1.00  0.00     0.198 A 
ATOM     85  C   UNL A   1      35.380  32.654  31.350  1.00  0.00     0.198 A 
ATOM     86  F   UNL A   1      37.130  31.327  32.195  1.00  0.00    -0.203 F 
ATOM     87  F   UNL A   1      35.200  34.694  28.362  1.00  0.00    -0.200 F 
ATOM     88  C   UNL A   1      34.882  33.511  30.380  1.00  0.00     0.200 A 
ATOM     89  F   UNL A   1      34.619  32.318  32.401  1.00  0.00    -0.200 F 
ATOM     90  F   UNL A   1      33.651  34.023  30.505  1.00  0.00    -0.200 F 
ENDBRANCH  56  80
BRANCH  68  91
ATOM     91  C   UNL A   1      43.842  35.058  31.296  1.00  0.00     0.064 A 
ATOM     92  C   UNL A   1      44.204  35.237  32.639  1.00  0.00     0.173 A 
ATOM     93  C   UNL A   1      44.015  36.140  30.420  1.00  0.00     0.173 A 
ATOM     94  F   UNL A   1      44.047  34.238  33.520  1.00  0.00    -0.203 F 
ATOM     95  C   UNL A   1      44.704  36.457  33.089  1.00  0.00     0.198 A 
ATOM     96  C   UNL A   1      44.547  37.347  30.866  1.00  0.00     0.198 A 
ATOM     97  F   UNL A   1      43.693  36.020  29.122  1.00  0.00    -0.203 F 
ATOM     98  F   UNL A   1      45.005  36.617  34.385  1.00  0.00    -0.200 F 
ATOM     99  C   UNL A   1      44.885  37.506  32.201  1.00  0.00     0.200 A 
ATOM    100  F   UNL A   1      44.740  38.353  30.002  1.00  0.00    -0.200 F 
ATOM    101  F   UNL A   1      45.386  38.672  32.632  1.00  0.00    -0.200 F 
ENDBRANCH  68  91
ENDBRANCH  42  43
ENDBRANCH  35  37
ENDBRANCH  34  35
ENDBRANCH  33  34
ENDBRANCH  32  33
ENDBRANCH  31  32
ENDBRANCH   1  31
TORSDOF 17
ENDMDL
