MODEL 1
REMARK VINA RESULT:     -12.5      0.000      0.000
REMARK SMILES O=C(Cn1c(=O)[nH]c2ccccc2c1=O)NC[C@H]1CC[C@@H](C(=O)N2CCC(C(=O)OCCOCCOC(=O)c3ccc(-c4c5nc(c(-c6c(F)c(F)c(F)c(F)c6F)c6ccc([nH]6)c(-c6c(F)c(F)c(F)c(F)c6F)c6nc(c(-c7c(F)c(F)c(F)c(F)c7F)c7ccc4[nH]7)C=C6)C=C5)cc3)CC2)CC1
REMARK SMILES IDX 31 1 30 2 28 3 29 4 27 5 22 6 23 7 24 8 25 9 103 10 26 11
REMARK SMILES IDX 102 12 21 13 18 14 19 15 105 16 20 17 104 18 17 19 16 20
REMARK SMILES IDX 1 21 2 22 3 24 4 25 5 26 14 27 6 28 7 29 13 30 15 31 8 32
REMARK SMILES IDX 12 34 9 35 11 36 10 37 32 38 33 39 34 40 35 41 36 42 37 43
REMARK SMILES IDX 38 44 39 45 40 46 101 47 41 48 100 49 42 50 43 51 44 52
REMARK SMILES IDX 94 53 45 54 99 55 93 56 95 57 46 58 98 59 92 60 91 61 47 63
REMARK SMILES IDX 79 64 59 65 78 66 60 67 63 68 77 69 96 70 61 71 62 72 76 74
REMARK SMILES IDX 97 75 64 76 48 77 49 78 57 79 50 80 51 81 55 82 58 83 52 84
REMARK SMILES IDX 53 85 56 86 54 87 80 88 81 89 89 90 82 91 83 92 87 93 90 94
REMARK SMILES IDX 84 95 85 96 88 97 86 98 65 99 66 100 74 101 67 102 68 103
REMARK SMILES IDX 72 104 75 105 69 106 70 107 73 108 71 109
REMARK H PARENT 16 23 7 33 95 62 63 73
REMARK Flexibility Score: inf
ROOT
ATOM      1  C   UNL A   1      38.092  20.342  25.316  1.00  0.00     0.261 C 
ENDROOT
BRANCH   1   2
ATOM      2  O   UNL A   1      37.189  21.430  25.083  1.00  0.00    -0.463 OA
BRANCH   2   3
ATOM      3  C   UNL A   1      35.897  21.036  24.988  1.00  0.00     0.309 C 
ATOM      4  O   UNL A   1      35.513  19.870  25.002  1.00  0.00    -0.252 OA
BRANCH   3   5
ATOM      5  C   UNL A   1      34.936  22.180  24.857  1.00  0.00     0.103 C 
ATOM      6  C   UNL A   1      32.879  25.815  25.401  1.00  0.00     0.225 C 
ATOM      7  O   UNL A   1      32.093  25.823  26.357  1.00  0.00    -0.275 OA
ATOM      8  N   UNL A   1      33.511  24.642  25.051  1.00  0.00    -0.342 N 
ATOM      9  C   UNL A   1      32.779  23.375  25.197  1.00  0.00     0.120 C 
ATOM     10  C   UNL A   1      34.824  24.581  24.441  1.00  0.00     0.120 C 
ATOM     11  C   UNL A   1      33.650  22.205  25.677  1.00  0.00     0.037 C 
ATOM     12  C   UNL A   1      35.678  23.487  25.047  1.00  0.00     0.037 C 
BRANCH   6  13
ATOM     13  C   UNL A   1      32.915  27.060  24.480  1.00  0.00     0.078 C 
ATOM     14  C   UNL A   1      32.537  29.793  25.727  1.00  0.00     0.008 C 
ATOM     15  C   UNL A   1      33.694  28.857  26.090  1.00  0.00     0.006 C 
ATOM     16  C   UNL A   1      31.346  29.083  25.066  1.00  0.00     0.006 C 
ATOM     17  C   UNL A   1      34.079  27.953  24.924  1.00  0.00     0.014 C 
ATOM     18  C   UNL A   1      31.696  27.919  24.125  1.00  0.00     0.014 C 
BRANCH  14  19
ATOM     19  C   UNL A   1      32.106  30.682  26.921  1.00  0.00     0.119 C 
BRANCH  19  20
ATOM     20  N   UNL A   1      33.085  31.665  27.373  1.00  0.00    -0.354 N 
ATOM     21  O   UNL A   1      31.722  33.473  27.087  1.00  0.00    -0.273 OA
ATOM     22  C   UNL A   1      32.771  33.000  27.526  1.00  0.00     0.240 C 
ATOM     23  H   UNL A   1      34.000  31.366  27.576  1.00  0.00     0.163 HD
BRANCH  22  24
ATOM     24  C   UNL A   1      33.882  33.918  28.046  1.00  0.00     0.230 C 
BRANCH  24  25
ATOM     25  N   UNL A   1      33.920  34.168  29.482  1.00  0.00    -0.250 N 
ATOM     26  C   UNL A   1      33.249  35.283  29.944  1.00  0.00     0.329 A 
ATOM     27  C   UNL A   1      34.594  33.280  30.311  1.00  0.00     0.264 A 
ATOM     28  O   UNL A   1      32.576  36.024  29.229  1.00  0.00    -0.248 OA
ATOM     29  N   UNL A   1      33.348  35.555  31.279  1.00  0.00    -0.307 N 
ATOM     30  C   UNL A   1      34.866  33.738  31.691  1.00  0.00     0.064 A 
ATOM     31  O   UNL A   1      34.869  32.130  29.977  1.00  0.00    -0.268 OA
ATOM     32  C   UNL A   1      34.159  34.840  32.156  1.00  0.00     0.055 A 
ATOM     33  H   UNL A   1      32.816  36.299  31.642  1.00  0.00     0.171 HD
ATOM     34  C   UNL A   1      35.769  33.078  32.528  1.00  0.00     0.016 A 
ATOM     35  C   UNL A   1      34.276  35.244  33.486  1.00  0.00     0.027 A 
ATOM     36  C   UNL A   1      35.915  33.499  33.852  1.00  0.00     0.001 A 
ATOM     37  C   UNL A   1      35.150  34.563  34.337  1.00  0.00     0.002 A 
ENDBRANCH  24  25
ENDBRANCH  22  24
ENDBRANCH  19  20
ENDBRANCH  14  19
ENDBRANCH   6  13
ENDBRANCH   3   5
ENDBRANCH   2   3
ENDBRANCH   1   2
BRANCH   1  38
ATOM     38  C   UNL A   1      39.465  20.805  25.807  1.00  0.00     0.202 C 
BRANCH  38  39
ATOM     39  O   UNL A   1      40.280  19.875  26.508  1.00  0.00    -0.374 OA
BRANCH  39  40
ATOM     40  C   UNL A   1      41.687  20.093  26.604  1.00  0.00     0.202 C 
BRANCH  40  41
ATOM     41  C   UNL A   1      42.639  19.106  25.913  1.00  0.00     0.261 C 
BRANCH  41  42
ATOM     42  O   UNL A   1      43.100  19.594  24.639  1.00  0.00    -0.460 OA
BRANCH  42  43
ATOM     43  C   UNL A   1      44.444  19.701  24.517  1.00  0.00     0.338 C 
ATOM     44  O   UNL A   1      45.214  18.887  24.028  1.00  0.00    -0.246 OA
BRANCH  43  45
ATOM     45  C   UNL A   1      44.859  21.072  24.856  1.00  0.00     0.060 A 
ATOM     46  C   UNL A   1      44.740  22.113  23.935  1.00  0.00     0.016 A 
ATOM     47  C   UNL A   1      45.312  21.318  26.160  1.00  0.00     0.016 A 
ATOM     48  C   UNL A   1      45.051  23.415  24.337  1.00  0.00     0.010 A 
ATOM     49  C   UNL A   1      45.628  22.615  26.554  1.00  0.00     0.010 A 
ATOM     50  C   UNL A   1      45.478  23.676  25.653  1.00  0.00    -0.014 A 
BRANCH  50  51
ATOM     51  C   UNL A   1      45.636  25.070  26.129  1.00  0.00     0.031 A 
ATOM     52  C   UNL A   1      46.969  25.752  26.130  1.00  0.00     0.074 A 
ATOM     53  C   UNL A   1      44.556  25.702  26.626  1.00  0.00     0.049 A 
ATOM     54  N   UNL A   1      47.267  26.977  26.481  1.00  0.00    -0.248 NA
ATOM     55  C   UNL A   1      48.121  24.950  25.697  1.00  0.00     0.031 C 
ATOM     56  C   UNL A   1      43.222  25.112  26.736  1.00  0.00     0.029 A 
ATOM     57  N   UNL A   1      44.407  26.968  27.132  1.00  0.00    -0.354 N 
ATOM     58  C   UNL A   1      48.636  27.101  26.300  1.00  0.00     0.074 A 
ATOM     59  C   UNL A   1      49.120  25.809  25.857  1.00  0.00     0.031 C 
ATOM     60  C   UNL A   1      42.385  26.022  27.253  1.00  0.00     0.029 A 
ATOM     61  C   UNL A   1      43.126  27.248  27.535  1.00  0.00     0.049 A 
ATOM     62  H   UNL A   1      45.148  27.613  27.198  1.00  0.00     0.167 HD
ATOM     63  C   UNL A   1      49.409  28.202  26.471  1.00  0.00     0.037 A 
ATOM     64  C   UNL A   1      42.604  28.367  28.073  1.00  0.00     0.037 A 
ATOM     65  C   UNL A   1      48.916  29.479  26.923  1.00  0.00     0.049 A 
ATOM     66  C   UNL A   1      43.485  29.568  28.270  1.00  0.00     0.074 A 
ATOM     67  C   UNL A   1      49.607  30.671  27.055  1.00  0.00     0.029 A 
ATOM     68  N   UNL A   1      47.615  29.727  27.339  1.00  0.00    -0.354 N 
ATOM     69  N   UNL A   1      44.758  29.712  27.994  1.00  0.00    -0.248 NA
ATOM     70  C   UNL A   1      42.856  30.765  28.846  1.00  0.00     0.031 C 
ATOM     71  C   UNL A   1      48.745  31.618  27.617  1.00  0.00     0.029 A 
ATOM     72  C   UNL A   1      47.496  31.039  27.773  1.00  0.00     0.049 A 
ATOM     73  H   UNL A   1      46.884  29.068  27.327  1.00  0.00     0.167 HD
ATOM     74  C   UNL A   1      45.083  31.013  28.353  1.00  0.00     0.074 A 
ATOM     75  C   UNL A   1      43.866  31.625  28.843  1.00  0.00     0.031 C 
ATOM     76  C   UNL A   1      46.285  31.637  28.283  1.00  0.00     0.037 A 
BRANCH  63  77
ATOM     77  C   UNL A   1      50.877  28.075  26.174  1.00  0.00     0.064 A 
ATOM     78  C   UNL A   1      51.819  27.856  27.191  1.00  0.00     0.173 A 
ATOM     79  C   UNL A   1      51.343  28.117  24.851  1.00  0.00     0.173 A 
ATOM     80  F   UNL A   1      51.429  27.812  28.474  1.00  0.00    -0.203 F 
ATOM     81  C   UNL A   1      53.172  27.714  26.898  1.00  0.00     0.198 A 
ATOM     82  C   UNL A   1      52.694  27.942  24.559  1.00  0.00     0.198 A 
ATOM     83  F   UNL A   1      50.487  28.315  23.837  1.00  0.00    -0.203 F 
ATOM     84  F   UNL A   1      54.058  27.556  27.892  1.00  0.00    -0.200 F 
ATOM     85  C   UNL A   1      53.609  27.750  25.583  1.00  0.00     0.200 A 
ATOM     86  F   UNL A   1      53.111  27.960  23.285  1.00  0.00    -0.200 F 
ATOM     87  F   UNL A   1      54.911  27.604  25.302  1.00  0.00    -0.200 F 
ENDBRANCH  63  77
BRANCH  64  88
ATOM     88  C   UNL A   1      41.161  28.393  28.417  1.00  0.00     0.064 A 
ATOM     89  C   UNL A   1      40.714  27.979  29.678  1.00  0.00     0.173 A 
ATOM     90  C   UNL A   1      40.210  28.904  27.520  1.00  0.00     0.173 A 
ATOM     91  F   UNL A   1      41.584  27.467  30.562  1.00  0.00    -0.203 F 
ATOM     92  C   UNL A   1      39.371  28.081  30.033  1.00  0.00     0.198 A 
ATOM     93  C   UNL A   1      38.873  29.030  27.886  1.00  0.00     0.198 A 
ATOM     94  F   UNL A   1      40.590  29.318  26.303  1.00  0.00    -0.203 F 
ATOM     95  F   UNL A   1      38.966  27.662  31.240  1.00  0.00    -0.200 F 
ATOM     96  C   UNL A   1      38.453  28.618  29.142  1.00  0.00     0.200 A 
ATOM     97  F   UNL A   1      37.993  29.567  27.029  1.00  0.00    -0.200 F 
ATOM     98  F   UNL A   1      37.166  28.740  29.494  1.00  0.00    -0.200 F 
ENDBRANCH  64  88
BRANCH  76  99
ATOM     99  C   UNL A   1      46.356  33.059  28.765  1.00  0.00     0.064 A 
ATOM    100  C   UNL A   1      46.093  34.138  27.907  1.00  0.00     0.173 A 
ATOM    101  C   UNL A   1      46.625  33.347  30.112  1.00  0.00     0.173 A 
ATOM    102  F   UNL A   1      45.844  33.920  26.606  1.00  0.00    -0.203 F 
ATOM    103  C   UNL A   1      46.113  35.450  28.374  1.00  0.00     0.198 A 
ATOM    104  C   UNL A   1      46.611  34.658  30.584  1.00  0.00     0.198 A 
ATOM    105  F   UNL A   1      46.877  32.356  30.979  1.00  0.00    -0.203 F 
ATOM    106  F   UNL A   1      45.897  36.464  27.526  1.00  0.00    -0.200 F 
ATOM    107  C   UNL A   1      46.360  35.707  29.714  1.00  0.00     0.200 A 
ATOM    108  F   UNL A   1      46.832  34.904  31.882  1.00  0.00    -0.200 F 
ATOM    109  F   UNL A   1      46.361  36.970  30.166  1.00  0.00    -0.200 F 
ENDBRANCH  76  99
ENDBRANCH  50  51
ENDBRANCH  43  45
ENDBRANCH  42  43
ENDBRANCH  41  42
ENDBRANCH  40  41
ENDBRANCH  39  40
ENDBRANCH  38  39
ENDBRANCH   1  38
TORSDOF 19
ENDMDL
MODEL 2
REMARK VINA RESULT:     -12.1      4.744     12.991
REMARK SMILES O=C(Cn1c(=O)[nH]c2ccccc2c1=O)NC[C@H]1CC[C@@H](C(=O)N2CCC(C(=O)OCCOCCOC(=O)c3ccc(-c4c5nc(c(-c6c(F)c(F)c(F)c(F)c6F)c6ccc([nH]6)c(-c6c(F)c(F)c(F)c(F)c6F)c6nc(c(-c7c(F)c(F)c(F)c(F)c7F)c7ccc4[nH]7)C=C6)C=C5)cc3)CC2)CC1
REMARK SMILES IDX 31 1 30 2 28 3 29 4 27 5 22 6 23 7 24 8 25 9 103 10 26 11
REMARK SMILES IDX 102 12 21 13 18 14 19 15 105 16 20 17 104 18 17 19 16 20
REMARK SMILES IDX 1 21 2 22 3 24 4 25 5 26 14 27 6 28 7 29 13 30 15 31 8 32
REMARK SMILES IDX 12 34 9 35 11 36 10 37 32 38 33 39 34 40 35 41 36 42 37 43
REMARK SMILES IDX 38 44 39 45 40 46 101 47 41 48 100 49 42 50 43 51 44 52
REMARK SMILES IDX 94 53 45 54 99 55 93 56 95 57 46 58 98 59 92 60 91 61 47 63
REMARK SMILES IDX 79 64 59 65 78 66 60 67 63 68 77 69 96 70 61 71 62 72 76 74
REMARK SMILES IDX 97 75 64 76 48 77 49 78 57 79 50 80 51 81 55 82 58 83 52 84
REMARK SMILES IDX 53 85 56 86 54 87 80 88 81 89 89 90 82 91 83 92 87 93 90 94
REMARK SMILES IDX 84 95 85 96 88 97 86 98 65 99 66 100 74 101 67 102 68 103
REMARK SMILES IDX 72 104 75 105 69 106 70 107 73 108 71 109
REMARK H PARENT 16 23 7 33 95 62 63 73
REMARK Flexibility Score: inf
ROOT
ATOM      1  C   UNL A   1      37.786  33.205  36.875  1.00  0.00     0.261 C 
ENDROOT
BRANCH   1   2
ATOM      2  O   UNL A   1      37.216  32.031  36.283  1.00  0.00    -0.463 OA
BRANCH   2   3
ATOM      3  C   UNL A   1      38.147  31.182  35.788  1.00  0.00     0.309 C 
ATOM      4  O   UNL A   1      38.882  30.469  36.466  1.00  0.00    -0.252 OA
BRANCH   3   5
ATOM      5  C   UNL A   1      38.214  31.182  34.289  1.00  0.00     0.103 C 
ATOM      6  C   UNL A   1      39.313  30.442  30.291  1.00  0.00     0.225 C 
ATOM      7  O   UNL A   1      40.313  31.063  29.909  1.00  0.00    -0.275 OA
ATOM      8  N   UNL A   1      38.787  30.701  31.538  1.00  0.00    -0.342 N 
ATOM      9  C   UNL A   1      38.833  32.078  32.050  1.00  0.00     0.120 C 
ATOM     10  C   UNL A   1      38.088  29.719  32.342  1.00  0.00     0.120 C 
ATOM     11  C   UNL A   1      39.115  32.172  33.557  1.00  0.00     0.037 C 
ATOM     12  C   UNL A   1      38.506  29.780  33.796  1.00  0.00     0.037 C 
BRANCH   6  13
ATOM     13  C   UNL A   1      38.541  29.594  29.248  1.00  0.00     0.078 C 
ATOM     14  C   UNL A   1      39.678  26.903  28.449  1.00  0.00     0.008 C 
ATOM     15  C   UNL A   1      39.257  27.245  29.881  1.00  0.00     0.006 C 
ATOM     16  C   UNL A   1      39.932  28.134  27.565  1.00  0.00     0.006 C 
ATOM     17  C   UNL A   1      38.132  28.274  29.911  1.00  0.00     0.014 C 
ATOM     18  C   UNL A   1      39.010  29.339  27.811  1.00  0.00     0.014 C 
BRANCH  14  19
ATOM     19  C   UNL A   1      40.853  25.895  28.408  1.00  0.00     0.119 C 
BRANCH  19  20
ATOM     20  N   UNL A   1      41.209  25.380  27.090  1.00  0.00    -0.354 N 
ATOM     21  O   UNL A   1      43.443  25.201  27.524  1.00  0.00    -0.273 OA
ATOM     22  C   UNL A   1      42.488  24.963  26.783  1.00  0.00     0.240 C 
ATOM     23  H   UNL A   1      40.513  25.329  26.396  1.00  0.00     0.163 HD
BRANCH  22  24
ATOM     24  C   UNL A   1      42.716  24.406  25.374  1.00  0.00     0.230 C 
BRANCH  24  25
ATOM     25  N   UNL A   1      43.129  23.012  25.269  1.00  0.00    -0.250 N 
ATOM     26  C   UNL A   1      42.213  22.053  25.655  1.00  0.00     0.329 A 
ATOM     27  C   UNL A   1      44.391  22.710  24.773  1.00  0.00     0.264 A 
ATOM     28  O   UNL A   1      41.063  22.307  26.011  1.00  0.00    -0.248 OA
ATOM     29  N   UNL A   1      42.629  20.753  25.625  1.00  0.00    -0.307 N 
ATOM     30  C   UNL A   1      44.872  21.327  24.978  1.00  0.00     0.064 A 
ATOM     31  O   UNL A   1      45.053  23.500  24.103  1.00  0.00    -0.268 OA
ATOM     32  C   UNL A   1      43.934  20.365  25.333  1.00  0.00     0.055 A 
ATOM     33  H   UNL A   1      41.970  20.049  25.822  1.00  0.00     0.171 HD
ATOM     34  C   UNL A   1      46.209  20.969  24.791  1.00  0.00     0.016 A 
ATOM     35  C   UNL A   1      44.299  19.021  25.417  1.00  0.00     0.027 A 
ATOM     36  C   UNL A   1      46.587  19.629  24.907  1.00  0.00     0.001 A 
ATOM     37  C   UNL A   1      45.628  18.653  25.194  1.00  0.00     0.002 A 
ENDBRANCH  24  25
ENDBRANCH  22  24
ENDBRANCH  19  20
ENDBRANCH  14  19
ENDBRANCH   6  13
ENDBRANCH   3   5
ENDBRANCH   2   3
ENDBRANCH   1   2
BRANCH   1  38
ATOM     38  C   UNL A   1      37.841  33.130  38.403  1.00  0.00     0.202 C 
BRANCH  38  39
ATOM     39  O   UNL A   1      39.110  32.972  39.025  1.00  0.00    -0.374 OA
BRANCH  39  40
ATOM     40  C   UNL A   1      39.424  33.719  40.200  1.00  0.00     0.202 C 
BRANCH  40  41
ATOM     41  C   UNL A   1      40.308  34.967  40.070  1.00  0.00     0.261 C 
BRANCH  41  42
ATOM     42  O   UNL A   1      39.738  35.951  39.186  1.00  0.00    -0.460 OA
BRANCH  42  43
ATOM     43  C   UNL A   1      40.631  36.775  38.590  1.00  0.00     0.338 C 
ATOM     44  O   UNL A   1      41.104  37.809  39.039  1.00  0.00    -0.246 OA
BRANCH  43  45
ATOM     45  C   UNL A   1      41.156  36.130  37.375  1.00  0.00     0.060 A 
ATOM     46  C   UNL A   1      42.515  35.849  37.236  1.00  0.00     0.016 A 
ATOM     47  C   UNL A   1      40.239  35.741  36.389  1.00  0.00     0.016 A 
ATOM     48  C   UNL A   1      42.951  35.145  36.109  1.00  0.00     0.010 A 
ATOM     49  C   UNL A   1      40.678  35.047  35.265  1.00  0.00     0.010 A 
ATOM     50  C   UNL A   1      42.034  34.724  35.128  1.00  0.00    -0.014 A 
BRANCH  50  51
ATOM     51  C   UNL A   1      42.466  33.829  34.029  1.00  0.00     0.031 A 
ATOM     52  C   UNL A   1      42.600  32.351  34.228  1.00  0.00     0.074 A 
ATOM     53  C   UNL A   1      42.801  34.383  32.849  1.00  0.00     0.049 A 
ATOM     54  N   UNL A   1      42.931  31.430  33.359  1.00  0.00    -0.248 NA
ATOM     55  C   UNL A   1      42.343  31.841  35.582  1.00  0.00     0.031 C 
ATOM     56  C   UNL A   1      42.774  35.816  32.562  1.00  0.00     0.029 A 
ATOM     57  N   UNL A   1      43.230  33.813  31.677  1.00  0.00    -0.354 N 
ATOM     58  C   UNL A   1      42.912  30.230  34.053  1.00  0.00     0.074 A 
ATOM     59  C   UNL A   1      42.586  30.546  35.430  1.00  0.00     0.031 C 
ATOM     60  C   UNL A   1      43.146  36.014  31.290  1.00  0.00     0.029 A 
ATOM     61  C   UNL A   1      43.464  34.726  30.680  1.00  0.00     0.049 A 
ATOM     62  H   UNL A   1      43.358  32.844  31.563  1.00  0.00     0.167 HD
ATOM     63  C   UNL A   1      43.128  28.980  33.575  1.00  0.00     0.037 A 
ATOM     64  C   UNL A   1      43.886  34.548  29.414  1.00  0.00     0.037 A 
ATOM     65  C   UNL A   1      43.462  28.680  32.205  1.00  0.00     0.049 A 
ATOM     66  C   UNL A   1      44.137  33.154  28.911  1.00  0.00     0.074 A 
ATOM     67  C   UNL A   1      43.627  27.442  31.609  1.00  0.00     0.029 A 
ATOM     68  N   UNL A   1      43.707  29.629  31.220  1.00  0.00    -0.354 N 
ATOM     69  N   UNL A   1      44.011  32.014  29.545  1.00  0.00    -0.248 NA
ATOM     70  C   UNL A   1      44.581  33.021  27.517  1.00  0.00     0.031 C 
ATOM     71  C   UNL A   1      44.038  27.641  30.288  1.00  0.00     0.029 A 
ATOM     72  C   UNL A   1      44.067  29.004  30.036  1.00  0.00     0.049 A 
ATOM     73  H   UNL A   1      43.635  30.603  31.345  1.00  0.00     0.167 HD
ATOM     74  C   UNL A   1      44.351  31.028  28.628  1.00  0.00     0.074 A 
ATOM     75  C   UNL A   1      44.663  31.704  27.386  1.00  0.00     0.031 C 
ATOM     76  C   UNL A   1      44.401  29.684  28.807  1.00  0.00     0.037 A 
BRANCH  63  77
ATOM     77  C   UNL A   1      43.017  27.834  34.541  1.00  0.00     0.064 A 
ATOM     78  C   UNL A   1      41.846  27.066  34.642  1.00  0.00     0.173 A 
ATOM     79  C   UNL A   1      44.111  27.463  35.337  1.00  0.00     0.173 A 
ATOM     80  F   UNL A   1      40.768  27.380  33.908  1.00  0.00    -0.203 F 
ATOM     81  C   UNL A   1      41.766  25.991  35.523  1.00  0.00     0.198 A 
ATOM     82  C   UNL A   1      44.039  26.367  36.193  1.00  0.00     0.198 A 
ATOM     83  F   UNL A   1      45.259  28.156  35.277  1.00  0.00    -0.203 F 
ATOM     84  F   UNL A   1      40.620  25.304  35.637  1.00  0.00    -0.200 F 
ATOM     85  C   UNL A   1      42.863  25.637  36.292  1.00  0.00     0.200 A 
ATOM     86  F   UNL A   1      45.106  26.016  36.925  1.00  0.00    -0.200 F 
ATOM     87  F   UNL A   1      42.788  24.597  37.133  1.00  0.00    -0.200 F 
ENDBRANCH  63  77
BRANCH  64  88
ATOM     88  C   UNL A   1      44.051  35.734  28.538  1.00  0.00     0.064 A 
ATOM     89  C   UNL A   1      42.953  36.299  27.876  1.00  0.00     0.173 A 
ATOM     90  C   UNL A   1      45.294  36.373  28.406  1.00  0.00     0.173 A 
ATOM     91  F   UNL A   1      41.749  35.715  27.958  1.00  0.00    -0.203 F 
ATOM     92  C   UNL A   1      43.090  37.462  27.121  1.00  0.00     0.198 A 
ATOM     93  C   UNL A   1      45.424  37.549  27.674  1.00  0.00     0.198 A 
ATOM     94  F   UNL A   1      46.373  35.873  29.026  1.00  0.00    -0.203 F 
ATOM     95  F   UNL A   1      42.028  37.974  26.484  1.00  0.00    -0.200 F 
ATOM     96  C   UNL A   1      44.323  38.093  27.031  1.00  0.00     0.200 A 
ATOM     97  F   UNL A   1      46.612  38.166  27.605  1.00  0.00    -0.200 F 
ATOM     98  F   UNL A   1      44.447  39.226  26.326  1.00  0.00    -0.200 F 
ENDBRANCH  64  88
BRANCH  76  99
ATOM     99  C   UNL A   1      44.826  28.844  27.635  1.00  0.00     0.064 A 
ATOM    100  C   UNL A   1      43.930  28.512  26.608  1.00  0.00     0.173 A 
ATOM    101  C   UNL A   1      46.158  28.422  27.502  1.00  0.00     0.173 A 
ATOM    102  F   UNL A   1      42.642  28.878  26.692  1.00  0.00    -0.203 F 
ATOM    103  C   UNL A   1      44.346  27.775  25.502  1.00  0.00     0.198 A 
ATOM    104  C   UNL A   1      46.580  27.715  26.378  1.00  0.00     0.198 A 
ATOM    105  F   UNL A   1      47.060  28.718  28.450  1.00  0.00    -0.203 F 
ATOM    106  F   UNL A   1      43.462  27.436  24.554  1.00  0.00    -0.200 F 
ATOM    107  C   UNL A   1      45.672  27.387  25.383  1.00  0.00     0.200 A 
ATOM    108  F   UNL A   1      47.865  27.357  26.256  1.00  0.00    -0.200 F 
ATOM    109  F   UNL A   1      46.075  26.694  24.309  1.00  0.00    -0.200 F 
ENDBRANCH  76  99
ENDBRANCH  50  51
ENDBRANCH  43  45
ENDBRANCH  42  43
ENDBRANCH  41  42
ENDBRANCH  40  41
ENDBRANCH  39  40
ENDBRANCH  38  39
ENDBRANCH   1  38
TORSDOF 19
ENDMDL
MODEL 3
REMARK VINA RESULT:     -12.0      1.641      7.130
REMARK SMILES O=C(Cn1c(=O)[nH]c2ccccc2c1=O)NC[C@H]1CC[C@@H](C(=O)N2CCC(C(=O)OCCOCCOC(=O)c3ccc(-c4c5nc(c(-c6c(F)c(F)c(F)c(F)c6F)c6ccc([nH]6)c(-c6c(F)c(F)c(F)c(F)c6F)c6nc(c(-c7c(F)c(F)c(F)c(F)c7F)c7ccc4[nH]7)C=C6)C=C5)cc3)CC2)CC1
REMARK SMILES IDX 31 1 30 2 28 3 29 4 27 5 22 6 23 7 24 8 25 9 103 10 26 11
REMARK SMILES IDX 102 12 21 13 18 14 19 15 105 16 20 17 104 18 17 19 16 20
REMARK SMILES IDX 1 21 2 22 3 24 4 25 5 26 14 27 6 28 7 29 13 30 15 31 8 32
REMARK SMILES IDX 12 34 9 35 11 36 10 37 32 38 33 39 34 40 35 41 36 42 37 43
REMARK SMILES IDX 38 44 39 45 40 46 101 47 41 48 100 49 42 50 43 51 44 52
REMARK SMILES IDX 94 53 45 54 99 55 93 56 95 57 46 58 98 59 92 60 91 61 47 63
REMARK SMILES IDX 79 64 59 65 78 66 60 67 63 68 77 69 96 70 61 71 62 72 76 74
REMARK SMILES IDX 97 75 64 76 48 77 49 78 57 79 50 80 51 81 55 82 58 83 52 84
REMARK SMILES IDX 53 85 56 86 54 87 80 88 81 89 89 90 82 91 83 92 87 93 90 94
REMARK SMILES IDX 84 95 85 96 88 97 86 98 65 99 66 100 74 101 67 102 68 103
REMARK SMILES IDX 72 104 75 105 69 106 70 107 73 108 71 109
REMARK H PARENT 16 23 7 33 95 62 63 73
REMARK Flexibility Score: inf
ROOT
ATOM      1  C   UNL A   1      35.384  21.178  24.398  1.00  0.00     0.261 C 
ENDROOT
BRANCH   1   2
ATOM      2  O   UNL A   1      34.442  20.594  25.305  1.00  0.00    -0.463 OA
BRANCH   2   3
ATOM      3  C   UNL A   1      34.083  21.429  26.309  1.00  0.00     0.309 C 
ATOM      4  O   UNL A   1      34.271  21.217  27.503  1.00  0.00    -0.252 OA
BRANCH   3   5
ATOM      5  C   UNL A   1      33.412  22.681  25.827  1.00  0.00     0.103 C 
ATOM      6  C   UNL A   1      31.818  26.572  25.570  1.00  0.00     0.225 C 
ATOM      7  O   UNL A   1      30.732  26.721  26.146  1.00  0.00    -0.275 OA
ATOM      8  N   UNL A   1      32.371  25.312  25.479  1.00  0.00    -0.342 N 
ATOM      9  C   UNL A   1      31.474  24.159  25.316  1.00  0.00     0.120 C 
ATOM     10  C   UNL A   1      33.796  25.056  25.426  1.00  0.00     0.120 C 
ATOM     11  C   UNL A   1      31.925  22.907  26.085  1.00  0.00     0.037 C 
ATOM     12  C   UNL A   1      34.193  23.889  26.304  1.00  0.00     0.037 C 
BRANCH   6  13
ATOM     13  C   UNL A   1      32.375  27.761  24.747  1.00  0.00     0.078 C 
ATOM     14  C   UNL A   1      32.286  30.530  25.970  1.00  0.00     0.008 C 
ATOM     15  C   UNL A   1      33.066  29.364  26.586  1.00  0.00     0.006 C 
ATOM     16  C   UNL A   1      31.192  30.094  24.984  1.00  0.00     0.006 C 
ATOM     17  C   UNL A   1      33.543  28.377  25.526  1.00  0.00     0.014 C 
ATOM     18  C   UNL A   1      31.518  28.865  24.119  1.00  0.00     0.014 C 
BRANCH  14  19
ATOM     19  C   UNL A   1      31.756  31.513  27.043  1.00  0.00     0.119 C 
BRANCH  19  20
ATOM     20  N   UNL A   1      32.593  32.676  27.315  1.00  0.00    -0.354 N 
ATOM     21  O   UNL A   1      34.049  31.577  28.687  1.00  0.00    -0.273 OA
ATOM     22  C   UNL A   1      33.761  32.588  28.045  1.00  0.00     0.240 C 
ATOM     23  H   UNL A   1      32.316  33.554  26.967  1.00  0.00     0.163 HD
BRANCH  22  24
ATOM     24  C   UNL A   1      34.566  33.879  28.223  1.00  0.00     0.230 C 
BRANCH  24  25
ATOM     25  N   UNL A   1      35.499  33.932  29.342  1.00  0.00    -0.250 N 
ATOM     26  C   UNL A   1      34.983  34.284  30.575  1.00  0.00     0.329 A 
ATOM     27  C   UNL A   1      36.834  33.610  29.133  1.00  0.00     0.264 A 
ATOM     28  O   UNL A   1      33.789  34.482  30.787  1.00  0.00    -0.248 OA
ATOM     29  N   UNL A   1      35.873  34.404  31.604  1.00  0.00    -0.307 N 
ATOM     30  C   UNL A   1      37.781  33.978  30.207  1.00  0.00     0.064 A 
ATOM     31  O   UNL A   1      37.222  32.962  28.164  1.00  0.00    -0.268 OA
ATOM     32  C   UNL A   1      37.252  34.296  31.452  1.00  0.00     0.055 A 
ATOM     33  H   UNL A   1      35.518  34.578  32.506  1.00  0.00     0.171 HD
ATOM     34  C   UNL A   1      39.165  33.976  30.011  1.00  0.00     0.016 A 
ATOM     35  C   UNL A   1      38.096  34.528  32.539  1.00  0.00     0.027 A 
ATOM     36  C   UNL A   1      40.014  34.241  31.089  1.00  0.00     0.001 A 
ATOM     37  C   UNL A   1      39.480  34.490  32.356  1.00  0.00     0.002 A 
ENDBRANCH  24  25
ENDBRANCH  22  24
ENDBRANCH  19  20
ENDBRANCH  14  19
ENDBRANCH   6  13
ENDBRANCH   3   5
ENDBRANCH   2   3
ENDBRANCH   1   2
BRANCH   1  38
ATOM     38  C   UNL A   1      36.801  20.627  24.578  1.00  0.00     0.202 C 
BRANCH  38  39
ATOM     39  O   UNL A   1      37.840  21.536  24.917  1.00  0.00    -0.374 OA
BRANCH  39  40
ATOM     40  C   UNL A   1      38.846  21.150  25.853  1.00  0.00     0.202 C 
BRANCH  40  41
ATOM     41  C   UNL A   1      39.556  19.802  25.663  1.00  0.00     0.261 C 
BRANCH  41  42
ATOM     42  O   UNL A   1      40.641  19.622  26.593  1.00  0.00    -0.460 OA
BRANCH  42  43
ATOM     43  C   UNL A   1      41.880  19.703  26.053  1.00  0.00     0.338 C 
ATOM     44  O   UNL A   1      42.397  18.932  25.258  1.00  0.00    -0.246 OA
BRANCH  43  45
ATOM     45  C   UNL A   1      42.473  21.010  26.383  1.00  0.00     0.060 A 
ATOM     46  C   UNL A   1      42.934  21.868  25.385  1.00  0.00     0.016 A 
ATOM     47  C   UNL A   1      42.497  21.399  27.729  1.00  0.00     0.016 A 
ATOM     48  C   UNL A   1      43.395  23.138  25.740  1.00  0.00     0.010 A 
ATOM     49  C   UNL A   1      42.964  22.663  28.080  1.00  0.00     0.010 A 
ATOM     50  C   UNL A   1      43.395  23.550  27.086  1.00  0.00    -0.014 A 
BRANCH  50  51
ATOM     51  C   UNL A   1      43.714  24.952  27.444  1.00  0.00     0.031 A 
ATOM     52  C   UNL A   1      42.655  25.904  27.906  1.00  0.00     0.074 A 
ATOM     53  C   UNL A   1      44.981  25.379  27.285  1.00  0.00     0.049 A 
ATOM     54  N   UNL A   1      42.778  27.149  28.289  1.00  0.00    -0.248 NA
ATOM     55  C   UNL A   1      41.276  25.398  27.926  1.00  0.00     0.031 C 
ATOM     56  C   UNL A   1      46.080  24.559  26.777  1.00  0.00     0.029 A 
ATOM     57  N   UNL A   1      45.556  26.600  27.526  1.00  0.00    -0.354 N 
ATOM     58  C   UNL A   1      41.498  27.576  28.610  1.00  0.00     0.074 A 
ATOM     59  C   UNL A   1      40.604  26.470  28.326  1.00  0.00     0.031 C 
ATOM     60  C   UNL A   1      47.203  25.291  26.768  1.00  0.00     0.029 A 
ATOM     61  C   UNL A   1      46.897  26.638  27.242  1.00  0.00     0.049 A 
ATOM     62  H   UNL A   1      45.054  27.374  27.871  1.00  0.00     0.167 HD
ATOM     63  C   UNL A   1      41.113  28.775  29.112  1.00  0.00     0.037 A 
ATOM     64  C   UNL A   1      47.786  27.645  27.351  1.00  0.00     0.037 A 
ATOM     65  C   UNL A   1      42.012  29.869  29.380  1.00  0.00     0.049 A 
ATOM     66  C   UNL A   1      47.332  28.971  27.893  1.00  0.00     0.074 A 
ATOM     67  C   UNL A   1      41.729  31.095  29.958  1.00  0.00     0.029 A 
ATOM     68  N   UNL A   1      43.365  29.882  29.067  1.00  0.00    -0.354 N 
ATOM     69  N   UNL A   1      46.139  29.332  28.296  1.00  0.00    -0.248 NA
ATOM     70  C   UNL A   1      48.349  30.025  28.004  1.00  0.00     0.031 C 
ATOM     71  C   UNL A   1      42.891  31.873  29.930  1.00  0.00     0.029 A 
ATOM     72  C   UNL A   1      43.918  31.111  29.396  1.00  0.00     0.049 A 
ATOM     73  H   UNL A   1      43.859  29.130  28.670  1.00  0.00     0.167 HD
ATOM     74  C   UNL A   1      46.259  30.650  28.715  1.00  0.00     0.074 A 
ATOM     75  C   UNL A   1      47.650  31.016  28.542  1.00  0.00     0.031 C 
ATOM     76  C   UNL A   1      45.300  31.479  29.197  1.00  0.00     0.037 A 
BRANCH  63  77
ATOM     77  C   UNL A   1      39.652  28.972  29.403  1.00  0.00     0.064 A 
ATOM     78  C   UNL A   1      39.135  28.842  30.702  1.00  0.00     0.173 A 
ATOM     79  C   UNL A   1      38.767  29.352  28.383  1.00  0.00     0.173 A 
ATOM     80  F   UNL A   1      39.936  28.476  31.714  1.00  0.00    -0.203 F 
ATOM     81  C   UNL A   1      37.784  29.054  30.961  1.00  0.00     0.198 A 
ATOM     82  C   UNL A   1      37.422  29.596  28.652  1.00  0.00     0.198 A 
ATOM     83  F   UNL A   1      39.207  29.500  27.125  1.00  0.00    -0.203 F 
ATOM     84  F   UNL A   1      37.305  28.875  32.200  1.00  0.00    -0.200 F 
ATOM     85  C   UNL A   1      36.930  29.438  29.939  1.00  0.00     0.200 A 
ATOM     86  F   UNL A   1      36.601  29.983  27.665  1.00  0.00    -0.200 F 
ATOM     87  F   UNL A   1      35.631  29.651  30.192  1.00  0.00    -0.200 F 
ENDBRANCH  63  77
BRANCH  64  88
ATOM     88  C   UNL A   1      49.198  27.400  26.969  1.00  0.00     0.064 A 
ATOM     89  C   UNL A   1      49.618  27.534  25.639  1.00  0.00     0.173 A 
ATOM     90  C   UNL A   1      50.171  27.104  27.935  1.00  0.00     0.173 A 
ATOM     91  F   UNL A   1      48.721  27.799  24.678  1.00  0.00    -0.203 F 
ATOM     92  C   UNL A   1      50.959  27.387  25.291  1.00  0.00     0.198 A 
ATOM     93  C   UNL A   1      51.515  26.984  27.590  1.00  0.00     0.198 A 
ATOM     94  F   UNL A   1      49.819  26.972  29.223  1.00  0.00    -0.203 F 
ATOM     95  F   UNL A   1      51.333  27.504  24.009  1.00  0.00    -0.200 F 
ATOM     96  C   UNL A   1      51.908  27.125  26.268  1.00  0.00     0.200 A 
ATOM     97  F   UNL A   1      52.431  26.750  28.540  1.00  0.00    -0.200 F 
ATOM     98  F   UNL A   1      53.201  27.011  25.936  1.00  0.00    -0.200 F 
ENDBRANCH  64  88
BRANCH  76  99
ATOM     99  C   UNL A   1      45.711  32.879  29.559  1.00  0.00     0.064 A 
ATOM    100  C   UNL A   1      46.212  33.189  30.833  1.00  0.00     0.173 A 
ATOM    101  C   UNL A   1      45.666  33.908  28.606  1.00  0.00     0.173 A 
ATOM    102  F   UNL A   1      46.263  32.246  31.786  1.00  0.00    -0.203 F 
ATOM    103  C   UNL A   1      46.636  34.479  31.143  1.00  0.00     0.198 A 
ATOM    104  C   UNL A   1      46.124  35.189  28.908  1.00  0.00     0.198 A 
ATOM    105  F   UNL A   1      45.204  33.666  27.370  1.00  0.00    -0.203 F 
ATOM    106  F   UNL A   1      47.074  34.759  32.378  1.00  0.00    -0.200 F 
ATOM    107  C   UNL A   1      46.602  35.474  30.178  1.00  0.00     0.200 A 
ATOM    108  F   UNL A   1      46.107  36.144  27.970  1.00  0.00    -0.200 F 
ATOM    109  F   UNL A   1      47.029  36.710  30.473  1.00  0.00    -0.200 F 
ENDBRANCH  76  99
ENDBRANCH  50  51
ENDBRANCH  43  45
ENDBRANCH  42  43
ENDBRANCH  41  42
ENDBRANCH  40  41
ENDBRANCH  39  40
ENDBRANCH  38  39
ENDBRANCH   1  38
TORSDOF 19
ENDMDL
