MODEL 1
REMARK VINA RESULT:     -11.2      0.000      0.000
REMARK SMILES O=C(OCCOCCOC(=O)c1ccc(-n2cnc3ccccc32)nc1)c1ccc(-c2c3nc(c(-c4c(F)c(F)c(F)c(F)c4F)c4ccc([nH]4)c(-c4c(F)c(F)c(F)c(F)c4F)c4nc(c(-c5c(F)c(F)c(F)c(F)c5F)c5ccc2[nH]5)C=C4)C=C3)cc1
REMARK SMILES IDX 5 1 4 2 3 3 2 4 1 5 27 6 28 7 89 8 29 9 88 10 30 11 31 12
REMARK SMILES IDX 32 13 82 14 33 15 87 16 81 17 83 18 34 19 86 20 80 21 79 22
REMARK SMILES IDX 35 24 67 25 47 26 66 27 48 28 51 29 65 30 84 31 49 32 50 33
REMARK SMILES IDX 64 35 85 36 52 37 36 38 37 39 45 40 38 41 39 42 43 43 46 44
REMARK SMILES IDX 40 45 41 46 44 47 42 48 68 49 69 50 77 51 70 52 71 53 75 54
REMARK SMILES IDX 78 55 72 56 73 57 76 58 74 59 53 60 54 61 62 62 55 63 56 64
REMARK SMILES IDX 60 65 63 66 57 67 58 68 61 69 59 70 6 71 7 72 8 73 9 74
REMARK SMILES IDX 10 75 11 76 12 77 13 78 26 79 14 80 25 81 15 82 16 83 17 84
REMARK SMILES IDX 24 85 18 86 19 87 23 88 20 89 22 90 21 91
REMARK H PARENT 83 23 51 34
REMARK Flexibility Score: inf
ROOT
ATOM      1  C   UNL A   1      42.363  18.739  26.395  1.00  0.00     0.202 C 
ENDROOT
BRANCH   1   2
ATOM      2  C   UNL A   1      41.056  19.483  26.123  1.00  0.00     0.261 C 
BRANCH   2   3
ATOM      3  O   UNL A   1      41.111  20.932  26.174  1.00  0.00    -0.460 OA
BRANCH   3   4
ATOM      4  C   UNL A   1      40.100  21.831  26.350  1.00  0.00     0.338 C 
ATOM      5  O   UNL A   1      38.952  21.541  26.024  1.00  0.00    -0.246 OA
BRANCH   4   6
ATOM      6  C   UNL A   1      40.379  23.219  26.804  1.00  0.00     0.060 A 
ATOM      7  C   UNL A   1      41.551  23.450  27.551  1.00  0.00     0.016 A 
ATOM      8  C   UNL A   1      39.447  24.240  26.657  1.00  0.00     0.016 A 
ATOM      9  C   UNL A   1      41.700  24.635  28.283  1.00  0.00     0.010 A 
ATOM     10  C   UNL A   1      39.548  25.365  27.467  1.00  0.00     0.010 A 
ATOM     11  C   UNL A   1      40.656  25.566  28.312  1.00  0.00    -0.014 A 
BRANCH  11  12
ATOM     12  C   UNL A   1      40.842  26.914  28.883  1.00  0.00     0.031 A 
ATOM     13  C   UNL A   1      42.024  27.543  28.266  1.00  0.00     0.074 A 
ATOM     14  C   UNL A   1      40.111  27.640  29.765  1.00  0.00     0.049 A 
ATOM     15  N   UNL A   1      43.154  27.705  28.869  1.00  0.00    -0.248 NA
ATOM     16  C   UNL A   1      42.055  27.829  26.825  1.00  0.00     0.031 C 
ATOM     17  C   UNL A   1      38.912  27.263  30.493  1.00  0.00     0.029 A 
ATOM     18  N   UNL A   1      40.249  28.957  30.141  1.00  0.00    -0.354 N 
ATOM     19  C   UNL A   1      43.971  28.305  27.934  1.00  0.00     0.074 A 
ATOM     20  C   UNL A   1      43.341  28.134  26.653  1.00  0.00     0.031 C 
ATOM     21  C   UNL A   1      38.244  28.354  30.932  1.00  0.00     0.029 A 
ATOM     22  C   UNL A   1      39.110  29.499  30.737  1.00  0.00     0.049 A 
ATOM     23  H   UNL A   1      41.078  29.471  30.002  1.00  0.00     0.167 HD
ATOM     24  C   UNL A   1      44.913  29.192  28.335  1.00  0.00     0.037 A 
ATOM     25  C   UNL A   1      38.910  30.763  31.185  1.00  0.00     0.037 A 
ATOM     26  C   UNL A   1      45.133  29.130  29.756  1.00  0.00     0.049 A 
ATOM     27  C   UNL A   1      40.231  31.259  31.616  1.00  0.00     0.074 A 
ATOM     28  C   UNL A   1      45.733  28.247  30.627  1.00  0.00     0.029 A 
ATOM     29  N   UNL A   1      44.300  29.927  30.495  1.00  0.00    -0.354 N 
ATOM     30  N   UNL A   1      40.867  30.785  32.650  1.00  0.00    -0.248 NA
ATOM     31  C   UNL A   1      41.015  32.099  30.719  1.00  0.00     0.031 C 
ATOM     32  C   UNL A   1      45.120  28.453  31.899  1.00  0.00     0.029 A 
ATOM     33  C   UNL A   1      44.174  29.467  31.780  1.00  0.00     0.049 A 
ATOM     34  H   UNL A   1      43.849  30.730  30.147  1.00  0.00     0.167 HD
ATOM     35  C   UNL A   1      42.190  30.862  32.273  1.00  0.00     0.074 A 
ATOM     36  C   UNL A   1      42.233  31.848  31.204  1.00  0.00     0.031 C 
ATOM     37  C   UNL A   1      43.063  29.873  32.612  1.00  0.00     0.037 A 
BRANCH  24  38
ATOM     38  C   UNL A   1      45.262  30.409  27.530  1.00  0.00     0.064 A 
ATOM     39  C   UNL A   1      46.603  30.653  27.202  1.00  0.00     0.173 A 
ATOM     40  C   UNL A   1      44.363  31.476  27.300  1.00  0.00     0.173 A 
ATOM     41  F   UNL A   1      47.542  29.728  27.450  1.00  0.00    -0.203 F 
ATOM     42  C   UNL A   1      47.015  31.882  26.684  1.00  0.00     0.198 A 
ATOM     43  C   UNL A   1      44.764  32.673  26.720  1.00  0.00     0.198 A 
ATOM     44  F   UNL A   1      43.097  31.446  27.738  1.00  0.00    -0.203 F 
ATOM     45  F   UNL A   1      48.318  32.115  26.480  1.00  0.00    -0.200 F 
ATOM     46  C   UNL A   1      46.093  32.886  26.431  1.00  0.00     0.200 A 
ATOM     47  F   UNL A   1      43.860  33.643  26.519  1.00  0.00    -0.200 F 
ATOM     48  F   UNL A   1      46.492  34.076  25.963  1.00  0.00    -0.200 F 
ENDBRANCH  24  38
BRANCH  25  49
ATOM     49  C   UNL A   1      37.692  31.606  31.243  1.00  0.00     0.064 A 
ATOM     50  C   UNL A   1      37.054  31.874  32.469  1.00  0.00     0.173 A 
ATOM     51  C   UNL A   1      37.327  32.424  30.158  1.00  0.00     0.173 A 
ATOM     52  F   UNL A   1      37.343  31.147  33.557  1.00  0.00    -0.203 F 
ATOM     53  C   UNL A   1      36.170  32.946  32.620  1.00  0.00     0.198 A 
ATOM     54  C   UNL A   1      36.440  33.494  30.311  1.00  0.00     0.198 A 
ATOM     55  F   UNL A   1      37.897  32.256  28.956  1.00  0.00    -0.203 F 
ATOM     56  F   UNL A   1      35.649  33.218  33.826  1.00  0.00    -0.200 F 
ATOM     57  C   UNL A   1      35.881  33.771  31.547  1.00  0.00     0.200 A 
ATOM     58  F   UNL A   1      36.182  34.299  29.270  1.00  0.00    -0.200 F 
ATOM     59  F   UNL A   1      35.100  34.847  31.711  1.00  0.00    -0.200 F 
ENDBRANCH  25  49
BRANCH  37  60
ATOM     60  C   UNL A   1      42.748  29.063  33.832  1.00  0.00     0.064 A 
ATOM     61  C   UNL A   1      41.979  27.888  33.841  1.00  0.00     0.173 A 
ATOM     62  C   UNL A   1      43.320  29.469  35.046  1.00  0.00     0.173 A 
ATOM     63  F   UNL A   1      41.449  27.400  32.714  1.00  0.00    -0.203 F 
ATOM     64  C   UNL A   1      41.775  27.170  35.019  1.00  0.00     0.198 A 
ATOM     65  C   UNL A   1      43.143  28.732  36.214  1.00  0.00     0.198 A 
ATOM     66  F   UNL A   1      44.087  30.570  35.092  1.00  0.00    -0.203 F 
ATOM     67  F   UNL A   1      41.025  26.057  35.007  1.00  0.00    -0.200 F 
ATOM     68  C   UNL A   1      42.364  27.587  36.202  1.00  0.00     0.200 A 
ATOM     69  F   UNL A   1      43.745  29.124  37.345  1.00  0.00    -0.200 F 
ATOM     70  F   UNL A   1      42.197  26.877  37.326  1.00  0.00    -0.200 F 
ENDBRANCH  37  60
ENDBRANCH  11  12
ENDBRANCH   4   6
ENDBRANCH   3   4
ENDBRANCH   2   3
ENDBRANCH   1   2
BRANCH   1  71
ATOM     71  O   UNL A   1      43.107  18.589  25.209  1.00  0.00    -0.374 OA
BRANCH  71  72
ATOM     72  C   UNL A   1      44.502  18.808  25.235  1.00  0.00     0.202 C 
BRANCH  72  73
ATOM     73  C   UNL A   1      44.798  20.115  24.504  1.00  0.00     0.261 C 
BRANCH  73  74
ATOM     74  O   UNL A   1      44.629  21.216  25.413  1.00  0.00    -0.460 OA
BRANCH  74  75
ATOM     75  C   UNL A   1      44.153  22.363  24.886  1.00  0.00     0.339 C 
ATOM     76  O   UNL A   1      43.060  22.590  24.384  1.00  0.00    -0.246 OA
BRANCH  75  77
ATOM     77  C   UNL A   1      45.103  23.433  25.052  1.00  0.00     0.078 A 
ATOM     78  C   UNL A   1      44.874  24.501  25.906  1.00  0.00     0.021 A 
ATOM     79  C   UNL A   1      46.265  23.373  24.289  1.00  0.00     0.129 A 
ATOM     80  C   UNL A   1      45.836  25.485  25.967  1.00  0.00     0.048 A 
ATOM     81  N   UNL A   1      47.181  24.354  24.271  1.00  0.00    -0.238 NA
ATOM     82  C   UNL A   1      46.958  25.364  25.140  1.00  0.00     0.138 A 
BRANCH  82  83
ATOM     83  N   UNL A   1      47.980  26.298  25.310  1.00  0.00    -0.283 N 
ATOM     84  C   UNL A   1      48.171  27.442  24.587  1.00  0.00     0.206 A 
ATOM     85  C   UNL A   1      48.987  26.203  26.240  1.00  0.00     0.074 A 
ATOM     86  N   UNL A   1      49.124  28.183  25.113  1.00  0.00    -0.236 NA
ATOM     87  C   UNL A   1      49.652  27.416  26.127  1.00  0.00     0.089 A 
ATOM     88  C   UNL A   1      49.387  25.171  27.101  1.00  0.00     0.029 A 
ATOM     89  C   UNL A   1      50.726  27.669  26.989  1.00  0.00     0.030 A 
ATOM     90  C   UNL A   1      50.481  25.427  27.922  1.00  0.00     0.002 A 
ATOM     91  C   UNL A   1      51.129  26.664  27.884  1.00  0.00     0.002 A 
ENDBRANCH  82  83
ENDBRANCH  75  77
ENDBRANCH  74  75
ENDBRANCH  73  74
ENDBRANCH  72  73
ENDBRANCH  71  72
ENDBRANCH   1  71
TORSDOF 15
ENDMDL
MODEL 2
REMARK VINA RESULT:     -11.0      4.541     11.902
REMARK SMILES O=C(OCCOCCOC(=O)c1ccc(-n2cnc3ccccc32)nc1)c1ccc(-c2c3nc(c(-c4c(F)c(F)c(F)c(F)c4F)c4ccc([nH]4)c(-c4c(F)c(F)c(F)c(F)c4F)c4nc(c(-c5c(F)c(F)c(F)c(F)c5F)c5ccc2[nH]5)C=C4)C=C3)cc1
REMARK SMILES IDX 5 1 4 2 3 3 2 4 1 5 27 6 28 7 89 8 29 9 88 10 30 11 31 12
REMARK SMILES IDX 32 13 82 14 33 15 87 16 81 17 83 18 34 19 86 20 80 21 79 22
REMARK SMILES IDX 35 24 67 25 47 26 66 27 48 28 51 29 65 30 84 31 49 32 50 33
REMARK SMILES IDX 64 35 85 36 52 37 36 38 37 39 45 40 38 41 39 42 43 43 46 44
REMARK SMILES IDX 40 45 41 46 44 47 42 48 68 49 69 50 77 51 70 52 71 53 75 54
REMARK SMILES IDX 78 55 72 56 73 57 76 58 74 59 53 60 54 61 62 62 55 63 56 64
REMARK SMILES IDX 60 65 63 66 57 67 58 68 61 69 59 70 6 71 7 72 8 73 9 74
REMARK SMILES IDX 10 75 11 76 12 77 13 78 26 79 14 80 25 81 15 82 16 83 17 84
REMARK SMILES IDX 24 85 18 86 19 87 23 88 20 89 22 90 21 91
REMARK H PARENT 83 23 51 34
REMARK Flexibility Score: inf
ROOT
ATOM      1  C   UNL A   1      34.893  34.954  28.168  1.00  0.00     0.202 C 
ENDROOT
BRANCH   1   2
ATOM      2  C   UNL A   1      33.928  33.782  28.343  1.00  0.00     0.261 C 
BRANCH   2   3
ATOM      3  O   UNL A   1      34.493  32.547  28.854  1.00  0.00    -0.460 OA
BRANCH   3   4
ATOM      4  C   UNL A   1      34.843  31.412  28.180  1.00  0.00     0.338 C 
ATOM      5  O   UNL A   1      34.062  30.901  27.383  1.00  0.00    -0.246 OA
BRANCH   4   6
ATOM      6  C   UNL A   1      36.107  30.695  28.495  1.00  0.00     0.060 A 
ATOM      7  C   UNL A   1      37.148  31.419  29.108  1.00  0.00     0.016 A 
ATOM      8  C   UNL A   1      36.342  29.397  28.055  1.00  0.00     0.016 A 
ATOM      9  C   UNL A   1      38.452  30.909  29.122  1.00  0.00     0.010 A 
ATOM     10  C   UNL A   1      37.653  28.941  27.973  1.00  0.00     0.010 A 
ATOM     11  C   UNL A   1      38.727  29.700  28.475  1.00  0.00    -0.014 A 
BRANCH  11  12
ATOM     12  C   UNL A   1      40.024  29.015  28.642  1.00  0.00     0.031 A 
ATOM     13  C   UNL A   1      40.251  28.749  30.074  1.00  0.00     0.074 A 
ATOM     14  C   UNL A   1      40.938  28.560  27.748  1.00  0.00     0.049 A 
ATOM     15  N   UNL A   1      41.096  29.398  30.805  1.00  0.00    -0.248 NA
ATOM     16  C   UNL A   1      39.353  27.860  30.824  1.00  0.00     0.031 C 
ATOM     17  C   UNL A   1      40.943  28.678  26.301  1.00  0.00     0.029 A 
ATOM     18  N   UNL A   1      42.058  27.787  27.958  1.00  0.00    -0.354 N 
ATOM     19  C   UNL A   1      40.972  28.847  32.062  1.00  0.00     0.074 A 
ATOM     20  C   UNL A   1      39.744  28.099  32.076  1.00  0.00     0.031 C 
ATOM     21  C   UNL A   1      41.762  27.760  25.740  1.00  0.00     0.029 A 
ATOM     22  C   UNL A   1      42.538  27.162  26.807  1.00  0.00     0.049 A 
ATOM     23  H   UNL A   1      42.481  27.684  28.841  1.00  0.00     0.167 HD
ATOM     24  C   UNL A   1      42.057  28.762  32.869  1.00  0.00     0.037 A 
ATOM     25  C   UNL A   1      43.591  26.318  26.680  1.00  0.00     0.037 A 
ATOM     26  C   UNL A   1      43.142  29.578  32.391  1.00  0.00     0.049 A 
ATOM     27  C   UNL A   1      44.559  26.710  27.722  1.00  0.00     0.074 A 
ATOM     28  C   UNL A   1      43.413  30.928  32.329  1.00  0.00     0.029 A 
ATOM     29  N   UNL A   1      43.965  28.957  31.489  1.00  0.00    -0.354 N 
ATOM     30  N   UNL A   1      45.211  27.839  27.699  1.00  0.00    -0.248 NA
ATOM     31  C   UNL A   1      44.602  25.979  28.982  1.00  0.00     0.031 C 
ATOM     32  C   UNL A   1      44.333  31.107  31.254  1.00  0.00     0.029 A 
ATOM     33  C   UNL A   1      44.616  29.865  30.694  1.00  0.00     0.049 A 
ATOM     34  H   UNL A   1      44.075  27.981  31.421  1.00  0.00     0.167 HD
ATOM     35  C   UNL A   1      45.319  28.172  29.032  1.00  0.00     0.074 A 
ATOM     36  C   UNL A   1      45.129  26.926  29.761  1.00  0.00     0.031 C 
ATOM     37  C   UNL A   1      45.198  29.468  29.431  1.00  0.00     0.037 A 
BRANCH  24  38
ATOM     38  C   UNL A   1      42.285  27.597  33.786  1.00  0.00     0.064 A 
ATOM     39  C   UNL A   1      41.909  27.700  35.133  1.00  0.00     0.173 A 
ATOM     40  C   UNL A   1      43.097  26.489  33.452  1.00  0.00     0.173 A 
ATOM     41  F   UNL A   1      41.198  28.755  35.560  1.00  0.00    -0.203 F 
ATOM     42  C   UNL A   1      42.322  26.761  36.079  1.00  0.00     0.198 A 
ATOM     43  C   UNL A   1      43.449  25.518  34.383  1.00  0.00     0.198 A 
ATOM     44  F   UNL A   1      43.678  26.370  32.251  1.00  0.00    -0.203 F 
ATOM     45  F   UNL A   1      42.030  26.948  37.373  1.00  0.00    -0.200 F 
ATOM     46  C   UNL A   1      43.080  25.664  35.701  1.00  0.00     0.200 A 
ATOM     47  F   UNL A   1      44.214  24.485  34.000  1.00  0.00    -0.200 F 
ATOM     48  F   UNL A   1      43.503  24.780  36.614  1.00  0.00    -0.200 F 
ENDBRANCH  24  38
BRANCH  25  49
ATOM     49  C   UNL A   1      43.831  25.173  25.770  1.00  0.00     0.064 A 
ATOM     50  C   UNL A   1      45.064  25.019  25.108  1.00  0.00     0.173 A 
ATOM     51  C   UNL A   1      42.990  24.046  25.790  1.00  0.00     0.173 A 
ATOM     52  F   UNL A   1      45.930  26.040  25.044  1.00  0.00    -0.203 F 
ATOM     53  C   UNL A   1      45.465  23.793  24.572  1.00  0.00     0.198 A 
ATOM     54  C   UNL A   1      43.392  22.819  25.250  1.00  0.00     0.198 A 
ATOM     55  F   UNL A   1      41.804  24.090  26.415  1.00  0.00    -0.203 F 
ATOM     56  F   UNL A   1      46.683  23.669  24.024  1.00  0.00    -0.200 F 
ATOM     57  C   UNL A   1      44.639  22.686  24.664  1.00  0.00     0.200 A 
ATOM     58  F   UNL A   1      42.593  21.748  25.361  1.00  0.00    -0.200 F 
ATOM     59  F   UNL A   1      45.057  21.491  24.226  1.00  0.00    -0.200 F 
ENDBRANCH  25  49
BRANCH  37  60
ATOM     60  C   UNL A   1      45.538  30.533  28.434  1.00  0.00     0.064 A 
ATOM     61  C   UNL A   1      44.624  31.126  27.549  1.00  0.00     0.173 A 
ATOM     62  C   UNL A   1      46.852  31.022  28.429  1.00  0.00     0.173 A 
ATOM     63  F   UNL A   1      43.337  30.759  27.533  1.00  0.00    -0.203 F 
ATOM     64  C   UNL A   1      45.018  32.147  26.683  1.00  0.00     0.198 A 
ATOM     65  C   UNL A   1      47.235  32.062  27.588  1.00  0.00     0.198 A 
ATOM     66  F   UNL A   1      47.762  30.509  29.273  1.00  0.00    -0.203 F 
ATOM     67  F   UNL A   1      44.131  32.690  25.836  1.00  0.00    -0.200 F 
ATOM     68  C   UNL A   1      46.321  32.619  26.710  1.00  0.00     0.200 A 
ATOM     69  F   UNL A   1      48.487  32.537  27.646  1.00  0.00    -0.200 F 
ATOM     70  F   UNL A   1      46.691  33.624  25.904  1.00  0.00    -0.200 F 
ENDBRANCH  37  60
ENDBRANCH  11  12
ENDBRANCH   4   6
ENDBRANCH   3   4
ENDBRANCH   2   3
ENDBRANCH   1   2
BRANCH   1  71
ATOM     71  O   UNL A   1      34.194  36.176  28.147  1.00  0.00    -0.374 OA
BRANCH  71  72
ATOM     72  C   UNL A   1      32.921  36.256  28.753  1.00  0.00     0.202 C 
BRANCH  72  73
ATOM     73  C   UNL A   1      33.090  36.844  30.152  1.00  0.00     0.261 C 
BRANCH  73  74
ATOM     74  O   UNL A   1      31.990  36.424  30.978  1.00  0.00    -0.460 OA
BRANCH  74  75
ATOM     75  C   UNL A   1      32.220  36.380  32.306  1.00  0.00     0.339 C 
ATOM     76  O   UNL A   1      31.524  36.785  33.228  1.00  0.00    -0.246 OA
BRANCH  75  77
ATOM     77  C   UNL A   1      33.441  35.668  32.588  1.00  0.00     0.078 A 
ATOM     78  C   UNL A   1      34.360  36.117  33.525  1.00  0.00     0.021 A 
ATOM     79  C   UNL A   1      33.686  34.514  31.853  1.00  0.00     0.129 A 
ATOM     80  C   UNL A   1      35.508  35.376  33.695  1.00  0.00     0.048 A 
ATOM     81  N   UNL A   1      34.830  33.817  31.943  1.00  0.00    -0.238 NA
ATOM     82  C   UNL A   1      35.692  34.247  32.890  1.00  0.00     0.138 A 
BRANCH  82  83
ATOM     83  N   UNL A   1      36.794  33.438  33.167  1.00  0.00    -0.283 N 
ATOM     84  C   UNL A   1      36.892  32.501  34.156  1.00  0.00     0.206 A 
ATOM     85  C   UNL A   1      37.985  33.470  32.483  1.00  0.00     0.074 A 
ATOM     86  N   UNL A   1      37.999  31.797  34.037  1.00  0.00    -0.236 NA
ATOM     87  C   UNL A   1      38.695  32.402  33.014  1.00  0.00     0.089 A 
ATOM     88  C   UNL A   1      38.500  34.346  31.517  1.00  0.00     0.029 A 
ATOM     89  C   UNL A   1      39.962  32.117  32.490  1.00  0.00     0.030 A 
ATOM     90  C   UNL A   1      39.777  34.069  31.036  1.00  0.00     0.002 A 
ATOM     91  C   UNL A   1      40.490  32.961  31.499  1.00  0.00     0.002 A 
ENDBRANCH  82  83
ENDBRANCH  75  77
ENDBRANCH  74  75
ENDBRANCH  73  74
ENDBRANCH  72  73
ENDBRANCH  71  72
ENDBRANCH   1  71
TORSDOF 15
ENDMDL
MODEL 3
REMARK VINA RESULT:     -11.0      1.734      2.581
REMARK SMILES O=C(OCCOCCOC(=O)c1ccc(-n2cnc3ccccc32)nc1)c1ccc(-c2c3nc(c(-c4c(F)c(F)c(F)c(F)c4F)c4ccc([nH]4)c(-c4c(F)c(F)c(F)c(F)c4F)c4nc(c(-c5c(F)c(F)c(F)c(F)c5F)c5ccc2[nH]5)C=C4)C=C3)cc1
REMARK SMILES IDX 5 1 4 2 3 3 2 4 1 5 27 6 28 7 89 8 29 9 88 10 30 11 31 12
REMARK SMILES IDX 32 13 82 14 33 15 87 16 81 17 83 18 34 19 86 20 80 21 79 22
REMARK SMILES IDX 35 24 67 25 47 26 66 27 48 28 51 29 65 30 84 31 49 32 50 33
REMARK SMILES IDX 64 35 85 36 52 37 36 38 37 39 45 40 38 41 39 42 43 43 46 44
REMARK SMILES IDX 40 45 41 46 44 47 42 48 68 49 69 50 77 51 70 52 71 53 75 54
REMARK SMILES IDX 78 55 72 56 73 57 76 58 74 59 53 60 54 61 62 62 55 63 56 64
REMARK SMILES IDX 60 65 63 66 57 67 58 68 61 69 59 70 6 71 7 72 8 73 9 74
REMARK SMILES IDX 10 75 11 76 12 77 13 78 26 79 14 80 25 81 15 82 16 83 17 84
REMARK SMILES IDX 24 85 18 86 19 87 23 88 20 89 22 90 21 91
REMARK H PARENT 83 23 51 34
REMARK Flexibility Score: inf
ROOT
ATOM      1  C   UNL A   1      43.447  19.752  25.883  1.00  0.00     0.202 C 
ENDROOT
BRANCH   1   2
ATOM      2  C   UNL A   1      42.138  20.176  26.549  1.00  0.00     0.261 C 
BRANCH   2   3
ATOM      3  O   UNL A   1      41.623  21.485  26.192  1.00  0.00    -0.460 OA
BRANCH   3   4
ATOM      4  C   UNL A   1      40.455  22.085  26.563  1.00  0.00     0.338 C 
ATOM      5  O   UNL A   1      39.379  21.639  26.173  1.00  0.00    -0.246 OA
BRANCH   4   6
ATOM      6  C   UNL A   1      40.459  23.364  27.322  1.00  0.00     0.060 A 
ATOM      7  C   UNL A   1      39.413  24.278  27.091  1.00  0.00     0.016 A 
ATOM      8  C   UNL A   1      41.539  23.743  28.112  1.00  0.00     0.016 A 
ATOM      9  C   UNL A   1      39.533  25.610  27.506  1.00  0.00     0.010 A 
ATOM     10  C   UNL A   1      41.703  25.087  28.427  1.00  0.00     0.010 A 
ATOM     11  C   UNL A   1      40.721  26.043  28.103  1.00  0.00    -0.014 A 
BRANCH  11  12
ATOM     12  C   UNL A   1      40.821  27.366  28.748  1.00  0.00     0.031 A 
ATOM     13  C   UNL A   1      41.957  28.105  28.166  1.00  0.00     0.074 A 
ATOM     14  C   UNL A   1      40.049  27.993  29.671  1.00  0.00     0.049 A 
ATOM     15  N   UNL A   1      43.077  28.307  28.776  1.00  0.00    -0.248 NA
ATOM     16  C   UNL A   1      41.962  28.472  26.743  1.00  0.00     0.031 C 
ATOM     17  C   UNL A   1      38.881  27.499  30.378  1.00  0.00     0.029 A 
ATOM     18  N   UNL A   1      40.103  29.294  30.120  1.00  0.00    -0.354 N 
ATOM     19  C   UNL A   1      43.848  29.010  27.875  1.00  0.00     0.074 A 
ATOM     20  C   UNL A   1      43.224  28.870  26.587  1.00  0.00     0.031 C 
ATOM     21  C   UNL A   1      38.145  28.517  30.878  1.00  0.00     0.029 A 
ATOM     22  C   UNL A   1      38.934  29.726  30.747  1.00  0.00     0.049 A 
ATOM     23  H   UNL A   1      40.896  29.867  30.009  1.00  0.00     0.167 HD
ATOM     24  C   UNL A   1      44.732  29.934  28.323  1.00  0.00     0.037 A 
ATOM     25  C   UNL A   1      38.654  30.947  31.265  1.00  0.00     0.037 A 
ATOM     26  C   UNL A   1      44.963  29.807  29.738  1.00  0.00     0.049 A 
ATOM     27  C   UNL A   1      39.941  31.504  31.721  1.00  0.00     0.074 A 
ATOM     28  C   UNL A   1      45.623  28.917  30.558  1.00  0.00     0.029 A 
ATOM     29  N   UNL A   1      44.083  30.505  30.522  1.00  0.00    -0.354 N 
ATOM     30  N   UNL A   1      40.612  31.016  32.726  1.00  0.00    -0.248 NA
ATOM     31  C   UNL A   1      40.665  32.442  30.872  1.00  0.00     0.031 C 
ATOM     32  C   UNL A   1      45.005  29.012  31.840  1.00  0.00     0.029 A 
ATOM     33  C   UNL A   1      43.994  29.967  31.780  1.00  0.00     0.049 A 
ATOM     34  H   UNL A   1      43.580  31.295  30.220  1.00  0.00     0.167 HD
ATOM     35  C   UNL A   1      41.926  31.199  32.353  1.00  0.00     0.074 A 
ATOM     36  C   UNL A   1      41.899  32.245  31.340  1.00  0.00     0.031 C 
ATOM     37  C   UNL A   1      42.863  30.253  32.635  1.00  0.00     0.037 A 
BRANCH  24  38
ATOM     38  C   UNL A   1      44.997  31.213  27.587  1.00  0.00     0.064 A 
ATOM     39  C   UNL A   1      46.273  31.447  27.055  1.00  0.00     0.173 A 
ATOM     40  C   UNL A   1      44.125  32.326  27.619  1.00  0.00     0.173 A 
ATOM     41  F   UNL A   1      47.195  30.472  27.048  1.00  0.00    -0.203 F 
ATOM     42  C   UNL A   1      46.649  32.708  26.589  1.00  0.00     0.198 A 
ATOM     43  C   UNL A   1      44.478  33.562  27.092  1.00  0.00     0.198 A 
ATOM     44  F   UNL A   1      42.952  32.292  28.266  1.00  0.00    -0.203 F 
ATOM     45  F   UNL A   1      47.908  32.919  26.184  1.00  0.00    -0.200 F 
ATOM     46  C   UNL A   1      45.748  33.761  26.597  1.00  0.00     0.200 A 
ATOM     47  F   UNL A   1      43.602  34.575  27.143  1.00  0.00    -0.200 F 
ATOM     48  F   UNL A   1      46.118  34.978  26.180  1.00  0.00    -0.200 F 
ENDBRANCH  24  38
BRANCH  25  49
ATOM     49  C   UNL A   1      37.384  31.704  31.371  1.00  0.00     0.064 A 
ATOM     50  C   UNL A   1      36.736  31.862  32.611  1.00  0.00     0.173 A 
ATOM     51  C   UNL A   1      36.961  32.555  30.334  1.00  0.00     0.173 A 
ATOM     52  F   UNL A   1      37.077  31.096  33.657  1.00  0.00    -0.203 F 
ATOM     53  C   UNL A   1      35.784  32.863  32.823  1.00  0.00     0.198 A 
ATOM     54  C   UNL A   1      36.007  33.555  30.547  1.00  0.00     0.198 A 
ATOM     55  F   UNL A   1      37.534  32.493  29.124  1.00  0.00    -0.203 F 
ATOM     56  F   UNL A   1      35.254  33.034  34.043  1.00  0.00    -0.200 F 
ATOM     57  C   UNL A   1      35.437  33.726  31.798  1.00  0.00     0.200 A 
ATOM     58  F   UNL A   1      35.691  34.398  29.554  1.00  0.00    -0.200 F 
ATOM     59  F   UNL A   1      34.589  34.738  32.023  1.00  0.00    -0.200 F 
ENDBRANCH  25  49
BRANCH  37  60
ATOM     60  C   UNL A   1      42.608  29.357  33.808  1.00  0.00     0.064 A 
ATOM     61  C   UNL A   1      41.936  28.126  33.748  1.00  0.00     0.173 A 
ATOM     62  C   UNL A   1      43.138  29.743  35.047  1.00  0.00     0.173 A 
ATOM     63  F   UNL A   1      41.453  27.656  32.592  1.00  0.00    -0.203 F 
ATOM     64  C   UNL A   1      41.784  27.332  34.885  1.00  0.00     0.198 A 
ATOM     65  C   UNL A   1      43.015  28.934  36.173  1.00  0.00     0.198 A 
ATOM     66  F   UNL A   1      43.814  30.899  35.157  1.00  0.00    -0.203 F 
ATOM     67  F   UNL A   1      41.126  26.165  34.808  1.00  0.00    -0.200 F 
ATOM     68  C   UNL A   1      42.331  27.733  36.093  1.00  0.00     0.200 A 
ATOM     69  F   UNL A   1      43.577  29.313  37.328  1.00  0.00    -0.200 F 
ATOM     70  F   UNL A   1      42.216  26.954  37.178  1.00  0.00    -0.200 F 
ENDBRANCH  37  60
ENDBRANCH  11  12
ENDBRANCH   4   6
ENDBRANCH   3   4
ENDBRANCH   2   3
ENDBRANCH   1   2
BRANCH   1  71
ATOM     71  O   UNL A   1      43.682  20.510  24.719  1.00  0.00    -0.374 OA
BRANCH  71  72
ATOM     72  C   UNL A   1      44.901  21.209  24.584  1.00  0.00     0.202 C 
BRANCH  72  73
ATOM     73  C   UNL A   1      44.630  22.511  23.836  1.00  0.00     0.261 C 
BRANCH  73  74
ATOM     74  O   UNL A   1      44.453  23.576  24.786  1.00  0.00    -0.460 OA
BRANCH  74  75
ATOM     75  C   UNL A   1      45.559  24.269  25.124  1.00  0.00     0.339 C 
ATOM     76  O   UNL A   1      46.470  24.673  24.412  1.00  0.00    -0.246 OA
BRANCH  75  77
ATOM     77  C   UNL A   1      45.543  24.602  26.526  1.00  0.00     0.078 A 
ATOM     78  C   UNL A   1      45.876  25.866  26.990  1.00  0.00     0.021 A 
ATOM     79  C   UNL A   1      45.208  23.587  27.414  1.00  0.00     0.129 A 
ATOM     80  C   UNL A   1      45.856  26.069  28.353  1.00  0.00     0.048 A 
ATOM     81  N   UNL A   1      45.257  23.735  28.748  1.00  0.00    -0.238 NA
ATOM     82  C   UNL A   1      45.541  24.984  29.177  1.00  0.00     0.138 A 
BRANCH  82  83
ATOM     83  N   UNL A   1      45.398  25.239  30.541  1.00  0.00    -0.283 N 
ATOM     84  C   UNL A   1      44.236  25.213  31.260  1.00  0.00     0.206 A 
ATOM     85  C   UNL A   1      46.422  25.583  31.390  1.00  0.00     0.074 A 
ATOM     86  N   UNL A   1      44.472  25.332  32.550  1.00  0.00    -0.236 NA
ATOM     87  C   UNL A   1      45.823  25.582  32.642  1.00  0.00     0.089 A 
ATOM     88  C   UNL A   1      47.762  25.932  31.166  1.00  0.00     0.029 A 
ATOM     89  C   UNL A   1      46.620  25.850  33.762  1.00  0.00     0.030 A 
ATOM     90  C   UNL A   1      48.528  26.233  32.289  1.00  0.00     0.002 A 
ATOM     91  C   UNL A   1      47.973  26.173  33.569  1.00  0.00     0.002 A 
ENDBRANCH  82  83
ENDBRANCH  75  77
ENDBRANCH  74  75
ENDBRANCH  73  74
ENDBRANCH  72  73
ENDBRANCH  71  72
ENDBRANCH   1  71
TORSDOF 15
ENDMDL
