MODEL 1
REMARK VINA RESULT:     -11.7      0.000      0.000
REMARK SMILES O=C(OCCOCCOC(=O)c1cc(Br)ccc1OCc1ccccc1F)c1ccc(-c2c3nc(c(-c4c(F)c(F)c(F)c(F)c4F)c4ccc([nH]4)c(-c4c(F)c(F)c(F)c(F)c4F)c4nc(c(-c5c(F)c(F)c(F)c(F)c5F)c5ccc2[nH]5)C=C4)C=C3)cc1
REMARK SMILES IDX 7 1 6 2 5 3 4 4 3 5 2 6 1 7 28 8 29 9 90 10 30 11 89 12
REMARK SMILES IDX 31 13 32 14 33 15 83 16 34 17 88 18 82 19 84 20 35 21 87 22
REMARK SMILES IDX 81 23 80 24 36 26 68 27 48 28 67 29 49 30 52 31 66 32 85 33
REMARK SMILES IDX 50 34 51 35 65 37 86 38 53 39 37 40 38 41 46 42 39 43 40 44
REMARK SMILES IDX 44 45 47 46 41 47 42 48 45 49 43 50 69 51 70 52 78 53 71 54
REMARK SMILES IDX 72 55 76 56 79 57 73 58 74 59 77 60 75 61 54 62 55 63 63 64
REMARK SMILES IDX 56 65 57 66 61 67 64 68 58 69 59 70 62 71 60 72 8 73 9 74
REMARK SMILES IDX 10 75 11 76 12 77 13 78 18 79 14 80 17 81 15 82 16 83 19 84
REMARK SMILES IDX 20 85 21 86 22 87 26 88 23 89 25 90 27 91 24 92
REMARK H PARENT 84 25 52 36
REMARK Flexibility Score: inf
ROOT
ATOM      1  C   UNL A   1      32.313  29.697  26.702  1.00  0.00     0.202 C 
ENDROOT
BRANCH   1   2
ATOM      2  O   UNL A   1      31.726  30.695  25.877  1.00  0.00    -0.374 OA
BRANCH   2   3
ATOM      3  C   UNL A   1      31.404  31.927  26.522  1.00  0.00     0.202 C 
BRANCH   3   4
ATOM      4  C   UNL A   1      32.566  32.599  27.250  1.00  0.00     0.261 C 
BRANCH   4   5
ATOM      5  O   UNL A   1      32.157  33.825  27.857  1.00  0.00    -0.460 OA
BRANCH   5   6
ATOM      6  C   UNL A   1      32.967  34.606  28.612  1.00  0.00     0.338 C 
ATOM      7  O   UNL A   1      32.698  35.798  28.746  1.00  0.00    -0.246 OA
BRANCH   6   8
ATOM      8  C   UNL A   1      34.120  34.057  29.387  1.00  0.00     0.060 A 
ATOM      9  C   UNL A   1      34.031  33.141  30.440  1.00  0.00     0.016 A 
ATOM     10  C   UNL A   1      35.395  34.421  28.935  1.00  0.00     0.016 A 
ATOM     11  C   UNL A   1      35.150  32.598  31.035  1.00  0.00     0.010 A 
ATOM     12  C   UNL A   1      36.535  33.852  29.502  1.00  0.00     0.010 A 
ATOM     13  C   UNL A   1      36.402  32.929  30.545  1.00  0.00    -0.014 A 
BRANCH  13  14
ATOM     14  C   UNL A   1      37.558  32.348  31.230  1.00  0.00     0.031 A 
ATOM     15  C   UNL A   1      38.353  31.326  30.497  1.00  0.00     0.074 A 
ATOM     16  C   UNL A   1      37.929  32.839  32.425  1.00  0.00     0.049 A 
ATOM     17  N   UNL A   1      39.324  30.575  30.927  1.00  0.00    -0.248 NA
ATOM     18  C   UNL A   1      38.011  31.129  29.077  1.00  0.00     0.031 C 
ATOM     19  C   UNL A   1      37.281  33.960  33.113  1.00  0.00     0.029 A 
ATOM     20  N   UNL A   1      38.953  32.484  33.257  1.00  0.00    -0.354 N 
ATOM     21  C   UNL A   1      39.666  29.770  29.852  1.00  0.00     0.074 A 
ATOM     22  C   UNL A   1      38.817  30.133  28.743  1.00  0.00     0.031 C 
ATOM     23  C   UNL A   1      37.934  34.206  34.260  1.00  0.00     0.029 A 
ATOM     24  C   UNL A   1      38.975  33.201  34.427  1.00  0.00     0.049 A 
ATOM     25  H   UNL A   1      39.610  31.783  33.039  1.00  0.00     0.167 HD
ATOM     26  C   UNL A   1      40.602  28.798  29.831  1.00  0.00     0.037 A 
ATOM     27  C   UNL A   1      39.720  33.011  35.531  1.00  0.00     0.037 A 
ATOM     28  C   UNL A   1      41.430  28.498  30.966  1.00  0.00     0.049 A 
ATOM     29  C   UNL A   1      40.694  31.866  35.516  1.00  0.00     0.074 A 
ATOM     30  C   UNL A   1      42.392  27.518  31.100  1.00  0.00     0.029 A 
ATOM     31  N   UNL A   1      41.384  29.193  32.171  1.00  0.00    -0.354 N 
ATOM     32  N   UNL A   1      40.965  31.032  34.537  1.00  0.00    -0.248 NA
ATOM     33  C   UNL A   1      41.444  31.612  36.748  1.00  0.00     0.031 C 
ATOM     34  C   UNL A   1      42.882  27.579  32.407  1.00  0.00     0.029 A 
ATOM     35  C   UNL A   1      42.282  28.644  33.067  1.00  0.00     0.049 A 
ATOM     36  H   UNL A   1      40.798  29.962  32.358  1.00  0.00     0.167 HD
ATOM     37  C   UNL A   1      41.923  30.160  35.028  1.00  0.00     0.074 A 
ATOM     38  C   UNL A   1      42.197  30.580  36.390  1.00  0.00     0.031 C 
ATOM     39  C   UNL A   1      42.521  29.108  34.415  1.00  0.00     0.037 A 
BRANCH  26  40
ATOM     40  C   UNL A   1      40.695  27.955  28.595  1.00  0.00     0.064 A 
ATOM     41  C   UNL A   1      39.969  26.756  28.515  1.00  0.00     0.173 A 
ATOM     42  C   UNL A   1      41.467  28.326  27.485  1.00  0.00     0.173 A 
ATOM     43  F   UNL A   1      39.201  26.362  29.543  1.00  0.00    -0.203 F 
ATOM     44  C   UNL A   1      40.022  25.957  27.378  1.00  0.00     0.198 A 
ATOM     45  C   UNL A   1      41.491  27.541  26.334  1.00  0.00     0.198 A 
ATOM     46  F   UNL A   1      42.150  29.481  27.493  1.00  0.00    -0.203 F 
ATOM     47  F   UNL A   1      39.331  24.810  27.335  1.00  0.00    -0.200 F 
ATOM     48  C   UNL A   1      40.777  26.354  26.285  1.00  0.00     0.200 A 
ATOM     49  F   UNL A   1      42.187  27.946  25.263  1.00  0.00    -0.200 F 
ATOM     50  F   UNL A   1      40.802  25.599  25.178  1.00  0.00    -0.200 F 
ENDBRANCH  26  40
BRANCH  27  51
ATOM     51  C   UNL A   1      39.514  33.882  36.718  1.00  0.00     0.064 A 
ATOM     52  C   UNL A   1      40.170  35.120  36.833  1.00  0.00     0.173 A 
ATOM     53  C   UNL A   1      38.714  33.472  37.791  1.00  0.00     0.173 A 
ATOM     54  F   UNL A   1      40.950  35.563  35.837  1.00  0.00    -0.203 F 
ATOM     55  C   UNL A   1      40.066  35.891  37.991  1.00  0.00     0.198 A 
ATOM     56  C   UNL A   1      38.586  34.259  38.936  1.00  0.00     0.198 A 
ATOM     57  F   UNL A   1      38.051  32.309  37.725  1.00  0.00    -0.203 F 
ATOM     58  F   UNL A   1      40.748  37.040  38.092  1.00  0.00    -0.200 F 
ATOM     59  C   UNL A   1      39.272  35.460  39.040  1.00  0.00     0.200 A 
ATOM     60  F   UNL A   1      37.800  33.850  39.942  1.00  0.00    -0.200 F 
ATOM     61  F   UNL A   1      39.168  36.201  40.152  1.00  0.00    -0.200 F 
ENDBRANCH  27  51
BRANCH  39  62
ATOM     62  C   UNL A   1      43.548  28.351  35.199  1.00  0.00     0.064 A 
ATOM     63  C   UNL A   1      43.148  27.340  36.086  1.00  0.00     0.173 A 
ATOM     64  C   UNL A   1      44.901  28.710  35.168  1.00  0.00     0.173 A 
ATOM     65  F   UNL A   1      41.859  26.974  36.156  1.00  0.00    -0.203 F 
ATOM     66  C   UNL A   1      44.063  26.740  36.941  1.00  0.00     0.198 A 
ATOM     67  C   UNL A   1      45.821  28.082  36.001  1.00  0.00     0.198 A 
ATOM     68  F   UNL A   1      45.330  29.663  34.325  1.00  0.00    -0.203 F 
ATOM     69  F   UNL A   1      43.650  25.820  37.823  1.00  0.00    -0.200 F 
ATOM     70  C   UNL A   1      45.399  27.111  36.897  1.00  0.00     0.200 A 
ATOM     71  F   UNL A   1      47.116  28.424  35.942  1.00  0.00    -0.200 F 
ATOM     72  F   UNL A   1      46.281  26.533  37.724  1.00  0.00    -0.200 F 
ENDBRANCH  39  62
ENDBRANCH  13  14
ENDBRANCH   6   8
ENDBRANCH   5   6
ENDBRANCH   4   5
ENDBRANCH   3   4
ENDBRANCH   2   3
ENDBRANCH   1   2
BRANCH   1  73
ATOM     73  C   UNL A   1      33.647  29.243  26.117  1.00  0.00     0.261 C 
BRANCH  73  74
ATOM     74  O   UNL A   1      33.823  27.837  26.363  1.00  0.00    -0.460 OA
BRANCH  74  75
ATOM     75  C   UNL A   1      33.579  27.039  25.292  1.00  0.00     0.342 C 
ATOM     76  O   UNL A   1      33.906  27.258  24.139  1.00  0.00    -0.246 OA
BRANCH  75  77
ATOM     77  C   UNL A   1      32.862  25.839  25.761  1.00  0.00     0.103 A 
ATOM     78  C   UNL A   1      33.646  24.738  26.126  1.00  0.00     0.035 A 
ATOM     79  C   UNL A   1      31.457  25.764  25.812  1.00  0.00     0.134 A 
ATOM     80  C   UNL A   1      33.028  23.555  26.508  1.00  0.00     0.019 A 
ATOM     81  C   UNL A   1      30.850  24.568  26.202  1.00  0.00     0.048 A 
ATOM     82  Br  UNL A   1      34.091  22.049  26.921  1.00  0.00    -0.051 Br
ATOM     83  C   UNL A   1      31.636  23.465  26.550  1.00  0.00     0.019 A 
BRANCH  79  84
ATOM     84  O   UNL A   1      30.683  26.737  25.244  1.00  0.00    -0.488 OA
BRANCH  84  85
ATOM     85  C   UNL A   1      29.900  26.395  24.092  1.00  0.00     0.268 C 
BRANCH  85  86
ATOM     86  C   UNL A   1      29.310  27.623  23.455  1.00  0.00     0.025 A 
ATOM     87  C   UNL A   1      30.108  28.650  22.921  1.00  0.00     0.010 A 
ATOM     88  C   UNL A   1      27.928  27.809  23.501  1.00  0.00     0.129 A 
ATOM     89  C   UNL A   1      29.521  29.844  22.485  1.00  0.00     0.001 A 
ATOM     90  C   UNL A   1      27.341  29.000  23.090  1.00  0.00     0.039 A 
ATOM     91  F   UNL A   1      27.146  26.843  24.007  1.00  0.00    -0.207 F 
ATOM     92  C   UNL A   1      28.141  30.025  22.590  1.00  0.00     0.003 A 
ENDBRANCH  85  86
ENDBRANCH  84  85
ENDBRANCH  79  84
ENDBRANCH  75  77
ENDBRANCH  74  75
ENDBRANCH  73  74
ENDBRANCH   1  73
TORSDOF 17
ENDMDL
MODEL 2
REMARK VINA RESULT:     -11.5      5.924     11.013
REMARK SMILES O=C(OCCOCCOC(=O)c1cc(Br)ccc1OCc1ccccc1F)c1ccc(-c2c3nc(c(-c4c(F)c(F)c(F)c(F)c4F)c4ccc([nH]4)c(-c4c(F)c(F)c(F)c(F)c4F)c4nc(c(-c5c(F)c(F)c(F)c(F)c5F)c5ccc2[nH]5)C=C4)C=C3)cc1
REMARK SMILES IDX 7 1 6 2 5 3 4 4 3 5 2 6 1 7 28 8 29 9 90 10 30 11 89 12
REMARK SMILES IDX 31 13 32 14 33 15 83 16 34 17 88 18 82 19 84 20 35 21 87 22
REMARK SMILES IDX 81 23 80 24 36 26 68 27 48 28 67 29 49 30 52 31 66 32 85 33
REMARK SMILES IDX 50 34 51 35 65 37 86 38 53 39 37 40 38 41 46 42 39 43 40 44
REMARK SMILES IDX 44 45 47 46 41 47 42 48 45 49 43 50 69 51 70 52 78 53 71 54
REMARK SMILES IDX 72 55 76 56 79 57 73 58 74 59 77 60 75 61 54 62 55 63 63 64
REMARK SMILES IDX 56 65 57 66 61 67 64 68 58 69 59 70 62 71 60 72 8 73 9 74
REMARK SMILES IDX 10 75 11 76 12 77 13 78 18 79 14 80 17 81 15 82 16 83 19 84
REMARK SMILES IDX 20 85 21 86 22 87 26 88 23 89 25 90 27 91 24 92
REMARK H PARENT 84 25 52 36
REMARK Flexibility Score: inf
ROOT
ATOM      1  C   UNL A   1      37.507  22.183  25.433  1.00  0.00     0.202 C 
ENDROOT
BRANCH   1   2
ATOM      2  O   UNL A   1      37.383  21.040  24.597  1.00  0.00    -0.374 OA
BRANCH   2   3
ATOM      3  C   UNL A   1      38.183  19.914  24.957  1.00  0.00     0.202 C 
BRANCH   3   4
ATOM      4  C   UNL A   1      39.404  20.236  25.815  1.00  0.00     0.261 C 
BRANCH   4   5
ATOM      5  O   UNL A   1      40.397  19.217  25.707  1.00  0.00    -0.460 OA
BRANCH   5   6
ATOM      6  C   UNL A   1      41.712  19.405  25.975  1.00  0.00     0.338 C 
ATOM      7  O   UNL A   1      42.495  18.468  25.831  1.00  0.00    -0.246 OA
BRANCH   6   8
ATOM      8  C   UNL A   1      42.277  20.740  26.335  1.00  0.00     0.060 A 
ATOM      9  C   UNL A   1      42.658  21.734  25.428  1.00  0.00     0.016 A 
ATOM     10  C   UNL A   1      42.320  21.043  27.702  1.00  0.00     0.016 A 
ATOM     11  C   UNL A   1      43.070  22.983  25.841  1.00  0.00     0.010 A 
ATOM     12  C   UNL A   1      42.700  22.313  28.133  1.00  0.00     0.010 A 
ATOM     13  C   UNL A   1      43.060  23.285  27.192  1.00  0.00    -0.014 A 
BRANCH  13  14
ATOM     14  C   UNL A   1      43.534  24.615  27.579  1.00  0.00     0.031 A 
ATOM     15  C   UNL A   1      42.519  25.602  28.037  1.00  0.00     0.074 A 
ATOM     16  C   UNL A   1      44.856  24.852  27.630  1.00  0.00     0.049 A 
ATOM     17  N   UNL A   1      42.664  26.868  28.299  1.00  0.00    -0.248 NA
ATOM     18  C   UNL A   1      41.152  25.090  28.233  1.00  0.00     0.031 C 
ATOM     19  C   UNL A   1      45.901  23.862  27.352  1.00  0.00     0.029 A 
ATOM     20  N   UNL A   1      45.546  25.985  27.956  1.00  0.00    -0.354 N 
ATOM     21  C   UNL A   1      41.395  27.319  28.629  1.00  0.00     0.074 A 
ATOM     22  C   UNL A   1      40.495  26.194  28.553  1.00  0.00     0.031 C 
ATOM     23  C   UNL A   1      47.103  24.432  27.534  1.00  0.00     0.029 A 
ATOM     24  C   UNL A   1      46.907  25.842  27.840  1.00  0.00     0.049 A 
ATOM     25  H   UNL A   1      45.112  26.819  28.247  1.00  0.00     0.167 HD
ATOM     26  C   UNL A   1      41.038  28.583  28.941  1.00  0.00     0.037 A 
ATOM     27  C   UNL A   1      47.873  26.777  27.913  1.00  0.00     0.037 A 
ATOM     28  C   UNL A   1      41.989  29.657  29.017  1.00  0.00     0.049 A 
ATOM     29  C   UNL A   1      47.442  28.194  28.175  1.00  0.00     0.074 A 
ATOM     30  C   UNL A   1      41.766  30.992  29.286  1.00  0.00     0.029 A 
ATOM     31  N   UNL A   1      43.359  29.503  28.823  1.00  0.00    -0.354 N 
ATOM     32  N   UNL A   1      46.232  28.656  28.395  1.00  0.00    -0.248 NA
ATOM     33  C   UNL A   1      48.487  29.219  28.172  1.00  0.00     0.031 C 
ATOM     34  C   UNL A   1      42.991  31.656  29.189  1.00  0.00     0.029 A 
ATOM     35  C   UNL A   1      43.992  30.726  28.936  1.00  0.00     0.049 A 
ATOM     36  H   UNL A   1      43.810  28.649  28.633  1.00  0.00     0.167 HD
ATOM     37  C   UNL A   1      46.367  30.023  28.570  1.00  0.00     0.074 A 
ATOM     38  C   UNL A   1      47.784  30.312  28.443  1.00  0.00     0.031 C 
ATOM     39  C   UNL A   1      45.413  30.957  28.808  1.00  0.00     0.037 A 
BRANCH  26  40
ATOM     40  C   UNL A   1      39.577  28.864  29.117  1.00  0.00     0.064 A 
ATOM     41  C   UNL A   1      38.994  28.743  30.388  1.00  0.00     0.173 A 
ATOM     42  C   UNL A   1      38.754  29.273  28.057  1.00  0.00     0.173 A 
ATOM     43  F   UNL A   1      39.740  28.372  31.441  1.00  0.00    -0.203 F 
ATOM     44  C   UNL A   1      37.644  29.010  30.590  1.00  0.00     0.198 A 
ATOM     45  C   UNL A   1      37.410  29.572  28.269  1.00  0.00     0.198 A 
ATOM     46  F   UNL A   1      39.268  29.442  26.829  1.00  0.00    -0.203 F 
ATOM     47  F   UNL A   1      37.111  28.872  31.811  1.00  0.00    -0.200 F 
ATOM     48  C   UNL A   1      36.854  29.433  29.531  1.00  0.00     0.200 A 
ATOM     49  F   UNL A   1      36.657  30.021  27.254  1.00  0.00    -0.200 F 
ATOM     50  F   UNL A   1      35.561  29.719  29.733  1.00  0.00    -0.200 F 
ENDBRANCH  26  40
BRANCH  27  51
ATOM     51  C   UNL A   1      49.289  26.392  27.679  1.00  0.00     0.064 A 
ATOM     52  C   UNL A   1      50.159  26.134  28.753  1.00  0.00     0.173 A 
ATOM     53  C   UNL A   1      49.824  26.339  26.387  1.00  0.00     0.173 A 
ATOM     54  F   UNL A   1      49.702  26.171  30.013  1.00  0.00    -0.203 F 
ATOM     55  C   UNL A   1      51.514  25.879  28.543  1.00  0.00     0.198 A 
ATOM     56  C   UNL A   1      51.174  26.054  26.176  1.00  0.00     0.198 A 
ATOM     57  F   UNL A   1      49.034  26.559  25.326  1.00  0.00    -0.203 F 
ATOM     58  F   UNL A   1      52.329  25.691  29.590  1.00  0.00    -0.200 F 
ATOM     59  C   UNL A   1      52.019  25.837  27.254  1.00  0.00     0.200 A 
ATOM     60  F   UNL A   1      51.656  25.993  24.927  1.00  0.00    -0.200 F 
ATOM     61  F   UNL A   1      53.320  25.590  27.050  1.00  0.00    -0.200 F 
ENDBRANCH  27  51
BRANCH  39  62
ATOM     62  C   UNL A   1      45.867  32.375  28.974  1.00  0.00     0.064 A 
ATOM     63  C   UNL A   1      46.151  32.874  30.254  1.00  0.00     0.173 A 
ATOM     64  C   UNL A   1      45.897  33.263  27.891  1.00  0.00     0.173 A 
ATOM     65  F   UNL A   1      46.121  32.059  31.319  1.00  0.00    -0.203 F 
ATOM     66  C   UNL A   1      46.414  34.224  30.448  1.00  0.00     0.198 A 
ATOM     67  C   UNL A   1      46.196  34.607  28.086  1.00  0.00     0.198 A 
ATOM     68  F   UNL A   1      45.645  32.825  26.648  1.00  0.00    -0.203 F 
ATOM     69  F   UNL A   1      46.622  34.692  31.686  1.00  0.00    -0.200 F 
ATOM     70  C   UNL A   1      46.437  35.089  29.364  1.00  0.00     0.200 A 
ATOM     71  F   UNL A   1      46.241  35.440  27.036  1.00  0.00    -0.200 F 
ATOM     72  F   UNL A   1      46.689  36.392  29.554  1.00  0.00    -0.200 F 
ENDBRANCH  39  62
ENDBRANCH  13  14
ENDBRANCH   6   8
ENDBRANCH   5   6
ENDBRANCH   4   5
ENDBRANCH   3   4
ENDBRANCH   2   3
ENDBRANCH   1   2
BRANCH   1  73
ATOM     73  C   UNL A   1      36.132  22.776  25.728  1.00  0.00     0.261 C 
BRANCH  73  74
ATOM     74  O   UNL A   1      35.934  23.948  24.920  1.00  0.00    -0.460 OA
BRANCH  74  75
ATOM     75  C   UNL A   1      35.068  23.786  23.886  1.00  0.00     0.342 C 
ATOM     76  O   UNL A   1      35.341  23.369  22.774  1.00  0.00    -0.246 OA
BRANCH  75  77
ATOM     77  C   UNL A   1      33.723  24.183  24.341  1.00  0.00     0.103 A 
ATOM     78  C   UNL A   1      33.627  25.387  25.048  1.00  0.00     0.035 A 
ATOM     79  C   UNL A   1      32.580  23.390  24.122  1.00  0.00     0.134 A 
ATOM     80  C   UNL A   1      32.400  25.782  25.566  1.00  0.00     0.019 A 
ATOM     81  C   UNL A   1      31.353  23.801  24.646  1.00  0.00     0.048 A 
ATOM     82  Br  UNL A   1      32.294  27.366  26.587  1.00  0.00    -0.051 Br
ATOM     83  C   UNL A   1      31.263  24.997  25.366  1.00  0.00     0.019 A 
BRANCH  79  84
ATOM     84  O   UNL A   1      32.695  22.115  23.644  1.00  0.00    -0.488 OA
BRANCH  84  85
ATOM     85  C   UNL A   1      32.358  21.029  24.519  1.00  0.00     0.268 C 
BRANCH  85  86
ATOM     86  C   UNL A   1      32.925  19.731  24.013  1.00  0.00     0.025 A 
ATOM     87  C   UNL A   1      32.282  18.964  23.026  1.00  0.00     0.010 A 
ATOM     88  C   UNL A   1      34.065  19.208  24.626  1.00  0.00     0.129 A 
ATOM     89  C   UNL A   1      32.759  17.688  22.703  1.00  0.00     0.001 A 
ATOM     90  C   UNL A   1      34.530  17.933  24.326  1.00  0.00     0.039 A 
ATOM     91  F   UNL A   1      34.694  19.921  25.572  1.00  0.00    -0.207 F 
ATOM     92  C   UNL A   1      33.871  17.166  23.368  1.00  0.00     0.003 A 
ENDBRANCH  85  86
ENDBRANCH  84  85
ENDBRANCH  79  84
ENDBRANCH  75  77
ENDBRANCH  74  75
ENDBRANCH  73  74
ENDBRANCH   1  73
TORSDOF 17
ENDMDL
MODEL 3
REMARK VINA RESULT:     -11.4      2.701      4.238
REMARK SMILES O=C(OCCOCCOC(=O)c1cc(Br)ccc1OCc1ccccc1F)c1ccc(-c2c3nc(c(-c4c(F)c(F)c(F)c(F)c4F)c4ccc([nH]4)c(-c4c(F)c(F)c(F)c(F)c4F)c4nc(c(-c5c(F)c(F)c(F)c(F)c5F)c5ccc2[nH]5)C=C4)C=C3)cc1
REMARK SMILES IDX 7 1 6 2 5 3 4 4 3 5 2 6 1 7 28 8 29 9 90 10 30 11 89 12
REMARK SMILES IDX 31 13 32 14 33 15 83 16 34 17 88 18 82 19 84 20 35 21 87 22
REMARK SMILES IDX 81 23 80 24 36 26 68 27 48 28 67 29 49 30 52 31 66 32 85 33
REMARK SMILES IDX 50 34 51 35 65 37 86 38 53 39 37 40 38 41 46 42 39 43 40 44
REMARK SMILES IDX 44 45 47 46 41 47 42 48 45 49 43 50 69 51 70 52 78 53 71 54
REMARK SMILES IDX 72 55 76 56 79 57 73 58 74 59 77 60 75 61 54 62 55 63 63 64
REMARK SMILES IDX 56 65 57 66 61 67 64 68 58 69 59 70 62 71 60 72 8 73 9 74
REMARK SMILES IDX 10 75 11 76 12 77 13 78 18 79 14 80 17 81 15 82 16 83 19 84
REMARK SMILES IDX 20 85 21 86 22 87 26 88 23 89 25 90 27 91 24 92
REMARK H PARENT 84 25 52 36
REMARK Flexibility Score: inf
ROOT
ATOM      1  C   UNL A   1      33.020  27.632  23.710  1.00  0.00     0.202 C 
ENDROOT
BRANCH   1   2
ATOM      2  O   UNL A   1      31.897  27.555  24.578  1.00  0.00    -0.374 OA
BRANCH   2   3
ATOM      3  C   UNL A   1      32.057  28.161  25.861  1.00  0.00     0.202 C 
BRANCH   3   4
ATOM      4  C   UNL A   1      31.819  29.669  25.898  1.00  0.00     0.261 C 
BRANCH   4   5
ATOM      5  O   UNL A   1      33.053  30.387  25.911  1.00  0.00    -0.460 OA
BRANCH   5   6
ATOM      6  C   UNL A   1      33.451  31.195  26.924  1.00  0.00     0.338 C 
ATOM      7  O   UNL A   1      32.787  32.193  27.194  1.00  0.00    -0.246 OA
BRANCH   6   8
ATOM      8  C   UNL A   1      34.611  30.866  27.806  1.00  0.00     0.060 A 
ATOM      9  C   UNL A   1      34.952  29.587  28.259  1.00  0.00     0.016 A 
ATOM     10  C   UNL A   1      35.477  31.925  28.107  1.00  0.00     0.016 A 
ATOM     11  C   UNL A   1      36.101  29.350  28.982  1.00  0.00     0.010 A 
ATOM     12  C   UNL A   1      36.660  31.694  28.806  1.00  0.00     0.010 A 
ATOM     13  C   UNL A   1      36.973  30.397  29.229  1.00  0.00    -0.014 A 
BRANCH  13  14
ATOM     14  C   UNL A   1      38.163  30.097  30.026  1.00  0.00     0.031 A 
ATOM     15  C   UNL A   1      39.224  29.265  29.396  1.00  0.00     0.074 A 
ATOM     16  C   UNL A   1      38.312  30.677  31.229  1.00  0.00     0.049 A 
ATOM     17  N   UNL A   1      40.294  28.754  29.930  1.00  0.00    -0.248 NA
ATOM     18  C   UNL A   1      39.059  28.974  27.961  1.00  0.00     0.031 C 
ATOM     19  C   UNL A   1      37.376  31.637  31.823  1.00  0.00     0.029 A 
ATOM     20  N   UNL A   1      39.311  30.570  32.154  1.00  0.00    -0.354 N 
ATOM     21  C   UNL A   1      40.897  28.027  28.915  1.00  0.00     0.074 A 
ATOM     22  C   UNL A   1      40.089  28.176  27.729  1.00  0.00     0.031 C 
ATOM     23  C   UNL A   1      37.856  32.040  33.010  1.00  0.00     0.029 A 
ATOM     24  C   UNL A   1      39.073  31.293  33.297  1.00  0.00     0.049 A 
ATOM     25  H   UNL A   1      40.122  30.029  32.015  1.00  0.00     0.167 HD
ATOM     26  C   UNL A   1      42.022  27.287  29.005  1.00  0.00     0.037 A 
ATOM     27  C   UNL A   1      39.743  31.290  34.464  1.00  0.00     0.037 A 
ATOM     28  C   UNL A   1      42.792  27.196  30.214  1.00  0.00     0.049 A 
ATOM     29  C   UNL A   1      40.942  30.389  34.568  1.00  0.00     0.074 A 
ATOM     30  C   UNL A   1      43.930  26.455  30.460  1.00  0.00     0.029 A 
ATOM     31  N   UNL A   1      42.490  27.882  31.386  1.00  0.00    -0.354 N 
ATOM     32  N   UNL A   1      41.473  29.620  33.645  1.00  0.00    -0.248 NA
ATOM     33  C   UNL A   1      41.618  30.327  35.866  1.00  0.00     0.031 C 
ATOM     34  C   UNL A   1      44.279  26.644  31.800  1.00  0.00     0.029 A 
ATOM     35  C   UNL A   1      43.404  27.560  32.371  1.00  0.00     0.049 A 
ATOM     36  H   UNL A   1      41.736  28.505  31.498  1.00  0.00     0.167 HD
ATOM     37  C   UNL A   1      42.553  28.990  34.242  1.00  0.00     0.074 A 
ATOM     38  C   UNL A   1      42.608  29.481  35.607  1.00  0.00     0.031 C 
ATOM     39  C   UNL A   1      43.417  28.086  33.716  1.00  0.00     0.037 A 
BRANCH  26  40
ATOM     40  C   UNL A   1      42.404  26.466  27.810  1.00  0.00     0.064 A 
ATOM     41  C   UNL A   1      41.889  25.168  27.665  1.00  0.00     0.173 A 
ATOM     42  C   UNL A   1      43.249  26.950  26.801  1.00  0.00     0.173 A 
ATOM     43  F   UNL A   1      41.062  24.662  28.593  1.00  0.00    -0.203 F 
ATOM     44  C   UNL A   1      42.212  24.385  26.562  1.00  0.00     0.198 A 
ATOM     45  C   UNL A   1      43.545  26.176  25.682  1.00  0.00     0.198 A 
ATOM     46  F   UNL A   1      43.739  28.198  26.872  1.00  0.00    -0.203 F 
ATOM     47  F   UNL A   1      41.719  23.144  26.456  1.00  0.00    -0.200 F 
ATOM     48  C   UNL A   1      43.034  24.892  25.567  1.00  0.00     0.200 A 
ATOM     49  F   UNL A   1      44.305  26.682  24.700  1.00  0.00    -0.200 F 
ATOM     50  F   UNL A   1      43.321  24.147  24.490  1.00  0.00    -0.200 F 
ENDBRANCH  26  40
BRANCH  27  51
ATOM     51  C   UNL A   1      39.248  32.112  35.599  1.00  0.00     0.064 A 
ATOM     52  C   UNL A   1      39.700  33.429  35.794  1.00  0.00     0.173 A 
ATOM     53  C   UNL A   1      38.367  31.584  36.550  1.00  0.00     0.173 A 
ATOM     54  F   UNL A   1      40.545  33.987  34.914  1.00  0.00    -0.203 F 
ATOM     55  C   UNL A   1      39.323  34.167  36.915  1.00  0.00     0.198 A 
ATOM     56  C   UNL A   1      37.967  32.335  37.657  1.00  0.00     0.198 A 
ATOM     57  F   UNL A   1      37.890  30.340  36.403  1.00  0.00    -0.203 F 
ATOM     58  F   UNL A   1      39.815  35.400  37.100  1.00  0.00    -0.200 F 
ATOM     59  C   UNL A   1      38.455  33.619  37.844  1.00  0.00     0.200 A 
ATOM     60  F   UNL A   1      37.109  31.810  38.544  1.00  0.00    -0.200 F 
ATOM     61  F   UNL A   1      38.089  34.328  38.922  1.00  0.00    -0.200 F 
ENDBRANCH  27  51
BRANCH  39  62
ATOM     62  C   UNL A   1      44.513  27.588  34.608  1.00  0.00     0.064 A 
ATOM     63  C   UNL A   1      44.302  26.458  35.413  1.00  0.00     0.173 A 
ATOM     64  C   UNL A   1      45.711  28.297  34.758  1.00  0.00     0.173 A 
ATOM     65  F   UNL A   1      43.162  25.757  35.309  1.00  0.00    -0.203 F 
ATOM     66  C   UNL A   1      45.240  26.077  36.364  1.00  0.00     0.198 A 
ATOM     67  C   UNL A   1      46.663  27.891  35.687  1.00  0.00     0.198 A 
ATOM     68  F   UNL A   1      45.959  29.376  34.000  1.00  0.00    -0.203 F 
ATOM     69  F   UNL A   1      44.992  25.031  37.164  1.00  0.00    -0.200 F 
ATOM     70  C   UNL A   1      46.420  26.793  36.500  1.00  0.00     0.200 A 
ATOM     71  F   UNL A   1      47.814  28.569  35.803  1.00  0.00    -0.200 F 
ATOM     72  F   UNL A   1      47.323  26.425  37.419  1.00  0.00    -0.200 F 
ENDBRANCH  39  62
ENDBRANCH  13  14
ENDBRANCH   6   8
ENDBRANCH   5   6
ENDBRANCH   4   5
ENDBRANCH   3   4
ENDBRANCH   2   3
ENDBRANCH   1   2
BRANCH   1  73
ATOM     73  C   UNL A   1      33.188  26.322  22.945  1.00  0.00     0.261 C 
BRANCH  73  74
ATOM     74  O   UNL A   1      34.079  25.457  23.669  1.00  0.00    -0.460 OA
BRANCH  74  75
ATOM     75  C   UNL A   1      33.469  24.440  24.331  1.00  0.00     0.342 C 
ATOM     76  O   UNL A   1      32.272  24.319  24.523  1.00  0.00    -0.246 OA
BRANCH  75  77
ATOM     77  C   UNL A   1      34.502  23.483  24.767  1.00  0.00     0.103 A 
ATOM     78  C   UNL A   1      35.663  24.025  25.334  1.00  0.00     0.035 A 
ATOM     79  C   UNL A   1      34.371  22.092  24.600  1.00  0.00     0.134 A 
ATOM     80  C   UNL A   1      36.704  23.181  25.700  1.00  0.00     0.019 A 
ATOM     81  C   UNL A   1      35.425  21.256  24.976  1.00  0.00     0.048 A 
ATOM     82  Br  UNL A   1      38.297  23.925  26.388  1.00  0.00    -0.051 Br
ATOM     83  C   UNL A   1      36.590  21.802  25.526  1.00  0.00     0.019 A 
BRANCH  79  84
ATOM     84  O   UNL A   1      33.359  21.570  23.846  1.00  0.00    -0.488 OA
BRANCH  84  85
ATOM     85  C   UNL A   1      32.319  20.841  24.514  1.00  0.00     0.268 C 
BRANCH  85  86
ATOM     86  C   UNL A   1      32.531  19.358  24.387  1.00  0.00     0.025 A 
ATOM     87  C   UNL A   1      32.902  18.555  25.479  1.00  0.00     0.010 A 
ATOM     88  C   UNL A   1      32.475  18.775  23.120  1.00  0.00     0.129 A 
ATOM     89  C   UNL A   1      33.245  17.212  25.283  1.00  0.00     0.001 A 
ATOM     90  C   UNL A   1      32.835  17.448  22.915  1.00  0.00     0.039 A 
ATOM     91  F   UNL A   1      32.125  19.522  22.062  1.00  0.00    -0.207 F 
ATOM     92  C   UNL A   1      33.231  16.666  23.998  1.00  0.00     0.003 A 
ENDBRANCH  85  86
ENDBRANCH  84  85
ENDBRANCH  79  84
ENDBRANCH  75  77
ENDBRANCH  74  75
ENDBRANCH  73  74
ENDBRANCH   1  73
TORSDOF 17
ENDMDL
