MODEL 1
REMARK VINA RESULT:     -11.7      0.000      0.000
REMARK SMILES CCCC[C@H](C(=O)OCCOCCOC(=O)c1ccc(-c2c3nc(c(-c4c(F)c(F)c(F)c(F)c4F)c4ccc([nH]4)c(-c4c(F)c(F)c(F)c(F)c4F)c4nc(c(-c5c(F)c(F)c(F)c(F)c5F)c5ccc2[nH]5)C=C4)C=C3)cc1)N1C(=O)[C@H]2[C@@H]3C=C[C@@H]([C@@H]4C[C@H]34)[C@@H]2C1=O
REMARK SMILES IDX 10 1 9 2 8 3 6 4 7 5 5 6 4 7 3 8 2 9 1 10 80 11 81 12 92 13
REMARK SMILES IDX 82 14 83 15 91 16 93 17 84 18 87 19 85 20 90 21 86 22 88 23
REMARK SMILES IDX 89 24 11 25 12 26 13 27 14 28 15 29 16 30 17 31 18 32 79 33
REMARK SMILES IDX 19 34 78 35 20 36 21 37 22 38 72 39 23 40 77 41 71 42 73 43
REMARK SMILES IDX 24 44 76 45 70 46 69 47 25 49 57 50 37 51 56 52 38 53 41 54
REMARK SMILES IDX 55 55 74 56 39 57 40 58 54 60 75 61 42 62 26 63 27 64 35 65
REMARK SMILES IDX 28 66 29 67 33 68 36 69 30 70 31 71 34 72 32 73 58 74 59 75
REMARK SMILES IDX 67 76 60 77 61 78 65 79 68 80 62 81 63 82 66 83 64 84 43 85
REMARK SMILES IDX 44 86 52 87 45 88 46 89 50 90 53 91 47 92 48 93 51 94 49 95
REMARK H PARENT 73 48 41 59
REMARK Flexibility Score: inf
ROOT
ATOM      1  C   UNL A   1      31.024  30.442  25.118  1.00  0.00     0.202 C 
ENDROOT
BRANCH   1   2
ATOM      2  C   UNL A   1      32.131  29.459  25.529  1.00  0.00     0.261 C 
BRANCH   2   3
ATOM      3  O   UNL A   1      33.221  29.361  24.608  1.00  0.00    -0.462 OA
BRANCH   3   4
ATOM      4  C   UNL A   1      32.937  28.632  23.481  1.00  0.00     0.329 C 
ATOM      5  O   UNL A   1      33.204  28.991  22.344  1.00  0.00    -0.250 OA
BRANCH   4   6
ATOM      6  C   UNL A   1      32.273  27.316  23.872  1.00  0.00     0.203 C 
BRANCH   6   7
ATOM      7  C   UNL A   1      31.094  26.829  23.013  1.00  0.00     0.038 C 
BRANCH   7   8
ATOM      8  C   UNL A   1      29.679  27.295  23.370  1.00  0.00     0.002 C 
BRANCH   8   9
ATOM      9  C   UNL A   1      29.141  28.534  22.647  1.00  0.00    -0.003 C 
ATOM     10  C   UNL A   1      27.711  28.930  22.985  1.00  0.00     0.004 C 
ENDBRANCH   8   9
ENDBRANCH   7   8
ENDBRANCH   6   7
BRANCH   6  11
ATOM     11  N   UNL A   1      33.289  26.268  24.006  1.00  0.00    -0.268 N 
ATOM     12  C   UNL A   1      33.704  25.750  25.237  1.00  0.00     0.234 C 
ATOM     13  C   UNL A   1      33.801  25.535  22.924  1.00  0.00     0.234 C 
ATOM     14  O   UNL A   1      33.345  26.070  26.349  1.00  0.00    -0.274 OA
ATOM     15  C   UNL A   1      34.790  24.788  24.871  1.00  0.00     0.099 C 
ATOM     16  C   UNL A   1      34.193  24.257  23.570  1.00  0.00     0.099 C 
ATOM     17  O   UNL A   1      33.721  25.740  21.729  1.00  0.00    -0.274 OA
ATOM     18  C   UNL A   1      35.440  23.630  25.643  1.00  0.00     0.028 C 
ATOM     19  C   UNL A   1      34.952  23.011  23.138  1.00  0.00     0.028 C 
ATOM     20  C   UNL A   1      36.708  23.418  24.776  1.00  0.00    -0.026 C 
ATOM     21  C   UNL A   1      34.705  22.278  25.568  1.00  0.00     0.001 C 
ATOM     22  C   UNL A   1      36.445  23.161  23.472  1.00  0.00    -0.026 C 
ATOM     23  C   UNL A   1      34.422  21.893  24.106  1.00  0.00     0.001 C 
ATOM     24  C   UNL A   1      33.294  22.013  25.133  1.00  0.00     0.009 C 
ENDBRANCH   6  11
ENDBRANCH   4   6
ENDBRANCH   3   4
ENDBRANCH   2   3
ENDBRANCH   1   2
BRANCH   1  25
ATOM     25  O   UNL A   1      30.964  31.713  25.748  1.00  0.00    -0.374 OA
BRANCH  25  26
ATOM     26  C   UNL A   1      31.776  31.968  26.893  1.00  0.00     0.202 C 
BRANCH  26  27
ATOM     27  C   UNL A   1      32.162  33.413  27.215  1.00  0.00     0.261 C 
BRANCH  27  28
ATOM     28  O   UNL A   1      33.072  33.502  28.327  1.00  0.00    -0.460 OA
BRANCH  28  29
ATOM     29  C   UNL A   1      34.233  34.140  28.052  1.00  0.00     0.338 C 
ATOM     30  O   UNL A   1      34.390  35.310  27.745  1.00  0.00    -0.246 OA
BRANCH  29  31
ATOM     31  C   UNL A   1      35.371  33.251  28.322  1.00  0.00     0.060 A 
ATOM     32  C   UNL A   1      35.101  31.920  28.664  1.00  0.00     0.016 A 
ATOM     33  C   UNL A   1      36.666  33.765  28.397  1.00  0.00     0.016 A 
ATOM     34  C   UNL A   1      36.126  31.106  29.137  1.00  0.00     0.010 A 
ATOM     35  C   UNL A   1      37.690  32.951  28.884  1.00  0.00     0.010 A 
ATOM     36  C   UNL A   1      37.414  31.635  29.294  1.00  0.00    -0.014 A 
BRANCH  36  37
ATOM     37  C   UNL A   1      38.432  30.870  30.050  1.00  0.00     0.031 A 
ATOM     38  C   UNL A   1      38.634  31.179  31.506  1.00  0.00     0.074 A 
ATOM     39  C   UNL A   1      39.155  29.912  29.446  1.00  0.00     0.049 A 
ATOM     40  N   UNL A   1      39.515  30.696  32.345  1.00  0.00    -0.248 NA
ATOM     41  C   UNL A   1      37.718  32.168  32.099  1.00  0.00     0.031 C 
ATOM     42  C   UNL A   1      39.009  29.497  28.055  1.00  0.00     0.029 A 
ATOM     43  N   UNL A   1      40.167  29.124  29.932  1.00  0.00    -0.354 N 
ATOM     44  C   UNL A   1      39.267  31.328  33.556  1.00  0.00     0.074 A 
ATOM     45  C   UNL A   1      38.168  32.244  33.343  1.00  0.00     0.031 C 
ATOM     46  C   UNL A   1      39.915  28.541  27.789  1.00  0.00     0.029 A 
ATOM     47  C   UNL A   1      40.724  28.305  28.983  1.00  0.00     0.049 A 
ATOM     48  H   UNL A   1      40.465  29.145  30.870  1.00  0.00     0.167 HD
ATOM     49  C   UNL A   1      39.898  31.153  34.741  1.00  0.00     0.037 A 
ATOM     50  C   UNL A   1      41.787  27.483  29.067  1.00  0.00     0.037 A 
ATOM     51  C   UNL A   1      40.989  30.238  34.946  1.00  0.00     0.049 A 
ATOM     52  C   UNL A   1      42.521  27.360  30.377  1.00  0.00     0.074 A 
ATOM     53  C   UNL A   1      41.689  29.972  36.109  1.00  0.00     0.029 A 
ATOM     54  N   UNL A   1      41.545  29.443  33.954  1.00  0.00    -0.354 N 
ATOM     55  N   UNL A   1      42.272  27.947  31.523  1.00  0.00    -0.248 NA
ATOM     56  C   UNL A   1      43.684  26.463  30.404  1.00  0.00     0.031 C 
ATOM     57  C   UNL A   1      42.698  29.050  35.811  1.00  0.00     0.029 A 
ATOM     58  C   UNL A   1      42.595  28.705  34.472  1.00  0.00     0.049 A 
ATOM     59  H   UNL A   1      41.238  29.409  33.018  1.00  0.00     0.167 HD
ATOM     60  C   UNL A   1      43.227  27.471  32.412  1.00  0.00     0.074 A 
ATOM     61  C   UNL A   1      44.054  26.540  31.675  1.00  0.00     0.031 C 
ATOM     62  C   UNL A   1      43.400  27.775  33.722  1.00  0.00     0.037 A 
BRANCH  49  63
ATOM     63  C   UNL A   1      39.443  31.989  35.900  1.00  0.00     0.064 A 
ATOM     64  C   UNL A   1      38.422  31.562  36.762  1.00  0.00     0.173 A 
ATOM     65  C   UNL A   1      40.057  33.221  36.170  1.00  0.00     0.173 A 
ATOM     66  F   UNL A   1      37.793  30.398  36.539  1.00  0.00    -0.203 F 
ATOM     67  C   UNL A   1      38.019  32.347  37.839  1.00  0.00     0.198 A 
ATOM     68  C   UNL A   1      39.670  33.992  37.262  1.00  0.00     0.198 A 
ATOM     69  F   UNL A   1      41.040  33.675  35.377  1.00  0.00    -0.203 F 
ATOM     70  F   UNL A   1      37.014  31.939  38.626  1.00  0.00    -0.200 F 
ATOM     71  C   UNL A   1      38.647  33.558  38.092  1.00  0.00     0.200 A 
ATOM     72  F   UNL A   1      40.286  35.157  37.511  1.00  0.00    -0.200 F 
ATOM     73  F   UNL A   1      38.263  34.310  39.133  1.00  0.00    -0.200 F 
ENDBRANCH  49  63
BRANCH  50  74
ATOM     74  C   UNL A   1      42.233  26.725  27.869  1.00  0.00     0.064 A 
ATOM     75  C   UNL A   1      43.182  27.260  26.988  1.00  0.00     0.173 A 
ATOM     76  C   UNL A   1      41.712  25.456  27.577  1.00  0.00     0.173 A 
ATOM     77  F   UNL A   1      43.691  28.480  27.212  1.00  0.00    -0.203 F 
ATOM     78  C   UNL A   1      43.584  26.558  25.853  1.00  0.00     0.198 A 
ATOM     79  C   UNL A   1      42.134  24.745  26.456  1.00  0.00     0.198 A 
ATOM     80  F   UNL A   1      40.799  24.902  28.388  1.00  0.00    -0.203 F 
ATOM     81  F   UNL A   1      44.463  27.110  25.004  1.00  0.00    -0.200 F 
ATOM     82  C   UNL A   1      43.064  25.299  25.591  1.00  0.00     0.200 A 
ATOM     83  F   UNL A   1      41.637  23.524  26.214  1.00  0.00    -0.200 F 
ATOM     84  F   UNL A   1      43.454  24.625  24.501  1.00  0.00    -0.200 F 
ENDBRANCH  50  74
BRANCH  62  85
ATOM     85  C   UNL A   1      44.504  27.068  34.454  1.00  0.00     0.064 A 
ATOM     86  C   UNL A   1      45.782  27.630  34.575  1.00  0.00     0.173 A 
ATOM     87  C   UNL A   1      44.259  25.840  35.087  1.00  0.00     0.173 A 
ATOM     88  F   UNL A   1      46.068  28.795  33.976  1.00  0.00    -0.203 F 
ATOM     89  C   UNL A   1      46.783  26.978  35.291  1.00  0.00     0.198 A 
ATOM     90  C   UNL A   1      45.255  25.205  35.824  1.00  0.00     0.198 A 
ATOM     91  F   UNL A   1      43.050  25.266  35.004  1.00  0.00    -0.203 F 
ATOM     92  F   UNL A   1      48.010  27.512  35.363  1.00  0.00    -0.200 F 
ATOM     93  C   UNL A   1      46.517  25.771  35.921  1.00  0.00     0.200 A 
ATOM     94  F   UNL A   1      44.991  24.046  36.442  1.00  0.00    -0.200 F 
ATOM     95  F   UNL A   1      47.478  25.150  36.618  1.00  0.00    -0.200 F 
ENDBRANCH  62  85
ENDBRANCH  36  37
ENDBRANCH  29  31
ENDBRANCH  28  29
ENDBRANCH  27  28
ENDBRANCH  26  27
ENDBRANCH  25  26
ENDBRANCH   1  25
TORSDOF 18
ENDMDL
MODEL 2
REMARK VINA RESULT:     -11.6      3.054      8.603
REMARK SMILES CCCC[C@H](C(=O)OCCOCCOC(=O)c1ccc(-c2c3nc(c(-c4c(F)c(F)c(F)c(F)c4F)c4ccc([nH]4)c(-c4c(F)c(F)c(F)c(F)c4F)c4nc(c(-c5c(F)c(F)c(F)c(F)c5F)c5ccc2[nH]5)C=C4)C=C3)cc1)N1C(=O)[C@H]2[C@@H]3C=C[C@@H]([C@@H]4C[C@H]34)[C@@H]2C1=O
REMARK SMILES IDX 10 1 9 2 8 3 6 4 7 5 5 6 4 7 3 8 2 9 1 10 80 11 81 12 92 13
REMARK SMILES IDX 82 14 83 15 91 16 93 17 84 18 87 19 85 20 90 21 86 22 88 23
REMARK SMILES IDX 89 24 11 25 12 26 13 27 14 28 15 29 16 30 17 31 18 32 79 33
REMARK SMILES IDX 19 34 78 35 20 36 21 37 22 38 72 39 23 40 77 41 71 42 73 43
REMARK SMILES IDX 24 44 76 45 70 46 69 47 25 49 57 50 37 51 56 52 38 53 41 54
REMARK SMILES IDX 55 55 74 56 39 57 40 58 54 60 75 61 42 62 26 63 27 64 35 65
REMARK SMILES IDX 28 66 29 67 33 68 36 69 30 70 31 71 34 72 32 73 58 74 59 75
REMARK SMILES IDX 67 76 60 77 61 78 65 79 68 80 62 81 63 82 66 83 64 84 43 85
REMARK SMILES IDX 44 86 52 87 45 88 46 89 50 90 53 91 47 92 48 93 51 94 49 95
REMARK H PARENT 73 48 41 59
REMARK Flexibility Score: inf
ROOT
ATOM      1  C   UNL A   1      39.627  21.126  25.833  1.00  0.00     0.202 C 
ENDROOT
BRANCH   1   2
ATOM      2  C   UNL A   1      38.512  22.170  25.995  1.00  0.00     0.261 C 
BRANCH   2   3
ATOM      3  O   UNL A   1      37.297  21.865  25.304  1.00  0.00    -0.462 OA
BRANCH   3   4
ATOM      4  C   UNL A   1      36.636  22.965  24.820  1.00  0.00     0.329 C 
ATOM      5  O   UNL A   1      37.096  24.097  24.810  1.00  0.00    -0.250 OA
BRANCH   4   6
ATOM      6  C   UNL A   1      35.271  22.548  24.281  1.00  0.00     0.203 C 
BRANCH   6   7
ATOM      7  C   UNL A   1      34.699  21.200  24.753  1.00  0.00     0.038 C 
BRANCH   7   8
ATOM      8  C   UNL A   1      33.380  20.708  24.150  1.00  0.00     0.002 C 
BRANCH   8   9
ATOM      9  C   UNL A   1      32.218  20.448  25.114  1.00  0.00    -0.003 C 
ATOM     10  C   UNL A   1      31.382  21.663  25.488  1.00  0.00     0.004 C 
ENDBRANCH   8   9
ENDBRANCH   7   8
ENDBRANCH   6   7
BRANCH   6  11
ATOM     11  N   UNL A   1      34.303  23.628  24.495  1.00  0.00    -0.268 N 
ATOM     12  C   UNL A   1      33.853  24.021  25.759  1.00  0.00     0.234 C 
ATOM     13  C   UNL A   1      33.883  24.510  23.487  1.00  0.00     0.234 C 
ATOM     14  O   UNL A   1      34.140  23.555  26.839  1.00  0.00    -0.274 OA
ATOM     15  C   UNL A   1      32.836  25.078  25.463  1.00  0.00     0.099 C 
ATOM     16  C   UNL A   1      33.523  25.724  24.261  1.00  0.00     0.099 C 
ATOM     17  O   UNL A   1      34.012  24.441  22.280  1.00  0.00    -0.274 OA
ATOM     18  C   UNL A   1      32.207  26.172  26.339  1.00  0.00     0.028 C 
ATOM     19  C   UNL A   1      32.849  27.051  23.948  1.00  0.00     0.028 C 
ATOM     20  C   UNL A   1      30.995  26.554  25.448  1.00  0.00    -0.026 C 
ATOM     21  C   UNL A   1      33.011  27.481  26.456  1.00  0.00     0.001 C 
ATOM     22  C   UNL A   1      31.336  26.946  24.197  1.00  0.00    -0.026 C 
ATOM     23  C   UNL A   1      33.385  28.018  25.065  1.00  0.00     0.001 C 
ATOM     24  C   UNL A   1      34.453  27.717  26.118  1.00  0.00     0.009 C 
ENDBRANCH   6  11
ENDBRANCH   4   6
ENDBRANCH   3   4
ENDBRANCH   2   3
ENDBRANCH   1   2
BRANCH   1  25
ATOM     25  O   UNL A   1      40.739  21.165  26.716  1.00  0.00    -0.374 OA
BRANCH  25  26
ATOM     26  C   UNL A   1      41.990  20.622  26.294  1.00  0.00     0.202 C 
BRANCH  26  27
ATOM     27  C   UNL A   1      43.055  21.571  25.743  1.00  0.00     0.261 C 
BRANCH  27  28
ATOM     28  O   UNL A   1      42.481  22.719  25.090  1.00  0.00    -0.460 OA
BRANCH  28  29
ATOM     29  C   UNL A   1      43.248  23.833  25.139  1.00  0.00     0.338 C 
ATOM     30  O   UNL A   1      44.292  24.050  24.547  1.00  0.00    -0.246 OA
BRANCH  29  31
ATOM     31  C   UNL A   1      42.568  24.878  25.917  1.00  0.00     0.060 A 
ATOM     32  C   UNL A   1      43.184  26.132  26.016  1.00  0.00     0.016 A 
ATOM     33  C   UNL A   1      41.433  24.573  26.668  1.00  0.00     0.016 A 
ATOM     34  C   UNL A   1      42.693  27.076  26.914  1.00  0.00     0.010 A 
ATOM     35  C   UNL A   1      40.949  25.515  27.576  1.00  0.00     0.010 A 
ATOM     36  C   UNL A   1      41.603  26.750  27.732  1.00  0.00    -0.014 A 
BRANCH  36  37
ATOM     37  C   UNL A   1      41.254  27.630  28.870  1.00  0.00     0.031 A 
ATOM     38  C   UNL A   1      42.069  27.540  30.129  1.00  0.00     0.074 A 
ATOM     39  C   UNL A   1      40.234  28.499  28.776  1.00  0.00     0.049 A 
ATOM     40  N   UNL A   1      41.902  28.152  31.274  1.00  0.00    -0.248 NA
ATOM     41  C   UNL A   1      43.231  26.636  30.093  1.00  0.00     0.031 C 
ATOM     42  C   UNL A   1      39.409  28.705  27.589  1.00  0.00     0.029 A 
ATOM     43  N   UNL A   1      39.713  29.363  29.706  1.00  0.00    -0.354 N 
ATOM     44  C   UNL A   1      42.927  27.700  32.095  1.00  0.00     0.074 A 
ATOM     45  C   UNL A   1      43.700  26.749  31.327  1.00  0.00     0.031 C 
ATOM     46  C   UNL A   1      38.469  29.623  27.866  1.00  0.00     0.029 A 
ATOM     47  C   UNL A   1      38.607  30.042  29.260  1.00  0.00     0.049 A 
ATOM     48  H   UNL A   1      40.095  29.483  30.604  1.00  0.00     0.167 HD
ATOM     49  C   UNL A   1      43.199  28.054  33.373  1.00  0.00     0.037 A 
ATOM     50  C   UNL A   1      37.786  30.881  29.918  1.00  0.00     0.037 A 
ATOM     51  C   UNL A   1      42.426  29.004  34.128  1.00  0.00     0.049 A 
ATOM     52  C   UNL A   1      38.066  31.203  31.362  1.00  0.00     0.074 A 
ATOM     53  C   UNL A   1      42.625  29.446  35.424  1.00  0.00     0.029 A 
ATOM     54  N   UNL A   1      41.295  29.652  33.653  1.00  0.00    -0.354 N 
ATOM     55  N   UNL A   1      39.045  30.787  32.128  1.00  0.00    -0.248 NA
ATOM     56  C   UNL A   1      37.124  32.110  32.034  1.00  0.00     0.031 C 
ATOM     57  C   UNL A   1      41.589  30.327  35.749  1.00  0.00     0.029 A 
ATOM     58  C   UNL A   1      40.772  30.472  34.638  1.00  0.00     0.049 A 
ATOM     59  H   UNL A   1      40.920  29.545  32.748  1.00  0.00     0.167 HD
ATOM     60  C   UNL A   1      38.856  31.400  33.360  1.00  0.00     0.074 A 
ATOM     61  C   UNL A   1      37.672  32.224  33.237  1.00  0.00     0.031 C 
ATOM     62  C   UNL A   1      39.597  31.292  34.491  1.00  0.00     0.037 A 
BRANCH  49  63
ATOM     63  C   UNL A   1      44.365  27.391  34.043  1.00  0.00     0.064 A 
ATOM     64  C   UNL A   1      44.233  26.163  34.709  1.00  0.00     0.173 A 
ATOM     65  C   UNL A   1      45.639  27.975  33.992  1.00  0.00     0.173 A 
ATOM     66  F   UNL A   1      43.033  25.569  34.799  1.00  0.00    -0.203 F 
ATOM     67  C   UNL A   1      45.329  25.557  35.317  1.00  0.00     0.198 A 
ATOM     68  C   UNL A   1      46.738  27.354  34.578  1.00  0.00     0.198 A 
ATOM     69  F   UNL A   1      45.820  29.149  33.366  1.00  0.00    -0.203 F 
ATOM     70  F   UNL A   1      45.172  24.404  35.984  1.00  0.00    -0.200 F 
ATOM     71  C   UNL A   1      46.581  26.149  35.246  1.00  0.00     0.200 A 
ATOM     72  F   UNL A   1      47.949  27.924  34.500  1.00  0.00    -0.200 F 
ATOM     73  F   UNL A   1      47.637  25.561  35.827  1.00  0.00    -0.200 F 
ENDBRANCH  49  63
BRANCH  50  74
ATOM     74  C   UNL A   1      36.609  31.461  29.221  1.00  0.00     0.064 A 
ATOM     75  C   UNL A   1      35.522  30.659  28.848  1.00  0.00     0.173 A 
ATOM     76  C   UNL A   1      36.551  32.827  28.908  1.00  0.00     0.173 A 
ATOM     77  F   UNL A   1      35.542  29.343  29.104  1.00  0.00    -0.203 F 
ATOM     78  C   UNL A   1      34.428  31.199  28.175  1.00  0.00     0.198 A 
ATOM     79  C   UNL A   1      35.444  33.371  28.258  1.00  0.00     0.198 A 
ATOM     80  F   UNL A   1      37.566  33.637  29.242  1.00  0.00    -0.203 F 
ATOM     81  F   UNL A   1      33.420  30.403  27.792  1.00  0.00    -0.200 F 
ATOM     82  C   UNL A   1      34.387  32.555  27.886  1.00  0.00     0.200 A 
ATOM     83  F   UNL A   1      35.405  34.684  27.992  1.00  0.00    -0.200 F 
ATOM     84  F   UNL A   1      33.333  33.074  27.243  1.00  0.00    -0.200 F 
ENDBRANCH  50  74
BRANCH  62  85
ATOM     85  C   UNL A   1      39.173  32.113  35.674  1.00  0.00     0.064 A 
ATOM     86  C   UNL A   1      38.311  31.599  36.653  1.00  0.00     0.173 A 
ATOM     87  C   UNL A   1      39.681  33.409  35.854  1.00  0.00     0.173 A 
ATOM     88  F   UNL A   1      37.789  30.372  36.517  1.00  0.00    -0.203 F 
ATOM     89  C   UNL A   1      37.959  32.361  37.764  1.00  0.00     0.198 A 
ATOM     90  C   UNL A   1      39.348  34.156  36.981  1.00  0.00     0.198 A 
ATOM     91  F   UNL A   1      40.513  33.941  34.948  1.00  0.00    -0.203 F 
ATOM     92  F   UNL A   1      37.104  31.867  38.670  1.00  0.00    -0.200 F 
ATOM     93  C   UNL A   1      38.484  33.634  37.931  1.00  0.00     0.200 A 
ATOM     94  F   UNL A   1      39.866  35.381  37.146  1.00  0.00    -0.200 F 
ATOM     95  F   UNL A   1      38.152  34.362  39.007  1.00  0.00    -0.200 F 
ENDBRANCH  62  85
ENDBRANCH  36  37
ENDBRANCH  29  31
ENDBRANCH  28  29
ENDBRANCH  27  28
ENDBRANCH  26  27
ENDBRANCH  25  26
ENDBRANCH   1  25
TORSDOF 18
ENDMDL
MODEL 3
REMARK VINA RESULT:     -11.5      1.486      2.309
REMARK SMILES CCCC[C@H](C(=O)OCCOCCOC(=O)c1ccc(-c2c3nc(c(-c4c(F)c(F)c(F)c(F)c4F)c4ccc([nH]4)c(-c4c(F)c(F)c(F)c(F)c4F)c4nc(c(-c5c(F)c(F)c(F)c(F)c5F)c5ccc2[nH]5)C=C4)C=C3)cc1)N1C(=O)[C@H]2[C@@H]3C=C[C@@H]([C@@H]4C[C@H]34)[C@@H]2C1=O
REMARK SMILES IDX 10 1 9 2 8 3 6 4 7 5 5 6 4 7 3 8 2 9 1 10 80 11 81 12 92 13
REMARK SMILES IDX 82 14 83 15 91 16 93 17 84 18 87 19 85 20 90 21 86 22 88 23
REMARK SMILES IDX 89 24 11 25 12 26 13 27 14 28 15 29 16 30 17 31 18 32 79 33
REMARK SMILES IDX 19 34 78 35 20 36 21 37 22 38 72 39 23 40 77 41 71 42 73 43
REMARK SMILES IDX 24 44 76 45 70 46 69 47 25 49 57 50 37 51 56 52 38 53 41 54
REMARK SMILES IDX 55 55 74 56 39 57 40 58 54 60 75 61 42 62 26 63 27 64 35 65
REMARK SMILES IDX 28 66 29 67 33 68 36 69 30 70 31 71 34 72 32 73 58 74 59 75
REMARK SMILES IDX 67 76 60 77 61 78 65 79 68 80 62 81 63 82 66 83 64 84 43 85
REMARK SMILES IDX 44 86 52 87 45 88 46 89 50 90 53 91 47 92 48 93 51 94 49 95
REMARK H PARENT 73 48 41 59
REMARK Flexibility Score: inf
ROOT
ATOM      1  C   UNL A   1      31.929  30.403  26.856  1.00  0.00     0.202 C 
ENDROOT
BRANCH   1   2
ATOM      2  C   UNL A   1      31.895  29.684  25.499  1.00  0.00     0.261 C 
BRANCH   2   3
ATOM      3  O   UNL A   1      33.144  29.648  24.805  1.00  0.00    -0.462 OA
BRANCH   3   4
ATOM      4  C   UNL A   1      33.114  28.936  23.632  1.00  0.00     0.329 C 
ATOM      5  O   UNL A   1      33.650  29.294  22.595  1.00  0.00    -0.250 OA
BRANCH   4   6
ATOM      6  C   UNL A   1      32.341  27.638  23.839  1.00  0.00     0.203 C 
BRANCH   6   7
ATOM      7  C   UNL A   1      31.244  27.290  22.818  1.00  0.00     0.038 C 
BRANCH   7   8
ATOM      8  C   UNL A   1      29.777  27.459  23.226  1.00  0.00     0.002 C 
BRANCH   8   9
ATOM      9  C   UNL A   1      29.087  28.774  22.849  1.00  0.00    -0.003 C 
ATOM     10  C   UNL A   1      29.911  29.737  22.007  1.00  0.00     0.004 C 
ENDBRANCH   8   9
ENDBRANCH   7   8
ENDBRANCH   6   7
BRANCH   6  11
ATOM     11  N   UNL A   1      33.278  26.522  23.998  1.00  0.00    -0.268 N 
ATOM     12  C   UNL A   1      33.620  25.972  25.237  1.00  0.00     0.234 C 
ATOM     13  C   UNL A   1      33.770  25.758  22.927  1.00  0.00     0.234 C 
ATOM     14  O   UNL A   1      33.251  26.312  26.340  1.00  0.00    -0.274 OA
ATOM     15  C   UNL A   1      34.648  24.939  24.898  1.00  0.00     0.099 C 
ATOM     16  C   UNL A   1      34.055  24.454  23.577  1.00  0.00     0.099 C 
ATOM     17  O   UNL A   1      33.740  25.973  21.731  1.00  0.00    -0.274 OA
ATOM     18  C   UNL A   1      35.193  23.737  25.683  1.00  0.00     0.028 C 
ATOM     19  C   UNL A   1      34.739  23.161  23.161  1.00  0.00     0.028 C 
ATOM     20  C   UNL A   1      36.469  23.440  24.852  1.00  0.00    -0.026 C 
ATOM     21  C   UNL A   1      34.370  22.439  25.579  1.00  0.00     0.001 C 
ATOM     22  C   UNL A   1      36.228  23.206  23.540  1.00  0.00    -0.026 C 
ATOM     23  C   UNL A   1      34.105  22.078  24.108  1.00  0.00     0.001 C 
ATOM     24  C   UNL A   1      32.958  22.272  25.102  1.00  0.00     0.009 C 
ENDBRANCH   6  11
ENDBRANCH   4   6
ENDBRANCH   3   4
ENDBRANCH   2   3
ENDBRANCH   1   2
BRANCH   1  25
ATOM     25  O   UNL A   1      33.181  30.614  27.492  1.00  0.00    -0.374 OA
BRANCH  25  26
ATOM     26  C   UNL A   1      33.656  31.945  27.684  1.00  0.00     0.202 C 
BRANCH  26  27
ATOM     27  C   UNL A   1      32.741  33.114  27.310  1.00  0.00     0.261 C 
BRANCH  27  28
ATOM     28  O   UNL A   1      32.245  33.812  28.467  1.00  0.00    -0.460 OA
BRANCH  28  29
ATOM     29  C   UNL A   1      32.952  34.916  28.802  1.00  0.00     0.338 C 
ATOM     30  O   UNL A   1      32.669  36.082  28.581  1.00  0.00    -0.246 OA
BRANCH  29  31
ATOM     31  C   UNL A   1      34.100  34.543  29.640  1.00  0.00     0.060 A 
ATOM     32  C   UNL A   1      35.382  34.641  29.083  1.00  0.00     0.016 A 
ATOM     33  C   UNL A   1      33.901  33.953  30.888  1.00  0.00     0.016 A 
ATOM     34  C   UNL A   1      36.472  34.096  29.756  1.00  0.00     0.010 A 
ATOM     35  C   UNL A   1      34.993  33.397  31.556  1.00  0.00     0.010 A 
ATOM     36  C   UNL A   1      36.272  33.430  30.972  1.00  0.00    -0.014 A 
BRANCH  36  37
ATOM     37  C   UNL A   1      37.366  32.615  31.548  1.00  0.00     0.031 A 
ATOM     38  C   UNL A   1      37.891  32.970  32.910  1.00  0.00     0.074 A 
ATOM     39  C   UNL A   1      37.873  31.573  30.869  1.00  0.00     0.049 A 
ATOM     40  N   UNL A   1      38.890  32.452  33.578  1.00  0.00    -0.248 NA
ATOM     41  C   UNL A   1      37.196  34.060  33.616  1.00  0.00     0.031 C 
ATOM     42  C   UNL A   1      37.407  31.110  29.565  1.00  0.00     0.029 A 
ATOM     43  N   UNL A   1      38.903  30.723  31.184  1.00  0.00    -0.354 N 
ATOM     44  C   UNL A   1      38.950  33.156  34.773  1.00  0.00     0.074 A 
ATOM     45  C   UNL A   1      37.902  34.153  34.734  1.00  0.00     0.031 C 
ATOM     46  C   UNL A   1      38.163  30.068  29.179  1.00  0.00     0.029 A 
ATOM     47  C   UNL A   1      39.185  29.818  30.193  1.00  0.00     0.049 A 
ATOM     48  H   UNL A   1      39.391  30.760  32.037  1.00  0.00     0.167 HD
ATOM     49  C   UNL A   1      39.801  32.982  35.811  1.00  0.00     0.037 A 
ATOM     50  C   UNL A   1      40.178  28.912  30.108  1.00  0.00     0.037 A 
ATOM     51  C   UNL A   1      40.839  31.986  35.843  1.00  0.00     0.049 A 
ATOM     52  C   UNL A   1      41.159  28.786  31.244  1.00  0.00     0.074 A 
ATOM     53  C   UNL A   1      41.746  31.713  36.852  1.00  0.00     0.029 A 
ATOM     54  N   UNL A   1      41.114  31.103  34.809  1.00  0.00    -0.354 N 
ATOM     55  N   UNL A   1      41.200  29.443  32.378  1.00  0.00    -0.248 NA
ATOM     56  C   UNL A   1      42.232  27.794  31.086  1.00  0.00     0.031 C 
ATOM     57  C   UNL A   1      42.598  30.696  36.410  1.00  0.00     0.029 A 
ATOM     58  C   UNL A   1      42.191  30.301  35.145  1.00  0.00     0.049 A 
ATOM     59  H   UNL A   1      40.616  31.053  33.960  1.00  0.00     0.167 HD
ATOM     60  C   UNL A   1      42.282  28.927  33.080  1.00  0.00     0.074 A 
ATOM     61  C   UNL A   1      42.865  27.896  32.247  1.00  0.00     0.031 C 
ATOM     62  C   UNL A   1      42.749  29.274  34.304  1.00  0.00     0.037 A 
BRANCH  49  63
ATOM     63  C   UNL A   1      39.663  33.905  36.985  1.00  0.00     0.064 A 
ATOM     64  C   UNL A   1      38.901  33.558  38.111  1.00  0.00     0.173 A 
ATOM     65  C   UNL A   1      40.326  35.140  36.997  1.00  0.00     0.173 A 
ATOM     66  F   UNL A   1      38.235  32.393  38.143  1.00  0.00    -0.203 F 
ATOM     67  C   UNL A   1      38.792  34.424  39.196  1.00  0.00     0.198 A 
ATOM     68  C   UNL A   1      40.236  35.993  38.094  1.00  0.00     0.198 A 
ATOM     69  F   UNL A   1      41.069  35.520  35.945  1.00  0.00    -0.203 F 
ATOM     70  F   UNL A   1      38.026  34.090  40.244  1.00  0.00    -0.200 F 
ATOM     71  C   UNL A   1      39.464  35.637  39.189  1.00  0.00     0.200 A 
ATOM     72  F   UNL A   1      40.895  37.161  38.089  1.00  0.00    -0.200 F 
ATOM     73  F   UNL A   1      39.364  36.467  40.237  1.00  0.00    -0.200 F 
ENDBRANCH  49  63
BRANCH  50  74
ATOM     74  C   UNL A   1      40.304  28.066  28.893  1.00  0.00     0.064 A 
ATOM     75  C   UNL A   1      39.673  26.818  28.812  1.00  0.00     0.173 A 
ATOM     76  C   UNL A   1      41.065  28.486  27.792  1.00  0.00     0.173 A 
ATOM     77  F   UNL A   1      38.955  26.363  29.849  1.00  0.00    -0.203 F 
ATOM     78  C   UNL A   1      39.810  26.015  27.681  1.00  0.00     0.198 A 
ATOM     79  C   UNL A   1      41.179  27.694  26.651  1.00  0.00     0.198 A 
ATOM     80  F   UNL A   1      41.690  29.672  27.820  1.00  0.00    -0.203 F 
ATOM     81  F   UNL A   1      39.230  24.807  27.646  1.00  0.00    -0.200 F 
ATOM     82  C   UNL A   1      40.557  26.456  26.599  1.00  0.00     0.200 A 
ATOM     83  F   UNL A   1      41.893  28.131  25.604  1.00  0.00    -0.200 F 
ATOM     84  F   UNL A   1      40.685  25.686  25.511  1.00  0.00    -0.200 F 
ENDBRANCH  50  74
BRANCH  62  85
ATOM     85  C   UNL A   1      43.926  28.508  34.836  1.00  0.00     0.064 A 
ATOM     86  C   UNL A   1      45.239  28.970  34.669  1.00  0.00     0.173 A 
ATOM     87  C   UNL A   1      43.729  27.327  35.568  1.00  0.00     0.173 A 
ATOM     88  F   UNL A   1      45.478  30.086  33.966  1.00  0.00    -0.203 F 
ATOM     89  C   UNL A   1      46.316  28.267  35.203  1.00  0.00     0.198 A 
ATOM     90  C   UNL A   1      44.807  26.642  36.123  1.00  0.00     0.198 A 
ATOM     91  F   UNL A   1      42.492  26.848  35.759  1.00  0.00    -0.203 F 
ATOM     92  F   UNL A   1      47.566  28.704  35.000  1.00  0.00    -0.200 F 
ATOM     93  C   UNL A   1      46.099  27.109  35.935  1.00  0.00     0.200 A 
ATOM     94  F   UNL A   1      44.593  25.531  36.840  1.00  0.00    -0.200 F 
ATOM     95  F   UNL A   1      47.136  26.439  36.457  1.00  0.00    -0.200 F 
ENDBRANCH  62  85
ENDBRANCH  36  37
ENDBRANCH  29  31
ENDBRANCH  28  29
ENDBRANCH  27  28
ENDBRANCH  26  27
ENDBRANCH  25  26
ENDBRANCH   1  25
TORSDOF 18
ENDMDL
