MODEL 1
REMARK VINA RESULT:     -13.0      0.000      0.000
REMARK SMILES CC1=Nc2c(c(C)nn2-c2ccc(F)cc2)[C@H](c2ccc(C(=O)OCCOCCOC(=O)c3ccc(-c4c5nc(c(-c6c(F)c(F)c(F)c(F)c6F)c6ccc([nH]6)c(-c6c(F)c(F)c(F)c(F)c6F)c6nc(c(-c7c(F)c(F)c(F)c(F)c7F)c7ccc4[nH]7)C=C6)C=C5)cc3)cc2)S1
REMARK SMILES IDX 27 1 26 2 25 3 24 4 22 5 23 6 21 7 18 8 19 9 97 10 20 11
REMARK SMILES IDX 96 12 17 13 1 14 2 15 3 16 98 17 4 18 5 19 9 20 6 21 8 22
REMARK SMILES IDX 7 23 10 24 11 25 16 26 12 27 15 28 13 29 14 30 28 31 29 32
REMARK SMILES IDX 30 33 31 34 32 35 33 36 34 37 95 38 35 39 94 40 36 41 37 42
REMARK SMILES IDX 38 43 88 44 39 45 93 46 87 47 89 48 40 49 92 50 86 51 85 52
REMARK SMILES IDX 41 54 73 55 53 56 72 57 54 58 57 59 71 60 90 61 55 62 56 63
REMARK SMILES IDX 70 65 91 66 58 67 42 68 43 69 51 70 44 71 45 72 49 73 52 74
REMARK SMILES IDX 46 75 47 76 50 77 48 78 74 79 75 80 83 81 76 82 77 83 81 84
REMARK SMILES IDX 84 85 78 86 79 87 82 88 80 89 59 90 60 91 68 92 61 93 62 94
REMARK SMILES IDX 66 95 69 96 63 97 64 98 67 99 65 100
REMARK H PARENT 89 53 57 64
REMARK Flexibility Score: inf
ROOT
ATOM      1  O   UNL A   1      35.182  34.348  28.766  1.00  0.00    -0.374 OA
ENDROOT
BRANCH   1   2
ATOM      2  C   UNL A   1      35.108  33.151  27.995  1.00  0.00     0.202 C 
BRANCH   2   3
ATOM      3  C   UNL A   1      34.084  32.080  28.378  1.00  0.00     0.261 C 
BRANCH   3   4
ATOM      4  O   UNL A   1      33.917  31.072  27.367  1.00  0.00    -0.460 OA
BRANCH   4   5
ATOM      5  C   UNL A   1      32.627  30.905  26.983  1.00  0.00     0.338 C 
ATOM      6  O   UNL A   1      31.761  31.765  26.960  1.00  0.00    -0.246 OA
BRANCH   5   7
ATOM      7  C   UNL A   1      32.392  29.562  26.410  1.00  0.00     0.060 A 
ATOM      8  C   UNL A   1      31.583  27.162  25.159  1.00  0.00    -0.030 A 
ATOM      9  C   UNL A   1      31.795  28.336  24.416  1.00  0.00     0.006 A 
ATOM     10  C   UNL A   1      31.884  27.199  26.537  1.00  0.00     0.006 A 
ATOM     11  C   UNL A   1      32.205  29.514  25.027  1.00  0.00     0.016 A 
ATOM     12  C   UNL A   1      32.276  28.396  27.166  1.00  0.00     0.016 A 
BRANCH   8  13
ATOM     13  C   UNL A   1      30.948  25.975  24.440  1.00  0.00     0.119 C 
ATOM     14  C   UNL A   1      29.643  23.283  27.305  1.00  0.00     0.075 C 
ATOM     15  C   UNL A   1      30.352  23.832  26.096  1.00  0.00     0.074 C 
ATOM     16  N   UNL A   1      31.429  23.235  25.699  1.00  0.00    -0.227 NA
ATOM     17  S   UNL A   1      29.559  25.202  25.335  1.00  0.00    -0.098 SA
ATOM     18  C   UNL A   1      32.108  23.762  24.654  1.00  0.00     0.161 A 
ATOM     19  C   UNL A   1      32.006  25.007  24.076  1.00  0.00     0.038 A 
ATOM     20  N   UNL A   1      33.134  23.104  23.996  1.00  0.00    -0.215 N 
ATOM     21  C   UNL A   1      33.033  25.027  23.091  1.00  0.00     0.067 A 
ATOM     22  N   UNL A   1      33.792  23.924  23.141  1.00  0.00    -0.171 NA
ATOM     23  C   UNL A   1      33.350  26.068  22.079  1.00  0.00     0.069 C 
BRANCH  20  24
ATOM     24  C   UNL A   1      33.493  21.744  24.129  1.00  0.00     0.067 A 
ATOM     25  C   UNL A   1      32.606  20.745  23.695  1.00  0.00     0.031 A 
ATOM     26  C   UNL A   1      34.714  21.409  24.723  1.00  0.00     0.031 A 
ATOM     27  C   UNL A   1      32.937  19.404  23.880  1.00  0.00     0.041 A 
ATOM     28  C   UNL A   1      35.009  20.064  24.954  1.00  0.00     0.041 A 
ATOM     29  C   UNL A   1      34.122  19.077  24.529  1.00  0.00     0.123 A 
ATOM     30  F   UNL A   1      34.411  17.790  24.755  1.00  0.00    -0.207 F 
ENDBRANCH  20  24
ENDBRANCH   8  13
ENDBRANCH   5   7
ENDBRANCH   4   5
ENDBRANCH   3   4
ENDBRANCH   2   3
ENDBRANCH   1   2
BRANCH   1  31
ATOM     31  C   UNL A   1      34.203  35.370  28.617  1.00  0.00     0.202 C 
BRANCH  31  32
ATOM     32  C   UNL A   1      33.197  35.587  29.738  1.00  0.00     0.261 C 
BRANCH  32  33
ATOM     33  O   UNL A   1      33.329  34.616  30.762  1.00  0.00    -0.460 OA
BRANCH  33  34
ATOM     34  C   UNL A   1      33.665  35.136  31.965  1.00  0.00     0.338 C 
ATOM     35  O   UNL A   1      33.317  36.200  32.438  1.00  0.00    -0.246 OA
BRANCH  34  36
ATOM     36  C   UNL A   1      34.686  34.273  32.566  1.00  0.00     0.060 A 
ATOM     37  C   UNL A   1      35.888  34.906  32.881  1.00  0.00     0.016 A 
ATOM     38  C   UNL A   1      34.585  32.885  32.397  1.00  0.00     0.016 A 
ATOM     39  C   UNL A   1      37.046  34.188  32.720  1.00  0.00     0.010 A 
ATOM     40  C   UNL A   1      35.742  32.176  32.210  1.00  0.00     0.010 A 
ATOM     41  C   UNL A   1      36.948  32.867  32.271  1.00  0.00    -0.014 A 
BRANCH  41  42
ATOM     42  C   UNL A   1      38.172  32.162  31.980  1.00  0.00     0.031 A 
ATOM     43  C   UNL A   1      38.975  31.967  33.203  1.00  0.00     0.074 A 
ATOM     44  C   UNL A   1      38.457  31.679  30.758  1.00  0.00     0.049 A 
ATOM     45  N   UNL A   1      40.075  32.562  33.516  1.00  0.00    -0.248 NA
ATOM     46  C   UNL A   1      38.360  31.207  34.305  1.00  0.00     0.031 C 
ATOM     47  C   UNL A   1      37.595  31.612  29.576  1.00  0.00     0.029 A 
ATOM     48  N   UNL A   1      39.590  31.052  30.344  1.00  0.00    -0.354 N 
ATOM     49  C   UNL A   1      40.404  32.070  34.772  1.00  0.00     0.074 A 
ATOM     50  C   UNL A   1      39.216  31.456  35.295  1.00  0.00     0.031 C 
ATOM     51  C   UNL A   1      38.152  30.781  28.663  1.00  0.00     0.029 A 
ATOM     52  C   UNL A   1      39.461  30.371  29.138  1.00  0.00     0.049 A 
ATOM     53  H   UNL A   1      40.431  31.078  30.855  1.00  0.00     0.167 HD
ATOM     54  C   UNL A   1      41.707  31.922  35.127  1.00  0.00     0.037 A 
ATOM     55  C   UNL A   1      40.355  29.469  28.654  1.00  0.00     0.037 A 
ATOM     56  C   UNL A   1      42.558  32.741  34.299  1.00  0.00     0.049 A 
ATOM     57  C   UNL A   1      41.645  29.722  29.352  1.00  0.00     0.074 A 
ATOM     58  C   UNL A   1      42.668  34.097  34.062  1.00  0.00     0.029 A 
ATOM     59  N   UNL A   1      43.213  32.125  33.262  1.00  0.00    -0.354 N 
ATOM     60  N   UNL A   1      42.356  30.803  29.188  1.00  0.00    -0.248 NA
ATOM     61  C   UNL A   1      41.892  28.991  30.587  1.00  0.00     0.031 C 
ATOM     62  C   UNL A   1      42.979  34.211  32.676  1.00  0.00     0.029 A 
ATOM     63  C   UNL A   1      43.111  32.923  32.154  1.00  0.00     0.049 A 
ATOM     64  H   UNL A   1      43.677  31.257  33.306  1.00  0.00     0.167 HD
ATOM     65  C   UNL A   1      42.813  31.121  30.461  1.00  0.00     0.074 A 
ATOM     66  C   UNL A   1      42.553  29.931  31.268  1.00  0.00     0.031 C 
ATOM     67  C   UNL A   1      43.080  32.415  30.803  1.00  0.00     0.037 A 
BRANCH  54  68
ATOM     68  C   UNL A   1      42.224  30.724  35.890  1.00  0.00     0.064 A 
ATOM     69  C   UNL A   1      42.065  29.379  35.483  1.00  0.00     0.173 A 
ATOM     70  C   UNL A   1      43.181  30.937  36.901  1.00  0.00     0.173 A 
ATOM     71  F   UNL A   1      41.266  29.012  34.476  1.00  0.00    -0.203 F 
ATOM     72  C   UNL A   1      42.820  28.339  36.019  1.00  0.00     0.198 A 
ATOM     73  C   UNL A   1      43.975  29.899  37.395  1.00  0.00     0.198 A 
ATOM     74  F   UNL A   1      43.429  32.174  37.355  1.00  0.00    -0.203 F 
ATOM     75  F   UNL A   1      42.644  27.094  35.555  1.00  0.00    -0.200 F 
ATOM     76  C   UNL A   1      43.799  28.604  36.949  1.00  0.00     0.200 A 
ATOM     77  F   UNL A   1      44.963  30.175  38.256  1.00  0.00    -0.200 F 
ATOM     78  F   UNL A   1      44.601  27.620  37.373  1.00  0.00    -0.200 F 
ENDBRANCH  54  68
BRANCH  55  79
ATOM     79  C   UNL A   1      40.083  28.180  27.967  1.00  0.00     0.064 A 
ATOM     80  C   UNL A   1      39.426  27.119  28.620  1.00  0.00     0.173 A 
ATOM     81  C   UNL A   1      40.738  27.857  26.765  1.00  0.00     0.173 A 
ATOM     82  F   UNL A   1      38.832  27.303  29.807  1.00  0.00    -0.203 F 
ATOM     83  C   UNL A   1      39.454  25.814  28.124  1.00  0.00     0.198 A 
ATOM     84  C   UNL A   1      40.771  26.546  26.272  1.00  0.00     0.198 A 
ATOM     85  F   UNL A   1      41.427  28.796  26.099  1.00  0.00    -0.203 F 
ATOM     86  F   UNL A   1      38.872  24.827  28.821  1.00  0.00    -0.200 F 
ATOM     87  C   UNL A   1      40.141  25.525  26.960  1.00  0.00     0.200 A 
ATOM     88  F   UNL A   1      41.471  26.266  25.163  1.00  0.00    -0.200 F 
ATOM     89  F   UNL A   1      40.233  24.259  26.529  1.00  0.00    -0.200 F 
ENDBRANCH  55  79
BRANCH  67  90
ATOM     90  C   UNL A   1      43.133  33.437  29.702  1.00  0.00     0.064 A 
ATOM     91  C   UNL A   1      44.381  33.722  29.135  1.00  0.00     0.173 A 
ATOM     92  C   UNL A   1      42.048  34.248  29.324  1.00  0.00     0.173 A 
ATOM     93  F   UNL A   1      45.460  33.011  29.497  1.00  0.00    -0.203 F 
ATOM     94  C   UNL A   1      44.545  34.777  28.242  1.00  0.00     0.198 A 
ATOM     95  C   UNL A   1      42.208  35.280  28.399  1.00  0.00     0.198 A 
ATOM     96  F   UNL A   1      40.842  34.094  29.887  1.00  0.00    -0.203 F 
ATOM     97  F   UNL A   1      45.767  35.064  27.771  1.00  0.00    -0.200 F 
ATOM     98  C   UNL A   1      43.459  35.551  27.870  1.00  0.00     0.200 A 
ATOM     99  F   UNL A   1      41.160  36.041  28.052  1.00  0.00    -0.200 F 
ATOM    100  F   UNL A   1      43.626  36.578  27.024  1.00  0.00    -0.200 F 
ENDBRANCH  67  90
ENDBRANCH  41  42
ENDBRANCH  34  36
ENDBRANCH  33  34
ENDBRANCH  32  33
ENDBRANCH  31  32
ENDBRANCH   1  31
TORSDOF 16
ENDMDL
MODEL 2
REMARK VINA RESULT:     -12.9      2.310      3.458
REMARK SMILES CC1=Nc2c(c(C)nn2-c2ccc(F)cc2)[C@H](c2ccc(C(=O)OCCOCCOC(=O)c3ccc(-c4c5nc(c(-c6c(F)c(F)c(F)c(F)c6F)c6ccc([nH]6)c(-c6c(F)c(F)c(F)c(F)c6F)c6nc(c(-c7c(F)c(F)c(F)c(F)c7F)c7ccc4[nH]7)C=C6)C=C5)cc3)cc2)S1
REMARK SMILES IDX 27 1 26 2 25 3 24 4 22 5 23 6 21 7 18 8 19 9 97 10 20 11
REMARK SMILES IDX 96 12 17 13 1 14 2 15 3 16 98 17 4 18 5 19 9 20 6 21 8 22
REMARK SMILES IDX 7 23 10 24 11 25 16 26 12 27 15 28 13 29 14 30 28 31 29 32
REMARK SMILES IDX 30 33 31 34 32 35 33 36 34 37 95 38 35 39 94 40 36 41 37 42
REMARK SMILES IDX 38 43 88 44 39 45 93 46 87 47 89 48 40 49 92 50 86 51 85 52
REMARK SMILES IDX 41 54 73 55 53 56 72 57 54 58 57 59 71 60 90 61 55 62 56 63
REMARK SMILES IDX 70 65 91 66 58 67 42 68 43 69 51 70 44 71 45 72 49 73 52 74
REMARK SMILES IDX 46 75 47 76 50 77 48 78 74 79 75 80 83 81 76 82 77 83 81 84
REMARK SMILES IDX 84 85 78 86 79 87 82 88 80 89 59 90 60 91 68 92 61 93 62 94
REMARK SMILES IDX 66 95 69 96 63 97 64 98 67 99 65 100
REMARK H PARENT 89 53 57 64
REMARK Flexibility Score: inf
ROOT
ATOM      1  O   UNL A   1      32.952  34.440  29.428  1.00  0.00    -0.374 OA
ENDROOT
BRANCH   1   2
ATOM      2  C   UNL A   1      33.482  34.067  28.158  1.00  0.00     0.202 C 
BRANCH   2   3
ATOM      3  C   UNL A   1      34.235  32.741  28.025  1.00  0.00     0.261 C 
BRANCH   3   4
ATOM      4  O   UNL A   1      33.367  31.619  27.798  1.00  0.00    -0.460 OA
BRANCH   4   5
ATOM      5  C   UNL A   1      34.006  30.539  27.283  1.00  0.00     0.338 C 
ATOM      6  O   UNL A   1      35.188  30.266  27.416  1.00  0.00    -0.246 OA
BRANCH   5   7
ATOM      7  C   UNL A   1      33.064  29.590  26.654  1.00  0.00     0.060 A 
ATOM      8  C   UNL A   1      31.611  27.560  25.331  1.00  0.00    -0.030 A 
ATOM      9  C   UNL A   1      32.469  27.261  26.403  1.00  0.00     0.006 A 
ATOM     10  C   UNL A   1      31.426  28.920  25.003  1.00  0.00     0.006 A 
ATOM     11  C   UNL A   1      33.175  28.259  27.063  1.00  0.00     0.016 A 
ATOM     12  C   UNL A   1      32.156  29.933  25.652  1.00  0.00     0.016 A 
BRANCH   8  13
ATOM     13  C   UNL A   1      31.032  26.389  24.541  1.00  0.00     0.119 C 
ATOM     14  C   UNL A   1      29.593  23.601  27.246  1.00  0.00     0.075 C 
ATOM     15  C   UNL A   1      30.365  24.192  26.097  1.00  0.00     0.074 C 
ATOM     16  N   UNL A   1      31.471  23.618  25.748  1.00  0.00    -0.227 NA
ATOM     17  S   UNL A   1      29.603  25.576  25.331  1.00  0.00    -0.098 SA
ATOM     18  C   UNL A   1      32.203  24.181  24.760  1.00  0.00     0.161 A 
ATOM     19  C   UNL A   1      32.121  25.442  24.213  1.00  0.00     0.038 A 
ATOM     20  N   UNL A   1      33.274  23.553  24.144  1.00  0.00    -0.215 N 
ATOM     21  C   UNL A   1      33.204  25.501  23.291  1.00  0.00     0.067 A 
ATOM     22  N   UNL A   1      33.971  24.404  23.354  1.00  0.00    -0.171 NA
ATOM     23  C   UNL A   1      33.567  26.575  22.330  1.00  0.00     0.069 C 
BRANCH  20  24
ATOM     24  C   UNL A   1      33.639  22.193  24.260  1.00  0.00     0.067 A 
ATOM     25  C   UNL A   1      32.730  21.194  23.877  1.00  0.00     0.031 A 
ATOM     26  C   UNL A   1      34.892  21.859  24.784  1.00  0.00     0.031 A 
ATOM     27  C   UNL A   1      33.071  19.853  24.045  1.00  0.00     0.041 A 
ATOM     28  C   UNL A   1      35.200  20.515  25.001  1.00  0.00     0.041 A 
ATOM     29  C   UNL A   1      34.290  19.528  24.627  1.00  0.00     0.123 A 
ATOM     30  F   UNL A   1      34.592  18.241  24.839  1.00  0.00    -0.207 F 
ENDBRANCH  20  24
ENDBRANCH   8  13
ENDBRANCH   5   7
ENDBRANCH   4   5
ENDBRANCH   3   4
ENDBRANCH   2   3
ENDBRANCH   1   2
BRANCH   1  31
ATOM     31  C   UNL A   1      33.772  35.086  30.395  1.00  0.00     0.202 C 
BRANCH  31  32
ATOM     32  C   UNL A   1      34.438  34.240  31.470  1.00  0.00     0.261 C 
BRANCH  32  33
ATOM     33  O   UNL A   1      35.611  33.605  30.993  1.00  0.00    -0.460 OA
BRANCH  33  34
ATOM     34  C   UNL A   1      35.805  32.366  31.502  1.00  0.00     0.338 C 
ATOM     35  O   UNL A   1      35.477  31.953  32.596  1.00  0.00    -0.246 OA
BRANCH  34  36
ATOM     36  C   UNL A   1      36.651  31.617  30.568  1.00  0.00     0.060 A 
ATOM     37  C   UNL A   1      36.523  30.230  30.633  1.00  0.00     0.016 A 
ATOM     38  C   UNL A   1      37.777  32.247  30.018  1.00  0.00     0.016 A 
ATOM     39  C   UNL A   1      37.653  29.478  30.435  1.00  0.00     0.010 A 
ATOM     40  C   UNL A   1      38.910  31.499  29.847  1.00  0.00     0.010 A 
ATOM     41  C   UNL A   1      38.853  30.144  30.161  1.00  0.00    -0.014 A 
BRANCH  41  42
ATOM     42  C   UNL A   1      40.058  29.358  30.082  1.00  0.00     0.031 A 
ATOM     43  C   UNL A   1      40.674  29.198  31.413  1.00  0.00     0.074 A 
ATOM     44  C   UNL A   1      40.476  28.784  28.939  1.00  0.00     0.049 A 
ATOM     45  N   UNL A   1      41.757  29.751  31.843  1.00  0.00    -0.248 NA
ATOM     46  C   UNL A   1      39.870  28.543  32.459  1.00  0.00     0.031 C 
ATOM     47  C   UNL A   1      39.779  28.689  27.655  1.00  0.00     0.029 A 
ATOM     48  N   UNL A   1      41.614  28.072  28.722  1.00  0.00    -0.354 N 
ATOM     49  C   UNL A   1      41.881  29.323  33.158  1.00  0.00     0.074 A 
ATOM     50  C   UNL A   1      40.598  28.807  33.544  1.00  0.00     0.031 C 
ATOM     51  C   UNL A   1      40.403  27.774  26.875  1.00  0.00     0.029 A 
ATOM     52  C   UNL A   1      41.607  27.324  27.550  1.00  0.00     0.049 A 
ATOM     53  H   UNL A   1      42.377  28.085  29.343  1.00  0.00     0.167 HD
ATOM     54  C   UNL A   1      43.113  29.127  33.698  1.00  0.00     0.037 A 
ATOM     55  C   UNL A   1      42.500  26.347  27.244  1.00  0.00     0.037 A 
ATOM     56  C   UNL A   1      44.118  29.845  32.953  1.00  0.00     0.049 A 
ATOM     57  C   UNL A   1      43.698  26.574  28.100  1.00  0.00     0.074 A 
ATOM     58  C   UNL A   1      44.342  31.176  32.658  1.00  0.00     0.029 A 
ATOM     59  N   UNL A   1      44.868  29.130  32.051  1.00  0.00    -0.354 N 
ATOM     60  N   UNL A   1      44.490  27.602  27.978  1.00  0.00    -0.248 NA
ATOM     61  C   UNL A   1      43.729  25.910  29.396  1.00  0.00     0.031 C 
ATOM     62  C   UNL A   1      44.845  31.185  31.325  1.00  0.00     0.029 A 
ATOM     63  C   UNL A   1      44.966  29.862  30.898  1.00  0.00     0.049 A 
ATOM     64  H   UNL A   1      45.266  28.243  32.207  1.00  0.00     0.167 HD
ATOM     65  C   UNL A   1      44.789  27.974  29.282  1.00  0.00     0.074 A 
ATOM     66  C   UNL A   1      44.349  26.854  30.109  1.00  0.00     0.031 C 
ATOM     67  C   UNL A   1      45.087  29.271  29.586  1.00  0.00     0.037 A 
BRANCH  54  68
ATOM     68  C   UNL A   1      43.446  27.953  34.590  1.00  0.00     0.064 A 
ATOM     69  C   UNL A   1      43.656  28.035  35.986  1.00  0.00     0.173 A 
ATOM     70  C   UNL A   1      43.244  26.653  34.088  1.00  0.00     0.173 A 
ATOM     71  F   UNL A   1      43.776  29.197  36.637  1.00  0.00    -0.203 F 
ATOM     72  C   UNL A   1      43.635  26.917  36.814  1.00  0.00     0.198 A 
ATOM     73  C   UNL A   1      43.167  25.541  34.930  1.00  0.00     0.198 A 
ATOM     74  F   UNL A   1      43.019  26.454  32.781  1.00  0.00    -0.203 F 
ATOM     75  F   UNL A   1      43.800  27.076  38.135  1.00  0.00    -0.200 F 
ATOM     76  C   UNL A   1      43.355  25.675  36.292  1.00  0.00     0.200 A 
ATOM     77  F   UNL A   1      42.837  24.348  34.421  1.00  0.00    -0.200 F 
ATOM     78  F   UNL A   1      43.219  24.623  37.108  1.00  0.00    -0.200 F 
ENDBRANCH  54  68
BRANCH  55  79
ATOM     79  C   UNL A   1      42.245  25.033  26.598  1.00  0.00     0.064 A 
ATOM     80  C   UNL A   1      41.452  24.047  27.218  1.00  0.00     0.173 A 
ATOM     81  C   UNL A   1      43.027  24.606  25.510  1.00  0.00     0.173 A 
ATOM     82  F   UNL A   1      40.725  24.332  28.306  1.00  0.00    -0.203 F 
ATOM     83  C   UNL A   1      41.469  22.715  26.800  1.00  0.00     0.198 A 
ATOM     84  C   UNL A   1      43.047  23.268  25.097  1.00  0.00     0.198 A 
ATOM     85  F   UNL A   1      43.846  25.469  24.889  1.00  0.00    -0.203 F 
ATOM     86  F   UNL A   1      40.749  21.802  27.469  1.00  0.00    -0.200 F 
ATOM     87  C   UNL A   1      42.279  22.322  25.751  1.00  0.00     0.200 A 
ATOM     88  F   UNL A   1      43.864  22.887  24.104  1.00  0.00    -0.200 F 
ATOM     89  F   UNL A   1      42.352  21.030  25.404  1.00  0.00    -0.200 F 
ENDBRANCH  55  79
BRANCH  67  90
ATOM     90  C   UNL A   1      45.352  30.217  28.449  1.00  0.00     0.064 A 
ATOM     91  C   UNL A   1      46.687  30.491  28.123  1.00  0.00     0.173 A 
ATOM     92  C   UNL A   1      44.359  30.977  27.805  1.00  0.00     0.173 A 
ATOM     93  F   UNL A   1      47.677  29.829  28.743  1.00  0.00    -0.203 F 
ATOM     94  C   UNL A   1      47.018  31.486  27.209  1.00  0.00     0.198 A 
ATOM     95  C   UNL A   1      44.693  31.947  26.860  1.00  0.00     0.198 A 
ATOM     96  F   UNL A   1      43.066  30.835  28.125  1.00  0.00    -0.203 F 
ATOM     97  F   UNL A   1      48.307  31.767  26.973  1.00  0.00    -0.200 F 
ATOM     98  C   UNL A   1      46.023  32.210  26.574  1.00  0.00     0.200 A 
ATOM     99  F   UNL A   1      43.730  32.660  26.257  1.00  0.00    -0.200 F 
ATOM    100  F   UNL A   1      46.348  33.180  25.708  1.00  0.00    -0.200 F 
ENDBRANCH  67  90
ENDBRANCH  41  42
ENDBRANCH  34  36
ENDBRANCH  33  34
ENDBRANCH  32  33
ENDBRANCH  31  32
ENDBRANCH   1  31
TORSDOF 16
ENDMDL
MODEL 3
REMARK VINA RESULT:     -12.8      2.680      4.176
REMARK SMILES CC1=Nc2c(c(C)nn2-c2ccc(F)cc2)[C@H](c2ccc(C(=O)OCCOCCOC(=O)c3ccc(-c4c5nc(c(-c6c(F)c(F)c(F)c(F)c6F)c6ccc([nH]6)c(-c6c(F)c(F)c(F)c(F)c6F)c6nc(c(-c7c(F)c(F)c(F)c(F)c7F)c7ccc4[nH]7)C=C6)C=C5)cc3)cc2)S1
REMARK SMILES IDX 27 1 26 2 25 3 24 4 22 5 23 6 21 7 18 8 19 9 97 10 20 11
REMARK SMILES IDX 96 12 17 13 1 14 2 15 3 16 98 17 4 18 5 19 9 20 6 21 8 22
REMARK SMILES IDX 7 23 10 24 11 25 16 26 12 27 15 28 13 29 14 30 28 31 29 32
REMARK SMILES IDX 30 33 31 34 32 35 33 36 34 37 95 38 35 39 94 40 36 41 37 42
REMARK SMILES IDX 38 43 88 44 39 45 93 46 87 47 89 48 40 49 92 50 86 51 85 52
REMARK SMILES IDX 41 54 73 55 53 56 72 57 54 58 57 59 71 60 90 61 55 62 56 63
REMARK SMILES IDX 70 65 91 66 58 67 42 68 43 69 51 70 44 71 45 72 49 73 52 74
REMARK SMILES IDX 46 75 47 76 50 77 48 78 74 79 75 80 83 81 76 82 77 83 81 84
REMARK SMILES IDX 84 85 78 86 79 87 82 88 80 89 59 90 60 91 68 92 61 93 62 94
REMARK SMILES IDX 66 95 69 96 63 97 64 98 67 99 65 100
REMARK H PARENT 89 53 57 64
REMARK Flexibility Score: inf
ROOT
ATOM      1  O   UNL A   1      33.692  30.784  27.387  1.00  0.00    -0.374 OA
ENDROOT
BRANCH   1   2
ATOM      2  C   UNL A   1      32.476  30.259  26.861  1.00  0.00     0.202 C 
BRANCH   2   3
ATOM      3  C   UNL A   1      32.371  29.982  25.359  1.00  0.00     0.261 C 
BRANCH   3   4
ATOM      4  O   UNL A   1      31.013  29.896  24.894  1.00  0.00    -0.460 OA
BRANCH   4   5
ATOM      5  C   UNL A   1      30.843  28.997  23.894  1.00  0.00     0.338 C 
ATOM      6  O   UNL A   1      30.390  29.225  22.783  1.00  0.00    -0.246 OA
BRANCH   5   7
ATOM      7  C   UNL A   1      31.436  27.684  24.226  1.00  0.00     0.060 A 
ATOM      8  C   UNL A   1      32.697  25.360  25.222  1.00  0.00    -0.030 A 
ATOM      9  C   UNL A   1      31.646  25.976  25.922  1.00  0.00     0.006 A 
ATOM     10  C   UNL A   1      33.035  25.886  23.957  1.00  0.00     0.006 A 
ATOM     11  C   UNL A   1      31.016  27.112  25.429  1.00  0.00     0.016 A 
ATOM     12  C   UNL A   1      32.417  27.051  23.463  1.00  0.00     0.016 A 
BRANCH   8  13
ATOM     13  C   UNL A   1      33.457  24.241  25.929  1.00  0.00     0.119 C 
ATOM     14  C   UNL A   1      36.734  23.241  23.601  1.00  0.00     0.075 C 
ATOM     15  C   UNL A   1      35.467  23.094  24.401  1.00  0.00     0.074 C 
ATOM     16  N   UNL A   1      34.681  22.107  24.120  1.00  0.00    -0.227 NA
ATOM     17  S   UNL A   1      35.264  24.279  25.682  1.00  0.00    -0.098 SA
ATOM     18  C   UNL A   1      33.510  22.007  24.791  1.00  0.00     0.161 A 
ATOM     19  C   UNL A   1      32.855  22.940  25.561  1.00  0.00     0.038 A 
ATOM     20  N   UNL A   1      32.694  20.888  24.747  1.00  0.00    -0.215 N 
ATOM     21  C   UNL A   1      31.631  22.309  25.922  1.00  0.00     0.067 A 
ATOM     22  N   UNL A   1      31.488  21.122  25.317  1.00  0.00    -0.171 NA
ATOM     23  C   UNL A   1      30.555  22.785  26.829  1.00  0.00     0.069 C 
BRANCH  20  24
ATOM     24  C   UNL A   1      33.020  19.620  24.215  1.00  0.00     0.067 A 
ATOM     25  C   UNL A   1      34.095  18.895  24.755  1.00  0.00     0.031 A 
ATOM     26  C   UNL A   1      32.288  19.118  23.135  1.00  0.00     0.031 A 
ATOM     27  C   UNL A   1      34.451  17.671  24.192  1.00  0.00     0.041 A 
ATOM     28  C   UNL A   1      32.689  17.919  22.543  1.00  0.00     0.041 A 
ATOM     29  C   UNL A   1      33.762  17.208  23.077  1.00  0.00     0.123 A 
ATOM     30  F   UNL A   1      34.141  16.059  22.504  1.00  0.00    -0.207 F 
ENDBRANCH  20  24
ENDBRANCH   8  13
ENDBRANCH   5   7
ENDBRANCH   4   5
ENDBRANCH   3   4
ENDBRANCH   2   3
ENDBRANCH   1   2
BRANCH   1  31
ATOM     31  C   UNL A   1      33.802  32.162  27.724  1.00  0.00     0.202 C 
BRANCH  31  32
ATOM     32  C   UNL A   1      35.169  32.718  28.094  1.00  0.00     0.261 C 
BRANCH  32  33
ATOM     33  O   UNL A   1      35.923  31.798  28.864  1.00  0.00    -0.460 OA
BRANCH  33  34
ATOM     34  C   UNL A   1      35.900  32.053  30.193  1.00  0.00     0.338 C 
ATOM     35  O   UNL A   1      35.318  32.953  30.767  1.00  0.00    -0.246 OA
BRANCH  34  36
ATOM     36  C   UNL A   1      36.855  31.153  30.847  1.00  0.00     0.060 A 
ATOM     37  C   UNL A   1      38.042  31.751  31.267  1.00  0.00     0.016 A 
ATOM     38  C   UNL A   1      36.738  29.772  30.636  1.00  0.00     0.016 A 
ATOM     39  C   UNL A   1      39.193  31.011  31.175  1.00  0.00     0.010 A 
ATOM     40  C   UNL A   1      37.890  29.041  30.519  1.00  0.00     0.010 A 
ATOM     41  C   UNL A   1      39.102  29.703  30.688  1.00  0.00    -0.014 A 
BRANCH  41  42
ATOM     42  C   UNL A   1      40.329  28.977  30.472  1.00  0.00     0.031 A 
ATOM     43  C   UNL A   1      41.075  28.810  31.734  1.00  0.00     0.074 A 
ATOM     44  C   UNL A   1      40.663  28.456  29.277  1.00  0.00     0.049 A 
ATOM     45  N   UNL A   1      42.167  29.403  32.079  1.00  0.00    -0.248 NA
ATOM     46  C   UNL A   1      40.403  28.089  32.829  1.00  0.00     0.031 C 
ATOM     47  C   UNL A   1      39.853  28.364  28.061  1.00  0.00     0.029 A 
ATOM     48  N   UNL A   1      41.806  27.806  28.933  1.00  0.00    -0.354 N 
ATOM     49  C   UNL A   1      42.434  28.944  33.362  1.00  0.00     0.074 A 
ATOM     50  C   UNL A   1      41.218  28.357  33.849  1.00  0.00     0.031 C 
ATOM     51  C   UNL A   1      40.441  27.501  27.198  1.00  0.00     0.029 A 
ATOM     52  C   UNL A   1      41.722  27.091  27.743  1.00  0.00     0.049 A 
ATOM     53  H   UNL A   1      42.623  27.838  29.480  1.00  0.00     0.167 HD
ATOM     54  C   UNL A   1      43.719  28.792  33.779  1.00  0.00     0.037 A 
ATOM     55  C   UNL A   1      42.626  26.166  27.324  1.00  0.00     0.037 A 
ATOM     56  C   UNL A   1      44.615  29.578  32.967  1.00  0.00     0.049 A 
ATOM     57  C   UNL A   1      43.887  26.427  28.072  1.00  0.00     0.074 A 
ATOM     58  C   UNL A   1      44.751  30.926  32.696  1.00  0.00     0.029 A 
ATOM     59  N   UNL A   1      45.308  28.925  31.977  1.00  0.00    -0.354 N 
ATOM     60  N   UNL A   1      44.617  27.495  27.909  1.00  0.00    -0.248 NA
ATOM     61  C   UNL A   1      44.070  25.729  29.337  1.00  0.00     0.031 C 
ATOM     62  C   UNL A   1      45.125  30.997  31.322  1.00  0.00     0.029 A 
ATOM     63  C   UNL A   1      45.265  29.693  30.844  1.00  0.00     0.049 A 
ATOM     64  H   UNL A   1      45.759  28.055  32.067  1.00  0.00     0.167 HD
ATOM     65  C   UNL A   1      45.021  27.845  29.191  1.00  0.00     0.074 A 
ATOM     66  C   UNL A   1      44.712  26.682  30.019  1.00  0.00     0.031 C 
ATOM     67  C   UNL A   1      45.287  29.145  29.508  1.00  0.00     0.037 A 
BRANCH  54  68
ATOM     68  C   UNL A   1      44.188  27.612  34.598  1.00  0.00     0.064 A 
ATOM     69  C   UNL A   1      44.523  27.665  35.971  1.00  0.00     0.173 A 
ATOM     70  C   UNL A   1      43.999  26.318  34.075  1.00  0.00     0.173 A 
ATOM     71  F   UNL A   1      44.651  28.812  36.644  1.00  0.00    -0.203 F 
ATOM     72  C   UNL A   1      44.631  26.524  36.761  1.00  0.00     0.198 A 
ATOM     73  C   UNL A   1      44.052  25.181  34.884  1.00  0.00     0.198 A 
ATOM     74  F   UNL A   1      43.661  26.145  32.789  1.00  0.00    -0.203 F 
ATOM     75  F   UNL A   1      44.912  26.654  38.065  1.00  0.00    -0.200 F 
ATOM     76  C   UNL A   1      44.360  25.285  36.226  1.00  0.00     0.200 A 
ATOM     77  F   UNL A   1      43.730  23.987  34.369  1.00  0.00    -0.200 F 
ATOM     78  F   UNL A   1      44.349  24.205  37.017  1.00  0.00    -0.200 F 
ENDBRANCH  54  68
BRANCH  55  79
ATOM     79  C   UNL A   1      42.370  24.861  26.663  1.00  0.00     0.064 A 
ATOM     80  C   UNL A   1      41.618  23.849  27.292  1.00  0.00     0.173 A 
ATOM     81  C   UNL A   1      43.119  24.468  25.539  1.00  0.00     0.173 A 
ATOM     82  F   UNL A   1      40.927  24.100  28.412  1.00  0.00    -0.203 F 
ATOM     83  C   UNL A   1      41.643  22.525  26.849  1.00  0.00     0.198 A 
ATOM     84  C   UNL A   1      43.148  23.139  25.099  1.00  0.00     0.198 A 
ATOM     85  F   UNL A   1      43.898  25.357  24.904  1.00  0.00    -0.203 F 
ATOM     86  F   UNL A   1      40.965  21.586  27.525  1.00  0.00    -0.200 F 
ATOM     87  C   UNL A   1      42.421  22.167  25.763  1.00  0.00     0.200 A 
ATOM     88  F   UNL A   1      43.933  22.791  24.070  1.00  0.00    -0.200 F 
ATOM     89  F   UNL A   1      42.505  20.883  25.389  1.00  0.00    -0.200 F 
ENDBRANCH  55  79
BRANCH  67  90
ATOM     90  C   UNL A   1      45.401  30.134  28.382  1.00  0.00     0.064 A 
ATOM     91  C   UNL A   1      46.685  30.528  27.985  1.00  0.00     0.173 A 
ATOM     92  C   UNL A   1      44.309  30.819  27.818  1.00  0.00     0.173 A 
ATOM     93  F   UNL A   1      47.764  29.942  28.527  1.00  0.00    -0.203 F 
ATOM     94  C   UNL A   1      46.875  31.567  27.078  1.00  0.00     0.198 A 
ATOM     95  C   UNL A   1      44.502  31.834  26.881  1.00  0.00     0.198 A 
ATOM     96  F   UNL A   1      43.055  30.560  28.211  1.00  0.00    -0.203 F 
ATOM     97  F   UNL A   1      48.118  31.962  26.774  1.00  0.00    -0.200 F 
ATOM     98  C   UNL A   1      45.785  32.216  26.523  1.00  0.00     0.200 A 
ATOM     99  F   UNL A   1      43.447  32.474  26.355  1.00  0.00    -0.200 F 
ATOM    100  F   UNL A   1      45.972  33.228  25.664  1.00  0.00    -0.200 F 
ENDBRANCH  67  90
ENDBRANCH  41  42
ENDBRANCH  34  36
ENDBRANCH  33  34
ENDBRANCH  32  33
ENDBRANCH  31  32
ENDBRANCH   1  31
TORSDOF 16
ENDMDL
