MODEL 1
REMARK VINA RESULT:     -12.8      0.000      0.000
REMARK SMILES COc1ccc(-n2c(SCc3cn(-c4ccc(C(=O)OCCOCCOC(=O)c5ccc(-c6c7nc(c(-c8c(F)c(F)c(F)c(F)c8F)c8ccc([nH]8)c(-c8c(F)c(F)c(F)c(F)c8F)c8nc(c(-c9c(F)c(F)c(F)c(F)c9F)c9ccc6[nH]9)C=C8)C=C7)cc5)cc4)nn3)nc3ccccc3c2=O)cc1
REMARK SMILES IDX 21 1 20 2 18 3 19 4 17 5 14 6 15 7 93 8 16 9 92 10 13 11
REMARK SMILES IDX 11 12 12 13 95 14 94 15 10 16 9 17 8 18 7 19 103 20 96 21
REMARK SMILES IDX 102 22 104 23 97 24 101 25 98 26 100 27 99 28 6 29 3 30 4 31
REMARK SMILES IDX 106 32 5 33 105 34 2 35 1 36 22 37 23 38 24 39 25 40 26 41
REMARK SMILES IDX 27 42 28 43 29 44 30 45 91 46 31 47 90 48 32 49 33 50 34 51
REMARK SMILES IDX 84 52 35 53 89 54 83 55 85 56 36 57 88 58 82 59 81 60 37 62
REMARK SMILES IDX 69 63 49 64 68 65 50 66 53 67 67 68 86 69 51 70 52 71 66 73
REMARK SMILES IDX 87 74 54 75 38 76 39 77 47 78 40 79 41 80 45 81 48 82 42 83
REMARK SMILES IDX 43 84 46 85 44 86 70 87 71 88 79 89 72 90 73 91 77 92 80 93
REMARK SMILES IDX 74 94 75 95 78 96 76 97 55 98 56 99 64 100 57 101 58 102
REMARK SMILES IDX 62 103 65 104 59 105 60 106 63 107 61 108
REMARK H PARENT 85 61 53 72
REMARK Flexibility Score: inf
ROOT
ATOM      1  C   UNL A   1      31.641  30.047  24.906  1.00  0.00     0.261 C 
ENDROOT
BRANCH   1   2
ATOM      2  O   UNL A   1      30.381  29.740  24.310  1.00  0.00    -0.460 OA
BRANCH   2   3
ATOM      3  C   UNL A   1      30.467  29.266  23.055  1.00  0.00     0.338 C 
ATOM      4  O   UNL A   1      30.643  29.901  22.014  1.00  0.00    -0.246 OA
BRANCH   3   5
ATOM      5  C   UNL A   1      30.502  27.807  23.104  1.00  0.00     0.060 A 
ATOM      6  C   UNL A   1      30.698  25.146  23.545  1.00  0.00     0.066 A 
ATOM      7  C   UNL A   1      29.548  25.780  24.000  1.00  0.00     0.029 A 
ATOM      8  C   UNL A   1      31.671  25.768  22.753  1.00  0.00     0.029 A 
ATOM      9  C   UNL A   1      29.476  27.145  23.805  1.00  0.00     0.018 A 
ATOM     10  C   UNL A   1      31.557  27.115  22.505  1.00  0.00     0.018 A 
BRANCH   6  11
ATOM     11  N   UNL A   1      31.029  23.915  24.076  1.00  0.00    -0.220 N 
ATOM     12  C   UNL A   1      31.792  22.443  25.427  1.00  0.00     0.093 A 
ATOM     13  C   UNL A   1      31.167  23.654  25.408  1.00  0.00     0.141 A 
ATOM     14  N   UNL A   1      31.896  21.986  24.144  1.00  0.00    -0.134 NA
ATOM     15  N   UNL A   1      31.325  22.852  23.330  1.00  0.00    -0.062 NA
BRANCH  12  16
ATOM     16  C   UNL A   1      32.395  21.748  26.565  1.00  0.00     0.138 C 
BRANCH  16  17
ATOM     17  S   UNL A   1      34.170  21.880  26.484  1.00  0.00    -0.081 SA
BRANCH  17  18
ATOM     18  C   UNL A   1      34.602  21.292  24.817  1.00  0.00     0.176 A 
ATOM     19  N   UNL A   1      35.108  20.001  24.798  1.00  0.00    -0.255 N 
ATOM     20  C   UNL A   1      36.487  19.882  24.916  1.00  0.00     0.266 A 
ATOM     21  N   UNL A   1      35.197  22.205  24.103  1.00  0.00    -0.223 NA
ATOM     22  C   UNL A   1      37.187  21.198  25.071  1.00  0.00     0.066 A 
ATOM     23  O   UNL A   1      37.127  18.837  24.947  1.00  0.00    -0.268 OA
ATOM     24  C   UNL A   1      36.527  22.335  24.559  1.00  0.00     0.079 A 
ATOM     25  C   UNL A   1      38.282  21.340  25.918  1.00  0.00     0.016 A 
ATOM     26  C   UNL A   1      37.019  23.611  24.826  1.00  0.00     0.029 A 
ATOM     27  C   UNL A   1      38.711  22.628  26.254  1.00  0.00     0.001 A 
ATOM     28  C   UNL A   1      38.099  23.757  25.694  1.00  0.00     0.002 A 
BRANCH  19  29
ATOM     29  C   UNL A   1      34.253  18.889  24.560  1.00  0.00     0.052 A 
ATOM     30  C   UNL A   1      33.192  16.304  24.750  1.00  0.00     0.119 A 
ATOM     31  C   UNL A   1      32.620  17.337  25.489  1.00  0.00     0.048 A 
ATOM     32  C   UNL A   1      34.156  16.595  23.785  1.00  0.00     0.048 A 
ATOM     33  C   UNL A   1      33.170  18.626  25.416  1.00  0.00     0.030 A 
ATOM     34  C   UNL A   1      34.656  17.899  23.659  1.00  0.00     0.030 A 
BRANCH  30  35
ATOM     35  O   UNL A   1      32.765  15.022  24.971  1.00  0.00    -0.497 OA
ATOM     36  C   UNL A   1      32.217  14.851  26.284  1.00  0.00     0.278 C 
ENDBRANCH  30  35
ENDBRANCH  19  29
ENDBRANCH  17  18
ENDBRANCH  16  17
ENDBRANCH  12  16
ENDBRANCH   6  11
ENDBRANCH   3   5
ENDBRANCH   2   3
ENDBRANCH   1   2
BRANCH   1  37
ATOM     37  C   UNL A   1      32.028  29.004  25.951  1.00  0.00     0.202 C 
BRANCH  37  38
ATOM     38  O   UNL A   1      32.836  29.401  27.059  1.00  0.00    -0.374 OA
BRANCH  38  39
ATOM     39  C   UNL A   1      34.052  30.115  26.866  1.00  0.00     0.202 C 
BRANCH  39  40
ATOM     40  C   UNL A   1      35.001  30.302  28.038  1.00  0.00     0.261 C 
BRANCH  40  41
ATOM     41  O   UNL A   1      36.325  30.553  27.604  1.00  0.00    -0.460 OA
BRANCH  41  42
ATOM     42  C   UNL A   1      37.255  30.244  28.526  1.00  0.00     0.338 C 
ATOM     43  O   UNL A   1      37.301  30.614  29.698  1.00  0.00    -0.246 OA
BRANCH  42  44
ATOM     44  C   UNL A   1      38.333  29.506  27.879  1.00  0.00     0.060 A 
ATOM     45  C   UNL A   1      38.163  28.121  27.822  1.00  0.00     0.016 A 
ATOM     46  C   UNL A   1      39.584  30.125  27.753  1.00  0.00     0.016 A 
ATOM     47  C   UNL A   1      39.281  27.337  27.931  1.00  0.00     0.010 A 
ATOM     48  C   UNL A   1      40.696  29.344  27.898  1.00  0.00     0.010 A 
ATOM     49  C   UNL A   1      40.516  27.973  28.076  1.00  0.00    -0.014 A 
BRANCH  49  50
ATOM     50  C   UNL A   1      41.680  27.152  28.297  1.00  0.00     0.031 A 
ATOM     51  C   UNL A   1      42.273  27.398  29.630  1.00  0.00     0.074 A 
ATOM     52  C   UNL A   1      42.025  26.201  27.409  1.00  0.00     0.049 A 
ATOM     53  N   UNL A   1      43.470  27.794  29.904  1.00  0.00    -0.248 NA
ATOM     54  C   UNL A   1      41.364  27.386  30.794  1.00  0.00     0.031 C 
ATOM     55  C   UNL A   1      41.297  25.788  26.205  1.00  0.00     0.029 A 
ATOM     56  N   UNL A   1      43.046  25.307  27.466  1.00  0.00    -0.354 N 
ATOM     57  C   UNL A   1      43.520  27.870  31.292  1.00  0.00     0.074 A 
ATOM     58  C   UNL A   1      42.164  27.826  31.762  1.00  0.00     0.031 C 
ATOM     59  C   UNL A   1      41.765  24.589  25.789  1.00  0.00     0.029 A 
ATOM     60  C   UNL A   1      42.886  24.209  26.628  1.00  0.00     0.049 A 
ATOM     61  H   UNL A   1      43.829  25.426  28.050  1.00  0.00     0.167 HD
ATOM     62  C   UNL A   1      44.684  27.637  31.948  1.00  0.00     0.037 A 
ATOM     63  C   UNL A   1      43.568  23.039  26.728  1.00  0.00     0.037 A 
ATOM     64  C   UNL A   1      45.814  27.867  31.083  1.00  0.00     0.049 A 
ATOM     65  C   UNL A   1      44.772  23.303  27.561  1.00  0.00     0.074 A 
ATOM     66  C   UNL A   1      46.275  28.962  30.377  1.00  0.00     0.029 A 
ATOM     67  N   UNL A   1      46.434  26.774  30.529  1.00  0.00    -0.354 N 
ATOM     68  N   UNL A   1      45.769  24.052  27.173  1.00  0.00    -0.248 NA
ATOM     69  C   UNL A   1      44.642  23.137  29.003  1.00  0.00     0.031 C 
ATOM     70  C   UNL A   1      46.772  28.433  29.152  1.00  0.00     0.029 A 
ATOM     71  C   UNL A   1      46.655  27.044  29.204  1.00  0.00     0.049 A 
ATOM     72  H   UNL A   1      46.675  25.944  30.999  1.00  0.00     0.167 HD
ATOM     73  C   UNL A   1      46.115  24.788  28.298  1.00  0.00     0.074 A 
ATOM     74  C   UNL A   1      45.436  24.131  29.412  1.00  0.00     0.031 C 
ATOM     75  C   UNL A   1      46.669  26.030  28.176  1.00  0.00     0.037 A 
BRANCH  62  76
ATOM     76  C   UNL A   1      44.764  26.791  33.197  1.00  0.00     0.064 A 
ATOM     77  C   UNL A   1      44.321  25.459  33.133  1.00  0.00     0.173 A 
ATOM     78  C   UNL A   1      44.955  27.305  34.503  1.00  0.00     0.173 A 
ATOM     79  F   UNL A   1      44.098  24.870  31.948  1.00  0.00    -0.203 F 
ATOM     80  C   UNL A   1      43.999  24.733  34.282  1.00  0.00     0.198 A 
ATOM     81  C   UNL A   1      44.684  26.559  35.646  1.00  0.00     0.198 A 
ATOM     82  F   UNL A   1      45.301  28.574  34.740  1.00  0.00    -0.203 F 
ATOM     83  F   UNL A   1      43.449  23.517  34.165  1.00  0.00    -0.200 F 
ATOM     84  C   UNL A   1      44.170  25.288  35.537  1.00  0.00     0.200 A 
ATOM     85  F   UNL A   1      44.844  27.124  36.852  1.00  0.00    -0.200 F 
ATOM     86  F   UNL A   1      43.797  24.621  36.636  1.00  0.00    -0.200 F 
ENDBRANCH  62  76
BRANCH  63  87
ATOM     87  C   UNL A   1      43.071  21.664  26.463  1.00  0.00     0.064 A 
ATOM     88  C   UNL A   1      43.732  20.819  25.555  1.00  0.00     0.173 A 
ATOM     89  C   UNL A   1      42.104  21.055  27.288  1.00  0.00     0.173 A 
ATOM     90  F   UNL A   1      44.702  21.304  24.767  1.00  0.00    -0.203 F 
ATOM     91  C   UNL A   1      43.455  19.448  25.492  1.00  0.00     0.198 A 
ATOM     92  C   UNL A   1      41.822  19.690  27.216  1.00  0.00     0.198 A 
ATOM     93  F   UNL A   1      41.480  21.750  28.250  1.00  0.00    -0.203 F 
ATOM     94  F   UNL A   1      44.150  18.664  24.656  1.00  0.00    -0.200 F 
ATOM     95  C   UNL A   1      42.507  18.884  26.328  1.00  0.00     0.200 A 
ATOM     96  F   UNL A   1      40.929  19.153  28.059  1.00  0.00    -0.200 F 
ATOM     97  F   UNL A   1      42.284  17.563  26.309  1.00  0.00    -0.200 F 
ENDBRANCH  63  87
BRANCH  75  98
ATOM     98  C   UNL A   1      47.125  26.459  26.810  1.00  0.00     0.064 A 
ATOM     99  C   UNL A   1      46.321  27.163  25.895  1.00  0.00     0.173 A 
ATOM    100  C   UNL A   1      48.473  26.276  26.475  1.00  0.00     0.173 A 
ATOM    101  F   UNL A   1      45.052  27.469  26.186  1.00  0.00    -0.203 F 
ATOM    102  C   UNL A   1      46.836  27.619  24.682  1.00  0.00     0.198 A 
ATOM    103  C   UNL A   1      48.994  26.768  25.282  1.00  0.00     0.198 A 
ATOM    104  F   UNL A   1      49.300  25.664  27.336  1.00  0.00    -0.203 F 
ATOM    105  F   UNL A   1      46.046  28.276  23.820  1.00  0.00    -0.200 F 
ATOM    106  C   UNL A   1      48.175  27.428  24.381  1.00  0.00     0.200 A 
ATOM    107  F   UNL A   1      50.301  26.627  25.020  1.00  0.00    -0.200 F 
ATOM    108  F   UNL A   1      48.682  27.904  23.236  1.00  0.00    -0.200 F 
ENDBRANCH  75  98
ENDBRANCH  49  50
ENDBRANCH  42  44
ENDBRANCH  41  42
ENDBRANCH  40  41
ENDBRANCH  39  40
ENDBRANCH  38  39
ENDBRANCH  37  38
ENDBRANCH   1  37
TORSDOF 20
ENDMDL
MODEL 2
REMARK VINA RESULT:     -12.6      5.555     10.742
REMARK SMILES COc1ccc(-n2c(SCc3cn(-c4ccc(C(=O)OCCOCCOC(=O)c5ccc(-c6c7nc(c(-c8c(F)c(F)c(F)c(F)c8F)c8ccc([nH]8)c(-c8c(F)c(F)c(F)c(F)c8F)c8nc(c(-c9c(F)c(F)c(F)c(F)c9F)c9ccc6[nH]9)C=C8)C=C7)cc5)cc4)nn3)nc3ccccc3c2=O)cc1
REMARK SMILES IDX 21 1 20 2 18 3 19 4 17 5 14 6 15 7 93 8 16 9 92 10 13 11
REMARK SMILES IDX 11 12 12 13 95 14 94 15 10 16 9 17 8 18 7 19 103 20 96 21
REMARK SMILES IDX 102 22 104 23 97 24 101 25 98 26 100 27 99 28 6 29 3 30 4 31
REMARK SMILES IDX 106 32 5 33 105 34 2 35 1 36 22 37 23 38 24 39 25 40 26 41
REMARK SMILES IDX 27 42 28 43 29 44 30 45 91 46 31 47 90 48 32 49 33 50 34 51
REMARK SMILES IDX 84 52 35 53 89 54 83 55 85 56 36 57 88 58 82 59 81 60 37 62
REMARK SMILES IDX 69 63 49 64 68 65 50 66 53 67 67 68 86 69 51 70 52 71 66 73
REMARK SMILES IDX 87 74 54 75 38 76 39 77 47 78 40 79 41 80 45 81 48 82 42 83
REMARK SMILES IDX 43 84 46 85 44 86 70 87 71 88 79 89 72 90 73 91 77 92 80 93
REMARK SMILES IDX 74 94 75 95 78 96 76 97 55 98 56 99 64 100 57 101 58 102
REMARK SMILES IDX 62 103 65 104 59 105 60 106 63 107 61 108
REMARK H PARENT 85 61 53 72
REMARK Flexibility Score: inf
ROOT
ATOM      1  C   UNL A   1      43.763  22.285  26.243  1.00  0.00     0.261 C 
ENDROOT
BRANCH   1   2
ATOM      2  O   UNL A   1      42.706  21.490  26.780  1.00  0.00    -0.460 OA
BRANCH   2   3
ATOM      3  C   UNL A   1      41.954  22.123  27.698  1.00  0.00     0.338 C 
ATOM      4  O   UNL A   1      42.321  22.644  28.751  1.00  0.00    -0.246 OA
BRANCH   3   5
ATOM      5  C   UNL A   1      40.600  22.273  27.173  1.00  0.00     0.060 A 
ATOM      6  C   UNL A   1      38.256  22.627  25.871  1.00  0.00     0.066 A 
ATOM      7  C   UNL A   1      38.850  21.374  25.776  1.00  0.00     0.029 A 
ATOM      8  C   UNL A   1      38.717  23.648  26.711  1.00  0.00     0.029 A 
ATOM      9  C   UNL A   1      40.065  21.216  26.411  1.00  0.00     0.018 A 
ATOM     10  C   UNL A   1      39.895  23.458  27.394  1.00  0.00     0.018 A 
BRANCH   6  11
ATOM     11  N   UNL A   1      37.303  22.980  24.936  1.00  0.00    -0.220 N 
ATOM     12  C   UNL A   1      35.541  23.840  24.081  1.00  0.00     0.093 A 
ATOM     13  C   UNL A   1      36.498  24.078  25.022  1.00  0.00     0.141 A 
ATOM     14  N   UNL A   1      35.867  22.697  23.407  1.00  0.00    -0.134 NA
ATOM     15  N   UNL A   1      37.012  22.235  23.871  1.00  0.00    -0.062 NA
BRANCH  12  16
ATOM     16  C   UNL A   1      34.287  24.559  23.856  1.00  0.00     0.138 C 
BRANCH  16  17
ATOM     17  S   UNL A   1      33.906  25.568  25.275  1.00  0.00    -0.081 SA
BRANCH  17  18
ATOM     18  C   UNL A   1      32.299  24.951  25.862  1.00  0.00     0.176 A 
ATOM     19  N   UNL A   1      31.517  24.395  24.860  1.00  0.00    -0.255 N 
ATOM     20  C   UNL A   1      30.653  25.263  24.205  1.00  0.00     0.266 A 
ATOM     21  N   UNL A   1      31.735  25.756  26.716  1.00  0.00    -0.223 NA
ATOM     22  C   UNL A   1      30.743  26.676  24.696  1.00  0.00     0.066 A 
ATOM     23  O   UNL A   1      29.901  24.980  23.279  1.00  0.00    -0.268 OA
ATOM     24  C   UNL A   1      31.215  26.865  26.012  1.00  0.00     0.079 A 
ATOM     25  C   UNL A   1      30.646  27.754  23.821  1.00  0.00     0.016 A 
ATOM     26  C   UNL A   1      31.504  28.146  26.477  1.00  0.00     0.029 A 
ATOM     27  C   UNL A   1      31.027  29.023  24.269  1.00  0.00     0.001 A 
ATOM     28  C   UNL A   1      31.432  29.223  25.595  1.00  0.00     0.002 A 
BRANCH  19  29
ATOM     29  C   UNL A   1      31.541  22.994  24.612  1.00  0.00     0.052 A 
ATOM     30  C   UNL A   1      32.553  20.442  24.062  1.00  0.00     0.119 A 
ATOM     31  C   UNL A   1      32.272  20.800  25.378  1.00  0.00     0.048 A 
ATOM     32  C   UNL A   1      32.154  21.275  23.018  1.00  0.00     0.048 A 
ATOM     33  C   UNL A   1      31.793  22.089  25.657  1.00  0.00     0.030 A 
ATOM     34  C   UNL A   1      31.606  22.536  23.293  1.00  0.00     0.030 A 
BRANCH  30  35
ATOM     35  O   UNL A   1      33.191  19.253  23.827  1.00  0.00    -0.497 OA
ATOM     36  C   UNL A   1      32.493  18.139  24.395  1.00  0.00     0.278 C 
ENDBRANCH  30  35
ENDBRANCH  19  29
ENDBRANCH  17  18
ENDBRANCH  16  17
ENDBRANCH  12  16
ENDBRANCH   6  11
ENDBRANCH   3   5
ENDBRANCH   2   3
ENDBRANCH   1   2
BRANCH   1  37
ATOM     37  C   UNL A   1      43.292  23.086  25.032  1.00  0.00     0.202 C 
BRANCH  37  38
ATOM     38  O   UNL A   1      43.960  24.306  24.707  1.00  0.00    -0.374 OA
BRANCH  38  39
ATOM     39  C   UNL A   1      45.165  24.684  25.364  1.00  0.00     0.202 C 
BRANCH  39  40
ATOM     40  C   UNL A   1      45.119  25.740  26.456  1.00  0.00     0.261 C 
BRANCH  40  41
ATOM     41  O   UNL A   1      43.892  25.708  27.162  1.00  0.00    -0.460 OA
BRANCH  41  42
ATOM     42  C   UNL A   1      44.047  25.521  28.486  1.00  0.00     0.338 C 
ATOM     43  O   UNL A   1      44.823  24.751  29.048  1.00  0.00    -0.246 OA
BRANCH  42  44
ATOM     44  C   UNL A   1      43.014  26.270  29.191  1.00  0.00     0.060 A 
ATOM     45  C   UNL A   1      41.915  26.651  28.417  1.00  0.00     0.016 A 
ATOM     46  C   UNL A   1      43.351  26.902  30.396  1.00  0.00     0.016 A 
ATOM     47  C   UNL A   1      41.322  27.854  28.700  1.00  0.00     0.010 A 
ATOM     48  C   UNL A   1      42.784  28.117  30.656  1.00  0.00     0.010 A 
ATOM     49  C   UNL A   1      41.844  28.610  29.752  1.00  0.00    -0.014 A 
BRANCH  49  50
ATOM     50  C   UNL A   1      41.292  29.921  29.984  1.00  0.00     0.031 A 
ATOM     51  C   UNL A   1      42.253  30.987  29.627  1.00  0.00     0.074 A 
ATOM     52  C   UNL A   1      40.001  30.066  30.340  1.00  0.00     0.049 A 
ATOM     53  N   UNL A   1      42.728  31.914  30.389  1.00  0.00    -0.248 NA
ATOM     54  C   UNL A   1      42.914  30.897  28.309  1.00  0.00     0.031 C 
ATOM     55  C   UNL A   1      38.978  29.022  30.457  1.00  0.00     0.029 A 
ATOM     56  N   UNL A   1      39.296  31.207  30.553  1.00  0.00    -0.354 N 
ATOM     57  C   UNL A   1      43.585  32.649  29.576  1.00  0.00     0.074 A 
ATOM     58  C   UNL A   1      43.824  31.862  28.400  1.00  0.00     0.031 C 
ATOM     59  C   UNL A   1      37.754  29.598  30.482  1.00  0.00     0.029 A 
ATOM     60  C   UNL A   1      37.916  31.040  30.492  1.00  0.00     0.049 A 
ATOM     61  H   UNL A   1      39.723  32.074  30.734  1.00  0.00     0.167 HD
ATOM     62  C   UNL A   1      43.763  33.976  29.795  1.00  0.00     0.037 A 
ATOM     63  C   UNL A   1      37.010  32.040  30.341  1.00  0.00     0.037 A 
ATOM     64  C   UNL A   1      43.450  34.316  31.161  1.00  0.00     0.049 A 
ATOM     65  C   UNL A   1      37.698  33.312  30.695  1.00  0.00     0.074 A 
ATOM     66  C   UNL A   1      43.942  33.910  32.387  1.00  0.00     0.029 A 
ATOM     67  N   UNL A   1      42.234  34.899  31.417  1.00  0.00    -0.354 N 
ATOM     68  N   UNL A   1      38.085  33.611  31.905  1.00  0.00    -0.248 NA
ATOM     69  C   UNL A   1      38.388  34.023  29.627  1.00  0.00     0.031 C 
ATOM     70  C   UNL A   1      42.804  33.845  33.242  1.00  0.00     0.029 A 
ATOM     71  C   UNL A   1      41.695  34.281  32.516  1.00  0.00     0.049 A 
ATOM     72  H   UNL A   1      41.821  35.629  30.904  1.00  0.00     0.167 HD
ATOM     73  C   UNL A   1      39.330  34.201  31.742  1.00  0.00     0.074 A 
ATOM     74  C   UNL A   1      39.432  34.494  30.314  1.00  0.00     0.031 C 
ATOM     75  C   UNL A   1      40.276  34.119  32.723  1.00  0.00     0.037 A 
BRANCH  62  76
ATOM     76  C   UNL A   1      43.784  34.994  28.680  1.00  0.00     0.064 A 
ATOM     77  C   UNL A   1      44.987  35.668  28.409  1.00  0.00     0.173 A 
ATOM     78  C   UNL A   1      42.627  35.556  28.086  1.00  0.00     0.173 A 
ATOM     79  F   UNL A   1      46.145  35.230  28.927  1.00  0.00    -0.203 F 
ATOM     80  C   UNL A   1      45.017  36.863  27.688  1.00  0.00     0.198 A 
ATOM     81  C   UNL A   1      42.670  36.718  27.322  1.00  0.00     0.198 A 
ATOM     82  F   UNL A   1      41.397  35.082  28.303  1.00  0.00    -0.203 F 
ATOM     83  F   UNL A   1      46.167  37.541  27.575  1.00  0.00    -0.200 F 
ATOM     84  C   UNL A   1      43.857  37.393  27.153  1.00  0.00     0.200 A 
ATOM     85  F   UNL A   1      41.528  37.220  26.826  1.00  0.00    -0.200 F 
ATOM     86  F   UNL A   1      43.871  38.573  26.521  1.00  0.00    -0.200 F 
ENDBRANCH  62  76
BRANCH  63  87
ATOM     87  C   UNL A   1      35.735  32.012  29.581  1.00  0.00     0.064 A 
ATOM     88  C   UNL A   1      34.783  33.035  29.729  1.00  0.00     0.173 A 
ATOM     89  C   UNL A   1      35.537  31.131  28.499  1.00  0.00     0.173 A 
ATOM     90  F   UNL A   1      34.920  33.948  30.701  1.00  0.00    -0.203 F 
ATOM     91  C   UNL A   1      33.712  33.177  28.837  1.00  0.00     0.198 A 
ATOM     92  C   UNL A   1      34.464  31.268  27.617  1.00  0.00     0.198 A 
ATOM     93  F   UNL A   1      36.433  30.176  28.213  1.00  0.00    -0.203 F 
ATOM     94  F   UNL A   1      32.860  34.203  28.975  1.00  0.00    -0.200 F 
ATOM     95  C   UNL A   1      33.559  32.299  27.778  1.00  0.00     0.200 A 
ATOM     96  F   UNL A   1      34.351  30.433  26.575  1.00  0.00    -0.200 F 
ATOM     97  F   UNL A   1      32.570  32.471  26.890  1.00  0.00    -0.200 F 
ENDBRANCH  63  87
BRANCH  75  98
ATOM     98  C   UNL A   1      39.843  33.605  34.067  1.00  0.00     0.064 A 
ATOM     99  C   UNL A   1      39.814  32.243  34.418  1.00  0.00     0.173 A 
ATOM    100  C   UNL A   1      39.589  34.536  35.081  1.00  0.00     0.173 A 
ATOM    101  F   UNL A   1      40.147  31.296  33.533  1.00  0.00    -0.203 F 
ATOM    102  C   UNL A   1      39.497  31.837  35.714  1.00  0.00     0.198 A 
ATOM    103  C   UNL A   1      39.313  34.131  36.383  1.00  0.00     0.198 A 
ATOM    104  F   UNL A   1      39.661  35.850  34.818  1.00  0.00    -0.203 F 
ATOM    105  F   UNL A   1      39.463  30.532  36.021  1.00  0.00    -0.200 F 
ATOM    106  C   UNL A   1      39.255  32.782  36.697  1.00  0.00     0.200 A 
ATOM    107  F   UNL A   1      39.133  35.049  37.342  1.00  0.00    -0.200 F 
ATOM    108  F   UNL A   1      38.995  32.396  37.953  1.00  0.00    -0.200 F 
ENDBRANCH  75  98
ENDBRANCH  49  50
ENDBRANCH  42  44
ENDBRANCH  41  42
ENDBRANCH  40  41
ENDBRANCH  39  40
ENDBRANCH  38  39
ENDBRANCH  37  38
ENDBRANCH   1  37
TORSDOF 20
ENDMDL
MODEL 3
REMARK VINA RESULT:     -12.6      5.169     10.580
REMARK SMILES COc1ccc(-n2c(SCc3cn(-c4ccc(C(=O)OCCOCCOC(=O)c5ccc(-c6c7nc(c(-c8c(F)c(F)c(F)c(F)c8F)c8ccc([nH]8)c(-c8c(F)c(F)c(F)c(F)c8F)c8nc(c(-c9c(F)c(F)c(F)c(F)c9F)c9ccc6[nH]9)C=C8)C=C7)cc5)cc4)nn3)nc3ccccc3c2=O)cc1
REMARK SMILES IDX 21 1 20 2 18 3 19 4 17 5 14 6 15 7 93 8 16 9 92 10 13 11
REMARK SMILES IDX 11 12 12 13 95 14 94 15 10 16 9 17 8 18 7 19 103 20 96 21
REMARK SMILES IDX 102 22 104 23 97 24 101 25 98 26 100 27 99 28 6 29 3 30 4 31
REMARK SMILES IDX 106 32 5 33 105 34 2 35 1 36 22 37 23 38 24 39 25 40 26 41
REMARK SMILES IDX 27 42 28 43 29 44 30 45 91 46 31 47 90 48 32 49 33 50 34 51
REMARK SMILES IDX 84 52 35 53 89 54 83 55 85 56 36 57 88 58 82 59 81 60 37 62
REMARK SMILES IDX 69 63 49 64 68 65 50 66 53 67 67 68 86 69 51 70 52 71 66 73
REMARK SMILES IDX 87 74 54 75 38 76 39 77 47 78 40 79 41 80 45 81 48 82 42 83
REMARK SMILES IDX 43 84 46 85 44 86 70 87 71 88 79 89 72 90 73 91 77 92 80 93
REMARK SMILES IDX 74 94 75 95 78 96 76 97 55 98 56 99 64 100 57 101 58 102
REMARK SMILES IDX 62 103 65 104 59 105 60 106 63 107 61 108
REMARK H PARENT 85 61 53 72
REMARK Flexibility Score: inf
ROOT
ATOM      1  C   UNL A   1      43.086  18.857  25.504  1.00  0.00     0.261 C 
ENDROOT
BRANCH   1   2
ATOM      2  O   UNL A   1      41.772  19.389  25.342  1.00  0.00    -0.460 OA
BRANCH   2   3
ATOM      3  C   UNL A   1      41.165  19.719  26.495  1.00  0.00     0.338 C 
ATOM      4  O   UNL A   1      41.595  19.591  27.642  1.00  0.00    -0.246 OA
BRANCH   3   5
ATOM      5  C   UNL A   1      39.937  20.447  26.189  1.00  0.00     0.060 A 
ATOM      6  C   UNL A   1      37.810  21.849  25.280  1.00  0.00     0.066 A 
ATOM      7  C   UNL A   1      37.845  20.490  24.989  1.00  0.00     0.029 A 
ATOM      8  C   UNL A   1      38.720  22.488  26.130  1.00  0.00     0.029 A 
ATOM      9  C   UNL A   1      38.953  19.792  25.424  1.00  0.00     0.018 A 
ATOM     10  C   UNL A   1      39.787  21.769  26.615  1.00  0.00     0.018 A 
BRANCH   6  11
ATOM     11  N   UNL A   1      36.988  22.665  24.529  1.00  0.00    -0.220 N 
ATOM     12  C   UNL A   1      35.393  23.995  24.016  1.00  0.00     0.093 A 
ATOM     13  C   UNL A   1      36.262  23.707  25.026  1.00  0.00     0.141 A 
ATOM     14  N   UNL A   1      35.701  23.212  22.940  1.00  0.00    -0.134 NA
ATOM     15  N   UNL A   1      36.754  22.474  23.231  1.00  0.00    -0.062 NA
BRANCH  12  16
ATOM     16  C   UNL A   1      34.226  24.877  24.044  1.00  0.00     0.138 C 
BRANCH  16  17
ATOM     17  S   UNL A   1      33.913  25.413  25.714  1.00  0.00    -0.081 SA
BRANCH  17  18
ATOM     18  C   UNL A   1      32.227  24.833  26.077  1.00  0.00     0.176 A 
ATOM     19  N   UNL A   1      31.534  24.404  24.954  1.00  0.00    -0.255 N 
ATOM     20  C   UNL A   1      30.782  25.367  24.294  1.00  0.00     0.266 A 
ATOM     21  N   UNL A   1      31.610  25.592  26.936  1.00  0.00    -0.223 NA
ATOM     22  C   UNL A   1      30.880  26.728  24.914  1.00  0.00     0.066 A 
ATOM     23  O   UNL A   1      30.122  25.202  23.273  1.00  0.00    -0.268 OA
ATOM     24  C   UNL A   1      31.216  26.781  26.283  1.00  0.00     0.079 A 
ATOM     25  C   UNL A   1      30.923  27.879  24.133  1.00  0.00     0.016 A 
ATOM     26  C   UNL A   1      31.508  28.002  26.887  1.00  0.00     0.029 A 
ATOM     27  C   UNL A   1      31.308  29.084  24.728  1.00  0.00     0.001 A 
ATOM     28  C   UNL A   1      31.577  29.151  26.101  1.00  0.00     0.002 A 
BRANCH  19  29
ATOM     29  C   UNL A   1      31.524  23.029  24.587  1.00  0.00     0.052 A 
ATOM     30  C   UNL A   1      32.477  20.475  23.948  1.00  0.00     0.119 A 
ATOM     31  C   UNL A   1      32.038  20.740  25.242  1.00  0.00     0.048 A 
ATOM     32  C   UNL A   1      32.264  21.415  22.939  1.00  0.00     0.048 A 
ATOM     33  C   UNL A   1      31.587  22.028  25.570  1.00  0.00     0.030 A 
ATOM     34  C   UNL A   1      31.745  22.679  23.252  1.00  0.00     0.030 A 
BRANCH  30  35
ATOM     35  O   UNL A   1      33.084  19.274  23.692  1.00  0.00    -0.497 OA
ATOM     36  C   UNL A   1      32.313  18.453  22.807  1.00  0.00     0.278 C 
ENDBRANCH  30  35
ENDBRANCH  19  29
ENDBRANCH  17  18
ENDBRANCH  16  17
ENDBRANCH  12  16
ENDBRANCH   6  11
ENDBRANCH   3   5
ENDBRANCH   2   3
ENDBRANCH   1   2
BRANCH   1  37
ATOM     37  C   UNL A   1      44.144  19.833  24.999  1.00  0.00     0.202 C 
BRANCH  37  38
ATOM     38  O   UNL A   1      43.818  21.219  24.902  1.00  0.00    -0.374 OA
BRANCH  38  39
ATOM     39  C   UNL A   1      44.080  22.115  25.977  1.00  0.00     0.202 C 
BRANCH  39  40
ATOM     40  C   UNL A   1      43.794  23.597  25.799  1.00  0.00     0.261 C 
BRANCH  40  41
ATOM     41  O   UNL A   1      43.890  24.299  27.024  1.00  0.00    -0.460 OA
BRANCH  41  42
ATOM     42  C   UNL A   1      42.745  24.914  27.375  1.00  0.00     0.338 C 
ATOM     43  O   UNL A   1      41.657  24.393  27.612  1.00  0.00    -0.246 OA
BRANCH  42  44
ATOM     44  C   UNL A   1      42.936  26.355  27.278  1.00  0.00     0.060 A 
ATOM     45  C   UNL A   1      43.925  26.887  28.110  1.00  0.00     0.016 A 
ATOM     46  C   UNL A   1      41.905  27.131  26.730  1.00  0.00     0.016 A 
ATOM     47  C   UNL A   1      43.715  28.138  28.629  1.00  0.00     0.010 A 
ATOM     48  C   UNL A   1      41.679  28.363  27.276  1.00  0.00     0.010 A 
ATOM     49  C   UNL A   1      42.539  28.804  28.281  1.00  0.00    -0.014 A 
BRANCH  49  50
ATOM     50  C   UNL A   1      42.266  30.073  28.908  1.00  0.00     0.031 A 
ATOM     51  C   UNL A   1      43.237  31.107  28.488  1.00  0.00     0.074 A 
ATOM     52  C   UNL A   1      41.156  30.243  29.651  1.00  0.00     0.049 A 
ATOM     53  N   UNL A   1      44.030  31.799  29.234  1.00  0.00    -0.248 NA
ATOM     54  C   UNL A   1      43.494  31.254  27.040  1.00  0.00     0.031 C 
ATOM     55  C   UNL A   1      40.064  29.290  29.869  1.00  0.00     0.029 A 
ATOM     56  N   UNL A   1      40.708  31.364  30.273  1.00  0.00    -0.354 N 
ATOM     57  C   UNL A   1      44.730  32.621  28.357  1.00  0.00     0.074 A 
ATOM     58  C   UNL A   1      44.524  32.096  27.037  1.00  0.00     0.031 C 
ATOM     59  C   UNL A   1      38.990  29.947  30.364  1.00  0.00     0.029 A 
ATOM     60  C   UNL A   1      39.355  31.332  30.594  1.00  0.00     0.049 A 
ATOM     61  H   UNL A   1      41.289  32.132  30.478  1.00  0.00     0.167 HD
ATOM     62  C   UNL A   1      45.151  33.847  28.757  1.00  0.00     0.037 A 
ATOM     63  C   UNL A   1      38.596  32.413  30.909  1.00  0.00     0.037 A 
ATOM     64  C   UNL A   1      45.274  33.901  30.192  1.00  0.00     0.049 A 
ATOM     65  C   UNL A   1      39.530  33.513  31.274  1.00  0.00     0.074 A 
ATOM     66  C   UNL A   1      46.018  33.195  31.119  1.00  0.00     0.029 A 
ATOM     67  N   UNL A   1      44.271  34.513  30.902  1.00  0.00    -0.354 N 
ATOM     68  N   UNL A   1      40.271  33.504  32.349  1.00  0.00    -0.248 NA
ATOM     69  C   UNL A   1      39.998  34.382  30.203  1.00  0.00     0.031 C 
ATOM     70  C   UNL A   1      45.159  33.039  32.245  1.00  0.00     0.029 A 
ATOM     71  C   UNL A   1      43.969  33.716  31.976  1.00  0.00     0.049 A 
ATOM     72  H   UNL A   1      43.844  35.372  30.681  1.00  0.00     0.167 HD
ATOM     73  C   UNL A   1      41.497  34.008  31.937  1.00  0.00     0.074 A 
ATOM     74  C   UNL A   1      41.247  34.600  30.624  1.00  0.00     0.031 C 
ATOM     75  C   UNL A   1      42.652  33.632  32.560  1.00  0.00     0.037 A 
BRANCH  62  76
ATOM     76  C   UNL A   1      45.014  35.081  27.897  1.00  0.00     0.064 A 
ATOM     77  C   UNL A   1      46.128  35.924  27.752  1.00  0.00     0.173 A 
ATOM     78  C   UNL A   1      43.778  35.630  27.475  1.00  0.00     0.173 A 
ATOM     79  F   UNL A   1      47.349  35.513  28.128  1.00  0.00    -0.203 F 
ATOM     80  C   UNL A   1      46.002  37.245  27.315  1.00  0.00     0.198 A 
ATOM     81  C   UNL A   1      43.665  36.929  26.989  1.00  0.00     0.198 A 
ATOM     82  F   UNL A   1      42.614  34.988  27.612  1.00  0.00    -0.203 F 
ATOM     83  F   UNL A   1      47.071  38.052  27.327  1.00  0.00    -0.200 F 
ATOM     84  C   UNL A   1      44.769  37.749  26.944  1.00  0.00     0.200 A 
ATOM     85  F   UNL A   1      42.456  37.399  26.648  1.00  0.00    -0.200 F 
ATOM     86  F   UNL A   1      44.633  39.033  26.591  1.00  0.00    -0.200 F 
ENDBRANCH  62  76
BRANCH  63  87
ATOM     87  C   UNL A   1      37.172  32.661  30.570  1.00  0.00     0.064 A 
ATOM     88  C   UNL A   1      36.246  33.025  31.563  1.00  0.00     0.173 A 
ATOM     89  C   UNL A   1      36.743  32.810  29.236  1.00  0.00     0.173 A 
ATOM     90  F   UNL A   1      36.587  32.962  32.858  1.00  0.00    -0.203 F 
ATOM     91  C   UNL A   1      34.978  33.525  31.238  1.00  0.00     0.198 A 
ATOM     92  C   UNL A   1      35.476  33.299  28.915  1.00  0.00     0.198 A 
ATOM     93  F   UNL A   1      37.577  32.578  28.212  1.00  0.00    -0.203 F 
ATOM     94  F   UNL A   1      34.146  33.919  32.213  1.00  0.00    -0.200 F 
ATOM     95  C   UNL A   1      34.599  33.669  29.915  1.00  0.00     0.200 A 
ATOM     96  F   UNL A   1      35.137  33.469  27.629  1.00  0.00    -0.200 F 
ATOM     97  F   UNL A   1      33.409  34.204  29.604  1.00  0.00    -0.200 F 
ENDBRANCH  63  87
BRANCH  75  98
ATOM     98  C   UNL A   1      42.532  32.872  33.851  1.00  0.00     0.064 A 
ATOM     99  C   UNL A   1      42.432  31.472  33.935  1.00  0.00     0.173 A 
ATOM    100  C   UNL A   1      42.671  33.580  35.051  1.00  0.00     0.173 A 
ATOM    101  F   UNL A   1      42.401  30.716  32.831  1.00  0.00    -0.203 F 
ATOM    102  C   UNL A   1      42.424  30.820  35.167  1.00  0.00     0.198 A 
ATOM    103  C   UNL A   1      42.704  32.925  36.278  1.00  0.00     0.198 A 
ATOM    104  F   UNL A   1      42.830  34.913  35.029  1.00  0.00    -0.203 F 
ATOM    105  F   UNL A   1      42.313  29.484  35.222  1.00  0.00    -0.200 F 
ATOM    106  C   UNL A   1      42.568  31.547  36.337  1.00  0.00     0.200 A 
ATOM    107  F   UNL A   1      42.897  33.627  37.402  1.00  0.00    -0.200 F 
ATOM    108  F   UNL A   1      42.605  30.919  37.520  1.00  0.00    -0.200 F 
ENDBRANCH  75  98
ENDBRANCH  49  50
ENDBRANCH  42  44
ENDBRANCH  41  42
ENDBRANCH  40  41
ENDBRANCH  39  40
ENDBRANCH  38  39
ENDBRANCH  37  38
ENDBRANCH   1  37
TORSDOF 20
ENDMDL
