MODEL 1
REMARK VINA RESULT:     -12.0      0.000      0.000
REMARK SMILES NS(=O)(=O)c1ccc(/N=C/c2ccc(O)c(C(=O)OCCOCCOC(=O)c3ccc(-c4c5nc(c(-c6c(F)c(F)c(F)c(F)c6F)c6ccc([nH]6)c(-c6c(F)c(F)c(F)c(F)c6F)c6nc(c(-c7c(F)c(F)c(F)c(F)c7F)c7ccc4[nH]7)C=C6)C=C5)cc3)c2)cc1
REMARK SMILES IDX 21 1 20 2 19 3 17 4 18 5 16 6 11 7 12 8 91 9 13 10 14 11
REMARK SMILES IDX 10 12 9 13 8 14 5 15 6 16 93 17 7 18 92 19 2 20 3 21 4 22
REMARK SMILES IDX 1 23 15 26 22 28 23 29 24 30 25 31 26 32 27 33 28 34 29 35
REMARK SMILES IDX 90 36 30 37 89 38 31 39 32 40 33 41 83 42 34 43 88 44 82 45
REMARK SMILES IDX 84 46 35 47 87 48 81 49 80 50 36 52 68 53 48 54 67 55 49 56
REMARK SMILES IDX 52 57 66 58 85 59 50 60 51 61 65 63 86 64 53 65 37 66 38 67
REMARK SMILES IDX 46 68 39 69 40 70 44 71 47 72 41 73 42 74 45 75 43 76 69 77
REMARK SMILES IDX 70 78 78 79 71 80 72 81 76 82 79 83 73 84 74 85 77 86 75 87
REMARK SMILES IDX 54 88 55 89 63 90 56 91 57 92 61 93 64 94 58 95 59 96 62 97
REMARK SMILES IDX 60 98
REMARK H PARENT 1 24 1 25 15 27 84 51 52 62
REMARK Flexibility Score: inf
ROOT
ATOM      1  C   UNL A   1      33.980  33.171  28.020  1.00  0.00     0.202 C 
ENDROOT
BRANCH   1   2
ATOM      2  C   UNL A   1      34.554  31.750  27.986  1.00  0.00     0.261 C 
BRANCH   2   3
ATOM      3  O   UNL A   1      33.625  30.804  27.432  1.00  0.00    -0.460 OA
BRANCH   3   4
ATOM      4  C   UNL A   1      34.194  29.664  26.977  1.00  0.00     0.342 C 
ATOM      5  O   UNL A   1      35.304  29.235  27.260  1.00  0.00    -0.246 OA
BRANCH   4   6
ATOM      6  C   UNL A   1      33.211  28.821  26.264  1.00  0.00     0.102 A 
ATOM      7  C   UNL A   1      32.376  26.699  25.465  1.00  0.00    -0.006 A 
ATOM      8  C   UNL A   1      31.303  27.350  24.843  1.00  0.00     0.013 A 
ATOM      9  C   UNL A   1      33.345  27.430  26.165  1.00  0.00     0.029 A 
ATOM     10  C   UNL A   1      31.187  28.736  24.921  1.00  0.00     0.048 A 
ATOM     11  C   UNL A   1      32.132  29.465  25.635  1.00  0.00     0.130 A 
BRANCH   7  12
ATOM     12  C   UNL A   1      32.425  25.225  25.375  1.00  0.00     0.119 C 
ATOM     13  N   UNL A   1      33.475  24.589  24.966  1.00  0.00    -0.256 NA
BRANCH  13  14
ATOM     14  C   UNL A   1      33.459  23.180  24.923  1.00  0.00     0.063 A 
ATOM     15  C   UNL A   1      33.234  20.376  24.856  1.00  0.00     0.082 A 
ATOM     16  C   UNL A   1      32.191  21.167  24.372  1.00  0.00     0.024 A 
ATOM     17  C   UNL A   1      34.387  20.969  25.371  1.00  0.00     0.024 A 
ATOM     18  C   UNL A   1      32.310  22.561  24.409  1.00  0.00     0.030 A 
ATOM     19  C   UNL A   1      34.489  22.364  25.412  1.00  0.00     0.030 A 
BRANCH  15  20
ATOM     20  S   UNL A   1      33.082  18.615  24.861  1.00  0.00     0.238 S 
ATOM     21  O   UNL A   1      34.392  18.030  24.663  1.00  0.00    -0.207 OA
ATOM     22  O   UNL A   1      31.936  18.247  24.072  1.00  0.00    -0.207 OA
BRANCH  20  23
ATOM     23  N   UNL A   1      32.694  18.271  26.460  1.00  0.00    -0.225 NA
ATOM     24  H   UNL A   1      33.539  18.003  26.964  1.00  0.00     0.137 HD
ATOM     25  H   UNL A   1      32.023  17.503  26.489  1.00  0.00     0.137 HD
ENDBRANCH  20  23
ENDBRANCH  15  20
ENDBRANCH  13  14
ENDBRANCH   7  12
BRANCH  11  26
ATOM     26  O   UNL A   1      31.953  30.824  25.648  1.00  0.00    -0.507 OA
ATOM     27  H   UNL A   1      31.187  31.200  25.262  1.00  0.00     0.293 HD
ENDBRANCH  11  26
ENDBRANCH   4   6
ENDBRANCH   3   4
ENDBRANCH   2   3
ENDBRANCH   1   2
BRANCH   1  28
ATOM     28  O   UNL A   1      33.389  33.613  29.240  1.00  0.00    -0.374 OA
BRANCH  28  29
ATOM     29  C   UNL A   1      34.151  34.487  30.074  1.00  0.00     0.202 C 
BRANCH  29  30
ATOM     30  C   UNL A   1      34.486  34.013  31.494  1.00  0.00     0.261 C 
BRANCH  30  31
ATOM     31  O   UNL A   1      34.734  32.598  31.558  1.00  0.00    -0.460 OA
BRANCH  31  32
ATOM     32  C   UNL A   1      35.689  32.229  32.445  1.00  0.00     0.338 C 
ATOM     33  O   UNL A   1      35.672  32.367  33.657  1.00  0.00    -0.246 OA
BRANCH  32  34
ATOM     34  C   UNL A   1      36.724  31.442  31.753  1.00  0.00     0.060 A 
ATOM     35  C   UNL A   1      37.619  30.702  32.539  1.00  0.00     0.016 A 
ATOM     36  C   UNL A   1      36.863  31.486  30.366  1.00  0.00     0.016 A 
ATOM     37  C   UNL A   1      38.689  30.040  31.942  1.00  0.00     0.010 A 
ATOM     38  C   UNL A   1      37.941  30.829  29.770  1.00  0.00     0.010 A 
ATOM     39  C   UNL A   1      38.878  30.134  30.557  1.00  0.00    -0.014 A 
BRANCH  39  40
ATOM     40  C   UNL A   1      40.135  29.649  29.939  1.00  0.00     0.031 A 
ATOM     41  C   UNL A   1      41.277  30.613  29.779  1.00  0.00     0.074 A 
ATOM     42  C   UNL A   1      40.253  28.380  29.516  1.00  0.00     0.049 A 
ATOM     43  N   UNL A   1      42.417  30.457  29.156  1.00  0.00    -0.248 NA
ATOM     44  C   UNL A   1      41.104  31.936  30.400  1.00  0.00     0.031 C 
ATOM     45  C   UNL A   1      39.234  27.342  29.662  1.00  0.00     0.029 A 
ATOM     46  N   UNL A   1      41.280  27.755  28.854  1.00  0.00    -0.354 N 
ATOM     47  C   UNL A   1      43.087  31.666  29.292  1.00  0.00     0.074 A 
ATOM     48  C   UNL A   1      42.217  32.554  30.033  1.00  0.00     0.031 C 
ATOM     49  C   UNL A   1      39.679  26.213  29.086  1.00  0.00     0.029 A 
ATOM     50  C   UNL A   1      40.992  26.462  28.493  1.00  0.00     0.049 A 
ATOM     51  H   UNL A   1      42.141  28.191  28.657  1.00  0.00     0.167 HD
ATOM     52  C   UNL A   1      44.319  32.001  28.842  1.00  0.00     0.037 A 
ATOM     53  C   UNL A   1      41.695  25.595  27.738  1.00  0.00     0.037 A 
ATOM     54  C   UNL A   1      45.178  31.110  28.108  1.00  0.00     0.049 A 
ATOM     55  C   UNL A   1      43.030  26.017  27.178  1.00  0.00     0.074 A 
ATOM     56  C   UNL A   1      46.452  31.345  27.622  1.00  0.00     0.029 A 
ATOM     57  N   UNL A   1      44.845  29.812  27.748  1.00  0.00    -0.354 N 
ATOM     58  N   UNL A   1      43.665  27.155  27.320  1.00  0.00    -0.248 NA
ATOM     59  C   UNL A   1      43.746  25.033  26.354  1.00  0.00     0.031 C 
ATOM     60  C   UNL A   1      46.865  30.213  26.913  1.00  0.00     0.029 A 
ATOM     61  C   UNL A   1      45.878  29.244  27.021  1.00  0.00     0.049 A 
ATOM     62  H   UNL A   1      44.000  29.361  27.975  1.00  0.00     0.167 HD
ATOM     63  C   UNL A   1      44.870  27.010  26.641  1.00  0.00     0.074 A 
ATOM     64  C   UNL A   1      44.877  25.672  26.088  1.00  0.00     0.031 C 
ATOM     65  C   UNL A   1      45.880  27.901  26.496  1.00  0.00     0.037 A 
BRANCH  52  66
ATOM     66  C   UNL A   1      44.799  33.401  29.098  1.00  0.00     0.064 A 
ATOM     67  C   UNL A   1      45.455  33.755  30.287  1.00  0.00     0.173 A 
ATOM     68  C   UNL A   1      44.627  34.398  28.124  1.00  0.00     0.173 A 
ATOM     69  F   UNL A   1      45.634  32.845  31.256  1.00  0.00    -0.203 F 
ATOM     70  C   UNL A   1      45.895  35.059  30.502  1.00  0.00     0.198 A 
ATOM     71  C   UNL A   1      45.099  35.691  28.328  1.00  0.00     0.198 A 
ATOM     72  F   UNL A   1      44.011  34.113  26.967  1.00  0.00    -0.203 F 
ATOM     73  F   UNL A   1      46.473  35.386  31.666  1.00  0.00    -0.200 F 
ATOM     74  C   UNL A   1      45.725  36.023  29.520  1.00  0.00     0.200 A 
ATOM     75  F   UNL A   1      44.947  36.616  27.371  1.00  0.00    -0.200 F 
ATOM     76  F   UNL A   1      46.157  37.275  29.724  1.00  0.00    -0.200 F 
ENDBRANCH  52  66
BRANCH  53  77
ATOM     77  C   UNL A   1      41.142  24.244  27.450  1.00  0.00     0.064 A 
ATOM     78  C   UNL A   1      40.057  24.079  26.578  1.00  0.00     0.173 A 
ATOM     79  C   UNL A   1      41.676  23.095  28.052  1.00  0.00     0.173 A 
ATOM     80  F   UNL A   1      39.496  25.149  25.997  1.00  0.00    -0.203 F 
ATOM     81  C   UNL A   1      39.513  22.818  26.337  1.00  0.00     0.198 A 
ATOM     82  C   UNL A   1      41.152  21.832  27.786  1.00  0.00     0.198 A 
ATOM     83  F   UNL A   1      42.713  23.196  28.896  1.00  0.00    -0.203 F 
ATOM     84  F   UNL A   1      38.442  22.696  25.542  1.00  0.00    -0.200 F 
ATOM     85  C   UNL A   1      40.064  21.695  26.936  1.00  0.00     0.200 A 
ATOM     86  F   UNL A   1      41.696  20.748  28.355  1.00  0.00    -0.200 F 
ATOM     87  F   UNL A   1      39.542  20.484  26.702  1.00  0.00    -0.200 F 
ENDBRANCH  53  77
BRANCH  65  88
ATOM     88  C   UNL A   1      47.114  27.449  25.767  1.00  0.00     0.064 A 
ATOM     89  C   UNL A   1      47.280  27.651  24.390  1.00  0.00     0.173 A 
ATOM     90  C   UNL A   1      48.177  26.868  26.478  1.00  0.00     0.173 A 
ATOM     91  F   UNL A   1      46.291  28.191  23.662  1.00  0.00    -0.203 F 
ATOM     92  C   UNL A   1      48.457  27.272  23.748  1.00  0.00     0.198 A 
ATOM     93  C   UNL A   1      49.363  26.521  25.840  1.00  0.00     0.198 A 
ATOM     94  F   UNL A   1      48.072  26.659  27.799  1.00  0.00    -0.203 F 
ATOM     95  F   UNL A   1      48.579  27.437  22.424  1.00  0.00    -0.200 F 
ATOM     96  C   UNL A   1      49.501  26.718  24.475  1.00  0.00     0.200 A 
ATOM     97  F   UNL A   1      50.376  26.003  26.548  1.00  0.00    -0.200 F 
ATOM     98  F   UNL A   1      50.639  26.370  23.858  1.00  0.00    -0.200 F 
ENDBRANCH  65  88
ENDBRANCH  39  40
ENDBRANCH  32  34
ENDBRANCH  31  32
ENDBRANCH  30  31
ENDBRANCH  29  30
ENDBRANCH  28  29
ENDBRANCH   1  28
TORSDOF 19
ENDMDL
MODEL 2
REMARK VINA RESULT:     -11.9      5.337     11.139
REMARK SMILES NS(=O)(=O)c1ccc(/N=C/c2ccc(O)c(C(=O)OCCOCCOC(=O)c3ccc(-c4c5nc(c(-c6c(F)c(F)c(F)c(F)c6F)c6ccc([nH]6)c(-c6c(F)c(F)c(F)c(F)c6F)c6nc(c(-c7c(F)c(F)c(F)c(F)c7F)c7ccc4[nH]7)C=C6)C=C5)cc3)c2)cc1
REMARK SMILES IDX 21 1 20 2 19 3 17 4 18 5 16 6 11 7 12 8 91 9 13 10 14 11
REMARK SMILES IDX 10 12 9 13 8 14 5 15 6 16 93 17 7 18 92 19 2 20 3 21 4 22
REMARK SMILES IDX 1 23 15 26 22 28 23 29 24 30 25 31 26 32 27 33 28 34 29 35
REMARK SMILES IDX 90 36 30 37 89 38 31 39 32 40 33 41 83 42 34 43 88 44 82 45
REMARK SMILES IDX 84 46 35 47 87 48 81 49 80 50 36 52 68 53 48 54 67 55 49 56
REMARK SMILES IDX 52 57 66 58 85 59 50 60 51 61 65 63 86 64 53 65 37 66 38 67
REMARK SMILES IDX 46 68 39 69 40 70 44 71 47 72 41 73 42 74 45 75 43 76 69 77
REMARK SMILES IDX 70 78 78 79 71 80 72 81 76 82 79 83 73 84 74 85 77 86 75 87
REMARK SMILES IDX 54 88 55 89 63 90 56 91 57 92 61 93 64 94 58 95 59 96 62 97
REMARK SMILES IDX 60 98
REMARK H PARENT 1 24 1 25 15 27 84 51 52 62
REMARK Flexibility Score: inf
ROOT
ATOM      1  C   UNL A   1      43.723  19.537  25.450  1.00  0.00     0.202 C 
ENDROOT
BRANCH   1   2
ATOM      2  C   UNL A   1      42.816  20.186  26.501  1.00  0.00     0.261 C 
BRANCH   2   3
ATOM      3  O   UNL A   1      41.783  20.988  25.907  1.00  0.00    -0.460 OA
BRANCH   3   4
ATOM      4  C   UNL A   1      40.794  21.345  26.758  1.00  0.00     0.342 C 
ATOM      5  O   UNL A   1      40.925  21.818  27.878  1.00  0.00    -0.246 OA
BRANCH   4   6
ATOM      6  C   UNL A   1      39.478  21.338  26.083  1.00  0.00     0.102 A 
ATOM      7  C   UNL A   1      37.431  22.392  25.352  1.00  0.00    -0.006 A 
ATOM      8  C   UNL A   1      36.986  21.173  24.822  1.00  0.00     0.013 A 
ATOM      9  C   UNL A   1      38.670  22.480  26.000  1.00  0.00     0.029 A 
ATOM     10  C   UNL A   1      37.781  20.034  24.932  1.00  0.00     0.048 A 
ATOM     11  C   UNL A   1      39.023  20.119  25.551  1.00  0.00     0.130 A 
BRANCH   7  12
ATOM     12  C   UNL A   1      36.558  23.571  25.175  1.00  0.00     0.119 C 
ATOM     13  N   UNL A   1      35.343  23.477  24.744  1.00  0.00    -0.256 NA
BRANCH  13  14
ATOM     14  C   UNL A   1      34.560  24.643  24.616  1.00  0.00     0.063 A 
ATOM     15  C   UNL A   1      33.069  26.989  24.183  1.00  0.00     0.082 A 
ATOM     16  C   UNL A   1      33.369  26.150  23.109  1.00  0.00     0.024 A 
ATOM     17  C   UNL A   1      33.502  26.669  25.470  1.00  0.00     0.024 A 
ATOM     18  C   UNL A   1      34.113  24.985  23.333  1.00  0.00     0.030 A 
ATOM     19  C   UNL A   1      34.253  25.507  25.678  1.00  0.00     0.030 A 
BRANCH  15  20
ATOM     20  S   UNL A   1      32.172  28.488  23.912  1.00  0.00     0.238 S 
ATOM     21  O   UNL A   1      31.071  28.553  24.851  1.00  0.00    -0.207 OA
ATOM     22  O   UNL A   1      32.001  28.675  22.496  1.00  0.00    -0.207 OA
BRANCH  20  23
ATOM     23  N   UNL A   1      33.247  29.673  24.426  1.00  0.00    -0.225 NA
ATOM     24  H   UNL A   1      33.351  29.621  25.440  1.00  0.00     0.137 HD
ATOM     25  H   UNL A   1      32.889  30.592  24.168  1.00  0.00     0.137 HD
ENDBRANCH  20  23
ENDBRANCH  15  20
ENDBRANCH  13  14
ENDBRANCH   7  12
BRANCH  11  26
ATOM     26  O   UNL A   1      39.733  18.949  25.631  1.00  0.00    -0.507 OA
ATOM     27  H   UNL A   1      40.166  18.612  24.872  1.00  0.00     0.293 HD
ENDBRANCH  11  26
ENDBRANCH   4   6
ENDBRANCH   3   4
ENDBRANCH   2   3
ENDBRANCH   1   2
BRANCH   1  28
ATOM     28  O   UNL A   1      44.011  20.290  24.274  1.00  0.00    -0.374 OA
BRANCH  28  29
ATOM     29  C   UNL A   1      44.943  21.366  24.380  1.00  0.00     0.202 C 
BRANCH  29  30
ATOM     30  C   UNL A   1      44.471  22.768  23.975  1.00  0.00     0.261 C 
BRANCH  30  31
ATOM     31  O   UNL A   1      43.923  23.505  25.081  1.00  0.00    -0.460 OA
BRANCH  31  32
ATOM     32  C   UNL A   1      44.440  24.746  25.247  1.00  0.00     0.338 C 
ATOM     33  O   UNL A   1      45.329  25.274  24.602  1.00  0.00    -0.246 OA
BRANCH  32  34
ATOM     34  C   UNL A   1      43.636  25.485  26.237  1.00  0.00     0.060 A 
ATOM     35  C   UNL A   1      43.891  26.854  26.399  1.00  0.00     0.016 A 
ATOM     36  C   UNL A   1      42.700  24.835  27.042  1.00  0.00     0.016 A 
ATOM     37  C   UNL A   1      43.246  27.571  27.404  1.00  0.00     0.010 A 
ATOM     38  C   UNL A   1      42.061  25.553  28.055  1.00  0.00     0.010 A 
ATOM     39  C   UNL A   1      42.357  26.913  28.263  1.00  0.00    -0.014 A 
BRANCH  39  40
ATOM     40  C   UNL A   1      41.853  27.592  29.481  1.00  0.00     0.031 A 
ATOM     41  C   UNL A   1      40.582  28.389  29.386  1.00  0.00     0.074 A 
ATOM     42  C   UNL A   1      42.521  27.513  30.643  1.00  0.00     0.049 A 
ATOM     43  N   UNL A   1      40.021  29.169  30.273  1.00  0.00    -0.248 NA
ATOM     44  C   UNL A   1      39.850  28.298  28.113  1.00  0.00     0.031 C 
ATOM     45  C   UNL A   1      43.735  26.732  30.870  1.00  0.00     0.029 A 
ATOM     46  N   UNL A   1      42.279  28.121  31.850  1.00  0.00    -0.354 N 
ATOM     47  C   UNL A   1      38.884  29.678  29.659  1.00  0.00     0.074 A 
ATOM     48  C   UNL A   1      38.848  29.140  28.317  1.00  0.00     0.031 C 
ATOM     49  C   UNL A   1      44.145  26.924  32.135  1.00  0.00     0.029 A 
ATOM     50  C   UNL A   1      43.250  27.876  32.790  1.00  0.00     0.049 A 
ATOM     51  H   UNL A   1      41.487  28.678  32.026  1.00  0.00     0.167 HD
ATOM     52  C   UNL A   1      37.953  30.516  30.174  1.00  0.00     0.037 A 
ATOM     53  C   UNL A   1      43.413  28.393  34.023  1.00  0.00     0.037 A 
ATOM     54  C   UNL A   1      37.995  31.043  31.512  1.00  0.00     0.049 A 
ATOM     55  C   UNL A   1      42.407  29.386  34.546  1.00  0.00     0.074 A 
ATOM     56  C   UNL A   1      37.092  31.885  32.137  1.00  0.00     0.029 A 
ATOM     57  N   UNL A   1      39.004  30.784  32.430  1.00  0.00    -0.354 N 
ATOM     58  N   UNL A   1      41.327  29.855  33.969  1.00  0.00    -0.248 NA
ATOM     59  C   UNL A   1      42.642  29.923  35.894  1.00  0.00     0.031 C 
ATOM     60  C   UNL A   1      37.585  32.186  33.410  1.00  0.00     0.029 A 
ATOM     61  C   UNL A   1      38.758  31.473  33.607  1.00  0.00     0.049 A 
ATOM     62  H   UNL A   1      39.778  30.198  32.269  1.00  0.00     0.167 HD
ATOM     63  C   UNL A   1      40.734  30.705  34.895  1.00  0.00     0.074 A 
ATOM     64  C   UNL A   1      41.574  30.688  36.074  1.00  0.00     0.031 C 
ATOM     65  C   UNL A   1      39.593  31.428  34.781  1.00  0.00     0.037 A 
BRANCH  52  66
ATOM     66  C   UNL A   1      36.826  30.942  29.276  1.00  0.00     0.064 A 
ATOM     67  C   UNL A   1      35.788  30.068  28.921  1.00  0.00     0.173 A 
ATOM     68  C   UNL A   1      36.768  32.258  28.791  1.00  0.00     0.173 A 
ATOM     69  F   UNL A   1      35.801  28.796  29.347  1.00  0.00    -0.203 F 
ATOM     70  C   UNL A   1      34.751  30.486  28.090  1.00  0.00     0.198 A 
ATOM     71  C   UNL A   1      35.712  32.684  27.990  1.00  0.00     0.198 A 
ATOM     72  F   UNL A   1      37.732  33.138  29.104  1.00  0.00    -0.203 F 
ATOM     73  F   UNL A   1      33.798  29.620  27.722  1.00  0.00    -0.200 F 
ATOM     74  C   UNL A   1      34.710  31.795  27.633  1.00  0.00     0.200 A 
ATOM     75  F   UNL A   1      35.666  33.952  27.562  1.00  0.00    -0.200 F 
ATOM     76  F   UNL A   1      33.706  32.199  26.842  1.00  0.00    -0.200 F 
ENDBRANCH  52  66
BRANCH  53  77
ATOM     77  C   UNL A   1      44.587  27.994  34.846  1.00  0.00     0.064 A 
ATOM     78  C   UNL A   1      45.791  28.709  34.780  1.00  0.00     0.173 A 
ATOM     79  C   UNL A   1      44.535  26.883  35.700  1.00  0.00     0.173 A 
ATOM     80  F   UNL A   1      45.899  29.765  33.960  1.00  0.00    -0.203 F 
ATOM     81  C   UNL A   1      46.904  28.315  35.520  1.00  0.00     0.198 A 
ATOM     82  C   UNL A   1      45.638  26.508  36.464  1.00  0.00     0.198 A 
ATOM     83  F   UNL A   1      43.409  26.162  35.800  1.00  0.00    -0.203 F 
ATOM     84  F   UNL A   1      48.058  28.985  35.397  1.00  0.00    -0.200 F 
ATOM     85  C   UNL A   1      46.825  27.219  36.366  1.00  0.00     0.200 A 
ATOM     86  F   UNL A   1      45.554  25.457  37.290  1.00  0.00    -0.200 F 
ATOM     87  F   UNL A   1      47.895  26.841  37.079  1.00  0.00    -0.200 F 
ENDBRANCH  53  77
BRANCH  65  88
ATOM     88  C   UNL A   1      39.138  32.213  35.979  1.00  0.00     0.064 A 
ATOM     89  C   UNL A   1      38.294  31.661  36.953  1.00  0.00     0.173 A 
ATOM     90  C   UNL A   1      39.616  33.517  36.187  1.00  0.00     0.173 A 
ATOM     91  F   UNL A   1      37.799  30.424  36.795  1.00  0.00    -0.203 F 
ATOM     92  C   UNL A   1      37.931  32.392  38.082  1.00  0.00     0.198 A 
ATOM     93  C   UNL A   1      39.279  34.232  37.332  1.00  0.00     0.198 A 
ATOM     94  F   UNL A   1      40.433  34.089  35.290  1.00  0.00    -0.203 F 
ATOM     95  F   UNL A   1      37.091  31.861  38.980  1.00  0.00    -0.200 F 
ATOM     96  C   UNL A   1      38.432  33.671  38.276  1.00  0.00     0.200 A 
ATOM     97  F   UNL A   1      39.779  35.459  37.526  1.00  0.00    -0.200 F 
ATOM     98  F   UNL A   1      38.096  34.365  39.372  1.00  0.00    -0.200 F 
ENDBRANCH  65  88
ENDBRANCH  39  40
ENDBRANCH  32  34
ENDBRANCH  31  32
ENDBRANCH  30  31
ENDBRANCH  29  30
ENDBRANCH  28  29
ENDBRANCH   1  28
TORSDOF 19
ENDMDL
MODEL 3
REMARK VINA RESULT:     -11.9      3.227      9.304
REMARK SMILES NS(=O)(=O)c1ccc(/N=C/c2ccc(O)c(C(=O)OCCOCCOC(=O)c3ccc(-c4c5nc(c(-c6c(F)c(F)c(F)c(F)c6F)c6ccc([nH]6)c(-c6c(F)c(F)c(F)c(F)c6F)c6nc(c(-c7c(F)c(F)c(F)c(F)c7F)c7ccc4[nH]7)C=C6)C=C5)cc3)c2)cc1
REMARK SMILES IDX 21 1 20 2 19 3 17 4 18 5 16 6 11 7 12 8 91 9 13 10 14 11
REMARK SMILES IDX 10 12 9 13 8 14 5 15 6 16 93 17 7 18 92 19 2 20 3 21 4 22
REMARK SMILES IDX 1 23 15 26 22 28 23 29 24 30 25 31 26 32 27 33 28 34 29 35
REMARK SMILES IDX 90 36 30 37 89 38 31 39 32 40 33 41 83 42 34 43 88 44 82 45
REMARK SMILES IDX 84 46 35 47 87 48 81 49 80 50 36 52 68 53 48 54 67 55 49 56
REMARK SMILES IDX 52 57 66 58 85 59 50 60 51 61 65 63 86 64 53 65 37 66 38 67
REMARK SMILES IDX 46 68 39 69 40 70 44 71 47 72 41 73 42 74 45 75 43 76 69 77
REMARK SMILES IDX 70 78 78 79 71 80 72 81 76 82 79 83 73 84 74 85 77 86 75 87
REMARK SMILES IDX 54 88 55 89 63 90 56 91 57 92 61 93 64 94 58 95 59 96 62 97
REMARK SMILES IDX 60 98
REMARK H PARENT 1 24 1 25 15 27 84 51 52 62
REMARK Flexibility Score: inf
ROOT
ATOM      1  C   UNL A   1      36.981  21.721  24.226  1.00  0.00     0.202 C 
ENDROOT
BRANCH   1   2
ATOM      2  C   UNL A   1      35.719  22.417  24.748  1.00  0.00     0.261 C 
BRANCH   2   3
ATOM      3  O   UNL A   1      34.578  22.170  23.912  1.00  0.00    -0.460 OA
BRANCH   3   4
ATOM      4  C   UNL A   1      33.999  23.286  23.410  1.00  0.00     0.342 C 
ATOM      5  O   UNL A   1      33.984  23.640  22.240  1.00  0.00    -0.246 OA
BRANCH   4   6
ATOM      6  C   UNL A   1      33.139  23.942  24.418  1.00  0.00     0.102 A 
ATOM      7  C   UNL A   1      32.446  25.838  25.746  1.00  0.00    -0.006 A 
ATOM      8  C   UNL A   1      31.476  25.048  26.376  1.00  0.00     0.013 A 
ATOM      9  C   UNL A   1      33.295  25.288  24.776  1.00  0.00     0.029 A 
ATOM     10  C   UNL A   1      31.343  23.703  26.037  1.00  0.00     0.048 A 
ATOM     11  C   UNL A   1      32.164  23.157  25.056  1.00  0.00     0.130 A 
BRANCH   7  12
ATOM     12  C   UNL A   1      32.516  27.264  26.125  1.00  0.00     0.119 C 
ATOM     13  N   UNL A   1      33.594  27.807  26.590  1.00  0.00    -0.256 NA
BRANCH  13  14
ATOM     14  C   UNL A   1      33.595  29.179  26.914  1.00  0.00     0.063 A 
ATOM     15  C   UNL A   1      33.724  31.876  27.702  1.00  0.00     0.082 A 
ATOM     16  C   UNL A   1      34.838  31.052  27.868  1.00  0.00     0.024 A 
ATOM     17  C   UNL A   1      32.549  31.371  27.146  1.00  0.00     0.024 A 
ATOM     18  C   UNL A   1      34.765  29.711  27.474  1.00  0.00     0.030 A 
ATOM     19  C   UNL A   1      32.487  30.025  26.767  1.00  0.00     0.030 A 
BRANCH  15  20
ATOM     20  S   UNL A   1      33.781  33.560  28.238  1.00  0.00     0.238 S 
ATOM     21  O   UNL A   1      34.835  34.246  27.518  1.00  0.00    -0.207 OA
ATOM     22  O   UNL A   1      33.666  33.594  29.671  1.00  0.00    -0.207 OA
BRANCH  20  23
ATOM     23  N   UNL A   1      32.354  34.203  27.627  1.00  0.00    -0.225 NA
ATOM     24  H   UNL A   1      32.330  35.208  27.803  1.00  0.00     0.137 HD
ATOM     25  H   UNL A   1      31.557  33.759  28.084  1.00  0.00     0.137 HD
ENDBRANCH  20  23
ENDBRANCH  15  20
ENDBRANCH  13  14
ENDBRANCH   7  12
BRANCH  11  26
ATOM     26  O   UNL A   1      31.979  21.824  24.795  1.00  0.00    -0.507 OA
ATOM     27  H   UNL A   1      31.465  21.559  24.058  1.00  0.00     0.293 HD
ENDBRANCH  11  26
ENDBRANCH   4   6
ENDBRANCH   3   4
ENDBRANCH   2   3
ENDBRANCH   1   2
BRANCH   1  28
ATOM     28  O   UNL A   1      37.850  21.125  25.187  1.00  0.00    -0.374 OA
BRANCH  28  29
ATOM     29  C   UNL A   1      38.218  19.759  24.999  1.00  0.00     0.202 C 
BRANCH  29  30
ATOM     30  C   UNL A   1      39.447  19.236  25.752  1.00  0.00     0.261 C 
BRANCH  30  31
ATOM     31  O   UNL A   1      40.492  20.219  25.850  1.00  0.00    -0.460 OA
BRANCH  31  32
ATOM     32  C   UNL A   1      41.043  20.340  27.082  1.00  0.00     0.338 C 
ATOM     33  O   UNL A   1      41.513  19.456  27.777  1.00  0.00    -0.246 OA
BRANCH  32  34
ATOM     34  C   UNL A   1      41.176  21.768  27.422  1.00  0.00     0.060 A 
ATOM     35  C   UNL A   1      40.484  22.697  26.632  1.00  0.00     0.016 A 
ATOM     36  C   UNL A   1      42.018  22.194  28.449  1.00  0.00     0.016 A 
ATOM     37  C   UNL A   1      40.671  24.062  26.835  1.00  0.00     0.010 A 
ATOM     38  C   UNL A   1      42.211  23.562  28.645  1.00  0.00     0.010 A 
ATOM     39  C   UNL A   1      41.568  24.501  27.817  1.00  0.00    -0.014 A 
BRANCH  39  40
ATOM     40  C   UNL A   1      41.965  25.928  27.883  1.00  0.00     0.031 A 
ATOM     41  C   UNL A   1      43.263  26.344  27.248  1.00  0.00     0.074 A 
ATOM     42  C   UNL A   1      41.194  26.832  28.508  1.00  0.00     0.049 A 
ATOM     43  N   UNL A   1      43.878  27.497  27.289  1.00  0.00    -0.248 NA
ATOM     44  C   UNL A   1      43.965  25.313  26.467  1.00  0.00     0.031 C 
ATOM     45  C   UNL A   1      39.894  26.558  29.116  1.00  0.00     0.029 A 
ATOM     46  N   UNL A   1      41.408  28.166  28.752  1.00  0.00    -0.354 N 
ATOM     47  C   UNL A   1      45.047  27.326  26.560  1.00  0.00     0.074 A 
ATOM     48  C   UNL A   1      45.070  25.951  26.109  1.00  0.00     0.031 C 
ATOM     49  C   UNL A   1      39.434  27.686  29.684  1.00  0.00     0.029 A 
ATOM     50  C   UNL A   1      40.427  28.746  29.518  1.00  0.00     0.049 A 
ATOM     51  H   UNL A   1      42.189  28.659  28.412  1.00  0.00     0.167 HD
ATOM     52  C   UNL A   1      46.012  28.236  26.289  1.00  0.00     0.037 A 
ATOM     53  C   UNL A   1      40.361  29.981  30.053  1.00  0.00     0.037 A 
ATOM     54  C   UNL A   1      45.979  29.602  26.739  1.00  0.00     0.049 A 
ATOM     55  C   UNL A   1      41.485  30.954  29.805  1.00  0.00     0.074 A 
ATOM     56  C   UNL A   1      46.896  30.611  26.504  1.00  0.00     0.029 A 
ATOM     57  N   UNL A   1      44.975  30.150  27.526  1.00  0.00    -0.354 N 
ATOM     58  N   UNL A   1      42.582  30.793  29.104  1.00  0.00    -0.248 NA
ATOM     59  C   UNL A   1      41.362  32.283  30.422  1.00  0.00     0.031 C 
ATOM     60  C   UNL A   1      46.481  31.750  27.201  1.00  0.00     0.029 A 
ATOM     61  C   UNL A   1      45.267  31.474  27.809  1.00  0.00     0.049 A 
ATOM     62  H   UNL A   1      44.175  29.668  27.837  1.00  0.00     0.167 HD
ATOM     63  C   UNL A   1      43.256  32.007  29.161  1.00  0.00     0.074 A 
ATOM     64  C   UNL A   1      42.445  32.897  29.964  1.00  0.00     0.031 C 
ATOM     65  C   UNL A   1      44.436  32.355  28.592  1.00  0.00     0.037 A 
BRANCH  52  66
ATOM     66  C   UNL A   1      47.202  27.777  25.496  1.00  0.00     0.064 A 
ATOM     67  C   UNL A   1      48.349  27.256  26.114  1.00  0.00     0.173 A 
ATOM     68  C   UNL A   1      47.180  27.827  24.094  1.00  0.00     0.173 A 
ATOM     69  F   UNL A   1      48.428  27.197  27.451  1.00  0.00    -0.203 F 
ATOM     70  C   UNL A   1      49.441  26.832  25.359  1.00  0.00     0.198 A 
ATOM     71  C   UNL A   1      48.258  27.370  23.340  1.00  0.00     0.198 A 
ATOM     72  F   UNL A   1      46.106  28.310  23.451  1.00  0.00    -0.203 F 
ATOM     73  F   UNL A   1      50.546  26.388  25.972  1.00  0.00    -0.200 F 
ATOM     74  C   UNL A   1      49.390  26.882  23.973  1.00  0.00     0.200 A 
ATOM     75  F   UNL A   1      48.200  27.404  22.002  1.00  0.00    -0.200 F 
ATOM     76  F   UNL A   1      50.436  26.464  23.247  1.00  0.00    -0.200 F 
ENDBRANCH  52  66
BRANCH  53  77
ATOM     77  C   UNL A   1      39.195  30.364  30.893  1.00  0.00     0.064 A 
ATOM     78  C   UNL A   1      38.097  31.040  30.340  1.00  0.00     0.173 A 
ATOM     79  C   UNL A   1      39.160  30.081  32.267  1.00  0.00     0.173 A 
ATOM     80  F   UNL A   1      38.094  31.356  29.037  1.00  0.00    -0.203 F 
ATOM     81  C   UNL A   1      37.021  31.435  31.133  1.00  0.00     0.198 A 
ATOM     82  C   UNL A   1      38.070  30.448  33.052  1.00  0.00     0.198 A 
ATOM     83  F   UNL A   1      40.184  29.438  32.847  1.00  0.00    -0.203 F 
ATOM     84  F   UNL A   1      36.011  32.126  30.588  1.00  0.00    -0.200 F 
ATOM     85  C   UNL A   1      37.005  31.133  32.486  1.00  0.00     0.200 A 
ATOM     86  F   UNL A   1      38.052  30.142  34.356  1.00  0.00    -0.200 F 
ATOM     87  F   UNL A   1      35.969  31.511  33.247  1.00  0.00    -0.200 F 
ENDBRANCH  53  77
BRANCH  65  88
ATOM     88  C   UNL A   1      44.901  33.775  28.755  1.00  0.00     0.064 A 
ATOM     89  C   UNL A   1      45.768  34.160  29.788  1.00  0.00     0.173 A 
ATOM     90  C   UNL A   1      44.526  34.749  27.815  1.00  0.00     0.173 A 
ATOM     91  F   UNL A   1      46.146  33.271  30.719  1.00  0.00    -0.203 F 
ATOM     92  C   UNL A   1      46.227  35.471  29.884  1.00  0.00     0.198 A 
ATOM     93  C   UNL A   1      45.013  36.049  27.895  1.00  0.00     0.198 A 
ATOM     94  F   UNL A   1      43.705  34.431  26.803  1.00  0.00    -0.203 F 
ATOM     95  F   UNL A   1      47.022  35.828  30.901  1.00  0.00    -0.200 F 
ATOM     96  C   UNL A   1      45.859  36.412  28.932  1.00  0.00     0.200 A 
ATOM     97  F   UNL A   1      44.671  36.950  26.964  1.00  0.00    -0.200 F 
ATOM     98  F   UNL A   1      46.317  37.668  29.016  1.00  0.00    -0.200 F 
ENDBRANCH  65  88
ENDBRANCH  39  40
ENDBRANCH  32  34
ENDBRANCH  31  32
ENDBRANCH  30  31
ENDBRANCH  29  30
ENDBRANCH  28  29
ENDBRANCH   1  28
TORSDOF 19
ENDMDL
