MODEL 1
REMARK VINA RESULT:     -11.4      0.000      0.000
REMARK SMILES CSCC[C@@H](C(=O)OCCOCCOC(=O)c1ccc(-c2c3nc(c(-c4c(F)c(F)c(F)c(F)c4F)c4ccc([nH]4)c(-c4c(F)c(F)c(F)c(F)c4F)c4nc(c(-c5c(F)c(F)c(F)c(F)c5F)c5ccc2[nH]5)C=C4)C=C3)cc1)N1C(=O)/C(=C/c2ccc(-c3ccccc3Cl)o2)SC1=S
REMARK SMILES IDX 10 1 9 2 8 3 6 4 7 5 5 6 4 7 3 8 2 9 1 10 80 11 81 12 98 13
REMARK SMILES IDX 82 14 83 15 97 16 99 17 84 18 85 19 86 20 96 21 87 22 88 23
REMARK SMILES IDX 89 24 90 25 94 26 91 27 93 28 95 29 92 30 11 31 12 32 13 33
REMARK SMILES IDX 14 34 15 35 16 36 17 37 18 38 79 39 19 40 78 41 20 42 21 43
REMARK SMILES IDX 22 44 72 45 23 46 77 47 71 48 73 49 24 50 76 51 70 52 69 53
REMARK SMILES IDX 25 55 57 56 37 57 56 58 38 59 41 60 55 61 74 62 39 63 40 64
REMARK SMILES IDX 54 66 75 67 42 68 26 69 27 70 35 71 28 72 29 73 33 74 36 75
REMARK SMILES IDX 30 76 31 77 34 78 32 79 58 80 59 81 67 82 60 83 61 84 65 85
REMARK SMILES IDX 68 86 62 87 63 88 66 89 64 90 43 91 44 92 52 93 45 94 46 95
REMARK SMILES IDX 50 96 53 97 47 98 48 99 51 100 49 101
REMARK H PARENT 73 54 41 65
REMARK Flexibility Score: inf
ROOT
ATOM      1  C   UNL A   1      31.860  29.767  26.595  1.00  0.00     0.202 C 
ENDROOT
BRANCH   1   2
ATOM      2  C   UNL A   1      32.646  29.349  25.348  1.00  0.00     0.261 C 
BRANCH   2   3
ATOM      3  O   UNL A   1      31.870  29.438  24.138  1.00  0.00    -0.462 OA
BRANCH   3   4
ATOM      4  C   UNL A   1      32.274  28.624  23.125  1.00  0.00     0.329 C 
ATOM      5  O   UNL A   1      33.425  28.594  22.703  1.00  0.00    -0.250 OA
BRANCH   4   6
ATOM      6  C   UNL A   1      31.114  27.788  22.538  1.00  0.00     0.202 C 
BRANCH   6   7
ATOM      7  C   UNL A   1      29.710  28.289  22.955  1.00  0.00     0.048 C 
BRANCH   7   8
ATOM      8  C   UNL A   1      29.072  29.455  22.196  1.00  0.00     0.072 C 
BRANCH   8   9
ATOM      9  S   UNL A   1      27.568  30.126  22.964  1.00  0.00    -0.165 SA
ATOM     10  C   UNL A   1      28.031  31.865  23.137  1.00  0.00     0.085 C 
ENDBRANCH   8   9
ENDBRANCH   7   8
ENDBRANCH   6   7
BRANCH   6  11
ATOM     11  N   UNL A   1      31.410  26.372  22.942  1.00  0.00    -0.278 N 
ATOM     12  C   UNL A   1      31.188  25.896  24.224  1.00  0.00     0.267 C 
ATOM     13  C   UNL A   1      32.081  25.493  22.097  1.00  0.00     0.149 C 
ATOM     14  O   UNL A   1      30.678  26.499  25.159  1.00  0.00    -0.268 OA
ATOM     15  C   UNL A   1      31.700  24.509  24.373  1.00  0.00     0.084 C 
ATOM     16  S   UNL A   1      32.623  24.081  22.996  1.00  0.00    -0.054 SA
ATOM     17  S   UNL A   1      32.385  25.652  20.460  1.00  0.00    -0.052 S 
ATOM     18  C   UNL A   1      31.449  23.780  25.467  1.00  0.00     0.068 C 
BRANCH  18  19
ATOM     19  C   UNL A   1      32.119  22.554  25.722  1.00  0.00     0.128 A 
ATOM     20  C   UNL A   1      33.080  22.318  26.695  1.00  0.00     0.051 A 
ATOM     21  O   UNL A   1      31.924  21.383  25.024  1.00  0.00    -0.457 OA
ATOM     22  C   UNL A   1      33.504  20.981  26.567  1.00  0.00     0.051 A 
ATOM     23  C   UNL A   1      32.787  20.448  25.520  1.00  0.00     0.136 A 
BRANCH  23  24
ATOM     24  C   UNL A   1      32.787  19.127  24.905  1.00  0.00     0.036 A 
ATOM     25  C   UNL A   1      33.109  18.022  25.716  1.00  0.00     0.013 A 
ATOM     26  C   UNL A   1      32.582  18.910  23.533  1.00  0.00     0.052 A 
ATOM     27  C   UNL A   1      33.237  16.740  25.174  1.00  0.00     0.001 A 
ATOM     28  C   UNL A   1      32.713  17.622  22.993  1.00  0.00     0.021 A 
ATOM     29  Cl  UNL A   1      32.235  20.193  22.425  1.00  0.00    -0.084 Cl
ATOM     30  C   UNL A   1      33.045  16.542  23.811  1.00  0.00     0.002 A 
ENDBRANCH  23  24
ENDBRANCH  18  19
ENDBRANCH   6  11
ENDBRANCH   4   6
ENDBRANCH   3   4
ENDBRANCH   2   3
ENDBRANCH   1   2
BRANCH   1  31
ATOM     31  O   UNL A   1      32.115  31.071  27.109  1.00  0.00    -0.374 OA
BRANCH  31  32
ATOM     32  C   UNL A   1      31.418  32.162  26.505  1.00  0.00     0.202 C 
BRANCH  32  33
ATOM     33  C   UNL A   1      31.890  33.565  26.891  1.00  0.00     0.261 C 
BRANCH  33  34
ATOM     34  O   UNL A   1      32.467  33.576  28.211  1.00  0.00    -0.460 OA
BRANCH  34  35
ATOM     35  C   UNL A   1      33.528  34.401  28.349  1.00  0.00     0.338 C 
ATOM     36  O   UNL A   1      33.525  35.625  28.312  1.00  0.00    -0.246 OA
BRANCH  35  37
ATOM     37  C   UNL A   1      34.726  33.639  28.746  1.00  0.00     0.060 A 
ATOM     38  C   UNL A   1      34.514  32.387  29.337  1.00  0.00     0.016 A 
ATOM     39  C   UNL A   1      36.018  34.155  28.621  1.00  0.00     0.016 A 
ATOM     40  C   UNL A   1      35.585  31.677  29.869  1.00  0.00     0.010 A 
ATOM     41  C   UNL A   1      37.094  33.441  29.163  1.00  0.00     0.010 A 
ATOM     42  C   UNL A   1      36.877  32.220  29.826  1.00  0.00    -0.014 A 
BRANCH  42  43
ATOM     43  C   UNL A   1      37.953  31.569  30.612  1.00  0.00     0.031 A 
ATOM     44  C   UNL A   1      38.815  30.528  29.949  1.00  0.00     0.074 A 
ATOM     45  C   UNL A   1      38.205  31.950  31.876  1.00  0.00     0.049 A 
ATOM     46  N   UNL A   1      39.825  29.853  30.437  1.00  0.00    -0.248 NA
ATOM     47  C   UNL A   1      38.498  30.208  28.548  1.00  0.00     0.031 C 
ATOM     48  C   UNL A   1      37.465  32.974  32.612  1.00  0.00     0.029 A 
ATOM     49  N   UNL A   1      39.160  31.520  32.763  1.00  0.00    -0.354 N 
ATOM     50  C   UNL A   1      40.268  29.036  29.404  1.00  0.00     0.074 A 
ATOM     51  C   UNL A   1      39.395  29.272  28.274  1.00  0.00     0.031 C 
ATOM     52  C   UNL A   1      37.992  33.090  33.843  1.00  0.00     0.029 A 
ATOM     53  C   UNL A   1      39.086  32.133  33.990  1.00  0.00     0.049 A 
ATOM     54  H   UNL A   1      39.833  30.837  32.542  1.00  0.00     0.167 HD
ATOM     55  C   UNL A   1      41.316  28.178  29.394  1.00  0.00     0.037 A 
ATOM     56  C   UNL A   1      39.812  31.930  35.107  1.00  0.00     0.037 A 
ATOM     57  C   UNL A   1      42.184  27.945  30.518  1.00  0.00     0.049 A 
ATOM     58  C   UNL A   1      40.928  30.918  35.088  1.00  0.00     0.074 A 
ATOM     59  C   UNL A   1      43.277  27.100  30.603  1.00  0.00     0.029 A 
ATOM     60  N   UNL A   1      42.053  28.555  31.755  1.00  0.00    -0.354 N 
ATOM     61  N   UNL A   1      41.354  30.169  34.099  1.00  0.00    -0.248 NA
ATOM     62  C   UNL A   1      41.669  30.727  36.343  1.00  0.00     0.031 C 
ATOM     63  C   UNL A   1      43.781  27.165  31.906  1.00  0.00     0.029 A 
ATOM     64  C   UNL A   1      43.033  28.087  32.618  1.00  0.00     0.049 A 
ATOM     65  H   UNL A   1      41.367  29.221  31.988  1.00  0.00     0.167 HD
ATOM     66  C   UNL A   1      42.424  29.442  34.604  1.00  0.00     0.074 A 
ATOM     67  C   UNL A   1      42.598  29.854  35.981  1.00  0.00     0.031 C 
ATOM     68  C   UNL A   1      43.194  28.513  33.985  1.00  0.00     0.037 A 
BRANCH  55  69
ATOM     69  C   UNL A   1      41.577  27.413  28.130  1.00  0.00     0.064 A 
ATOM     70  C   UNL A   1      42.436  27.906  27.137  1.00  0.00     0.173 A 
ATOM     71  C   UNL A   1      41.006  26.148  27.934  1.00  0.00     0.173 A 
ATOM     72  F   UNL A   1      42.997  29.118  27.271  1.00  0.00    -0.203 F 
ATOM     73  C   UNL A   1      42.701  27.167  25.987  1.00  0.00     0.198 A 
ATOM     74  C   UNL A   1      41.293  25.398  26.796  1.00  0.00     0.198 A 
ATOM     75  F   UNL A   1      40.179  25.628  28.855  1.00  0.00    -0.203 F 
ATOM     76  F   UNL A   1      43.498  27.672  25.036  1.00  0.00    -0.200 F 
ATOM     77  C   UNL A   1      42.137  25.911  25.822  1.00  0.00     0.200 A 
ATOM     78  F   UNL A   1      40.756  24.181  26.644  1.00  0.00    -0.200 F 
ATOM     79  F   UNL A   1      42.404  25.194  24.722  1.00  0.00    -0.200 F 
ENDBRANCH  55  69
BRANCH  56  80
ATOM     80  C   UNL A   1      39.500  32.687  36.348  1.00  0.00     0.064 A 
ATOM     81  C   UNL A   1      38.524  32.238  37.249  1.00  0.00     0.173 A 
ATOM     82  C   UNL A   1      40.146  33.898  36.638  1.00  0.00     0.173 A 
ATOM     83  F   UNL A   1      37.861  31.098  37.002  1.00  0.00    -0.203 F 
ATOM     84  C   UNL A   1      38.188  32.982  38.377  1.00  0.00     0.198 A 
ATOM     85  C   UNL A   1      39.831  34.627  37.783  1.00  0.00     0.198 A 
ATOM     86  F   UNL A   1      41.086  34.374  35.808  1.00  0.00    -0.203 F 
ATOM     87  F   UNL A   1      37.212  32.558  39.190  1.00  0.00    -0.200 F 
ATOM     88  C   UNL A   1      38.844  34.174  38.645  1.00  0.00     0.200 A 
ATOM     89  F   UNL A   1      40.476  35.772  38.043  1.00  0.00    -0.200 F 
ATOM     90  F   UNL A   1      38.519  34.892  39.728  1.00  0.00    -0.200 F 
ENDBRANCH  56  80
BRANCH  68  91
ATOM     91  C   UNL A   1      44.310  27.903  34.783  1.00  0.00     0.064 A 
ATOM     92  C   UNL A   1      44.150  26.684  35.459  1.00  0.00     0.173 A 
ATOM     93  C   UNL A   1      45.561  28.534  34.854  1.00  0.00     0.173 A 
ATOM     94  F   UNL A   1      42.970  26.048  35.434  1.00  0.00    -0.203 F 
ATOM     95  C   UNL A   1      45.192  26.137  36.203  1.00  0.00     0.198 A 
ATOM     96  C   UNL A   1      46.611  27.967  35.573  1.00  0.00     0.198 A 
ATOM     97  F   UNL A   1      45.769  29.697  34.219  1.00  0.00    -0.203 F 
ATOM     98  F   UNL A   1      45.000  25.000  36.886  1.00  0.00    -0.200 F 
ATOM     99  C   UNL A   1      46.422  26.775  36.256  1.00  0.00     0.200 A 
ATOM    100  F   UNL A   1      47.802  28.579  35.612  1.00  0.00    -0.200 F 
ATOM    101  F   UNL A   1      47.424  26.246  36.971  1.00  0.00    -0.200 F 
ENDBRANCH  68  91
ENDBRANCH  42  43
ENDBRANCH  35  37
ENDBRANCH  34  35
ENDBRANCH  33  34
ENDBRANCH  32  33
ENDBRANCH  31  32
ENDBRANCH   1  31
TORSDOF 20
ENDMDL
MODEL 2
REMARK VINA RESULT:     -11.2      1.667      7.252
REMARK SMILES CSCC[C@@H](C(=O)OCCOCCOC(=O)c1ccc(-c2c3nc(c(-c4c(F)c(F)c(F)c(F)c4F)c4ccc([nH]4)c(-c4c(F)c(F)c(F)c(F)c4F)c4nc(c(-c5c(F)c(F)c(F)c(F)c5F)c5ccc2[nH]5)C=C4)C=C3)cc1)N1C(=O)/C(=C/c2ccc(-c3ccccc3Cl)o2)SC1=S
REMARK SMILES IDX 10 1 9 2 8 3 6 4 7 5 5 6 4 7 3 8 2 9 1 10 80 11 81 12 98 13
REMARK SMILES IDX 82 14 83 15 97 16 99 17 84 18 85 19 86 20 96 21 87 22 88 23
REMARK SMILES IDX 89 24 90 25 94 26 91 27 93 28 95 29 92 30 11 31 12 32 13 33
REMARK SMILES IDX 14 34 15 35 16 36 17 37 18 38 79 39 19 40 78 41 20 42 21 43
REMARK SMILES IDX 22 44 72 45 23 46 77 47 71 48 73 49 24 50 76 51 70 52 69 53
REMARK SMILES IDX 25 55 57 56 37 57 56 58 38 59 41 60 55 61 74 62 39 63 40 64
REMARK SMILES IDX 54 66 75 67 42 68 26 69 27 70 35 71 28 72 29 73 33 74 36 75
REMARK SMILES IDX 30 76 31 77 34 78 32 79 58 80 59 81 67 82 60 83 61 84 65 85
REMARK SMILES IDX 68 86 62 87 63 88 66 89 64 90 43 91 44 92 52 93 45 94 46 95
REMARK SMILES IDX 50 96 53 97 47 98 48 99 51 100 49 101
REMARK H PARENT 73 54 41 65
REMARK Flexibility Score: inf
ROOT
ATOM      1  C   UNL A   1      32.507  30.648  26.765  1.00  0.00     0.202 C 
ENDROOT
BRANCH   1   2
ATOM      2  C   UNL A   1      33.055  29.697  25.695  1.00  0.00     0.261 C 
BRANCH   2   3
ATOM      3  O   UNL A   1      32.194  29.588  24.546  1.00  0.00    -0.462 OA
BRANCH   3   4
ATOM      4  C   UNL A   1      32.691  28.855  23.513  1.00  0.00     0.329 C 
ATOM      5  O   UNL A   1      33.705  29.161  22.895  1.00  0.00    -0.250 OA
BRANCH   4   6
ATOM      6  C   UNL A   1      31.809  27.630  23.178  1.00  0.00     0.202 C 
BRANCH   6   7
ATOM      7  C   UNL A   1      30.339  27.775  23.641  1.00  0.00     0.048 C 
BRANCH   7   8
ATOM      8  C   UNL A   1      29.299  28.343  22.672  1.00  0.00     0.072 C 
BRANCH   8   9
ATOM      9  S   UNL A   1      29.482  30.116  22.317  1.00  0.00    -0.165 SA
ATOM     10  C   UNL A   1      28.045  30.393  21.256  1.00  0.00     0.085 C 
ENDBRANCH   8   9
ENDBRANCH   7   8
ENDBRANCH   6   7
BRANCH   6  11
ATOM     11  N   UNL A   1      32.531  26.455  23.773  1.00  0.00    -0.278 N 
ATOM     12  C   UNL A   1      33.464  25.713  23.066  1.00  0.00     0.267 C 
ATOM     13  C   UNL A   1      32.188  25.936  25.017  1.00  0.00     0.149 C 
ATOM     14  O   UNL A   1      33.876  25.927  21.933  1.00  0.00    -0.268 OA
ATOM     15  C   UNL A   1      33.910  24.533  23.851  1.00  0.00     0.084 C 
ATOM     16  S   UNL A   1      32.923  24.353  25.238  1.00  0.00    -0.054 SA
ATOM     17  S   UNL A   1      31.230  26.624  26.202  1.00  0.00    -0.052 S 
ATOM     18  C   UNL A   1      34.929  23.763  23.448  1.00  0.00     0.068 C 
BRANCH  18  19
ATOM     19  C   UNL A   1      35.213  22.514  24.058  1.00  0.00     0.128 A 
ATOM     20  C   UNL A   1      36.353  22.177  24.775  1.00  0.00     0.051 A 
ATOM     21  O   UNL A   1      34.389  21.410  24.028  1.00  0.00    -0.457 OA
ATOM     22  C   UNL A   1      36.237  20.829  25.163  1.00  0.00     0.051 A 
ATOM     23  C   UNL A   1      35.029  20.389  24.669  1.00  0.00     0.136 A 
BRANCH  23  24
ATOM     24  C   UNL A   1      34.358  19.097  24.732  1.00  0.00     0.036 A 
ATOM     25  C   UNL A   1      35.119  17.944  24.459  1.00  0.00     0.013 A 
ATOM     26  C   UNL A   1      32.979  18.949  24.952  1.00  0.00     0.052 A 
ATOM     27  C   UNL A   1      34.522  16.682  24.393  1.00  0.00     0.001 A 
ATOM     28  C   UNL A   1      32.384  17.680  24.883  1.00  0.00     0.021 A 
ATOM     29  Cl  UNL A   1      31.929  20.293  25.244  1.00  0.00    -0.084 Cl
ATOM     30  C   UNL A   1      33.153  16.552  24.599  1.00  0.00     0.002 A 
ENDBRANCH  23  24
ENDBRANCH  18  19
ENDBRANCH   6  11
ENDBRANCH   4   6
ENDBRANCH   3   4
ENDBRANCH   2   3
ENDBRANCH   1   2
BRANCH   1  31
ATOM     31  O   UNL A   1      33.375  30.960  27.853  1.00  0.00    -0.374 OA
BRANCH  31  32
ATOM     32  C   UNL A   1      33.926  32.277  27.895  1.00  0.00     0.202 C 
BRANCH  32  33
ATOM     33  C   UNL A   1      32.986  33.419  27.508  1.00  0.00     0.261 C 
BRANCH  33  34
ATOM     34  O   UNL A   1      32.467  34.086  28.675  1.00  0.00    -0.460 OA
BRANCH  34  35
ATOM     35  C   UNL A   1      33.194  35.150  29.080  1.00  0.00     0.338 C 
ATOM     36  O   UNL A   1      32.891  36.333  28.993  1.00  0.00    -0.246 OA
BRANCH  35  37
ATOM     37  C   UNL A   1      34.378  34.706  29.838  1.00  0.00     0.060 A 
ATOM     38  C   UNL A   1      35.624  34.864  29.219  1.00  0.00     0.016 A 
ATOM     39  C   UNL A   1      34.280  34.082  31.085  1.00  0.00     0.016 A 
ATOM     40  C   UNL A   1      36.768  34.336  29.809  1.00  0.00     0.010 A 
ATOM     41  C   UNL A   1      35.432  33.547  31.674  1.00  0.00     0.010 A 
ATOM     42  C   UNL A   1      36.673  33.634  31.018  1.00  0.00    -0.014 A 
BRANCH  42  43
ATOM     43  C   UNL A   1      37.853  32.873  31.497  1.00  0.00     0.031 A 
ATOM     44  C   UNL A   1      38.535  33.306  32.768  1.00  0.00     0.074 A 
ATOM     45  C   UNL A   1      38.266  31.770  30.850  1.00  0.00     0.049 A 
ATOM     46  N   UNL A   1      39.561  32.773  33.382  1.00  0.00    -0.248 NA
ATOM     47  C   UNL A   1      37.985  34.496  33.436  1.00  0.00     0.031 C 
ATOM     48  C   UNL A   1      37.662  31.229  29.633  1.00  0.00     0.029 A 
ATOM     49  N   UNL A   1      39.291  30.903  31.132  1.00  0.00    -0.354 N 
ATOM     50  C   UNL A   1      39.774  33.557  34.510  1.00  0.00     0.074 A 
ATOM     51  C   UNL A   1      38.796  34.622  34.476  1.00  0.00     0.031 C 
ATOM     52  C   UNL A   1      38.332  30.123  29.270  1.00  0.00     0.029 A 
ATOM     53  C   UNL A   1      39.426  29.893  30.210  1.00  0.00     0.049 A 
ATOM     54  H   UNL A   1      39.876  30.996  31.918  1.00  0.00     0.167 HD
ATOM     55  C   UNL A   1      40.694  33.393  35.491  1.00  0.00     0.037 A 
ATOM     56  C   UNL A   1      40.340  28.906  30.132  1.00  0.00     0.037 A 
ATOM     57  C   UNL A   1      41.666  32.333  35.524  1.00  0.00     0.049 A 
ATOM     58  C   UNL A   1      41.396  28.790  31.201  1.00  0.00     0.074 A 
ATOM     59  C   UNL A   1      42.634  32.080  36.480  1.00  0.00     0.029 A 
ATOM     60  N   UNL A   1      41.797  31.353  34.553  1.00  0.00    -0.354 N 
ATOM     61  N   UNL A   1      41.573  29.521  32.276  1.00  0.00    -0.248 NA
ATOM     62  C   UNL A   1      42.376  27.705  31.048  1.00  0.00     0.031 C 
ATOM     63  C   UNL A   1      43.381  30.972  36.064  1.00  0.00     0.029 A 
ATOM     64  C   UNL A   1      42.846  30.505  34.876  1.00  0.00     0.049 A 
ATOM     65  H   UNL A   1      41.230  31.270  33.753  1.00  0.00     0.167 HD
ATOM     66  C   UNL A   1      42.663  28.970  32.937  1.00  0.00     0.074 A 
ATOM     67  C   UNL A   1      43.095  27.831  32.154  1.00  0.00     0.031 C 
ATOM     68  C   UNL A   1      43.258  29.372  34.087  1.00  0.00     0.037 A 
BRANCH  55  69
ATOM     69  C   UNL A   1      40.703  34.394  36.609  1.00  0.00     0.064 A 
ATOM     70  C   UNL A   1      39.923  34.216  37.761  1.00  0.00     0.173 A 
ATOM     71  C   UNL A   1      41.544  35.515  36.552  1.00  0.00     0.173 A 
ATOM     72  F   UNL A   1      39.093  33.167  37.858  1.00  0.00    -0.203 F 
ATOM     73  C   UNL A   1      39.974  35.132  38.808  1.00  0.00     0.198 A 
ATOM     74  C   UNL A   1      41.612  36.416  37.612  1.00  0.00     0.198 A 
ATOM     75  F   UNL A   1      42.313  35.730  35.473  1.00  0.00    -0.203 F 
ATOM     76  F   UNL A   1      39.195  34.961  39.885  1.00  0.00    -0.200 F 
ATOM     77  C   UNL A   1      40.823  36.226  38.737  1.00  0.00     0.200 A 
ATOM     78  F   UNL A   1      42.442  37.465  37.545  1.00  0.00    -0.200 F 
ATOM     79  F   UNL A   1      40.881  37.099  39.751  1.00  0.00    -0.200 F 
ENDBRANCH  55  69
BRANCH  56  80
ATOM     80  C   UNL A   1      40.314  27.954  28.991  1.00  0.00     0.064 A 
ATOM     81  C   UNL A   1      41.002  28.226  27.800  1.00  0.00     0.173 A 
ATOM     82  C   UNL A   1      39.566  26.768  29.055  1.00  0.00     0.173 A 
ATOM     83  F   UNL A   1      41.711  29.359  27.681  1.00  0.00    -0.203 F 
ATOM     84  C   UNL A   1      40.923  27.364  26.709  1.00  0.00     0.198 A 
ATOM     85  C   UNL A   1      39.512  25.891  27.974  1.00  0.00     0.198 A 
ATOM     86  F   UNL A   1      38.887  26.462  30.170  1.00  0.00    -0.203 F 
ATOM     87  F   UNL A   1      41.544  27.676  25.564  1.00  0.00    -0.200 F 
ATOM     88  C   UNL A   1      40.181  26.195  26.798  1.00  0.00     0.200 A 
ATOM     89  F   UNL A   1      38.803  24.758  28.069  1.00  0.00    -0.200 F 
ATOM     90  F   UNL A   1      40.102  25.367  25.748  1.00  0.00    -0.200 F 
ENDBRANCH  56  80
BRANCH  68  91
ATOM     91  C   UNL A   1      44.419  28.557  34.582  1.00  0.00     0.064 A 
ATOM     92  C   UNL A   1      45.740  28.870  34.230  1.00  0.00     0.173 A 
ATOM     93  C   UNL A   1      44.207  27.465  35.436  1.00  0.00     0.173 A 
ATOM     94  F   UNL A   1      45.994  29.896  33.405  1.00  0.00    -0.203 F 
ATOM     95  C   UNL A   1      46.804  28.098  34.690  1.00  0.00     0.198 A 
ATOM     96  C   UNL A   1      45.277  26.715  35.920  1.00  0.00     0.198 A 
ATOM     97  F   UNL A   1      42.964  27.129  35.811  1.00  0.00    -0.203 F 
ATOM     98  F   UNL A   1      48.053  28.381  34.295  1.00  0.00    -0.200 F 
ATOM     99  C   UNL A   1      46.573  27.025  35.538  1.00  0.00     0.200 A 
ATOM    100  F   UNL A   1      45.052  25.687  36.749  1.00  0.00    -0.200 F 
ATOM    101  F   UNL A   1      47.598  26.285  35.980  1.00  0.00    -0.200 F 
ENDBRANCH  68  91
ENDBRANCH  42  43
ENDBRANCH  35  37
ENDBRANCH  34  35
ENDBRANCH  33  34
ENDBRANCH  32  33
ENDBRANCH  31  32
ENDBRANCH   1  31
TORSDOF 20
ENDMDL
MODEL 3
REMARK VINA RESULT:     -10.8      1.668      2.312
REMARK SMILES CSCC[C@@H](C(=O)OCCOCCOC(=O)c1ccc(-c2c3nc(c(-c4c(F)c(F)c(F)c(F)c4F)c4ccc([nH]4)c(-c4c(F)c(F)c(F)c(F)c4F)c4nc(c(-c5c(F)c(F)c(F)c(F)c5F)c5ccc2[nH]5)C=C4)C=C3)cc1)N1C(=O)/C(=C/c2ccc(-c3ccccc3Cl)o2)SC1=S
REMARK SMILES IDX 10 1 9 2 8 3 6 4 7 5 5 6 4 7 3 8 2 9 1 10 80 11 81 12 98 13
REMARK SMILES IDX 82 14 83 15 97 16 99 17 84 18 85 19 86 20 96 21 87 22 88 23
REMARK SMILES IDX 89 24 90 25 94 26 91 27 93 28 95 29 92 30 11 31 12 32 13 33
REMARK SMILES IDX 14 34 15 35 16 36 17 37 18 38 79 39 19 40 78 41 20 42 21 43
REMARK SMILES IDX 22 44 72 45 23 46 77 47 71 48 73 49 24 50 76 51 70 52 69 53
REMARK SMILES IDX 25 55 57 56 37 57 56 58 38 59 41 60 55 61 74 62 39 63 40 64
REMARK SMILES IDX 54 66 75 67 42 68 26 69 27 70 35 71 28 72 29 73 33 74 36 75
REMARK SMILES IDX 30 76 31 77 34 78 32 79 58 80 59 81 67 82 60 83 61 84 65 85
REMARK SMILES IDX 68 86 62 87 63 88 66 89 64 90 43 91 44 92 52 93 45 94 46 95
REMARK SMILES IDX 50 96 53 97 47 98 48 99 51 100 49 101
REMARK H PARENT 73 54 41 65
REMARK Flexibility Score: inf
ROOT
ATOM      1  C   UNL A   1      31.928  30.290  26.657  1.00  0.00     0.202 C 
ENDROOT
BRANCH   1   2
ATOM      2  C   UNL A   1      32.399  29.647  25.347  1.00  0.00     0.261 C 
BRANCH   2   3
ATOM      3  O   UNL A   1      31.371  29.606  24.340  1.00  0.00    -0.462 OA
BRANCH   3   4
ATOM      4  C   UNL A   1      31.699  28.938  23.200  1.00  0.00     0.329 C 
ATOM      5  O   UNL A   1      32.694  29.193  22.531  1.00  0.00    -0.250 OA
BRANCH   4   6
ATOM      6  C   UNL A   1      30.652  27.865  22.822  1.00  0.00     0.202 C 
BRANCH   6   7
ATOM      7  C   UNL A   1      29.226  28.176  23.336  1.00  0.00     0.048 C 
BRANCH   7   8
ATOM      8  C   UNL A   1      28.264  28.969  22.448  1.00  0.00     0.072 C 
BRANCH   8   9
ATOM      9  S   UNL A   1      28.957  30.501  21.759  1.00  0.00    -0.165 SA
ATOM     10  C   UNL A   1      27.808  31.721  22.435  1.00  0.00     0.085 C 
ENDBRANCH   8   9
ENDBRANCH   7   8
ENDBRANCH   6   7
BRANCH   6  11
ATOM     11  N   UNL A   1      31.222  26.569  23.326  1.00  0.00    -0.278 N 
ATOM     12  C   UNL A   1      31.160  26.192  24.657  1.00  0.00     0.267 C 
ATOM     13  C   UNL A   1      31.995  25.743  22.515  1.00  0.00     0.149 C 
ATOM     14  O   UNL A   1      30.600  26.785  25.570  1.00  0.00    -0.268 OA
ATOM     15  C   UNL A   1      31.923  24.938  24.890  1.00  0.00     0.084 C 
ATOM     16  S   UNL A   1      32.832  24.545  23.494  1.00  0.00    -0.054 SA
ATOM     17  S   UNL A   1      32.176  25.791  20.854  1.00  0.00    -0.052 S 
ATOM     18  C   UNL A   1      31.869  24.287  26.059  1.00  0.00     0.068 C 
BRANCH  18  19
ATOM     19  C   UNL A   1      32.763  23.230  26.372  1.00  0.00     0.128 A 
ATOM     20  C   UNL A   1      32.698  22.383  27.470  1.00  0.00     0.051 A 
ATOM     21  O   UNL A   1      33.864  22.875  25.625  1.00  0.00    -0.457 OA
ATOM     22  C   UNL A   1      33.803  21.512  27.409  1.00  0.00     0.051 A 
ATOM     23  C   UNL A   1      34.504  21.858  26.275  1.00  0.00     0.136 A 
BRANCH  23  24
ATOM     24  C   UNL A   1      35.730  21.337  25.686  1.00  0.00     0.036 A 
ATOM     25  C   UNL A   1      35.742  19.994  25.265  1.00  0.00     0.013 A 
ATOM     26  C   UNL A   1      36.925  22.071  25.605  1.00  0.00     0.052 A 
ATOM     27  C   UNL A   1      36.911  19.394  24.792  1.00  0.00     0.001 A 
ATOM     28  C   UNL A   1      38.097  21.464  25.132  1.00  0.00     0.021 A 
ATOM     29  Cl  UNL A   1      37.052  23.711  26.141  1.00  0.00    -0.084 Cl
ATOM     30  C   UNL A   1      38.091  20.128  24.731  1.00  0.00     0.002 A 
ENDBRANCH  23  24
ENDBRANCH  18  19
ENDBRANCH   6  11
ENDBRANCH   4   6
ENDBRANCH   3   4
ENDBRANCH   2   3
ENDBRANCH   1   2
BRANCH   1  31
ATOM     31  O   UNL A   1      32.931  30.579  27.628  1.00  0.00    -0.374 OA
BRANCH  31  32
ATOM     32  C   UNL A   1      33.613  31.828  27.515  1.00  0.00     0.202 C 
BRANCH  32  33
ATOM     33  C   UNL A   1      32.738  33.059  27.272  1.00  0.00     0.261 C 
BRANCH  33  34
ATOM     34  O   UNL A   1      32.466  33.757  28.502  1.00  0.00    -0.460 OA
BRANCH  34  35
ATOM     35  C   UNL A   1      33.292  34.797  28.749  1.00  0.00     0.338 C 
ATOM     36  O   UNL A   1      33.135  35.964  28.415  1.00  0.00    -0.246 OA
BRANCH  35  37
ATOM     37  C   UNL A   1      34.374  34.390  29.664  1.00  0.00     0.060 A 
ATOM     38  C   UNL A   1      35.687  34.614  29.233  1.00  0.00     0.016 A 
ATOM     39  C   UNL A   1      34.126  33.737  30.874  1.00  0.00     0.016 A 
ATOM     40  C   UNL A   1      36.757  34.125  29.975  1.00  0.00     0.010 A 
ATOM     41  C   UNL A   1      35.205  33.240  31.616  1.00  0.00     0.010 A 
ATOM     42  C   UNL A   1      36.522  33.395  31.148  1.00  0.00    -0.014 A 
BRANCH  42  43
ATOM     43  C   UNL A   1      37.654  32.676  31.782  1.00  0.00     0.031 A 
ATOM     44  C   UNL A   1      38.285  31.519  31.055  1.00  0.00     0.074 A 
ATOM     45  C   UNL A   1      38.160  33.094  32.955  1.00  0.00     0.049 A 
ATOM     46  N   UNL A   1      39.298  30.768  31.408  1.00  0.00    -0.248 NA
ATOM     47  C   UNL A   1      37.698  31.163  29.753  1.00  0.00     0.031 C 
ATOM     48  C   UNL A   1      37.660  34.226  33.734  1.00  0.00     0.029 A 
ATOM     49  N   UNL A   1      39.212  32.613  33.694  1.00  0.00    -0.354 N 
ATOM     50  C   UNL A   1      39.473  29.858  30.373  1.00  0.00     0.074 A 
ATOM     51  C   UNL A   1      38.440  30.125  29.395  1.00  0.00     0.031 C 
ATOM     52  C   UNL A   1      38.404  34.350  34.847  1.00  0.00     0.029 A 
ATOM     53  C   UNL A   1      39.413  33.293  34.871  1.00  0.00     0.049 A 
ATOM     54  H   UNL A   1      39.769  31.853  33.409  1.00  0.00     0.167 HD
ATOM     55  C   UNL A   1      40.418  28.897  30.245  1.00  0.00     0.037 A 
ATOM     56  C   UNL A   1      40.302  33.073  35.859  1.00  0.00     0.037 A 
ATOM     57  C   UNL A   1      41.445  28.632  31.217  1.00  0.00     0.049 A 
ATOM     58  C   UNL A   1      41.298  31.950  35.720  1.00  0.00     0.074 A 
ATOM     59  C   UNL A   1      42.452  27.684  31.172  1.00  0.00     0.029 A 
ATOM     60  N   UNL A   1      41.592  29.315  32.414  1.00  0.00    -0.354 N 
ATOM     61  N   UNL A   1      41.471  31.112  34.727  1.00  0.00    -0.248 NA
ATOM     62  C   UNL A   1      42.228  31.749  36.840  1.00  0.00     0.031 C 
ATOM     63  C   UNL A   1      43.181  27.763  32.363  1.00  0.00     0.029 A 
ATOM     64  C   UNL A   1      42.661  28.794  33.127  1.00  0.00     0.049 A 
ATOM     65  H   UNL A   1      41.023  30.060  32.714  1.00  0.00     0.167 HD
ATOM     66  C   UNL A   1      42.541  30.304  35.090  1.00  0.00     0.074 A 
ATOM     67  C   UNL A   1      42.992  30.766  36.386  1.00  0.00     0.031 C 
ATOM     68  C   UNL A   1      43.099  29.270  34.414  1.00  0.00     0.037 A 
BRANCH  55  69
ATOM     69  C   UNL A   1      40.380  28.045  29.009  1.00  0.00     0.064 A 
ATOM     70  C   UNL A   1      41.083  28.401  27.849  1.00  0.00     0.173 A 
ATOM     71  C   UNL A   1      39.677  26.831  29.005  1.00  0.00     0.173 A 
ATOM     72  F   UNL A   1      41.759  29.558  27.798  1.00  0.00    -0.203 F 
ATOM     73  C   UNL A   1      41.071  27.580  26.725  1.00  0.00     0.198 A 
ATOM     74  C   UNL A   1      39.689  25.999  27.889  1.00  0.00     0.198 A 
ATOM     75  F   UNL A   1      38.990  26.443  30.091  1.00  0.00    -0.203 F 
ATOM     76  F   UNL A   1      41.722  27.955  25.616  1.00  0.00    -0.200 F 
ATOM     77  C   UNL A   1      40.382  26.376  26.748  1.00  0.00     0.200 A 
ATOM     78  F   UNL A   1      39.031  24.832  27.918  1.00  0.00    -0.200 F 
ATOM     79  F   UNL A   1      40.383  25.580  25.670  1.00  0.00    -0.200 F 
ENDBRANCH  55  69
BRANCH  56  80
ATOM     80  C   UNL A   1      40.286  33.921  37.080  1.00  0.00     0.064 A 
ATOM     81  C   UNL A   1      39.429  33.637  38.152  1.00  0.00     0.173 A 
ATOM     82  C   UNL A   1      41.102  35.058  37.182  1.00  0.00     0.173 A 
ATOM     83  F   UNL A   1      38.611  32.575  38.090  1.00  0.00    -0.203 F 
ATOM     84  C   UNL A   1      39.369  34.470  39.266  1.00  0.00     0.198 A 
ATOM     85  C   UNL A   1      41.064  35.874  38.310  1.00  0.00     0.198 A 
ATOM     86  F   UNL A   1      41.940  35.375  36.183  1.00  0.00    -0.203 F 
ATOM     87  F   UNL A   1      38.499  34.207  40.251  1.00  0.00    -0.200 F 
ATOM     88  C   UNL A   1      40.189  35.586  39.346  1.00  0.00     0.200 A 
ATOM     89  F   UNL A   1      41.867  36.943  38.388  1.00  0.00    -0.200 F 
ATOM     90  F   UNL A   1      40.129  36.389  40.417  1.00  0.00    -0.200 F 
ENDBRANCH  56  80
BRANCH  68  91
ATOM     91  C   UNL A   1      44.277  28.588  35.051  1.00  0.00     0.064 A 
ATOM     92  C   UNL A   1      45.589  29.032  34.832  1.00  0.00     0.173 A 
ATOM     93  C   UNL A   1      44.088  27.493  35.906  1.00  0.00     0.173 A 
ATOM     94  F   UNL A   1      45.824  30.067  34.012  1.00  0.00    -0.203 F 
ATOM     95  C   UNL A   1      46.671  28.383  35.422  1.00  0.00     0.198 A 
ATOM     96  C   UNL A   1      45.170  26.866  36.519  1.00  0.00     0.198 A 
ATOM     97  F   UNL A   1      42.852  27.034  36.155  1.00  0.00    -0.203 F 
ATOM     98  F   UNL A   1      47.920  28.790  35.155  1.00  0.00    -0.200 F 
ATOM     99  C   UNL A   1      46.461  27.305  36.268  1.00  0.00     0.200 A 
ATOM    100  F   UNL A   1      44.964  25.833  37.346  1.00  0.00    -0.200 F 
ATOM    101  F   UNL A   1      47.503  26.683  36.835  1.00  0.00    -0.200 F 
ENDBRANCH  68  91
ENDBRANCH  42  43
ENDBRANCH  35  37
ENDBRANCH  34  35
ENDBRANCH  33  34
ENDBRANCH  32  33
ENDBRANCH  31  32
ENDBRANCH   1  31
TORSDOF 20
ENDMDL
