MODEL 1
REMARK VINA RESULT:     -12.4      0.000      0.000
REMARK SMILES Cc1ccc(C(=O)OCCOCCOC(=O)c2ccc(-c3c4nc(c(-c5c(F)c(F)c(F)c(F)c5F)c5ccc([nH]5)c(-c5c(F)c(F)c(F)c(F)c5F)c5nc(c(-c6c(F)c(F)c(F)c(F)c6F)c6ccc3[nH]6)C=C5)C=C4)cc2)c(Oc2cccc(F)c2C(N)=O)c1
REMARK SMILES IDX 10 1 9 2 8 3 6 4 7 5 5 6 1 7 2 8 3 9 92 10 4 11 80 12 81 13
REMARK SMILES IDX 82 14 83 15 88 16 84 17 86 18 85 19 87 20 89 21 90 22 91 23
REMARK SMILES IDX 11 26 12 27 13 28 14 29 15 30 16 31 17 32 18 33 79 34 19 35
REMARK SMILES IDX 78 36 20 37 21 38 22 39 72 40 23 41 77 42 71 43 73 44 24 45
REMARK SMILES IDX 76 46 70 47 69 48 25 50 57 51 37 52 56 53 38 54 41 55 55 56
REMARK SMILES IDX 74 57 39 58 40 59 54 61 75 62 42 63 26 64 27 65 35 66 28 67
REMARK SMILES IDX 29 68 33 69 36 70 30 71 31 72 34 73 32 74 58 75 59 76 67 77
REMARK SMILES IDX 60 78 61 79 65 80 68 81 62 82 63 83 66 84 64 85 43 86 44 87
REMARK SMILES IDX 52 88 45 89 46 90 50 91 53 92 47 93 48 94 51 95 49 96
REMARK H PARENT 90 24 90 25 73 49 41 60
REMARK Flexibility Score: inf
ROOT
ATOM      1  C   UNL A   1      31.660  28.052  27.216  1.00  0.00     0.202 C 
ENDROOT
BRANCH   1   2
ATOM      2  C   UNL A   1      32.122  26.815  26.531  1.00  0.00     0.261 C 
BRANCH   2   3
ATOM      3  O   UNL A   1      31.274  25.718  26.876  1.00  0.00    -0.460 OA
BRANCH   3   4
ATOM      4  C   UNL A   1      31.608  24.439  26.547  1.00  0.00     0.342 C 
ATOM      5  O   UNL A   1      31.537  23.451  27.241  1.00  0.00    -0.246 OA
BRANCH   4   6
ATOM      6  C   UNL A   1      31.911  24.437  25.090  1.00  0.00     0.102 A 
ATOM      7  C   UNL A   1      32.682  25.282  20.960  1.00  0.00     0.044 C 
ATOM      8  C   UNL A   1      32.414  24.917  22.390  1.00  0.00    -0.047 A 
ATOM      9  C   UNL A   1      31.097  24.901  22.870  1.00  0.00     0.004 A 
ATOM     10  C   UNL A   1      33.479  24.615  23.252  1.00  0.00     0.051 A 
ATOM     11  C   UNL A   1      30.842  24.653  24.217  1.00  0.00     0.020 A 
ATOM     12  C   UNL A   1      33.233  24.379  24.601  1.00  0.00     0.142 A 
BRANCH  12  13
ATOM     13  O   UNL A   1      34.205  24.068  25.521  1.00  0.00    -0.455 OA
BRANCH  13  14
ATOM     14  C   UNL A   1      35.117  23.065  25.343  1.00  0.00     0.143 A 
ATOM     15  C   UNL A   1      36.379  23.558  24.974  1.00  0.00     0.048 A 
ATOM     16  C   UNL A   1      34.866  21.684  25.330  1.00  0.00     0.117 A 
ATOM     17  C   UNL A   1      37.413  22.693  24.640  1.00  0.00     0.007 A 
ATOM     18  C   UNL A   1      35.926  20.829  25.001  1.00  0.00     0.139 A 
ATOM     19  C   UNL A   1      37.186  21.323  24.664  1.00  0.00     0.040 A 
ATOM     20  F   UNL A   1      35.755  19.500  24.944  1.00  0.00    -0.206 F 
BRANCH  16  21
ATOM     21  C   UNL A   1      33.555  21.043  25.597  1.00  0.00     0.255 C 
ATOM     22  N   UNL A   1      33.278  20.678  26.878  1.00  0.00    -0.365 N 
ATOM     23  O   UNL A   1      32.724  20.848  24.720  1.00  0.00    -0.269 OA
ATOM     24  H   UNL A   1      33.942  20.833  27.589  1.00  0.00     0.159 HD
ATOM     25  H   UNL A   1      32.413  20.260  27.095  1.00  0.00     0.159 HD
ENDBRANCH  16  21
ENDBRANCH  13  14
ENDBRANCH  12  13
ENDBRANCH   4   6
ENDBRANCH   3   4
ENDBRANCH   2   3
ENDBRANCH   1   2
BRANCH   1  26
ATOM     26  O   UNL A   1      31.577  29.027  26.192  1.00  0.00    -0.374 OA
BRANCH  26  27
ATOM     27  C   UNL A   1      32.158  30.275  26.512  1.00  0.00     0.202 C 
BRANCH  27  28
ATOM     28  C   UNL A   1      33.642  30.158  26.886  1.00  0.00     0.261 C 
BRANCH  28  29
ATOM     29  O   UNL A   1      33.966  31.160  27.879  1.00  0.00    -0.460 OA
BRANCH  29  30
ATOM     30  C   UNL A   1      35.273  31.546  27.962  1.00  0.00     0.338 C 
ATOM     31  O   UNL A   1      35.709  32.635  27.627  1.00  0.00    -0.246 OA
BRANCH  30  32
ATOM     32  C   UNL A   1      36.139  30.347  28.206  1.00  0.00     0.060 A 
ATOM     33  C   UNL A   1      36.133  29.703  29.461  1.00  0.00     0.016 A 
ATOM     34  C   UNL A   1      37.186  30.111  27.321  1.00  0.00     0.016 A 
ATOM     35  C   UNL A   1      37.247  28.954  29.883  1.00  0.00     0.010 A 
ATOM     36  C   UNL A   1      38.323  29.489  27.794  1.00  0.00     0.010 A 
ATOM     37  C   UNL A   1      38.385  28.932  29.085  1.00  0.00    -0.014 A 
BRANCH  37  38
ATOM     38  C   UNL A   1      39.733  28.488  29.477  1.00  0.00     0.031 A 
ATOM     39  C   UNL A   1      40.134  27.107  29.088  1.00  0.00     0.074 A 
ATOM     40  C   UNL A   1      40.695  29.387  29.822  1.00  0.00     0.049 A 
ATOM     41  N   UNL A   1      41.270  26.574  29.369  1.00  0.00    -0.248 NA
ATOM     42  C   UNL A   1      39.267  26.185  28.356  1.00  0.00     0.031 C 
ATOM     43  C   UNL A   1      42.143  29.273  29.617  1.00  0.00     0.029 A 
ATOM     44  N   UNL A   1      40.590  30.660  30.415  1.00  0.00    -0.354 N 
ATOM     45  C   UNL A   1      41.436  25.479  28.551  1.00  0.00     0.074 A 
ATOM     46  C   UNL A   1      40.114  25.195  28.063  1.00  0.00     0.031 C 
ATOM     47  C   UNL A   1      42.785  30.214  30.333  1.00  0.00     0.029 A 
ATOM     48  C   UNL A   1      41.780  30.888  31.132  1.00  0.00     0.049 A 
ATOM     49  H   UNL A   1      39.827  31.277  30.342  1.00  0.00     0.167 HD
ATOM     50  C   UNL A   1      42.712  25.068  28.291  1.00  0.00     0.037 A 
ATOM     51  C   UNL A   1      41.770  31.083  32.477  1.00  0.00     0.037 A 
ATOM     52  C   UNL A   1      43.659  25.808  29.148  1.00  0.00     0.049 A 
ATOM     53  C   UNL A   1      42.559  29.971  33.094  1.00  0.00     0.074 A 
ATOM     54  C   UNL A   1      44.606  26.787  28.901  1.00  0.00     0.029 A 
ATOM     55  N   UNL A   1      43.473  25.791  30.534  1.00  0.00    -0.354 N 
ATOM     56  N   UNL A   1      42.672  28.806  32.513  1.00  0.00    -0.248 NA
ATOM     57  C   UNL A   1      43.404  30.107  34.273  1.00  0.00     0.031 C 
ATOM     58  C   UNL A   1      44.923  27.413  30.144  1.00  0.00     0.029 A 
ATOM     59  C   UNL A   1      44.187  26.801  31.150  1.00  0.00     0.049 A 
ATOM     60  H   UNL A   1      42.906  25.142  31.010  1.00  0.00     0.167 HD
ATOM     61  C   UNL A   1      43.678  28.115  33.109  1.00  0.00     0.074 A 
ATOM     62  C   UNL A   1      44.057  28.930  34.253  1.00  0.00     0.031 C 
ATOM     63  C   UNL A   1      44.176  26.955  32.601  1.00  0.00     0.037 A 
BRANCH  50  64
ATOM     64  C   UNL A   1      43.161  24.172  27.138  1.00  0.00     0.064 A 
ATOM     65  C   UNL A   1      42.779  22.809  27.109  1.00  0.00     0.173 A 
ATOM     66  C   UNL A   1      44.017  24.541  26.075  1.00  0.00     0.173 A 
ATOM     67  F   UNL A   1      41.943  22.299  28.023  1.00  0.00    -0.203 F 
ATOM     68  C   UNL A   1      43.241  21.905  26.141  1.00  0.00     0.198 A 
ATOM     69  C   UNL A   1      44.462  23.642  25.097  1.00  0.00     0.198 A 
ATOM     70  F   UNL A   1      44.482  25.779  25.920  1.00  0.00    -0.203 F 
ATOM     71  F   UNL A   1      42.866  20.620  26.201  1.00  0.00    -0.200 F 
ATOM     72  C   UNL A   1      44.085  22.321  25.136  1.00  0.00     0.200 A 
ATOM     73  F   UNL A   1      45.274  24.076  24.121  1.00  0.00    -0.200 F 
ATOM     74  F   UNL A   1      44.528  21.460  24.210  1.00  0.00    -0.200 F 
ENDBRANCH  50  64
BRANCH  51  75
ATOM     75  C   UNL A   1      40.504  31.744  32.915  1.00  0.00     0.064 A 
ATOM     76  C   UNL A   1      40.375  33.106  32.556  1.00  0.00     0.173 A 
ATOM     77  C   UNL A   1      39.318  31.018  33.092  1.00  0.00     0.173 A 
ATOM     78  F   UNL A   1      41.475  33.854  32.384  1.00  0.00    -0.203 F 
ATOM     79  C   UNL A   1      39.145  33.650  32.185  1.00  0.00     0.198 A 
ATOM     80  C   UNL A   1      38.081  31.580  32.749  1.00  0.00     0.198 A 
ATOM     81  F   UNL A   1      39.363  29.724  33.435  1.00  0.00    -0.203 F 
ATOM     82  F   UNL A   1      39.093  34.879  31.648  1.00  0.00    -0.200 F 
ATOM     83  C   UNL A   1      38.005  32.870  32.239  1.00  0.00     0.200 A 
ATOM     84  F   UNL A   1      36.970  30.831  32.796  1.00  0.00    -0.200 F 
ATOM     85  F   UNL A   1      36.851  33.334  31.739  1.00  0.00    -0.200 F 
ENDBRANCH  51  75
BRANCH  63  86
ATOM     86  C   UNL A   1      44.771  25.889  33.472  1.00  0.00     0.064 A 
ATOM     87  C   UNL A   1      43.983  25.045  34.275  1.00  0.00     0.173 A 
ATOM     88  C   UNL A   1      46.134  25.543  33.360  1.00  0.00     0.173 A 
ATOM     89  F   UNL A   1      42.653  25.190  34.358  1.00  0.00    -0.203 F 
ATOM     90  C   UNL A   1      44.535  23.978  34.977  1.00  0.00     0.198 A 
ATOM     91  C   UNL A   1      46.665  24.432  34.005  1.00  0.00     0.198 A 
ATOM     92  F   UNL A   1      46.979  26.243  32.590  1.00  0.00    -0.203 F 
ATOM     93  F   UNL A   1      43.752  23.236  35.770  1.00  0.00    -0.200 F 
ATOM     94  C   UNL A   1      45.871  23.664  34.831  1.00  0.00     0.200 A 
ATOM     95  F   UNL A   1      47.946  24.097  33.799  1.00  0.00    -0.200 F 
ATOM     96  F   UNL A   1      46.387  22.606  35.468  1.00  0.00    -0.200 F 
ENDBRANCH  63  86
ENDBRANCH  37  38
ENDBRANCH  30  32
ENDBRANCH  29  30
ENDBRANCH  28  29
ENDBRANCH  27  28
ENDBRANCH  26  27
ENDBRANCH   1  26
TORSDOF 17
ENDMDL
MODEL 2
REMARK VINA RESULT:     -12.2      2.897      4.260
REMARK SMILES Cc1ccc(C(=O)OCCOCCOC(=O)c2ccc(-c3c4nc(c(-c5c(F)c(F)c(F)c(F)c5F)c5ccc([nH]5)c(-c5c(F)c(F)c(F)c(F)c5F)c5nc(c(-c6c(F)c(F)c(F)c(F)c6F)c6ccc3[nH]6)C=C5)C=C4)cc2)c(Oc2cccc(F)c2C(N)=O)c1
REMARK SMILES IDX 10 1 9 2 8 3 6 4 7 5 5 6 1 7 2 8 3 9 92 10 4 11 80 12 81 13
REMARK SMILES IDX 82 14 83 15 88 16 84 17 86 18 85 19 87 20 89 21 90 22 91 23
REMARK SMILES IDX 11 26 12 27 13 28 14 29 15 30 16 31 17 32 18 33 79 34 19 35
REMARK SMILES IDX 78 36 20 37 21 38 22 39 72 40 23 41 77 42 71 43 73 44 24 45
REMARK SMILES IDX 76 46 70 47 69 48 25 50 57 51 37 52 56 53 38 54 41 55 55 56
REMARK SMILES IDX 74 57 39 58 40 59 54 61 75 62 42 63 26 64 27 65 35 66 28 67
REMARK SMILES IDX 29 68 33 69 36 70 30 71 31 72 34 73 32 74 58 75 59 76 67 77
REMARK SMILES IDX 60 78 61 79 65 80 68 81 62 82 63 83 66 84 64 85 43 86 44 87
REMARK SMILES IDX 52 88 45 89 46 90 50 91 53 92 47 93 48 94 51 95 49 96
REMARK H PARENT 90 24 90 25 73 49 41 60
REMARK Flexibility Score: inf
ROOT
ATOM      1  C   UNL A   1      34.153  32.900  27.687  1.00  0.00     0.202 C 
ENDROOT
BRANCH   1   2
ATOM      2  C   UNL A   1      33.646  31.542  28.019  1.00  0.00     0.261 C 
BRANCH   2   3
ATOM      3  O   UNL A   1      33.648  30.720  26.850  1.00  0.00    -0.460 OA
BRANCH   3   4
ATOM      4  C   UNL A   1      33.405  29.382  26.930  1.00  0.00     0.342 C 
ATOM      5  O   UNL A   1      33.903  28.581  27.687  1.00  0.00    -0.246 OA
BRANCH   4   6
ATOM      6  C   UNL A   1      32.259  29.099  26.024  1.00  0.00     0.102 A 
ATOM      7  C   UNL A   1      29.513  28.486  22.792  1.00  0.00     0.044 C 
ATOM      8  C   UNL A   1      30.420  28.690  23.968  1.00  0.00    -0.047 A 
ATOM      9  C   UNL A   1      30.714  29.990  24.403  1.00  0.00     0.004 A 
ATOM     10  C   UNL A   1      30.992  27.587  24.618  1.00  0.00     0.051 A 
ATOM     11  C   UNL A   1      31.626  30.198  25.436  1.00  0.00     0.020 A 
ATOM     12  C   UNL A   1      31.912  27.786  25.642  1.00  0.00     0.142 A 
BRANCH  12  13
ATOM     13  O   UNL A   1      32.520  26.772  26.344  1.00  0.00    -0.455 OA
BRANCH  13  14
ATOM     14  C   UNL A   1      32.938  25.605  25.769  1.00  0.00     0.143 A 
ATOM     15  C   UNL A   1      34.037  25.799  24.917  1.00  0.00     0.048 A 
ATOM     16  C   UNL A   1      32.298  24.357  25.824  1.00  0.00     0.117 A 
ATOM     17  C   UNL A   1      34.541  24.753  24.153  1.00  0.00     0.007 A 
ATOM     18  C   UNL A   1      32.829  23.314  25.054  1.00  0.00     0.139 A 
ATOM     19  C   UNL A   1      33.939  23.505  24.231  1.00  0.00     0.040 A 
ATOM     20  F   UNL A   1      32.257  22.101  25.036  1.00  0.00    -0.206 F 
BRANCH  16  21
ATOM     21  C   UNL A   1      31.072  24.049  26.600  1.00  0.00     0.255 C 
ATOM     22  N   UNL A   1      29.914  24.653  26.221  1.00  0.00    -0.365 N 
ATOM     23  O   UNL A   1      31.066  23.274  27.547  1.00  0.00    -0.269 OA
ATOM     24  H   UNL A   1      29.910  25.278  25.460  1.00  0.00     0.159 HD
ATOM     25  H   UNL A   1      29.078  24.465  26.707  1.00  0.00     0.159 HD
ENDBRANCH  16  21
ENDBRANCH  13  14
ENDBRANCH  12  13
ENDBRANCH   4   6
ENDBRANCH   3   4
ENDBRANCH   2   3
ENDBRANCH   1   2
BRANCH   1  26
ATOM     26  O   UNL A   1      33.193  33.790  28.229  1.00  0.00    -0.374 OA
BRANCH  26  27
ATOM     27  C   UNL A   1      33.657  35.108  28.438  1.00  0.00     0.202 C 
BRANCH  27  28
ATOM     28  C   UNL A   1      33.202  35.689  29.784  1.00  0.00     0.261 C 
BRANCH  28  29
ATOM     29  O   UNL A   1      33.204  34.642  30.783  1.00  0.00    -0.460 OA
BRANCH  29  30
ATOM     30  C   UNL A   1      34.270  34.604  31.635  1.00  0.00     0.338 C 
ATOM     31  O   UNL A   1      34.653  35.533  32.327  1.00  0.00    -0.246 OA
BRANCH  30  32
ATOM     32  C   UNL A   1      35.096  33.384  31.357  1.00  0.00     0.060 A 
ATOM     33  C   UNL A   1      34.996  32.248  32.187  1.00  0.00     0.016 A 
ATOM     34  C   UNL A   1      36.192  33.520  30.513  1.00  0.00     0.016 A 
ATOM     35  C   UNL A   1      36.066  31.339  32.283  1.00  0.00     0.010 A 
ATOM     36  C   UNL A   1      37.284  32.701  30.711  1.00  0.00     0.010 A 
ATOM     37  C   UNL A   1      37.252  31.623  31.616  1.00  0.00    -0.014 A 
BRANCH  37  38
ATOM     38  C   UNL A   1      38.564  30.989  31.833  1.00  0.00     0.031 A 
ATOM     39  C   UNL A   1      38.867  29.766  31.039  1.00  0.00     0.074 A 
ATOM     40  C   UNL A   1      39.585  31.673  32.416  1.00  0.00     0.049 A 
ATOM     41  N   UNL A   1      39.960  29.095  31.126  1.00  0.00    -0.248 NA
ATOM     42  C   UNL A   1      37.939  29.170  30.078  1.00  0.00     0.031 C 
ATOM     43  C   UNL A   1      41.023  31.526  32.160  1.00  0.00     0.029 A 
ATOM     44  N   UNL A   1      39.569  32.712  33.366  1.00  0.00    -0.354 N 
ATOM     45  C   UNL A   1      40.050  28.288  30.014  1.00  0.00     0.074 A 
ATOM     46  C   UNL A   1      38.714  28.258  29.486  1.00  0.00     0.031 C 
ATOM     47  C   UNL A   1      41.727  32.160  33.115  1.00  0.00     0.029 A 
ATOM     48  C   UNL A   1      40.770  32.630  34.097  1.00  0.00     0.049 A 
ATOM     49  H   UNL A   1      38.853  33.373  33.496  1.00  0.00     0.167 HD
ATOM     50  C   UNL A   1      41.295  27.888  29.620  1.00  0.00     0.037 A 
ATOM     51  C   UNL A   1      40.768  32.410  35.439  1.00  0.00     0.037 A 
ATOM     52  C   UNL A   1      42.289  28.267  30.643  1.00  0.00     0.049 A 
ATOM     53  C   UNL A   1      41.473  31.112  35.678  1.00  0.00     0.074 A 
ATOM     54  C   UNL A   1      43.305  29.207  30.686  1.00  0.00     0.029 A 
ATOM     55  N   UNL A   1      42.096  27.846  31.963  1.00  0.00    -0.354 N 
ATOM     56  N   UNL A   1      41.504  30.171  34.771  1.00  0.00    -0.248 NA
ATOM     57  C   UNL A   1      42.320  30.826  36.829  1.00  0.00     0.031 C 
ATOM     58  C   UNL A   1      43.660  29.405  32.054  1.00  0.00     0.029 A 
ATOM     59  C   UNL A   1      42.878  28.571  32.842  1.00  0.00     0.049 A 
ATOM     60  H   UNL A   1      41.482  27.125  32.231  1.00  0.00     0.167 HD
ATOM     61  C   UNL A   1      42.455  29.264  35.114  1.00  0.00     0.074 A 
ATOM     62  C   UNL A   1      42.887  29.668  36.443  1.00  0.00     0.031 C 
ATOM     63  C   UNL A   1      42.872  28.280  34.272  1.00  0.00     0.037 A 
BRANCH  50  64
ATOM     64  C   UNL A   1      41.684  27.353  28.242  1.00  0.00     0.064 A 
ATOM     65  C   UNL A   1      42.193  26.038  28.111  1.00  0.00     0.173 A 
ATOM     66  C   UNL A   1      41.664  28.074  27.027  1.00  0.00     0.173 A 
ATOM     67  F   UNL A   1      42.252  25.204  29.159  1.00  0.00    -0.203 F 
ATOM     68  C   UNL A   1      42.669  25.519  26.898  1.00  0.00     0.198 A 
ATOM     69  C   UNL A   1      42.121  27.548  25.812  1.00  0.00     0.198 A 
ATOM     70  F   UNL A   1      41.215  29.324  26.938  1.00  0.00    -0.203 F 
ATOM     71  F   UNL A   1      43.172  24.277  26.859  1.00  0.00    -0.200 F 
ATOM     72  C   UNL A   1      42.634  26.275  25.748  1.00  0.00     0.200 A 
ATOM     73  F   UNL A   1      42.065  28.301  24.703  1.00  0.00    -0.200 F 
ATOM     74  F   UNL A   1      43.088  25.782  24.588  1.00  0.00    -0.200 F 
ENDBRANCH  50  64
BRANCH  51  75
ATOM     75  C   UNL A   1      39.550  32.994  36.077  1.00  0.00     0.064 A 
ATOM     76  C   UNL A   1      38.614  32.055  36.571  1.00  0.00     0.173 A 
ATOM     77  C   UNL A   1      39.574  34.251  36.695  1.00  0.00     0.173 A 
ATOM     78  F   UNL A   1      38.537  30.837  36.011  1.00  0.00    -0.203 F 
ATOM     79  C   UNL A   1      37.901  32.283  37.747  1.00  0.00     0.198 A 
ATOM     80  C   UNL A   1      38.830  34.488  37.858  1.00  0.00     0.198 A 
ATOM     81  F   UNL A   1      40.433  35.192  36.279  1.00  0.00    -0.203 F 
ATOM     82  F   UNL A   1      37.186  31.291  38.299  1.00  0.00    -0.200 F 
ATOM     83  C   UNL A   1      38.045  33.485  38.415  1.00  0.00     0.200 A 
ATOM     84  F   UNL A   1      38.965  35.649  38.515  1.00  0.00    -0.200 F 
ATOM     85  F   UNL A   1      37.487  33.653  39.622  1.00  0.00    -0.200 F 
ENDBRANCH  51  75
BRANCH  63  86
ATOM     86  C   UNL A   1      43.385  26.963  34.771  1.00  0.00     0.064 A 
ATOM     87  C   UNL A   1      42.533  25.880  35.054  1.00  0.00     0.173 A 
ATOM     88  C   UNL A   1      44.767  26.680  34.773  1.00  0.00     0.173 A 
ATOM     89  F   UNL A   1      41.201  25.986  34.955  1.00  0.00    -0.203 F 
ATOM     90  C   UNL A   1      43.031  24.625  35.391  1.00  0.00     0.198 A 
ATOM     91  C   UNL A   1      45.257  25.407  35.039  1.00  0.00     0.198 A 
ATOM     92  F   UNL A   1      45.680  27.617  34.477  1.00  0.00    -0.203 F 
ATOM     93  F   UNL A   1      42.179  23.640  35.703  1.00  0.00    -0.200 F 
ATOM     94  C   UNL A   1      44.390  24.385  35.370  1.00  0.00     0.200 A 
ATOM     95  F   UNL A   1      46.572  25.170  34.945  1.00  0.00    -0.200 F 
ATOM     96  F   UNL A   1      44.863  23.164  35.645  1.00  0.00    -0.200 F 
ENDBRANCH  63  86
ENDBRANCH  37  38
ENDBRANCH  30  32
ENDBRANCH  29  30
ENDBRANCH  28  29
ENDBRANCH  27  28
ENDBRANCH  26  27
ENDBRANCH   1  26
TORSDOF 17
ENDMDL
MODEL 3
REMARK VINA RESULT:     -12.0      3.594      9.348
REMARK SMILES Cc1ccc(C(=O)OCCOCCOC(=O)c2ccc(-c3c4nc(c(-c5c(F)c(F)c(F)c(F)c5F)c5ccc([nH]5)c(-c5c(F)c(F)c(F)c(F)c5F)c5nc(c(-c6c(F)c(F)c(F)c(F)c6F)c6ccc3[nH]6)C=C5)C=C4)cc2)c(Oc2cccc(F)c2C(N)=O)c1
REMARK SMILES IDX 10 1 9 2 8 3 6 4 7 5 5 6 1 7 2 8 3 9 92 10 4 11 80 12 81 13
REMARK SMILES IDX 82 14 83 15 88 16 84 17 86 18 85 19 87 20 89 21 90 22 91 23
REMARK SMILES IDX 11 26 12 27 13 28 14 29 15 30 16 31 17 32 18 33 79 34 19 35
REMARK SMILES IDX 78 36 20 37 21 38 22 39 72 40 23 41 77 42 71 43 73 44 24 45
REMARK SMILES IDX 76 46 70 47 69 48 25 50 57 51 37 52 56 53 38 54 41 55 55 56
REMARK SMILES IDX 74 57 39 58 40 59 54 61 75 62 42 63 26 64 27 65 35 66 28 67
REMARK SMILES IDX 29 68 33 69 36 70 30 71 31 72 34 73 32 74 58 75 59 76 67 77
REMARK SMILES IDX 60 78 61 79 65 80 68 81 62 82 63 83 66 84 64 85 43 86 44 87
REMARK SMILES IDX 52 88 45 89 46 90 50 91 53 92 47 93 48 94 51 95 49 96
REMARK H PARENT 90 24 90 25 73 49 41 60
REMARK Flexibility Score: inf
ROOT
ATOM      1  C   UNL A   1      36.541  22.948  23.228  1.00  0.00     0.202 C 
ENDROOT
BRANCH   1   2
ATOM      2  C   UNL A   1      35.259  23.559  23.670  1.00  0.00     0.261 C 
BRANCH   2   3
ATOM      3  O   UNL A   1      34.431  23.832  22.538  1.00  0.00    -0.460 OA
BRANCH   3   4
ATOM      4  C   UNL A   1      33.620  24.926  22.506  1.00  0.00     0.342 C 
ATOM      5  O   UNL A   1      33.607  25.819  21.691  1.00  0.00    -0.246 OA
BRANCH   4   6
ATOM      6  C   UNL A   1      32.602  24.736  23.576  1.00  0.00     0.102 A 
ATOM      7  C   UNL A   1      30.152  23.507  26.870  1.00  0.00     0.044 C 
ATOM      8  C   UNL A   1      30.961  23.986  25.701  1.00  0.00    -0.047 A 
ATOM      9  C   UNL A   1      30.875  23.315  24.473  1.00  0.00     0.004 A 
ATOM     10  C   UNL A   1      31.817  25.087  25.841  1.00  0.00     0.051 A 
ATOM     11  C   UNL A   1      31.688  23.693  23.406  1.00  0.00     0.020 A 
ATOM     12  C   UNL A   1      32.641  25.463  24.784  1.00  0.00     0.142 A 
BRANCH  12  13
ATOM     13  O   UNL A   1      33.507  26.530  24.820  1.00  0.00    -0.455 OA
BRANCH  13  14
ATOM     14  C   UNL A   1      33.169  27.756  25.321  1.00  0.00     0.143 A 
ATOM     15  C   UNL A   1      33.752  27.993  26.576  1.00  0.00     0.048 A 
ATOM     16  C   UNL A   1      32.223  28.652  24.800  1.00  0.00     0.117 A 
ATOM     17  C   UNL A   1      33.443  29.137  27.301  1.00  0.00     0.007 A 
ATOM     18  C   UNL A   1      31.935  29.805  25.542  1.00  0.00     0.139 A 
ATOM     19  C   UNL A   1      32.538  30.050  26.776  1.00  0.00     0.040 A 
ATOM     20  F   UNL A   1      31.024  30.695  25.120  1.00  0.00    -0.206 F 
BRANCH  16  21
ATOM     21  C   UNL A   1      31.462  28.468  23.540  1.00  0.00     0.255 C 
ATOM     22  N   UNL A   1      32.124  28.657  22.366  1.00  0.00    -0.365 N 
ATOM     23  O   UNL A   1      30.282  28.144  23.521  1.00  0.00    -0.269 OA
ATOM     24  H   UNL A   1      33.074  28.917  22.373  1.00  0.00     0.159 HD
ATOM     25  H   UNL A   1      31.655  28.533  21.510  1.00  0.00     0.159 HD
ENDBRANCH  16  21
ENDBRANCH  13  14
ENDBRANCH  12  13
ENDBRANCH   4   6
ENDBRANCH   3   4
ENDBRANCH   2   3
ENDBRANCH   1   2
BRANCH   1  26
ATOM     26  O   UNL A   1      37.278  22.744  24.421  1.00  0.00    -0.374 OA
BRANCH  26  27
ATOM     27  C   UNL A   1      37.384  21.395  24.829  1.00  0.00     0.202 C 
BRANCH  27  28
ATOM     28  C   UNL A   1      38.598  21.145  25.734  1.00  0.00     0.261 C 
BRANCH  28  29
ATOM     29  O   UNL A   1      39.468  22.300  25.699  1.00  0.00    -0.460 OA
BRANCH  29  30
ATOM     30  C   UNL A   1      39.934  22.759  26.897  1.00  0.00     0.338 C 
ATOM     31  O   UNL A   1      40.294  22.057  27.829  1.00  0.00    -0.246 OA
BRANCH  30  32
ATOM     32  C   UNL A   1      39.633  24.221  27.031  1.00  0.00     0.060 A 
ATOM     33  C   UNL A   1      40.185  25.151  26.125  1.00  0.00     0.016 A 
ATOM     34  C   UNL A   1      39.113  24.670  28.240  1.00  0.00     0.016 A 
ATOM     35  C   UNL A   1      40.355  26.496  26.501  1.00  0.00     0.010 A 
ATOM     36  C   UNL A   1      39.404  25.955  28.648  1.00  0.00     0.010 A 
ATOM     37  C   UNL A   1      40.054  26.875  27.804  1.00  0.00    -0.014 A 
BRANCH  37  38
ATOM     38  C   UNL A   1      40.450  28.123  28.478  1.00  0.00     0.031 A 
ATOM     39  C   UNL A   1      39.443  29.220  28.522  1.00  0.00     0.074 A 
ATOM     40  C   UNL A   1      41.502  28.151  29.340  1.00  0.00     0.049 A 
ATOM     41  N   UNL A   1      39.644  30.370  29.062  1.00  0.00    -0.248 NA
ATOM     42  C   UNL A   1      38.108  29.122  27.933  1.00  0.00     0.031 C 
ATOM     43  C   UNL A   1      41.666  29.000  30.526  1.00  0.00     0.029 A 
ATOM     44  N   UNL A   1      42.679  27.379  29.377  1.00  0.00    -0.354 N 
ATOM     45  C   UNL A   1      38.418  30.966  29.253  1.00  0.00     0.074 A 
ATOM     46  C   UNL A   1      37.525  30.228  28.402  1.00  0.00     0.031 C 
ATOM     47  C   UNL A   1      42.939  28.947  30.958  1.00  0.00     0.029 A 
ATOM     48  C   UNL A   1      43.677  28.165  29.986  1.00  0.00     0.049 A 
ATOM     49  H   UNL A   1      42.785  26.460  29.041  1.00  0.00     0.167 HD
ATOM     50  C   UNL A   1      38.318  31.911  30.234  1.00  0.00     0.037 A 
ATOM     51  C   UNL A   1      44.811  28.506  29.320  1.00  0.00     0.037 A 
ATOM     52  C   UNL A   1      39.661  32.234  30.756  1.00  0.00     0.049 A 
ATOM     53  C   UNL A   1      44.832  29.999  29.213  1.00  0.00     0.074 A 
ATOM     54  C   UNL A   1      40.307  31.979  31.954  1.00  0.00     0.029 A 
ATOM     55  N   UNL A   1      40.655  32.642  29.860  1.00  0.00    -0.354 N 
ATOM     56  N   UNL A   1      43.730  30.702  29.213  1.00  0.00    -0.248 NA
ATOM     57  C   UNL A   1      46.034  30.820  29.275  1.00  0.00     0.031 C 
ATOM     58  C   UNL A   1      41.707  32.160  31.742  1.00  0.00     0.029 A 
ATOM     59  C   UNL A   1      41.912  32.545  30.424  1.00  0.00     0.049 A 
ATOM     60  H   UNL A   1      40.479  32.959  28.944  1.00  0.00     0.167 HD
ATOM     61  C   UNL A   1      44.043  32.006  29.428  1.00  0.00     0.074 A 
ATOM     62  C   UNL A   1      45.496  32.049  29.384  1.00  0.00     0.031 C 
ATOM     63  C   UNL A   1      43.103  32.955  29.687  1.00  0.00     0.037 A 
BRANCH  50  64
ATOM     64  C   UNL A   1      37.031  32.404  30.894  1.00  0.00     0.064 A 
ATOM     65  C   UNL A   1      36.065  33.103  30.129  1.00  0.00     0.173 A 
ATOM     66  C   UNL A   1      36.701  32.305  32.264  1.00  0.00     0.173 A 
ATOM     67  F   UNL A   1      36.204  33.260  28.806  1.00  0.00    -0.203 F 
ATOM     68  C   UNL A   1      34.915  33.676  30.689  1.00  0.00     0.198 A 
ATOM     69  C   UNL A   1      35.541  32.860  32.819  1.00  0.00     0.198 A 
ATOM     70  F   UNL A   1      37.475  31.680  33.149  1.00  0.00    -0.203 F 
ATOM     71  F   UNL A   1      34.064  34.356  29.907  1.00  0.00    -0.200 F 
ATOM     72  C   UNL A   1      34.652  33.556  32.035  1.00  0.00     0.200 A 
ATOM     73  F   UNL A   1      35.303  32.718  34.133  1.00  0.00    -0.200 F 
ATOM     74  F   UNL A   1      33.554  34.102  32.573  1.00  0.00    -0.200 F 
ENDBRANCH  50  64
BRANCH  51  75
ATOM     75  C   UNL A   1      45.197  27.450  28.336  1.00  0.00     0.064 A 
ATOM     76  C   UNL A   1      44.929  27.756  26.982  1.00  0.00     0.173 A 
ATOM     77  C   UNL A   1      46.245  26.556  28.590  1.00  0.00     0.173 A 
ATOM     78  F   UNL A   1      43.929  28.598  26.676  1.00  0.00    -0.203 F 
ATOM     79  C   UNL A   1      45.792  27.363  25.959  1.00  0.00     0.198 A 
ATOM     80  C   UNL A   1      47.090  26.136  27.555  1.00  0.00     0.198 A 
ATOM     81  F   UNL A   1      46.554  26.217  29.849  1.00  0.00    -0.203 F 
ATOM     82  F   UNL A   1      45.624  27.847  24.719  1.00  0.00    -0.200 F 
ATOM     83  C   UNL A   1      46.899  26.589  26.255  1.00  0.00     0.200 A 
ATOM     84  F   UNL A   1      48.168  25.388  27.832  1.00  0.00    -0.200 F 
ATOM     85  F   UNL A   1      47.815  26.339  25.309  1.00  0.00    -0.200 F 
ENDBRANCH  51  75
BRANCH  63  86
ATOM     86  C   UNL A   1      43.292  34.393  29.309  1.00  0.00     0.064 A 
ATOM     87  C   UNL A   1      43.459  35.409  30.268  1.00  0.00     0.173 A 
ATOM     88  C   UNL A   1      43.526  34.763  27.968  1.00  0.00     0.173 A 
ATOM     89  F   UNL A   1      43.393  35.156  31.582  1.00  0.00    -0.203 F 
ATOM     90  C   UNL A   1      43.762  36.718  29.903  1.00  0.00     0.198 A 
ATOM     91  C   UNL A   1      43.901  36.054  27.616  1.00  0.00     0.198 A 
ATOM     92  F   UNL A   1      43.441  33.876  26.966  1.00  0.00    -0.203 F 
ATOM     93  F   UNL A   1      43.859  37.659  30.850  1.00  0.00    -0.200 F 
ATOM     94  C   UNL A   1      43.997  37.036  28.581  1.00  0.00     0.200 A 
ATOM     95  F   UNL A   1      44.195  36.334  26.339  1.00  0.00    -0.200 F 
ATOM     96  F   UNL A   1      44.338  38.284  28.240  1.00  0.00    -0.200 F 
ENDBRANCH  63  86
ENDBRANCH  37  38
ENDBRANCH  30  32
ENDBRANCH  29  30
ENDBRANCH  28  29
ENDBRANCH  27  28
ENDBRANCH  26  27
ENDBRANCH   1  26
TORSDOF 17
ENDMDL
