MODEL 1
REMARK VINA RESULT:     -11.6      0.000      0.000
REMARK SMILES Cc1cc(C[N@@H+]2C[C@@H](C(=O)OCCOCCOC(=O)c3ccc(-c4c5nc(c(-c6c(F)c(F)c(F)c(F)c6F)c6ccc([nH]6)c(-c6c(F)c(F)c(F)c(F)c6F)c6nc(c(-c7c(F)c(F)c(F)c(F)c7F)c7ccc4[nH]7)C=C6)C=C5)cc3)[C@H](C3CC3)C2)on1
REMARK SMILES IDX 14 1 13 2 12 3 11 4 9 5 10 6 8 7 6 8 7 9 87 10 83 12 5 13
REMARK SMILES IDX 4 14 1 15 2 16 3 17 89 18 88 19 84 20 85 21 86 22 15 23
REMARK SMILES IDX 16 24 17 25 18 26 19 27 20 28 21 29 82 30 22 31 81 32 23 33
REMARK SMILES IDX 24 34 25 35 75 36 26 37 80 38 74 39 76 40 27 41 79 42 73 43
REMARK SMILES IDX 72 44 28 46 60 47 40 48 59 49 41 50 44 51 58 52 77 53 42 54
REMARK SMILES IDX 43 55 57 57 78 58 45 59 29 60 30 61 38 62 31 63 32 64 36 65
REMARK SMILES IDX 39 66 33 67 34 68 37 69 35 70 61 71 62 72 70 73 63 74 64 75
REMARK SMILES IDX 68 76 71 77 65 78 66 79 69 80 67 81 46 82 47 83 55 84 48 85
REMARK SMILES IDX 49 86 53 87 56 88 50 89 51 90 54 91 52 92
REMARK H PARENT 6 11 76 45 44 56
REMARK Flexibility Score: inf
ROOT
ATOM      1  O   UNL A   1      32.579  27.449  26.731  1.00  0.00    -0.374 OA
ENDROOT
BRANCH   1   2
ATOM      2  C   UNL A   1      32.311  26.914  25.435  1.00  0.00     0.202 C 
BRANCH   2   3
ATOM      3  C   UNL A   1      33.333  25.945  24.837  1.00  0.00     0.261 C 
BRANCH   3   4
ATOM      4  O   UNL A   1      32.705  24.772  24.284  1.00  0.00    -0.463 OA
BRANCH   4   5
ATOM      5  C   UNL A   1      33.407  24.151  23.300  1.00  0.00     0.315 C 
ATOM      6  O   UNL A   1      33.948  24.741  22.372  1.00  0.00    -0.252 OA
BRANCH   5   7
ATOM      7  C   UNL A   1      33.506  22.651  23.470  1.00  0.00     0.163 C 
ATOM      8  N   UNL A   1      32.598  20.590  24.242  1.00  0.00    -0.328 N 
ATOM      9  C   UNL A   1      32.205  21.952  23.840  1.00  0.00     0.278 C 
ATOM     10  C   UNL A   1      33.933  20.713  24.849  1.00  0.00     0.267 C 
ATOM     11  H   UNL A   1      31.931  20.214  24.916  1.00  0.00     0.348 HD
ATOM     12  C   UNL A   1      34.460  22.138  24.552  1.00  0.00     0.067 C 
BRANCH   8  13
ATOM     13  C   UNL A   1      32.529  19.594  23.150  1.00  0.00     0.341 C 
BRANCH  13  14
ATOM     14  C   UNL A   1      32.784  18.180  23.538  1.00  0.00     0.191 A 
ATOM     15  C   UNL A   1      33.426  15.092  25.376  1.00  0.00     0.070 C 
ATOM     16  C   UNL A   1      33.226  16.218  24.437  1.00  0.00     0.081 A 
ATOM     17  C   UNL A   1      32.524  17.425  24.658  1.00  0.00     0.078 A 
ATOM     18  N   UNL A   1      33.794  16.203  23.226  1.00  0.00    -0.085 NA
ATOM     19  O   UNL A   1      33.502  17.430  22.656  1.00  0.00    -0.355 OA
ENDBRANCH  13  14
ENDBRANCH   8  13
BRANCH  12  20
ATOM     20  C   UNL A   1      35.941  22.126  24.250  1.00  0.00    -0.001 C 
ATOM     21  C   UNL A   1      36.607  22.945  23.172  1.00  0.00     0.004 C 
ATOM     22  C   UNL A   1      36.794  23.319  24.613  1.00  0.00     0.004 C 
ENDBRANCH  12  20
ENDBRANCH   5   7
ENDBRANCH   4   5
ENDBRANCH   3   4
ENDBRANCH   2   3
ENDBRANCH   1   2
BRANCH   1  23
ATOM     23  C   UNL A   1      31.770  28.534  27.175  1.00  0.00     0.202 C 
BRANCH  23  24
ATOM     24  C   UNL A   1      31.821  29.838  26.369  1.00  0.00     0.261 C 
BRANCH  24  25
ATOM     25  O   UNL A   1      33.156  30.344  26.205  1.00  0.00    -0.460 OA
BRANCH  25  26
ATOM     26  C   UNL A   1      33.493  31.329  27.070  1.00  0.00     0.338 C 
ATOM     27  O   UNL A   1      32.800  32.270  27.436  1.00  0.00    -0.246 OA
BRANCH  26  28
ATOM     28  C   UNL A   1      34.791  31.023  27.693  1.00  0.00     0.060 A 
ATOM     29  C   UNL A   1      35.053  29.685  28.019  1.00  0.00     0.016 A 
ATOM     30  C   UNL A   1      35.713  32.025  28.001  1.00  0.00     0.016 A 
ATOM     31  C   UNL A   1      36.230  29.347  28.677  1.00  0.00     0.010 A 
ATOM     32  C   UNL A   1      36.886  31.685  28.679  1.00  0.00     0.010 A 
ATOM     33  C   UNL A   1      37.139  30.349  29.040  1.00  0.00    -0.014 A 
BRANCH  33  34
ATOM     34  C   UNL A   1      38.295  30.006  29.898  1.00  0.00     0.031 A 
ATOM     35  C   UNL A   1      39.338  29.061  29.376  1.00  0.00     0.074 A 
ATOM     36  C   UNL A   1      38.422  30.557  31.117  1.00  0.00     0.049 A 
ATOM     37  N   UNL A   1      40.410  28.599  29.966  1.00  0.00    -0.248 NA
ATOM     38  C   UNL A   1      39.148  28.570  28.002  1.00  0.00     0.031 C 
ATOM     39  C   UNL A   1      37.493  31.518  31.708  1.00  0.00     0.029 A 
ATOM     40  N   UNL A   1      39.383  30.379  32.081  1.00  0.00    -0.354 N 
ATOM     41  C   UNL A   1      41.021  27.764  29.040  1.00  0.00     0.074 A 
ATOM     42  C   UNL A   1      40.185  27.759  27.857  1.00  0.00     0.031 C 
ATOM     43  C   UNL A   1      37.922  31.837  32.941  1.00  0.00     0.029 A 
ATOM     44  C   UNL A   1      39.135  31.077  33.236  1.00  0.00     0.049 A 
ATOM     45  H   UNL A   1      40.174  29.807  31.955  1.00  0.00     0.167 HD
ATOM     46  C   UNL A   1      42.178  27.072  29.164  1.00  0.00     0.037 A 
ATOM     47  C   UNL A   1      39.800  31.078  34.407  1.00  0.00     0.037 A 
ATOM     48  C   UNL A   1      43.000  27.078  30.346  1.00  0.00     0.049 A 
ATOM     49  C   UNL A   1      41.040  30.233  34.548  1.00  0.00     0.074 A 
ATOM     50  C   UNL A   1      44.202  26.430  30.565  1.00  0.00     0.029 A 
ATOM     51  N   UNL A   1      42.696  27.762  31.514  1.00  0.00    -0.354 N 
ATOM     52  N   UNL A   1      41.627  29.469  33.658  1.00  0.00    -0.248 NA
ATOM     53  C   UNL A   1      41.709  30.252  35.856  1.00  0.00     0.031 C 
ATOM     54  C   UNL A   1      44.597  26.676  31.885  1.00  0.00     0.029 A 
ATOM     55  C   UNL A   1      43.670  27.524  32.470  1.00  0.00     0.049 A 
ATOM     56  H   UNL A   1      41.904  28.334  31.645  1.00  0.00     0.167 HD
ATOM     57  C   UNL A   1      42.743  28.934  34.290  1.00  0.00     0.074 A 
ATOM     58  C   UNL A   1      42.761  29.477  35.633  1.00  0.00     0.031 C 
ATOM     59  C   UNL A   1      43.668  28.069  33.804  1.00  0.00     0.037 A 
BRANCH  46  60
ATOM     60  C   UNL A   1      42.610  26.225  28.003  1.00  0.00     0.064 A 
ATOM     61  C   UNL A   1      42.149  24.911  27.835  1.00  0.00     0.173 A 
ATOM     62  C   UNL A   1      43.466  26.750  27.022  1.00  0.00     0.173 A 
ATOM     63  F   UNL A   1      41.340  24.357  28.751  1.00  0.00    -0.203 F 
ATOM     64  C   UNL A   1      42.548  24.146  26.741  1.00  0.00     0.198 A 
ATOM     65  C   UNL A   1      43.840  25.993  25.916  1.00  0.00     0.198 A 
ATOM     66  F   UNL A   1      43.933  28.003  27.133  1.00  0.00    -0.203 F 
ATOM     67  F   UNL A   1      42.130  22.878  26.624  1.00  0.00    -0.200 F 
ATOM     68  C   UNL A   1      43.386  24.690  25.779  1.00  0.00     0.200 A 
ATOM     69  F   UNL A   1      44.641  26.524  24.981  1.00  0.00    -0.200 F 
ATOM     70  F   UNL A   1      43.762  23.955  24.723  1.00  0.00    -0.200 F 
ENDBRANCH  46  60
BRANCH  47  71
ATOM     71  C   UNL A   1      39.296  31.888  35.547  1.00  0.00     0.064 A 
ATOM     72  C   UNL A   1      38.410  31.346  36.487  1.00  0.00     0.173 A 
ATOM     73  C   UNL A   1      39.680  33.228  35.708  1.00  0.00     0.173 A 
ATOM     74  F   UNL A   1      37.993  30.078  36.360  1.00  0.00    -0.203 F 
ATOM     75  C   UNL A   1      37.914  32.117  37.536  1.00  0.00     0.198 A 
ATOM     76  C   UNL A   1      39.206  33.990  36.774  1.00  0.00     0.198 A 
ATOM     77  F   UNL A   1      40.524  33.796  34.835  1.00  0.00    -0.203 F 
ATOM     78  F   UNL A   1      37.032  31.588  38.395  1.00  0.00    -0.200 F 
ATOM     79  C   UNL A   1      38.318  33.436  37.683  1.00  0.00     0.200 A 
ATOM     80  F   UNL A   1      39.607  35.260  36.918  1.00  0.00    -0.200 F 
ATOM     81  F   UNL A   1      37.841  34.176  38.694  1.00  0.00    -0.200 F 
ENDBRANCH  47  71
BRANCH  59  82
ATOM     82  C   UNL A   1      44.788  27.674  34.723  1.00  0.00     0.064 A 
ATOM     83  C   UNL A   1      44.704  26.531  35.533  1.00  0.00     0.173 A 
ATOM     84  C   UNL A   1      45.972  28.424  34.767  1.00  0.00     0.173 A 
ATOM     85  F   UNL A   1      43.585  25.789  35.539  1.00  0.00    -0.203 F 
ATOM     86  C   UNL A   1      45.754  26.170  36.372  1.00  0.00     0.198 A 
ATOM     87  C   UNL A   1      47.033  28.042  35.584  1.00  0.00     0.198 A 
ATOM     88  F   UNL A   1      46.107  29.521  34.006  1.00  0.00    -0.203 F 
ATOM     89  F   UNL A   1      45.632  25.103  37.174  1.00  0.00    -0.200 F 
ATOM     90  C   UNL A   1      46.920  26.920  36.391  1.00  0.00     0.200 A 
ATOM     91  F   UNL A   1      48.164  28.760  35.589  1.00  0.00    -0.200 F 
ATOM     92  F   UNL A   1      47.933  26.567  37.194  1.00  0.00    -0.200 F 
ENDBRANCH  59  82
ENDBRANCH  33  34
ENDBRANCH  26  28
ENDBRANCH  25  26
ENDBRANCH  24  25
ENDBRANCH  23  24
ENDBRANCH   1  23
TORSDOF 17
ENDMDL
MODEL 2
REMARK VINA RESULT:     -11.5      0.611      7.427
REMARK SMILES Cc1cc(C[N@@H+]2C[C@@H](C(=O)OCCOCCOC(=O)c3ccc(-c4c5nc(c(-c6c(F)c(F)c(F)c(F)c6F)c6ccc([nH]6)c(-c6c(F)c(F)c(F)c(F)c6F)c6nc(c(-c7c(F)c(F)c(F)c(F)c7F)c7ccc4[nH]7)C=C6)C=C5)cc3)[C@H](C3CC3)C2)on1
REMARK SMILES IDX 14 1 13 2 12 3 11 4 9 5 10 6 8 7 6 8 7 9 87 10 83 12 5 13
REMARK SMILES IDX 4 14 1 15 2 16 3 17 89 18 88 19 84 20 85 21 86 22 15 23
REMARK SMILES IDX 16 24 17 25 18 26 19 27 20 28 21 29 82 30 22 31 81 32 23 33
REMARK SMILES IDX 24 34 25 35 75 36 26 37 80 38 74 39 76 40 27 41 79 42 73 43
REMARK SMILES IDX 72 44 28 46 60 47 40 48 59 49 41 50 44 51 58 52 77 53 42 54
REMARK SMILES IDX 43 55 57 57 78 58 45 59 29 60 30 61 38 62 31 63 32 64 36 65
REMARK SMILES IDX 39 66 33 67 34 68 37 69 35 70 61 71 62 72 70 73 63 74 64 75
REMARK SMILES IDX 68 76 71 77 65 78 66 79 69 80 67 81 46 82 47 83 55 84 48 85
REMARK SMILES IDX 49 86 53 87 56 88 50 89 51 90 54 91 52 92
REMARK H PARENT 6 11 76 45 44 56
REMARK Flexibility Score: inf
ROOT
ATOM      1  O   UNL A   1      32.566  28.556  24.373  1.00  0.00    -0.374 OA
ENDROOT
BRANCH   1   2
ATOM      2  C   UNL A   1      32.916  27.242  24.809  1.00  0.00     0.202 C 
BRANCH   2   3
ATOM      3  C   UNL A   1      32.300  26.055  24.064  1.00  0.00     0.261 C 
BRANCH   3   4
ATOM      4  O   UNL A   1      33.007  24.827  24.328  1.00  0.00    -0.463 OA
BRANCH   4   5
ATOM      5  C   UNL A   1      33.411  24.145  23.225  1.00  0.00     0.315 C 
ATOM      6  O   UNL A   1      33.723  24.683  22.168  1.00  0.00    -0.252 OA
BRANCH   5   7
ATOM      7  C   UNL A   1      33.489  22.648  23.423  1.00  0.00     0.163 C 
ATOM      8  N   UNL A   1      32.544  20.613  24.220  1.00  0.00    -0.328 N 
ATOM      9  C   UNL A   1      32.173  21.972  23.788  1.00  0.00     0.278 C 
ATOM     10  C   UNL A   1      33.873  20.730  24.841  1.00  0.00     0.267 C 
ATOM     11  H   UNL A   1      31.864  20.257  24.891  1.00  0.00     0.348 HD
ATOM     12  C   UNL A   1      34.422  22.142  24.525  1.00  0.00     0.067 C 
BRANCH   8  13
ATOM     13  C   UNL A   1      32.475  19.599  23.144  1.00  0.00     0.341 C 
BRANCH  13  14
ATOM     14  C   UNL A   1      32.708  18.188  23.561  1.00  0.00     0.191 A 
ATOM     15  C   UNL A   1      33.303  15.128  25.460  1.00  0.00     0.070 C 
ATOM     16  C   UNL A   1      33.120  16.239  24.499  1.00  0.00     0.081 A 
ATOM     17  C   UNL A   1      32.437  17.461  24.696  1.00  0.00     0.078 A 
ATOM     18  N   UNL A   1      33.686  16.190  23.287  1.00  0.00    -0.085 NA
ATOM     19  O   UNL A   1      33.413  17.409  22.694  1.00  0.00    -0.355 OA
ENDBRANCH  13  14
ENDBRANCH   8  13
BRANCH  12  20
ATOM     20  C   UNL A   1      35.906  22.105  24.243  1.00  0.00    -0.001 C 
ATOM     21  C   UNL A   1      36.599  22.910  23.171  1.00  0.00     0.004 C 
ATOM     22  C   UNL A   1      36.773  23.286  24.613  1.00  0.00     0.004 C 
ENDBRANCH  12  20
ENDBRANCH   5   7
ENDBRANCH   4   5
ENDBRANCH   3   4
ENDBRANCH   2   3
ENDBRANCH   1   2
BRANCH   1  23
ATOM     23  C   UNL A   1      31.470  29.193  25.020  1.00  0.00     0.202 C 
BRANCH  23  24
ATOM     24  C   UNL A   1      31.743  30.511  25.756  1.00  0.00     0.261 C 
BRANCH  24  25
ATOM     25  O   UNL A   1      32.607  30.351  26.892  1.00  0.00    -0.460 OA
BRANCH  25  26
ATOM     26  C   UNL A   1      33.299  31.464  27.231  1.00  0.00     0.338 C 
ATOM     27  O   UNL A   1      32.887  32.617  27.269  1.00  0.00    -0.246 OA
BRANCH  26  28
ATOM     28  C   UNL A   1      34.624  31.089  27.752  1.00  0.00     0.060 A 
ATOM     29  C   UNL A   1      34.852  29.734  28.024  1.00  0.00     0.016 A 
ATOM     30  C   UNL A   1      35.606  32.045  28.019  1.00  0.00     0.016 A 
ATOM     31  C   UNL A   1      36.058  29.330  28.588  1.00  0.00     0.010 A 
ATOM     32  C   UNL A   1      36.809  31.640  28.602  1.00  0.00     0.010 A 
ATOM     33  C   UNL A   1      37.031  30.285  28.910  1.00  0.00    -0.014 A 
BRANCH  33  34
ATOM     34  C   UNL A   1      38.229  29.872  29.674  1.00  0.00     0.031 A 
ATOM     35  C   UNL A   1      38.437  30.414  31.058  1.00  0.00     0.074 A 
ATOM     36  C   UNL A   1      39.106  29.002  29.143  1.00  0.00     0.049 A 
ATOM     37  N   UNL A   1      39.428  30.215  31.889  1.00  0.00    -0.248 NA
ATOM     38  C   UNL A   1      37.384  31.302  31.578  1.00  0.00     0.031 C 
ATOM     39  C   UNL A   1      38.982  28.380  27.826  1.00  0.00     0.029 A 
ATOM     40  N   UNL A   1      40.278  28.497  29.648  1.00  0.00    -0.354 N 
ATOM     41  C   UNL A   1      39.120  30.951  33.026  1.00  0.00     0.074 A 
ATOM     42  C   UNL A   1      37.865  31.624  32.769  1.00  0.00     0.031 C 
ATOM     43  C   UNL A   1      40.046  27.585  27.620  1.00  0.00     0.029 A 
ATOM     44  C   UNL A   1      40.938  27.669  28.775  1.00  0.00     0.049 A 
ATOM     45  H   UNL A   1      40.612  28.707  30.550  1.00  0.00     0.167 HD
ATOM     46  C   UNL A   1      39.820  31.047  34.181  1.00  0.00     0.037 A 
ATOM     47  C   UNL A   1      42.139  27.071  28.888  1.00  0.00     0.037 A 
ATOM     48  C   UNL A   1      41.071  30.377  34.426  1.00  0.00     0.049 A 
ATOM     49  C   UNL A   1      42.937  27.261  30.152  1.00  0.00     0.074 A 
ATOM     50  C   UNL A   1      41.848  30.390  35.570  1.00  0.00     0.029 A 
ATOM     51  N   UNL A   1      41.733  29.580  33.502  1.00  0.00    -0.354 N 
ATOM     52  N   UNL A   1      42.627  27.934  31.234  1.00  0.00    -0.248 NA
ATOM     53  C   UNL A   1      44.252  26.609  30.209  1.00  0.00     0.031 C 
ATOM     54  C   UNL A   1      43.007  29.648  35.319  1.00  0.00     0.029 A 
ATOM     55  C   UNL A   1      42.926  29.125  34.038  1.00  0.00     0.049 A 
ATOM     56  H   UNL A   1      41.402  29.370  32.598  1.00  0.00     0.167 HD
ATOM     57  C   UNL A   1      43.696  27.769  32.107  1.00  0.00     0.074 A 
ATOM     58  C   UNL A   1      44.654  26.916  31.435  1.00  0.00     0.031 C 
ATOM     59  C   UNL A   1      43.870  28.280  33.351  1.00  0.00     0.037 A 
BRANCH  46  60
ATOM     60  C   UNL A   1      39.264  31.930  35.259  1.00  0.00     0.064 A 
ATOM     61  C   UNL A   1      38.479  31.418  36.302  1.00  0.00     0.173 A 
ATOM     62  C   UNL A   1      39.554  33.304  35.269  1.00  0.00     0.173 A 
ATOM     63  F   UNL A   1      38.161  30.115  36.331  1.00  0.00    -0.203 F 
ATOM     64  C   UNL A   1      37.985  32.251  37.304  1.00  0.00     0.198 A 
ATOM     65  C   UNL A   1      39.083  34.129  36.287  1.00  0.00     0.198 A 
ATOM     66  F   UNL A   1      40.304  33.844  34.296  1.00  0.00    -0.203 F 
ATOM     67  F   UNL A   1      37.201  31.748  38.267  1.00  0.00    -0.200 F 
ATOM     68  C   UNL A   1      38.295  33.604  37.299  1.00  0.00     0.200 A 
ATOM     69  F   UNL A   1      39.393  35.433  36.287  1.00  0.00    -0.200 F 
ATOM     70  F   UNL A   1      37.826  34.403  38.268  1.00  0.00    -0.200 F 
ENDBRANCH  46  60
BRANCH  47  71
ATOM     71  C   UNL A   1      42.671  26.255  27.766  1.00  0.00     0.064 A 
ATOM     72  C   UNL A   1      43.522  26.812  26.803  1.00  0.00     0.173 A 
ATOM     73  C   UNL A   1      42.324  24.902  27.627  1.00  0.00     0.173 A 
ATOM     74  F   UNL A   1      43.860  28.107  26.878  1.00  0.00    -0.203 F 
ATOM     75  C   UNL A   1      43.993  26.053  25.733  1.00  0.00     0.198 A 
ATOM     76  C   UNL A   1      42.820  24.136  26.574  1.00  0.00     0.198 A 
ATOM     77  F   UNL A   1      41.510  24.321  28.520  1.00  0.00    -0.203 F 
ATOM     78  F   UNL A   1      44.769  26.622  24.801  1.00  0.00    -0.200 F 
ATOM     79  C   UNL A   1      43.648  24.714  25.624  1.00  0.00     0.200 A 
ATOM     80  F   UNL A   1      42.491  22.840  26.478  1.00  0.00    -0.200 F 
ATOM     81  F   UNL A   1      44.104  23.984  24.596  1.00  0.00    -0.200 F 
ENDBRANCH  47  71
BRANCH  59  82
ATOM     82  C   UNL A   1      45.134  27.911  34.074  1.00  0.00     0.064 A 
ATOM     83  C   UNL A   1      46.283  28.713  33.998  1.00  0.00     0.173 A 
ATOM     84  C   UNL A   1      45.185  26.765  34.880  1.00  0.00     0.173 A 
ATOM     85  F   UNL A   1      46.290  29.812  33.227  1.00  0.00    -0.203 F 
ATOM     86  C   UNL A   1      47.444  28.366  34.682  1.00  0.00     0.198 A 
ATOM     87  C   UNL A   1      46.339  26.437  35.588  1.00  0.00     0.198 A 
ATOM     88  F   UNL A   1      44.112  25.968  34.993  1.00  0.00    -0.203 F 
ATOM     89  F   UNL A   1      48.545  29.119  34.555  1.00  0.00    -0.200 F 
ATOM     90  C   UNL A   1      47.469  27.233  35.482  1.00  0.00     0.200 A 
ATOM     91  F   UNL A   1      46.356  25.350  36.372  1.00  0.00    -0.200 F 
ATOM     92  F   UNL A   1      48.586  26.904  36.145  1.00  0.00    -0.200 F 
ENDBRANCH  59  82
ENDBRANCH  33  34
ENDBRANCH  26  28
ENDBRANCH  25  26
ENDBRANCH  24  25
ENDBRANCH  23  24
ENDBRANCH   1  23
TORSDOF 17
ENDMDL
MODEL 3
REMARK VINA RESULT:     -11.4      4.635     10.248
REMARK SMILES Cc1cc(C[N@@H+]2C[C@@H](C(=O)OCCOCCOC(=O)c3ccc(-c4c5nc(c(-c6c(F)c(F)c(F)c(F)c6F)c6ccc([nH]6)c(-c6c(F)c(F)c(F)c(F)c6F)c6nc(c(-c7c(F)c(F)c(F)c(F)c7F)c7ccc4[nH]7)C=C6)C=C5)cc3)[C@H](C3CC3)C2)on1
REMARK SMILES IDX 14 1 13 2 12 3 11 4 9 5 10 6 8 7 6 8 7 9 87 10 83 12 5 13
REMARK SMILES IDX 4 14 1 15 2 16 3 17 89 18 88 19 84 20 85 21 86 22 15 23
REMARK SMILES IDX 16 24 17 25 18 26 19 27 20 28 21 29 82 30 22 31 81 32 23 33
REMARK SMILES IDX 24 34 25 35 75 36 26 37 80 38 74 39 76 40 27 41 79 42 73 43
REMARK SMILES IDX 72 44 28 46 60 47 40 48 59 49 41 50 44 51 58 52 77 53 42 54
REMARK SMILES IDX 43 55 57 57 78 58 45 59 29 60 30 61 38 62 31 63 32 64 36 65
REMARK SMILES IDX 39 66 33 67 34 68 37 69 35 70 61 71 62 72 70 73 63 74 64 75
REMARK SMILES IDX 68 76 71 77 65 78 66 79 69 80 67 81 46 82 47 83 55 84 48 85
REMARK SMILES IDX 49 86 53 87 56 88 50 89 51 90 54 91 52 92
REMARK H PARENT 6 11 76 45 44 56
REMARK Flexibility Score: inf
ROOT
ATOM      1  O   UNL A   1      34.504  22.148  24.365  1.00  0.00    -0.374 OA
ENDROOT
BRANCH   1   2
ATOM      2  C   UNL A   1      33.168  22.616  24.552  1.00  0.00     0.202 C 
BRANCH   2   3
ATOM      3  C   UNL A   1      32.922  23.654  25.649  1.00  0.00     0.261 C 
BRANCH   3   4
ATOM      4  O   UNL A   1      32.351  24.869  25.124  1.00  0.00    -0.463 OA
BRANCH   4   5
ATOM      5  C   UNL A   1      31.245  25.315  25.775  1.00  0.00     0.315 C 
ATOM      6  O   UNL A   1      30.819  24.819  26.813  1.00  0.00    -0.252 OA
BRANCH   5   7
ATOM      7  C   UNL A   1      30.596  26.519  25.130  1.00  0.00     0.163 C 
ATOM      8  N   UNL A   1      29.862  27.683  23.187  1.00  0.00    -0.328 N 
ATOM      9  C   UNL A   1      30.173  26.329  23.679  1.00  0.00     0.278 C 
ATOM     10  C   UNL A   1      30.763  28.596  23.907  1.00  0.00     0.267 C 
ATOM     11  H   UNL A   1      30.022  27.739  22.182  1.00  0.00     0.348 HD
ATOM     12  C   UNL A   1      31.433  27.798  25.052  1.00  0.00     0.067 C 
BRANCH   8  13
ATOM     13  C   UNL A   1      28.432  28.048  23.293  1.00  0.00     0.341 C 
BRANCH  13  14
ATOM     14  C   UNL A   1      28.067  29.405  22.800  1.00  0.00     0.191 A 
ATOM     15  C   UNL A   1      28.032  32.667  21.161  1.00  0.00     0.070 C 
ATOM     16  C   UNL A   1      27.863  31.428  21.953  1.00  0.00     0.081 A 
ATOM     17  C   UNL A   1      28.376  30.140  21.678  1.00  0.00     0.078 A 
ATOM     18  N   UNL A   1      27.204  31.450  23.117  1.00  0.00    -0.085 NA
ATOM     19  O   UNL A   1      27.320  30.174  23.640  1.00  0.00    -0.355 OA
ENDBRANCH  13  14
ENDBRANCH   8  13
BRANCH  12  20
ATOM     20  C   UNL A   1      31.573  28.637  26.300  1.00  0.00    -0.001 C 
ATOM     21  C   UNL A   1      31.803  28.087  27.687  1.00  0.00     0.004 C 
ATOM     22  C   UNL A   1      32.922  28.779  26.966  1.00  0.00     0.004 C 
ENDBRANCH  12  20
ENDBRANCH   5   7
ENDBRANCH   4   5
ENDBRANCH   3   4
ENDBRANCH   2   3
ENDBRANCH   1   2
BRANCH   1  23
ATOM     23  C   UNL A   1      35.244  21.790  25.527  1.00  0.00     0.202 C 
BRANCH  23  24
ATOM     24  C   UNL A   1      36.565  21.036  25.328  1.00  0.00     0.261 C 
BRANCH  24  25
ATOM     25  O   UNL A   1      37.696  21.912  25.195  1.00  0.00    -0.460 OA
BRANCH  25  26
ATOM     26  C   UNL A   1      38.774  21.552  25.930  1.00  0.00     0.338 C 
ATOM     27  O   UNL A   1      39.283  20.441  26.013  1.00  0.00    -0.246 OA
BRANCH  26  28
ATOM     28  C   UNL A   1      39.407  22.749  26.507  1.00  0.00     0.060 A 
ATOM     29  C   UNL A   1      38.948  23.999  26.071  1.00  0.00     0.016 A 
ATOM     30  C   UNL A   1      40.464  22.656  27.416  1.00  0.00     0.016 A 
ATOM     31  C   UNL A   1      39.559  25.163  26.524  1.00  0.00     0.010 A 
ATOM     32  C   UNL A   1      41.089  23.826  27.855  1.00  0.00     0.010 A 
ATOM     33  C   UNL A   1      40.653  25.082  27.393  1.00  0.00    -0.014 A 
BRANCH  33  34
ATOM     34  C   UNL A   1      41.411  26.310  27.725  1.00  0.00     0.031 A 
ATOM     35  C   UNL A   1      40.731  27.402  28.500  1.00  0.00     0.074 A 
ATOM     36  C   UNL A   1      42.699  26.431  27.361  1.00  0.00     0.049 A 
ATOM     37  N   UNL A   1      41.191  28.570  28.867  1.00  0.00    -0.248 NA
ATOM     38  C   UNL A   1      39.344  27.142  28.916  1.00  0.00     0.031 C 
ATOM     39  C   UNL A   1      43.470  25.418  26.644  1.00  0.00     0.029 A 
ATOM     40  N   UNL A   1      43.582  27.467  27.539  1.00  0.00    -0.354 N 
ATOM     41  C   UNL A   1      40.154  29.184  29.556  1.00  0.00     0.074 A 
ATOM     42  C   UNL A   1      39.030  28.273  29.531  1.00  0.00     0.031 C 
ATOM     43  C   UNL A   1      44.712  25.887  26.430  1.00  0.00     0.029 A 
ATOM     44  C   UNL A   1      44.809  27.244  26.966  1.00  0.00     0.049 A 
ATOM     45  H   UNL A   1      43.357  28.289  28.031  1.00  0.00     0.167 HD
ATOM     46  C   UNL A   1      40.146  30.396  30.161  1.00  0.00     0.037 A 
ATOM     47  C   UNL A   1      45.877  28.056  26.862  1.00  0.00     0.037 A 
ATOM     48  C   UNL A   1      41.268  31.298  30.177  1.00  0.00     0.049 A 
ATOM     49  C   UNL A   1      45.814  29.433  27.472  1.00  0.00     0.074 A 
ATOM     50  C   UNL A   1      41.371  32.538  30.780  1.00  0.00     0.029 A 
ATOM     51  N   UNL A   1      42.482  31.058  29.547  1.00  0.00    -0.354 N 
ATOM     52  N   UNL A   1      44.840  29.996  28.147  1.00  0.00    -0.248 NA
ATOM     53  C   UNL A   1      46.998  30.286  27.305  1.00  0.00     0.031 C 
ATOM     54  C   UNL A   1      42.626  33.073  30.470  1.00  0.00     0.029 A 
ATOM     55  C   UNL A   1      43.327  32.142  29.720  1.00  0.00     0.049 A 
ATOM     56  H   UNL A   1      42.709  30.237  29.053  1.00  0.00     0.167 HD
ATOM     57  C   UNL A   1      45.301  31.258  28.502  1.00  0.00     0.074 A 
ATOM     58  C   UNL A   1      46.649  31.370  27.985  1.00  0.00     0.031 C 
ATOM     59  C   UNL A   1      44.665  32.237  29.192  1.00  0.00     0.037 A 
BRANCH  46  60
ATOM     60  C   UNL A   1      38.876  30.830  30.831  1.00  0.00     0.064 A 
ATOM     61  C   UNL A   1      38.680  30.678  32.212  1.00  0.00     0.173 A 
ATOM     62  C   UNL A   1      37.855  31.441  30.087  1.00  0.00     0.173 A 
ATOM     63  F   UNL A   1      39.619  30.088  32.966  1.00  0.00    -0.203 F 
ATOM     64  C   UNL A   1      37.500  31.103  32.819  1.00  0.00     0.198 A 
ATOM     65  C   UNL A   1      36.689  31.890  30.701  1.00  0.00     0.198 A 
ATOM     66  F   UNL A   1      37.993  31.612  28.763  1.00  0.00    -0.203 F 
ATOM     67  F   UNL A   1      37.317  30.910  34.132  1.00  0.00    -0.200 F 
ATOM     68  C   UNL A   1      36.510  31.715  32.065  1.00  0.00     0.200 A 
ATOM     69  F   UNL A   1      35.738  32.491  29.972  1.00  0.00    -0.200 F 
ATOM     70  F   UNL A   1      35.379  32.130  32.652  1.00  0.00    -0.200 F 
ENDBRANCH  46  60
BRANCH  47  71
ATOM     71  C   UNL A   1      47.091  27.600  26.136  1.00  0.00     0.064 A 
ATOM     72  C   UNL A   1      47.186  27.711  24.742  1.00  0.00     0.173 A 
ATOM     73  C   UNL A   1      48.173  27.028  26.821  1.00  0.00     0.173 A 
ATOM     74  F   UNL A   1      46.167  28.226  24.040  1.00  0.00    -0.203 F 
ATOM     75  C   UNL A   1      48.312  27.252  24.059  1.00  0.00     0.198 A 
ATOM     76  C   UNL A   1      49.310  26.596  26.141  1.00  0.00     0.198 A 
ATOM     77  F   UNL A   1      48.131  26.896  28.155  1.00  0.00    -0.203 F 
ATOM     78  F   UNL A   1      48.358  27.328  22.723  1.00  0.00    -0.200 F 
ATOM     79  C   UNL A   1      49.375  26.702  24.760  1.00  0.00     0.200 A 
ATOM     80  F   UNL A   1      50.339  26.075  26.822  1.00  0.00    -0.200 F 
ATOM     81  F   UNL A   1      50.458  26.264  24.102  1.00  0.00    -0.200 F 
ENDBRANCH  47  71
BRANCH  59  82
ATOM     82  C   UNL A   1      45.428  33.505  29.445  1.00  0.00     0.064 A 
ATOM     83  C   UNL A   1      46.254  33.654  30.570  1.00  0.00     0.173 A 
ATOM     84  C   UNL A   1      45.361  34.570  28.535  1.00  0.00     0.173 A 
ATOM     85  F   UNL A   1      46.339  32.670  31.479  1.00  0.00    -0.203 F 
ATOM     86  C   UNL A   1      46.964  34.831  30.786  1.00  0.00     0.198 A 
ATOM     87  C   UNL A   1      46.097  35.735  28.738  1.00  0.00     0.198 A 
ATOM     88  F   UNL A   1      44.593  34.477  27.439  1.00  0.00    -0.203 F 
ATOM     89  F   UNL A   1      47.707  34.970  31.892  1.00  0.00    -0.200 F 
ATOM     90  C   UNL A   1      46.891  35.867  29.867  1.00  0.00     0.200 A 
ATOM     91  F   UNL A   1      46.037  36.728  27.841  1.00  0.00    -0.200 F 
ATOM     92  F   UNL A   1      47.581  36.997  30.073  1.00  0.00    -0.200 F 
ENDBRANCH  59  82
ENDBRANCH  33  34
ENDBRANCH  26  28
ENDBRANCH  25  26
ENDBRANCH  24  25
ENDBRANCH  23  24
ENDBRANCH   1  23
TORSDOF 17
ENDMDL
