MODEL 1
REMARK VINA RESULT:     -10.7      0.000      0.000
REMARK SMILES CSCc1ccc(C(=O)N[C@H]2C=C[C@@H](C(=O)OCCOCCOC(=O)c3ccc(-c4c5nc(c(-c6c(F)c(F)c(F)c(F)c6F)c6ccc([nH]6)c(-c6c(F)c(F)c(F)c(F)c6F)c6nc(c(-c7c(F)c(F)c(F)c(F)c7F)c7ccc4[nH]7)C=C6)C=C5)cc3)C2)o1
REMARK SMILES IDX 19 1 18 2 17 3 15 4 16 5 14 6 11 7 12 8 89 9 13 10 10 11
REMARK SMILES IDX 8 12 9 13 7 15 4 16 5 17 90 18 6 19 3 20 2 21 1 22 20 23
REMARK SMILES IDX 21 24 22 25 23 26 24 27 25 28 26 29 27 30 88 31 28 32 87 33
REMARK SMILES IDX 29 34 30 35 31 36 81 37 32 38 86 39 80 40 82 41 33 42 85 43
REMARK SMILES IDX 79 44 78 45 34 47 66 48 46 49 65 50 47 51 50 52 64 53 83 54
REMARK SMILES IDX 48 55 49 56 63 58 84 59 51 60 35 61 36 62 44 63 37 64 38 65
REMARK SMILES IDX 42 66 45 67 39 68 40 69 43 70 41 71 67 72 68 73 76 74 69 75
REMARK SMILES IDX 70 76 74 77 77 78 71 79 72 80 75 81 73 82 52 83 53 84 61 85
REMARK SMILES IDX 54 86 55 87 59 88 62 89 56 90 57 91 60 92 58 93
REMARK H PARENT 10 14 82 46 50 57
REMARK Flexibility Score: inf
ROOT
ATOM      1  C   UNL A   1      33.842  29.298  27.228  1.00  0.00     0.202 C 
ENDROOT
BRANCH   1   2
ATOM      2  C   UNL A   1      32.571  28.480  27.002  1.00  0.00     0.261 C 
BRANCH   2   3
ATOM      3  O   UNL A   1      32.934  27.162  26.563  1.00  0.00    -0.463 OA
BRANCH   3   4
ATOM      4  C   UNL A   1      31.934  26.253  26.415  1.00  0.00     0.312 C 
ATOM      5  O   UNL A   1      30.751  26.477  26.641  1.00  0.00    -0.252 OA
BRANCH   4   6
ATOM      6  C   UNL A   1      32.467  24.917  25.881  1.00  0.00     0.124 C 
ATOM      7  C   UNL A   1      33.197  24.077  23.685  1.00  0.00     0.106 C 
ATOM      8  C   UNL A   1      34.348  24.555  24.489  1.00  0.00    -0.006 C 
ATOM      9  C   UNL A   1      31.957  24.480  24.488  1.00  0.00     0.048 C 
ATOM     10  C   UNL A   1      33.958  24.983  25.695  1.00  0.00    -0.014 C 
BRANCH   7  11
ATOM     11  N   UNL A   1      33.226  24.510  22.304  1.00  0.00    -0.343 N 
ATOM     12  C   UNL A   1      32.903  25.646  21.600  1.00  0.00     0.287 C 
ATOM     13  O   UNL A   1      33.123  25.578  20.386  1.00  0.00    -0.266 OA
ATOM     14  H   UNL A   1      33.566  23.803  21.711  1.00  0.00     0.164 HD
BRANCH  12  15
ATOM     15  C   UNL A   1      32.365  26.840  22.218  1.00  0.00     0.191 A 
ATOM     16  C   UNL A   1      30.708  28.206  22.781  1.00  0.00     0.114 A 
ATOM     17  C   UNL A   1      31.847  28.735  23.341  1.00  0.00     0.047 A 
ATOM     18  O   UNL A   1      31.013  27.071  22.085  1.00  0.00    -0.455 OA
ATOM     19  C   UNL A   1      32.879  27.831  23.024  1.00  0.00     0.056 A 
BRANCH  16  20
ATOM     20  C   UNL A   1      29.281  28.593  22.849  1.00  0.00     0.144 C 
BRANCH  20  21
ATOM     21  S   UNL A   1      28.993  30.188  22.003  1.00  0.00    -0.157 SA
ATOM     22  C   UNL A   1      28.777  31.245  23.460  1.00  0.00     0.085 C 
ENDBRANCH  20  21
ENDBRANCH  16  20
ENDBRANCH  12  15
ENDBRANCH   7  11
ENDBRANCH   4   6
ENDBRANCH   3   4
ENDBRANCH   2   3
ENDBRANCH   1   2
BRANCH   1  23
ATOM     23  O   UNL A   1      33.667  30.716  27.263  1.00  0.00    -0.374 OA
BRANCH  23  24
ATOM     24  C   UNL A   1      32.397  31.245  26.886  1.00  0.00     0.202 C 
BRANCH  24  25
ATOM     25  C   UNL A   1      32.116  32.708  27.251  1.00  0.00     0.261 C 
BRANCH  25  26
ATOM     26  O   UNL A   1      33.299  33.522  27.322  1.00  0.00    -0.460 OA
BRANCH  26  27
ATOM     27  C   UNL A   1      33.322  34.372  28.376  1.00  0.00     0.338 C 
ATOM     28  O   UNL A   1      32.528  35.277  28.615  1.00  0.00    -0.246 OA
BRANCH  27  29
ATOM     29  C   UNL A   1      34.382  34.009  29.329  1.00  0.00     0.060 A 
ATOM     30  C   UNL A   1      35.703  34.305  28.967  1.00  0.00     0.016 A 
ATOM     31  C   UNL A   1      34.113  33.285  30.493  1.00  0.00     0.016 A 
ATOM     32  C   UNL A   1      36.762  33.828  29.735  1.00  0.00     0.010 A 
ATOM     33  C   UNL A   1      35.180  32.803  31.262  1.00  0.00     0.010 A 
ATOM     34  C   UNL A   1      36.508  33.040  30.866  1.00  0.00    -0.014 A 
BRANCH  34  35
ATOM     35  C   UNL A   1      37.638  32.356  31.542  1.00  0.00     0.031 A 
ATOM     36  C   UNL A   1      38.351  31.234  30.836  1.00  0.00     0.074 A 
ATOM     37  C   UNL A   1      38.058  32.761  32.753  1.00  0.00     0.049 A 
ATOM     38  N   UNL A   1      39.359  30.504  31.241  1.00  0.00    -0.248 NA
ATOM     39  C   UNL A   1      37.864  30.894  29.490  1.00  0.00     0.031 C 
ATOM     40  C   UNL A   1      37.481  33.863  33.520  1.00  0.00     0.029 A 
ATOM     41  N   UNL A   1      39.072  32.289  33.549  1.00  0.00    -0.354 N 
ATOM     42  C   UNL A   1      39.626  29.619  30.203  1.00  0.00     0.074 A 
ATOM     43  C   UNL A   1      38.655  29.882  29.162  1.00  0.00     0.031 C 
ATOM     44  C   UNL A   1      38.148  33.980  34.681  1.00  0.00     0.029 A 
ATOM     45  C   UNL A   1      39.174  32.940  34.752  1.00  0.00     0.049 A 
ATOM     46  H   UNL A   1      39.670  31.554  33.281  1.00  0.00     0.167 HD
ATOM     47  C   UNL A   1      40.599  28.681  30.122  1.00  0.00     0.037 A 
ATOM     48  C   UNL A   1      39.989  32.711  35.800  1.00  0.00     0.037 A 
ATOM     49  C   UNL A   1      41.567  28.419  31.154  1.00  0.00     0.049 A 
ATOM     50  C   UNL A   1      41.016  31.611  35.713  1.00  0.00     0.074 A 
ATOM     51  C   UNL A   1      42.604  27.502  31.156  1.00  0.00     0.029 A 
ATOM     52  N   UNL A   1      41.612  29.073  32.377  1.00  0.00    -0.354 N 
ATOM     53  N   UNL A   1      41.279  30.799  34.718  1.00  0.00    -0.248 NA
ATOM     54  C   UNL A   1      41.864  31.403  36.895  1.00  0.00     0.031 C 
ATOM     55  C   UNL A   1      43.246  27.569  32.396  1.00  0.00     0.029 A 
ATOM     56  C   UNL A   1      42.642  28.561  33.150  1.00  0.00     0.049 A 
ATOM     57  H   UNL A   1      41.001  29.794  32.654  1.00  0.00     0.167 HD
ATOM     58  C   UNL A   1      42.337  30.006  35.142  1.00  0.00     0.074 A 
ATOM     59  C   UNL A   1      42.676  30.441  36.480  1.00  0.00     0.031 C 
ATOM     60  C   UNL A   1      42.972  29.008  34.478  1.00  0.00     0.037 A 
BRANCH  47  61
ATOM     61  C   UNL A   1      40.655  27.847  28.874  1.00  0.00     0.064 A 
ATOM     62  C   UNL A   1      39.895  26.676  28.737  1.00  0.00     0.173 A 
ATOM     63  C   UNL A   1      41.450  28.246  27.789  1.00  0.00     0.173 A 
ATOM     64  F   UNL A   1      39.129  26.247  29.751  1.00  0.00    -0.203 F 
ATOM     65  C   UNL A   1      39.947  25.922  27.567  1.00  0.00     0.198 A 
ATOM     66  C   UNL A   1      41.480  27.503  26.611  1.00  0.00     0.198 A 
ATOM     67  F   UNL A   1      42.192  29.361  27.868  1.00  0.00    -0.203 F 
ATOM     68  F   UNL A   1      39.245  24.785  27.474  1.00  0.00    -0.200 F 
ATOM     69  C   UNL A   1      40.734  26.340  26.503  1.00  0.00     0.200 A 
ATOM     70  F   UNL A   1      42.231  27.914  25.580  1.00  0.00    -0.200 F 
ATOM     71  F   UNL A   1      40.778  25.616  25.376  1.00  0.00    -0.200 F 
ENDBRANCH  47  61
BRANCH  48  72
ATOM     72  C   UNL A   1      39.859  33.534  37.029  1.00  0.00     0.064 A 
ATOM     73  C   UNL A   1      38.940  33.199  38.032  1.00  0.00     0.173 A 
ATOM     74  C   UNL A   1      40.642  34.683  37.217  1.00  0.00     0.173 A 
ATOM     75  F   UNL A   1      38.150  32.126  37.885  1.00  0.00    -0.203 F 
ATOM     76  C   UNL A   1      38.797  33.993  39.170  1.00  0.00     0.198 A 
ATOM     77  C   UNL A   1      40.517  35.461  38.366  1.00  0.00     0.198 A 
ATOM     78  F   UNL A   1      41.534  35.048  36.284  1.00  0.00    -0.203 F 
ATOM     79  F   UNL A   1      37.876  33.677  40.090  1.00  0.00    -0.200 F 
ATOM     80  C   UNL A   1      39.589  35.119  39.337  1.00  0.00     0.200 A 
ATOM     81  F   UNL A   1      41.287  36.546  38.525  1.00  0.00    -0.200 F 
ATOM     82  F   UNL A   1      39.446  35.883  40.430  1.00  0.00    -0.200 F 
ENDBRANCH  48  72
BRANCH  60  83
ATOM     83  C   UNL A   1      44.124  28.340  35.174  1.00  0.00     0.064 A 
ATOM     84  C   UNL A   1      45.431  28.840  35.078  1.00  0.00     0.173 A 
ATOM     85  C   UNL A   1      43.909  27.211  35.979  1.00  0.00     0.173 A 
ATOM     86  F   UNL A   1      45.691  29.909  34.311  1.00  0.00    -0.203 F 
ATOM     87  C   UNL A   1      46.485  28.220  35.745  1.00  0.00     0.198 A 
ATOM     88  C   UNL A   1      44.960  26.610  36.666  1.00  0.00     0.198 A 
ATOM     89  F   UNL A   1      42.677  26.698  36.110  1.00  0.00    -0.203 F 
ATOM     90  F   UNL A   1      47.732  28.688  35.605  1.00  0.00    -0.200 F 
ATOM     91  C   UNL A   1      46.247  27.110  36.543  1.00  0.00     0.200 A 
ATOM     92  F   UNL A   1      44.727  25.547  37.447  1.00  0.00    -0.200 F 
ATOM     93  F   UNL A   1      47.262  26.519  37.189  1.00  0.00    -0.200 F 
ENDBRANCH  60  83
ENDBRANCH  34  35
ENDBRANCH  27  29
ENDBRANCH  26  27
ENDBRANCH  25  26
ENDBRANCH  24  25
ENDBRANCH  23  24
ENDBRANCH   1  23
TORSDOF 18
ENDMDL
MODEL 2
REMARK VINA RESULT:     -10.7      0.678      7.375
REMARK SMILES CSCc1ccc(C(=O)N[C@H]2C=C[C@@H](C(=O)OCCOCCOC(=O)c3ccc(-c4c5nc(c(-c6c(F)c(F)c(F)c(F)c6F)c6ccc([nH]6)c(-c6c(F)c(F)c(F)c(F)c6F)c6nc(c(-c7c(F)c(F)c(F)c(F)c7F)c7ccc4[nH]7)C=C6)C=C5)cc3)C2)o1
REMARK SMILES IDX 19 1 18 2 17 3 15 4 16 5 14 6 11 7 12 8 89 9 13 10 10 11
REMARK SMILES IDX 8 12 9 13 7 15 4 16 5 17 90 18 6 19 3 20 2 21 1 22 20 23
REMARK SMILES IDX 21 24 22 25 23 26 24 27 25 28 26 29 27 30 88 31 28 32 87 33
REMARK SMILES IDX 29 34 30 35 31 36 81 37 32 38 86 39 80 40 82 41 33 42 85 43
REMARK SMILES IDX 79 44 78 45 34 47 66 48 46 49 65 50 47 51 50 52 64 53 83 54
REMARK SMILES IDX 48 55 49 56 63 58 84 59 51 60 35 61 36 62 44 63 37 64 38 65
REMARK SMILES IDX 42 66 45 67 39 68 40 69 43 70 41 71 67 72 68 73 76 74 69 75
REMARK SMILES IDX 70 76 74 77 77 78 71 79 72 80 75 81 73 82 52 83 53 84 61 85
REMARK SMILES IDX 54 86 55 87 59 88 62 89 56 90 57 91 60 92 58 93
REMARK H PARENT 10 14 82 46 50 57
REMARK Flexibility Score: inf
ROOT
ATOM      1  C   UNL A   1      33.662  29.238  27.242  1.00  0.00     0.202 C 
ENDROOT
BRANCH   1   2
ATOM      2  C   UNL A   1      32.420  28.420  26.886  1.00  0.00     0.261 C 
BRANCH   2   3
ATOM      3  O   UNL A   1      32.775  27.030  26.828  1.00  0.00    -0.463 OA
BRANCH   3   4
ATOM      4  C   UNL A   1      31.820  26.157  26.412  1.00  0.00     0.312 C 
ATOM      5  O   UNL A   1      30.615  26.374  26.449  1.00  0.00    -0.252 OA
BRANCH   4   6
ATOM      6  C   UNL A   1      32.443  24.875  25.845  1.00  0.00     0.124 C 
ATOM      7  C   UNL A   1      33.179  24.125  23.618  1.00  0.00     0.106 C 
ATOM      8  C   UNL A   1      34.309  24.683  24.400  1.00  0.00    -0.006 C 
ATOM      9  C   UNL A   1      31.933  24.416  24.459  1.00  0.00     0.048 C 
ATOM     10  C   UNL A   1      33.919  25.063  25.622  1.00  0.00    -0.014 C 
BRANCH   7  11
ATOM     11  N   UNL A   1      33.135  24.577  22.243  1.00  0.00    -0.343 N 
ATOM     12  C   UNL A   1      33.039  25.779  21.583  1.00  0.00     0.287 C 
ATOM     13  O   UNL A   1      33.065  25.692  20.351  1.00  0.00    -0.266 OA
ATOM     14  H   UNL A   1      33.187  23.823  21.614  1.00  0.00     0.164 HD
BRANCH  12  15
ATOM     15  C   UNL A   1      32.933  27.054  22.262  1.00  0.00     0.191 A 
ATOM     16  C   UNL A   1      31.795  28.696  23.227  1.00  0.00     0.114 A 
ATOM     17  C   UNL A   1      33.124  29.019  23.367  1.00  0.00     0.047 A 
ATOM     18  O   UNL A   1      31.668  27.520  22.545  1.00  0.00    -0.455 OA
ATOM     19  C   UNL A   1      33.836  27.943  22.801  1.00  0.00     0.056 A 
BRANCH  16  20
ATOM     20  C   UNL A   1      30.550  29.332  23.715  1.00  0.00     0.144 C 
BRANCH  20  21
ATOM     21  S   UNL A   1      29.403  29.672  22.333  1.00  0.00    -0.157 SA
ATOM     22  C   UNL A   1      27.964  28.743  22.927  1.00  0.00     0.085 C 
ENDBRANCH  20  21
ENDBRANCH  16  20
ENDBRANCH  12  15
ENDBRANCH   7  11
ENDBRANCH   4   6
ENDBRANCH   3   4
ENDBRANCH   2   3
ENDBRANCH   1   2
BRANCH   1  23
ATOM     23  O   UNL A   1      33.461  30.647  27.361  1.00  0.00    -0.374 OA
BRANCH  23  24
ATOM     24  C   UNL A   1      32.227  31.191  26.897  1.00  0.00     0.202 C 
BRANCH  24  25
ATOM     25  C   UNL A   1      31.954  32.668  27.212  1.00  0.00     0.261 C 
BRANCH  25  26
ATOM     26  O   UNL A   1      33.139  33.482  27.230  1.00  0.00    -0.460 OA
BRANCH  26  27
ATOM     27  C   UNL A   1      33.245  34.279  28.320  1.00  0.00     0.338 C 
ATOM     28  O   UNL A   1      32.499  35.200  28.638  1.00  0.00    -0.246 OA
BRANCH  27  29
ATOM     29  C   UNL A   1      34.332  33.832  29.204  1.00  0.00     0.060 A 
ATOM     30  C   UNL A   1      35.628  34.268  28.900  1.00  0.00     0.016 A 
ATOM     31  C   UNL A   1      34.119  32.907  30.229  1.00  0.00     0.016 A 
ATOM     32  C   UNL A   1      36.721  33.739  29.582  1.00  0.00     0.010 A 
ATOM     33  C   UNL A   1      35.220  32.374  30.911  1.00  0.00     0.010 A 
ATOM     34  C   UNL A   1      36.527  32.759  30.565  1.00  0.00    -0.014 A 
BRANCH  34  35
ATOM     35  C   UNL A   1      37.704  32.046  31.122  1.00  0.00     0.031 A 
ATOM     36  C   UNL A   1      38.180  32.380  32.509  1.00  0.00     0.074 A 
ATOM     37  C   UNL A   1      38.314  31.077  30.418  1.00  0.00     0.049 A 
ATOM     38  N   UNL A   1      39.183  31.882  33.187  1.00  0.00    -0.248 NA
ATOM     39  C   UNL A   1      37.420  33.412  33.231  1.00  0.00     0.031 C 
ATOM     40  C   UNL A   1      37.920  30.630  29.083  1.00  0.00     0.029 A 
ATOM     41  N   UNL A   1      39.394  30.292  30.733  1.00  0.00    -0.354 N 
ATOM     42  C   UNL A   1      39.174  32.538  34.412  1.00  0.00     0.074 A 
ATOM     43  C   UNL A   1      38.087  33.493  34.373  1.00  0.00     0.031 C 
ATOM     44  C   UNL A   1      38.753  29.651  28.690  1.00  0.00     0.029 A 
ATOM     45  C   UNL A   1      39.757  29.429  29.730  1.00  0.00     0.049 A 
ATOM     46  H   UNL A   1      39.864  30.344  31.597  1.00  0.00     0.167 HD
ATOM     47  C   UNL A   1      39.993  32.353  35.475  1.00  0.00     0.037 A 
ATOM     48  C   UNL A   1      40.793  28.570  29.652  1.00  0.00     0.037 A 
ATOM     49  C   UNL A   1      41.074  31.404  35.516  1.00  0.00     0.049 A 
ATOM     50  C   UNL A   1      41.733  28.436  30.822  1.00  0.00     0.074 A 
ATOM     51  C   UNL A   1      41.945  31.129  36.556  1.00  0.00     0.029 A 
ATOM     52  N   UNL A   1      41.435  30.575  34.464  1.00  0.00    -0.354 N 
ATOM     53  N   UNL A   1      41.701  29.040  31.985  1.00  0.00    -0.248 NA
ATOM     54  C   UNL A   1      42.851  27.494  30.668  1.00  0.00     0.031 C 
ATOM     55  C   UNL A   1      42.862  30.169  36.117  1.00  0.00     0.029 A 
ATOM     56  C   UNL A   1      42.533  29.808  34.822  1.00  0.00     0.049 A 
ATOM     57  H   UNL A   1      40.979  30.537  33.593  1.00  0.00     0.167 HD
ATOM     58  C   UNL A   1      42.772  28.532  32.709  1.00  0.00     0.074 A 
ATOM     59  C   UNL A   1      43.429  27.562  31.859  1.00  0.00     0.031 C 
ATOM     60  C   UNL A   1      43.172  28.841  33.967  1.00  0.00     0.037 A 
BRANCH  47  61
ATOM     61  C   UNL A   1      39.764  33.215  36.683  1.00  0.00     0.064 A 
ATOM     62  C   UNL A   1      40.458  34.419  36.870  1.00  0.00     0.173 A 
ATOM     63  C   UNL A   1      38.812  32.849  37.646  1.00  0.00     0.173 A 
ATOM     64  F   UNL A   1      41.387  34.808  35.984  1.00  0.00    -0.203 F 
ATOM     65  C   UNL A   1      40.223  35.214  37.989  1.00  0.00     0.198 A 
ATOM     66  C   UNL A   1      38.561  33.659  38.751  1.00  0.00     0.198 A 
ATOM     67  F   UNL A   1      38.118  31.708  37.512  1.00  0.00    -0.203 F 
ATOM     68  F   UNL A   1      40.927  36.340  38.170  1.00  0.00    -0.200 F 
ATOM     69  C   UNL A   1      39.270  34.836  38.925  1.00  0.00     0.200 A 
ATOM     70  F   UNL A   1      37.632  33.298  39.647  1.00  0.00    -0.200 F 
ATOM     71  F   UNL A   1      39.041  35.606  39.998  1.00  0.00    -0.200 F 
ENDBRANCH  47  61
BRANCH  48  72
ATOM     72  C   UNL A   1      41.001  27.777  28.414  1.00  0.00     0.064 A 
ATOM     73  C   UNL A   1      40.383  26.532  28.238  1.00  0.00     0.173 A 
ATOM     74  C   UNL A   1      41.839  28.241  27.389  1.00  0.00     0.173 A 
ATOM     75  F   UNL A   1      39.595  26.033  29.202  1.00  0.00    -0.203 F 
ATOM     76  C   UNL A   1      40.607  25.774  27.090  1.00  0.00     0.198 A 
ATOM     77  C   UNL A   1      42.042  27.494  26.230  1.00  0.00     0.198 A 
ATOM     78  F   UNL A   1      42.458  29.425  27.512  1.00  0.00    -0.203 F 
ATOM     79  F   UNL A   1      40.042  24.565  26.969  1.00  0.00    -0.200 F 
ATOM     80  C   UNL A   1      41.432  26.258  26.086  1.00  0.00     0.200 A 
ATOM     81  F   UNL A   1      42.837  27.969  25.262  1.00  0.00    -0.200 F 
ATOM     82  F   UNL A   1      41.650  25.526  24.985  1.00  0.00    -0.200 F 
ENDBRANCH  48  72
BRANCH  60  83
ATOM     83  C   UNL A   1      44.355  28.096  34.518  1.00  0.00     0.064 A 
ATOM     84  C   UNL A   1      44.209  26.864  35.172  1.00  0.00     0.173 A 
ATOM     85  C   UNL A   1      45.653  28.603  34.352  1.00  0.00     0.173 A 
ATOM     86  F   UNL A   1      42.989  26.344  35.368  1.00  0.00    -0.203 F 
ATOM     87  C   UNL A   1      45.319  26.178  35.660  1.00  0.00     0.198 A 
ATOM     88  C   UNL A   1      46.762  27.901  34.817  1.00  0.00     0.198 A 
ATOM     89  F   UNL A   1      45.847  29.773  33.727  1.00  0.00    -0.203 F 
ATOM     90  F   UNL A   1      45.153  25.024  36.320  1.00  0.00    -0.200 F 
ATOM     91  C   UNL A   1      46.593  26.693  35.476  1.00  0.00     0.200 A 
ATOM     92  F   UNL A   1      47.993  28.393  34.626  1.00  0.00    -0.200 F 
ATOM     93  F   UNL A   1      47.660  26.028  35.941  1.00  0.00    -0.200 F 
ENDBRANCH  60  83
ENDBRANCH  34  35
ENDBRANCH  27  29
ENDBRANCH  26  27
ENDBRANCH  25  26
ENDBRANCH  24  25
ENDBRANCH  23  24
ENDBRANCH   1  23
TORSDOF 18
ENDMDL
MODEL 3
REMARK VINA RESULT:     -10.6      3.618      8.878
REMARK SMILES CSCc1ccc(C(=O)N[C@H]2C=C[C@@H](C(=O)OCCOCCOC(=O)c3ccc(-c4c5nc(c(-c6c(F)c(F)c(F)c(F)c6F)c6ccc([nH]6)c(-c6c(F)c(F)c(F)c(F)c6F)c6nc(c(-c7c(F)c(F)c(F)c(F)c7F)c7ccc4[nH]7)C=C6)C=C5)cc3)C2)o1
REMARK SMILES IDX 19 1 18 2 17 3 15 4 16 5 14 6 11 7 12 8 89 9 13 10 10 11
REMARK SMILES IDX 8 12 9 13 7 15 4 16 5 17 90 18 6 19 3 20 2 21 1 22 20 23
REMARK SMILES IDX 21 24 22 25 23 26 24 27 25 28 26 29 27 30 88 31 28 32 87 33
REMARK SMILES IDX 29 34 30 35 31 36 81 37 32 38 86 39 80 40 82 41 33 42 85 43
REMARK SMILES IDX 79 44 78 45 34 47 66 48 46 49 65 50 47 51 50 52 64 53 83 54
REMARK SMILES IDX 48 55 49 56 63 58 84 59 51 60 35 61 36 62 44 63 37 64 38 65
REMARK SMILES IDX 42 66 45 67 39 68 40 69 43 70 41 71 67 72 68 73 76 74 69 75
REMARK SMILES IDX 70 76 74 77 77 78 71 79 72 80 75 81 73 82 52 83 53 84 61 85
REMARK SMILES IDX 54 86 55 87 59 88 62 89 56 90 57 91 60 92 58 93
REMARK H PARENT 10 14 82 46 50 57
REMARK Flexibility Score: inf
ROOT
ATOM      1  C   UNL A   1      40.822  20.540  27.008  1.00  0.00     0.202 C 
ENDROOT
BRANCH   1   2
ATOM      2  C   UNL A   1      40.170  21.576  26.091  1.00  0.00     0.261 C 
BRANCH   2   3
ATOM      3  O   UNL A   1      38.851  21.130  25.743  1.00  0.00    -0.463 OA
BRANCH   3   4
ATOM      4  C   UNL A   1      37.909  22.081  25.507  1.00  0.00     0.312 C 
ATOM      5  O   UNL A   1      37.891  23.187  26.033  1.00  0.00    -0.252 OA
BRANCH   4   6
ATOM      6  C   UNL A   1      36.893  21.613  24.458  1.00  0.00     0.124 C 
ATOM      7  C   UNL A   1      34.442  21.698  24.237  1.00  0.00     0.106 C 
ATOM      8  C   UNL A   1      35.086  22.837  23.538  1.00  0.00    -0.006 C 
ATOM      9  C   UNL A   1      35.577  21.005  24.997  1.00  0.00     0.048 C 
ATOM     10  C   UNL A   1      36.419  22.777  23.630  1.00  0.00    -0.014 C 
BRANCH   7  11
ATOM     11  N   UNL A   1      33.286  22.069  25.025  1.00  0.00    -0.343 N 
ATOM     12  C   UNL A   1      32.654  23.233  25.394  1.00  0.00     0.287 C 
ATOM     13  O   UNL A   1      31.641  23.070  26.083  1.00  0.00    -0.266 OA
ATOM     14  H   UNL A   1      32.833  21.279  25.397  1.00  0.00     0.164 HD
BRANCH  12  15
ATOM     15  C   UNL A   1      33.113  24.548  25.001  1.00  0.00     0.191 A 
ATOM     16  C   UNL A   1      33.102  26.343  23.695  1.00  0.00     0.114 A 
ATOM     17  C   UNL A   1      33.990  26.614  24.709  1.00  0.00     0.047 A 
ATOM     18  O   UNL A   1      32.581  25.091  23.852  1.00  0.00    -0.455 OA
ATOM     19  C   UNL A   1      33.946  25.492  25.560  1.00  0.00     0.056 A 
BRANCH  16  20
ATOM     20  C   UNL A   1      32.594  27.150  22.563  1.00  0.00     0.144 C 
BRANCH  20  21
ATOM     21  S   UNL A   1      30.828  27.564  22.794  1.00  0.00    -0.157 SA
ATOM     22  C   UNL A   1      30.810  27.726  24.599  1.00  0.00     0.085 C 
ENDBRANCH  20  21
ENDBRANCH  16  20
ENDBRANCH  12  15
ENDBRANCH   7  11
ENDBRANCH   4   6
ENDBRANCH   3   4
ENDBRANCH   2   3
ENDBRANCH   1   2
BRANCH   1  23
ATOM     23  O   UNL A   1      42.250  20.529  27.011  1.00  0.00    -0.374 OA
BRANCH  23  24
ATOM     24  C   UNL A   1      42.924  20.499  25.754  1.00  0.00     0.202 C 
BRANCH  24  25
ATOM     25  C   UNL A   1      43.829  21.693  25.421  1.00  0.00     0.261 C 
BRANCH  25  26
ATOM     26  O   UNL A   1      43.124  22.809  24.854  1.00  0.00    -0.460 OA
BRANCH  26  27
ATOM     27  C   UNL A   1      43.757  23.997  25.005  1.00  0.00     0.338 C 
ATOM     28  O   UNL A   1      44.771  24.374  24.425  1.00  0.00    -0.246 OA
BRANCH  27  29
ATOM     29  C   UNL A   1      43.001  24.895  25.893  1.00  0.00     0.060 A 
ATOM     30  C   UNL A   1      43.456  26.214  26.011  1.00  0.00     0.016 A 
ATOM     31  C   UNL A   1      41.951  24.434  26.690  1.00  0.00     0.016 A 
ATOM     32  C   UNL A   1      42.901  27.061  26.967  1.00  0.00     0.010 A 
ATOM     33  C   UNL A   1      41.396  25.286  27.653  1.00  0.00     0.010 A 
ATOM     34  C   UNL A   1      41.895  26.590  27.821  1.00  0.00    -0.014 A 
BRANCH  34  35
ATOM     35  C   UNL A   1      41.472  27.424  28.974  1.00  0.00     0.031 A 
ATOM     36  C   UNL A   1      42.247  27.351  30.261  1.00  0.00     0.074 A 
ATOM     37  C   UNL A   1      40.437  28.275  28.861  1.00  0.00     0.049 A 
ATOM     38  N   UNL A   1      42.052  27.990  31.387  1.00  0.00    -0.248 NA
ATOM     39  C   UNL A   1      43.400  26.438  30.280  1.00  0.00     0.031 C 
ATOM     40  C   UNL A   1      39.636  28.472  27.655  1.00  0.00     0.029 A 
ATOM     41  N   UNL A   1      39.886  29.136  29.777  1.00  0.00    -0.354 N 
ATOM     42  C   UNL A   1      43.054  27.556  32.246  1.00  0.00     0.074 A 
ATOM     43  C   UNL A   1      43.837  26.577  31.523  1.00  0.00     0.031 C 
ATOM     44  C   UNL A   1      38.690  29.392  27.907  1.00  0.00     0.029 A 
ATOM     45  C   UNL A   1      38.799  29.823  29.300  1.00  0.00     0.049 A 
ATOM     46  H   UNL A   1      40.239  29.249  30.690  1.00  0.00     0.167 HD
ATOM     47  C   UNL A   1      43.305  27.948  33.519  1.00  0.00     0.037 A 
ATOM     48  C   UNL A   1      37.973  30.685  29.923  1.00  0.00     0.037 A 
ATOM     49  C   UNL A   1      42.529  28.923  34.239  1.00  0.00     0.049 A 
ATOM     50  C   UNL A   1      38.229  31.049  31.363  1.00  0.00     0.074 A 
ATOM     51  C   UNL A   1      42.717  29.400  35.524  1.00  0.00     0.029 A 
ATOM     52  N   UNL A   1      41.409  29.567  33.735  1.00  0.00    -0.354 N 
ATOM     53  N   UNL A   1      39.195  30.656  32.158  1.00  0.00    -0.248 NA
ATOM     54  C   UNL A   1      37.284  31.984  31.988  1.00  0.00     0.031 C 
ATOM     55  C   UNL A   1      41.684  30.297  35.815  1.00  0.00     0.029 A 
ATOM     56  C   UNL A   1      40.881  30.418  34.693  1.00  0.00     0.049 A 
ATOM     57  H   UNL A   1      41.043  29.439  32.830  1.00  0.00     0.167 HD
ATOM     58  C   UNL A   1      38.990  31.314  33.363  1.00  0.00     0.074 A 
ATOM     59  C   UNL A   1      37.814  32.142  33.192  1.00  0.00     0.031 C 
ATOM     60  C   UNL A   1      39.714  31.241  34.508  1.00  0.00     0.037 A 
BRANCH  47  61
ATOM     61  C   UNL A   1      44.460  27.302  34.227  1.00  0.00     0.064 A 
ATOM     62  C   UNL A   1      45.746  27.863  34.201  1.00  0.00     0.173 A 
ATOM     63  C   UNL A   1      44.270  26.129  34.971  1.00  0.00     0.173 A 
ATOM     64  F   UNL A   1      45.982  28.978  33.494  1.00  0.00    -0.203 F 
ATOM     65  C   UNL A   1      46.804  27.258  34.876  1.00  0.00     0.198 A 
ATOM     66  C   UNL A   1      45.325  25.540  35.666  1.00  0.00     0.198 A 
ATOM     67  F   UNL A   1      43.059  25.554  35.031  1.00  0.00    -0.203 F 
ATOM     68  F   UNL A   1      48.032  27.788  34.804  1.00  0.00    -0.200 F 
ATOM     69  C   UNL A   1      46.591  26.101  35.613  1.00  0.00     0.200 A 
ATOM     70  F   UNL A   1      45.114  24.430  36.386  1.00  0.00    -0.200 F 
ATOM     71  F   UNL A   1      47.609  25.525  36.267  1.00  0.00    -0.200 F 
ENDBRANCH  47  61
BRANCH  48  72
ATOM     72  C   UNL A   1      36.815  31.258  29.190  1.00  0.00     0.064 A 
ATOM     73  C   UNL A   1      36.804  32.600  28.786  1.00  0.00     0.173 A 
ATOM     74  C   UNL A   1      35.688  30.477  28.893  1.00  0.00     0.173 A 
ATOM     75  F   UNL A   1      37.847  33.393  29.072  1.00  0.00    -0.203 F 
ATOM     76  C   UNL A   1      35.703  33.144  28.127  1.00  0.00     0.198 A 
ATOM     77  C   UNL A   1      34.598  31.015  28.212  1.00  0.00     0.198 A 
ATOM     78  F   UNL A   1      35.647  29.188  29.261  1.00  0.00    -0.203 F 
ATOM     79  F   UNL A   1      35.698  34.442  27.797  1.00  0.00    -0.200 F 
ATOM     80  C   UNL A   1      34.603  32.350  27.837  1.00  0.00     0.200 A 
ATOM     81  F   UNL A   1      33.540  30.242  27.930  1.00  0.00    -0.200 F 
ATOM     82  F   UNL A   1      33.543  32.876  27.208  1.00  0.00    -0.200 F 
ENDBRANCH  48  72
BRANCH  60  83
ATOM     83  C   UNL A   1      39.279  32.106  35.656  1.00  0.00     0.064 A 
ATOM     84  C   UNL A   1      38.348  31.655  36.604  1.00  0.00     0.173 A 
ATOM     85  C   UNL A   1      39.831  33.383  35.832  1.00  0.00     0.173 A 
ATOM     86  F   UNL A   1      37.781  30.447  36.473  1.00  0.00    -0.203 F 
ATOM     87  C   UNL A   1      37.970  32.463  37.675  1.00  0.00     0.198 A 
ATOM     88  C   UNL A   1      39.471  34.177  36.919  1.00  0.00     0.198 A 
ATOM     89  F   UNL A   1      40.731  33.858  34.958  1.00  0.00    -0.203 F 
ATOM     90  F   UNL A   1      37.047  32.030  38.544  1.00  0.00    -0.200 F 
ATOM     91  C   UNL A   1      38.536  33.719  37.834  1.00  0.00     0.200 A 
ATOM     92  F   UNL A   1      40.030  35.384  37.079  1.00  0.00    -0.200 F 
ATOM     93  F   UNL A   1      38.175  34.492  38.868  1.00  0.00    -0.200 F 
ENDBRANCH  60  83
ENDBRANCH  34  35
ENDBRANCH  27  29
ENDBRANCH  26  27
ENDBRANCH  25  26
ENDBRANCH  24  25
ENDBRANCH  23  24
ENDBRANCH   1  23
TORSDOF 18
ENDMDL
