MODEL 1
REMARK VINA RESULT:     -11.7      0.000      0.000
REMARK SMILES C[C@@H](NC(=O)c1cc(C(=O)OCCOCCOC(=O)c2ccc(-c3c4nc(c(-c5c(F)c(F)c(F)c(F)c5F)c5ccc([nH]5)c(-c5c(F)c(F)c(F)c(F)c5F)c5nc(c(-c6c(F)c(F)c(F)c(F)c6F)c6ccc3[nH]6)C=C5)C=C4)cc2)n(C)n1)c1ccccc1
REMARK SMILES IDX 13 1 12 2 11 3 9 4 10 5 8 6 6 7 7 8 85 9 83 10 84 11 4 12
REMARK SMILES IDX 3 13 5 15 2 16 1 17 86 18 87 19 91 20 88 21 90 22 89 23
REMARK SMILES IDX 14 24 15 25 16 26 17 27 18 28 19 29 20 30 21 31 82 32 22 33
REMARK SMILES IDX 81 34 23 35 24 36 25 37 75 38 26 39 80 40 74 41 76 42 27 43
REMARK SMILES IDX 79 44 73 45 72 46 28 48 60 49 40 50 59 51 41 52 44 53 58 54
REMARK SMILES IDX 77 55 42 56 43 57 57 59 78 60 45 61 29 62 30 63 38 64 31 65
REMARK SMILES IDX 32 66 36 67 39 68 33 69 34 70 37 71 35 72 61 73 62 74 70 75
REMARK SMILES IDX 63 76 64 77 68 78 71 79 65 80 66 81 69 82 67 83 46 84 47 85
REMARK SMILES IDX 55 86 48 87 49 88 53 89 56 90 50 91 51 92 54 93 52 94
REMARK H PARENT 3 14 76 47 44 58
REMARK Flexibility Score: inf
ROOT
ATOM      1  C   UNL A   1      32.014  29.301  26.287  1.00  0.00     0.202 C 
ENDROOT
BRANCH   1   2
ATOM      2  C   UNL A   1      33.350  29.351  25.517  1.00  0.00     0.261 C 
BRANCH   2   3
ATOM      3  O   UNL A   1      33.975  28.041  25.450  1.00  0.00    -0.459 OA
BRANCH   3   4
ATOM      4  C   UNL A   1      33.618  27.296  24.355  1.00  0.00     0.356 C 
ATOM      5  O   UNL A   1      33.997  27.540  23.216  1.00  0.00    -0.244 OA
BRANCH   4   6
ATOM      6  C   UNL A   1      32.851  26.130  24.734  1.00  0.00     0.146 A 
ATOM      7  C   UNL A   1      32.099  24.269  25.770  1.00  0.00     0.151 A 
ATOM      8  C   UNL A   1      33.245  25.088  25.565  1.00  0.00     0.071 A 
ATOM      9  N   UNL A   1      31.104  24.674  24.957  1.00  0.00    -0.167 NA
ATOM     10  N   UNL A   1      31.586  25.776  24.338  1.00  0.00    -0.260 N 
ATOM     11  C   UNL A   1      30.790  26.345  23.273  1.00  0.00     0.174 C 
BRANCH   7  12
ATOM     12  C   UNL A   1      31.994  23.041  26.581  1.00  0.00     0.272 C 
ATOM     13  N   UNL A   1      32.643  21.861  26.248  1.00  0.00    -0.344 N 
ATOM     14  H   UNL A   1      32.950  21.341  27.026  1.00  0.00     0.164 HD
ATOM     15  O   UNL A   1      31.339  23.032  27.626  1.00  0.00    -0.267 OA
BRANCH  13  16
ATOM     16  C   UNL A   1      32.958  21.244  24.954  1.00  0.00     0.109 C 
ATOM     17  C   UNL A   1      32.531  19.772  24.920  1.00  0.00     0.036 C 
BRANCH  16  18
ATOM     18  C   UNL A   1      34.392  21.401  24.544  1.00  0.00    -0.026 A 
ATOM     19  C   UNL A   1      35.400  20.541  25.008  1.00  0.00     0.006 A 
ATOM     20  C   UNL A   1      34.733  22.536  23.805  1.00  0.00     0.006 A 
ATOM     21  C   UNL A   1      36.736  20.886  24.855  1.00  0.00     0.000 A 
ATOM     22  C   UNL A   1      36.060  22.892  23.685  1.00  0.00     0.000 A 
ATOM     23  C   UNL A   1      37.057  22.091  24.248  1.00  0.00     0.000 A 
ENDBRANCH  16  18
ENDBRANCH  13  16
ENDBRANCH   7  12
ENDBRANCH   4   6
ENDBRANCH   3   4
ENDBRANCH   2   3
ENDBRANCH   1   2
BRANCH   1  24
ATOM     24  O   UNL A   1      31.745  30.452  27.110  1.00  0.00    -0.374 OA
BRANCH  24  25
ATOM     25  C   UNL A   1      31.383  31.622  26.379  1.00  0.00     0.202 C 
BRANCH  25  26
ATOM     26  C   UNL A   1      31.936  32.928  26.954  1.00  0.00     0.261 C 
BRANCH  26  27
ATOM     27  O   UNL A   1      32.936  32.628  27.941  1.00  0.00    -0.460 OA
BRANCH  27  28
ATOM     28  C   UNL A   1      33.914  33.555  28.009  1.00  0.00     0.338 C 
ATOM     29  O   UNL A   1      33.795  34.768  28.047  1.00  0.00    -0.246 OA
BRANCH  28  30
ATOM     30  C   UNL A   1      35.197  32.887  28.260  1.00  0.00     0.060 A 
ATOM     31  C   UNL A   1      35.134  31.518  28.539  1.00  0.00     0.016 A 
ATOM     32  C   UNL A   1      36.407  33.581  28.316  1.00  0.00     0.016 A 
ATOM     33  C   UNL A   1      36.272  30.852  28.972  1.00  0.00     0.010 A 
ATOM     34  C   UNL A   1      37.554  32.906  28.750  1.00  0.00     0.010 A 
ATOM     35  C   UNL A   1      37.474  31.554  29.132  1.00  0.00    -0.014 A 
BRANCH  35  36
ATOM     36  C   UNL A   1      38.572  30.895  29.879  1.00  0.00     0.031 A 
ATOM     37  C   UNL A   1      38.746  31.212  31.339  1.00  0.00     0.074 A 
ATOM     38  C   UNL A   1      39.328  29.953  29.292  1.00  0.00     0.049 A 
ATOM     39  N   UNL A   1      39.585  30.704  32.205  1.00  0.00    -0.248 NA
ATOM     40  C   UNL A   1      37.848  32.235  31.902  1.00  0.00     0.031 C 
ATOM     41  C   UNL A   1      39.214  29.528  27.898  1.00  0.00     0.029 A 
ATOM     42  N   UNL A   1      40.332  29.171  29.804  1.00  0.00    -0.354 N 
ATOM     43  C   UNL A   1      39.315  31.340  33.411  1.00  0.00     0.074 A 
ATOM     44  C   UNL A   1      38.261  32.298  33.160  1.00  0.00     0.031 C 
ATOM     45  C   UNL A   1      40.112  28.556  27.665  1.00  0.00     0.029 A 
ATOM     46  C   UNL A   1      40.877  28.309  28.886  1.00  0.00     0.049 A 
ATOM     47  H   UNL A   1      40.632  29.222  30.740  1.00  0.00     0.167 HD
ATOM     48  C   UNL A   1      39.884  31.132  34.621  1.00  0.00     0.037 A 
ATOM     49  C   UNL A   1      41.887  27.428  29.018  1.00  0.00     0.037 A 
ATOM     50  C   UNL A   1      40.927  30.173  34.870  1.00  0.00     0.049 A 
ATOM     51  C   UNL A   1      42.552  27.266  30.361  1.00  0.00     0.074 A 
ATOM     52  C   UNL A   1      41.562  29.877  36.063  1.00  0.00     0.029 A 
ATOM     53  N   UNL A   1      41.494  29.358  33.902  1.00  0.00    -0.354 N 
ATOM     54  N   UNL A   1      42.274  27.855  31.499  1.00  0.00    -0.248 NA
ATOM     55  C   UNL A   1      43.667  26.312  30.436  1.00  0.00     0.031 C 
ATOM     56  C   UNL A   1      42.547  28.917  35.807  1.00  0.00     0.029 A 
ATOM     57  C   UNL A   1      42.491  28.577  34.465  1.00  0.00     0.049 A 
ATOM     58  H   UNL A   1      41.227  29.336  32.954  1.00  0.00     0.167 HD
ATOM     59  C   UNL A   1      43.160  27.326  32.429  1.00  0.00     0.074 A 
ATOM     60  C   UNL A   1      43.974  26.357  31.725  1.00  0.00     0.031 C 
ATOM     61  C   UNL A   1      43.288  27.615  33.748  1.00  0.00     0.037 A 
BRANCH  48  62
ATOM     62  C   UNL A   1      39.406  31.977  35.766  1.00  0.00     0.064 A 
ATOM     63  C   UNL A   1      38.386  31.547  36.626  1.00  0.00     0.173 A 
ATOM     64  C   UNL A   1      40.001  33.222  36.022  1.00  0.00     0.173 A 
ATOM     65  F   UNL A   1      37.775  30.371  36.415  1.00  0.00    -0.203 F 
ATOM     66  C   UNL A   1      37.962  32.342  37.689  1.00  0.00     0.198 A 
ATOM     67  C   UNL A   1      39.593  34.002  37.101  1.00  0.00     0.198 A 
ATOM     68  F   UNL A   1      40.982  33.679  35.231  1.00  0.00    -0.203 F 
ATOM     69  F   UNL A   1      36.956  31.930  38.472  1.00  0.00    -0.200 F 
ATOM     70  C   UNL A   1      38.571  33.565  37.930  1.00  0.00     0.200 A 
ATOM     71  F   UNL A   1      40.190  35.178  37.339  1.00  0.00    -0.200 F 
ATOM     72  F   UNL A   1      38.167  34.326  38.956  1.00  0.00    -0.200 F 
ENDBRANCH  48  62
BRANCH  49  73
ATOM     73  C   UNL A   1      42.338  26.636  27.844  1.00  0.00     0.064 A 
ATOM     74  C   UNL A   1      43.327  27.117  26.977  1.00  0.00     0.173 A 
ATOM     75  C   UNL A   1      41.774  25.382  27.561  1.00  0.00     0.173 A 
ATOM     76  F   UNL A   1      43.878  28.320  27.192  1.00  0.00    -0.203 F 
ATOM     77  C   UNL A   1      43.723  26.384  25.859  1.00  0.00     0.198 A 
ATOM     78  C   UNL A   1      42.191  24.638  26.461  1.00  0.00     0.198 A 
ATOM     79  F   UNL A   1      40.823  24.877  28.360  1.00  0.00    -0.203 F 
ATOM     80  F   UNL A   1      44.639  26.887  25.021  1.00  0.00    -0.200 F 
ATOM     81  C   UNL A   1      43.159  25.142  25.606  1.00  0.00     0.200 A 
ATOM     82  F   UNL A   1      41.652  23.433  26.228  1.00  0.00    -0.200 F 
ATOM     83  F   UNL A   1      43.544  24.435  24.535  1.00  0.00    -0.200 F 
ENDBRANCH  49  73
BRANCH  61  84
ATOM     84  C   UNL A   1      44.326  26.856  34.521  1.00  0.00     0.064 A 
ATOM     85  C   UNL A   1      44.038  25.627  35.132  1.00  0.00     0.173 A 
ATOM     86  C   UNL A   1      45.638  27.346  34.619  1.00  0.00     0.173 A 
ATOM     87  F   UNL A   1      42.795  25.122  35.080  1.00  0.00    -0.203 F 
ATOM     88  C   UNL A   1      45.018  24.928  35.833  1.00  0.00     0.198 A 
ATOM     89  C   UNL A   1      46.622  26.630  35.295  1.00  0.00     0.198 A 
ATOM     90  F   UNL A   1      45.968  28.513  34.045  1.00  0.00    -0.203 F 
ATOM     91  F   UNL A   1      44.707  23.779  36.449  1.00  0.00    -0.200 F 
ATOM     92  C   UNL A   1      46.310  25.427  35.908  1.00  0.00     0.200 A 
ATOM     93  F   UNL A   1      47.873  27.107  35.354  1.00  0.00    -0.200 F 
ATOM     94  F   UNL A   1      47.252  24.750  36.579  1.00  0.00    -0.200 F 
ENDBRANCH  61  84
ENDBRANCH  35  36
ENDBRANCH  28  30
ENDBRANCH  27  28
ENDBRANCH  26  27
ENDBRANCH  25  26
ENDBRANCH  24  25
ENDBRANCH   1  24
TORSDOF 17
ENDMDL
MODEL 2
REMARK VINA RESULT:     -11.6      1.017      2.091
REMARK SMILES C[C@@H](NC(=O)c1cc(C(=O)OCCOCCOC(=O)c2ccc(-c3c4nc(c(-c5c(F)c(F)c(F)c(F)c5F)c5ccc([nH]5)c(-c5c(F)c(F)c(F)c(F)c5F)c5nc(c(-c6c(F)c(F)c(F)c(F)c6F)c6ccc3[nH]6)C=C5)C=C4)cc2)n(C)n1)c1ccccc1
REMARK SMILES IDX 13 1 12 2 11 3 9 4 10 5 8 6 6 7 7 8 85 9 83 10 84 11 4 12
REMARK SMILES IDX 3 13 5 15 2 16 1 17 86 18 87 19 91 20 88 21 90 22 89 23
REMARK SMILES IDX 14 24 15 25 16 26 17 27 18 28 19 29 20 30 21 31 82 32 22 33
REMARK SMILES IDX 81 34 23 35 24 36 25 37 75 38 26 39 80 40 74 41 76 42 27 43
REMARK SMILES IDX 79 44 73 45 72 46 28 48 60 49 40 50 59 51 41 52 44 53 58 54
REMARK SMILES IDX 77 55 42 56 43 57 57 59 78 60 45 61 29 62 30 63 38 64 31 65
REMARK SMILES IDX 32 66 36 67 39 68 33 69 34 70 37 71 35 72 61 73 62 74 70 75
REMARK SMILES IDX 63 76 64 77 68 78 71 79 65 80 66 81 69 82 67 83 46 84 47 85
REMARK SMILES IDX 55 86 48 87 49 88 53 89 56 90 50 91 51 92 54 93 52 94
REMARK H PARENT 3 14 76 47 44 58
REMARK Flexibility Score: inf
ROOT
ATOM      1  C   UNL A   1      33.776  28.407  24.211  1.00  0.00     0.202 C 
ENDROOT
BRANCH   1   2
ATOM      2  C   UNL A   1      33.199  27.986  22.844  1.00  0.00     0.261 C 
BRANCH   2   3
ATOM      3  O   UNL A   1      32.613  26.659  22.901  1.00  0.00    -0.459 OA
BRANCH   3   4
ATOM      4  C   UNL A   1      31.322  26.627  23.364  1.00  0.00     0.356 C 
ATOM      5  O   UNL A   1      30.414  27.297  22.889  1.00  0.00    -0.244 OA
BRANCH   4   6
ATOM      6  C   UNL A   1      31.151  25.621  24.388  1.00  0.00     0.146 A 
ATOM      7  C   UNL A   1      30.971  23.660  25.497  1.00  0.00     0.151 A 
ATOM      8  C   UNL A   1      30.884  24.267  24.212  1.00  0.00     0.071 A 
ATOM      9  N   UNL A   1      31.093  24.615  26.439  1.00  0.00    -0.167 NA
ATOM     10  N   UNL A   1      31.181  25.777  25.751  1.00  0.00    -0.260 N 
ATOM     11  C   UNL A   1      31.159  27.007  26.511  1.00  0.00     0.174 C 
BRANCH   7  12
ATOM     12  C   UNL A   1      30.777  22.240  25.845  1.00  0.00     0.272 C 
ATOM     13  N   UNL A   1      31.661  21.243  25.461  1.00  0.00    -0.344 N 
ATOM     14  H   UNL A   1      31.760  20.520  26.123  1.00  0.00     0.164 HD
ATOM     15  O   UNL A   1      29.817  21.887  26.534  1.00  0.00    -0.267 OA
BRANCH  13  16
ATOM     16  C   UNL A   1      32.479  21.065  24.255  1.00  0.00     0.109 C 
ATOM     17  C   UNL A   1      32.435  19.614  23.762  1.00  0.00     0.036 C 
BRANCH  16  18
ATOM     18  C   UNL A   1      33.892  21.542  24.408  1.00  0.00    -0.026 A 
ATOM     19  C   UNL A   1      34.364  22.698  23.767  1.00  0.00     0.006 A 
ATOM     20  C   UNL A   1      34.785  20.710  25.086  1.00  0.00     0.006 A 
ATOM     21  C   UNL A   1      35.728  22.943  23.686  1.00  0.00     0.000 A 
ATOM     22  C   UNL A   1      36.141  20.938  24.974  1.00  0.00     0.000 A 
ATOM     23  C   UNL A   1      36.612  22.028  24.237  1.00  0.00     0.000 A 
ENDBRANCH  16  18
ENDBRANCH  13  16
ENDBRANCH   7  12
ENDBRANCH   4   6
ENDBRANCH   3   4
ENDBRANCH   2   3
ENDBRANCH   1   2
BRANCH   1  24
ATOM     24  O   UNL A   1      33.359  29.707  24.672  1.00  0.00    -0.374 OA
BRANCH  24  25
ATOM     25  C   UNL A   1      32.118  29.708  25.374  1.00  0.00     0.202 C 
BRANCH  25  26
ATOM     26  C   UNL A   1      31.859  30.966  26.208  1.00  0.00     0.261 C 
BRANCH  26  27
ATOM     27  O   UNL A   1      32.666  30.924  27.395  1.00  0.00    -0.460 OA
BRANCH  27  28
ATOM     28  C   UNL A   1      33.417  32.031  27.569  1.00  0.00     0.338 C 
ATOM     29  O   UNL A   1      33.038  33.184  27.682  1.00  0.00    -0.246 OA
BRANCH  28  30
ATOM     30  C   UNL A   1      34.807  31.636  27.832  1.00  0.00     0.060 A 
ATOM     31  C   UNL A   1      35.037  30.267  27.995  1.00  0.00     0.016 A 
ATOM     32  C   UNL A   1      35.832  32.567  28.008  1.00  0.00     0.016 A 
ATOM     33  C   UNL A   1      36.278  29.825  28.432  1.00  0.00     0.010 A 
ATOM     34  C   UNL A   1      37.083  32.120  28.445  1.00  0.00     0.010 A 
ATOM     35  C   UNL A   1      37.290  30.754  28.712  1.00  0.00    -0.014 A 
BRANCH  35  36
ATOM     36  C   UNL A   1      38.480  30.283  29.460  1.00  0.00     0.031 A 
ATOM     37  C   UNL A   1      38.663  30.729  30.884  1.00  0.00     0.074 A 
ATOM     38  C   UNL A   1      39.321  29.389  28.913  1.00  0.00     0.049 A 
ATOM     39  N   UNL A   1      39.582  30.387  31.751  1.00  0.00    -0.248 NA
ATOM     40  C   UNL A   1      37.672  31.684  31.407  1.00  0.00     0.031 C 
ATOM     41  C   UNL A   1      39.213  28.848  27.559  1.00  0.00     0.029 A 
ATOM     42  N   UNL A   1      40.424  28.767  29.440  1.00  0.00    -0.354 N 
ATOM     43  C   UNL A   1      39.279  31.079  32.917  1.00  0.00     0.074 A 
ATOM     44  C   UNL A   1      38.114  31.890  32.639  1.00  0.00     0.031 C 
ATOM     45  C   UNL A   1      40.209  27.968  27.362  1.00  0.00     0.029 A 
ATOM     46  C   UNL A   1      41.036  27.904  28.566  1.00  0.00     0.049 A 
ATOM     47  H   UNL A   1      40.746  28.925  30.356  1.00  0.00     0.167 HD
ATOM     48  C   UNL A   1      39.907  31.031  34.115  1.00  0.00     0.037 A 
ATOM     49  C   UNL A   1      42.145  27.156  28.720  1.00  0.00     0.037 A 
ATOM     50  C   UNL A   1      41.062  30.219  34.390  1.00  0.00     0.049 A 
ATOM     51  C   UNL A   1      42.867  27.174  30.043  1.00  0.00     0.074 A 
ATOM     52  C   UNL A   1      41.765  30.089  35.575  1.00  0.00     0.029 A 
ATOM     53  N   UNL A   1      41.688  29.400  33.462  1.00  0.00    -0.354 N 
ATOM     54  N   UNL A   1      42.560  27.814  31.145  1.00  0.00    -0.248 NA
ATOM     55  C   UNL A   1      44.087  26.361  30.143  1.00  0.00     0.031 C 
ATOM     56  C   UNL A   1      42.846  29.230  35.350  1.00  0.00     0.029 A 
ATOM     57  C   UNL A   1      42.786  28.783  34.040  1.00  0.00     0.049 A 
ATOM     58  H   UNL A   1      41.395  29.275  32.530  1.00  0.00     0.167 HD
ATOM     59  C   UNL A   1      43.529  27.462  32.075  1.00  0.00     0.074 A 
ATOM     60  C   UNL A   1      44.427  26.539  31.412  1.00  0.00     0.031 C 
ATOM     61  C   UNL A   1      43.666  27.864  33.363  1.00  0.00     0.037 A 
BRANCH  48  62
ATOM     62  C   UNL A   1      39.372  31.903  35.213  1.00  0.00     0.064 A 
ATOM     63  C   UNL A   1      39.659  33.274  35.273  1.00  0.00     0.173 A 
ATOM     64  C   UNL A   1      38.535  31.363  36.201  1.00  0.00     0.173 A 
ATOM     65  F   UNL A   1      40.466  33.836  34.361  1.00  0.00    -0.203 F 
ATOM     66  C   UNL A   1      39.145  34.070  36.295  1.00  0.00     0.198 A 
ATOM     67  C   UNL A   1      38.002  32.166  37.206  1.00  0.00     0.198 A 
ATOM     68  F   UNL A   1      38.228  30.058  36.188  1.00  0.00    -0.203 F 
ATOM     69  F   UNL A   1      39.468  35.369  36.358  1.00  0.00    -0.200 F 
ATOM     70  C   UNL A   1      38.311  33.516  37.256  1.00  0.00     0.200 A 
ATOM     71  F   UNL A   1      37.187  31.632  38.127  1.00  0.00    -0.200 F 
ATOM     72  F   UNL A   1      37.813  34.284  38.235  1.00  0.00    -0.200 F 
ENDBRANCH  48  62
BRANCH  49  73
ATOM     73  C   UNL A   1      42.646  26.331  27.590  1.00  0.00     0.064 A 
ATOM     74  C   UNL A   1      43.619  26.819  26.708  1.00  0.00     0.173 A 
ATOM     75  C   UNL A   1      42.149  25.039  27.364  1.00  0.00     0.173 A 
ATOM     76  F   UNL A   1      44.108  28.057  26.869  1.00  0.00    -0.203 F 
ATOM     77  C   UNL A   1      44.063  26.053  25.631  1.00  0.00     0.198 A 
ATOM     78  C   UNL A   1      42.614  24.264  26.305  1.00  0.00     0.198 A 
ATOM     79  F   UNL A   1      41.216  24.526  28.180  1.00  0.00    -0.203 F 
ATOM     80  F   UNL A   1      44.961  26.560  24.776  1.00  0.00    -0.200 F 
ATOM     81  C   UNL A   1      43.564  24.774  25.434  1.00  0.00     0.200 A 
ATOM     82  F   UNL A   1      42.138  23.023  26.127  1.00  0.00    -0.200 F 
ATOM     83  F   UNL A   1      43.994  24.036  24.402  1.00  0.00    -0.200 F 
ENDBRANCH  49  73
BRANCH  61  84
ATOM     84  C   UNL A   1      44.809  27.289  34.147  1.00  0.00     0.064 A 
ATOM     85  C   UNL A   1      46.060  27.921  34.195  1.00  0.00     0.173 A 
ATOM     86  C   UNL A   1      44.639  26.112  34.892  1.00  0.00     0.173 A 
ATOM     87  F   UNL A   1      46.278  29.041  33.489  1.00  0.00    -0.203 F 
ATOM     88  C   UNL A   1      47.106  27.382  34.939  1.00  0.00     0.198 A 
ATOM     89  C   UNL A   1      45.677  25.593  35.659  1.00  0.00     0.198 A 
ATOM     90  F   UNL A   1      43.458  25.473  34.887  1.00  0.00    -0.203 F 
ATOM     91  F   UNL A   1      48.308  27.977  34.932  1.00  0.00    -0.200 F 
ATOM     92  C   UNL A   1      46.912  26.223  35.676  1.00  0.00     0.200 A 
ATOM     93  F   UNL A   1      45.484  24.480  36.381  1.00  0.00    -0.200 F 
ATOM     94  F   UNL A   1      47.919  25.709  36.396  1.00  0.00    -0.200 F 
ENDBRANCH  61  84
ENDBRANCH  35  36
ENDBRANCH  28  30
ENDBRANCH  27  28
ENDBRANCH  26  27
ENDBRANCH  25  26
ENDBRANCH  24  25
ENDBRANCH   1  24
TORSDOF 17
ENDMDL
MODEL 3
REMARK VINA RESULT:     -11.6      4.419     10.084
REMARK SMILES C[C@@H](NC(=O)c1cc(C(=O)OCCOCCOC(=O)c2ccc(-c3c4nc(c(-c5c(F)c(F)c(F)c(F)c5F)c5ccc([nH]5)c(-c5c(F)c(F)c(F)c(F)c5F)c5nc(c(-c6c(F)c(F)c(F)c(F)c6F)c6ccc3[nH]6)C=C5)C=C4)cc2)n(C)n1)c1ccccc1
REMARK SMILES IDX 13 1 12 2 11 3 9 4 10 5 8 6 6 7 7 8 85 9 83 10 84 11 4 12
REMARK SMILES IDX 3 13 5 15 2 16 1 17 86 18 87 19 91 20 88 21 90 22 89 23
REMARK SMILES IDX 14 24 15 25 16 26 17 27 18 28 19 29 20 30 21 31 82 32 22 33
REMARK SMILES IDX 81 34 23 35 24 36 25 37 75 38 26 39 80 40 74 41 76 42 27 43
REMARK SMILES IDX 79 44 73 45 72 46 28 48 60 49 40 50 59 51 41 52 44 53 58 54
REMARK SMILES IDX 77 55 42 56 43 57 57 59 78 60 45 61 29 62 30 63 38 64 31 65
REMARK SMILES IDX 32 66 36 67 39 68 33 69 34 70 37 71 35 72 61 73 62 74 70 75
REMARK SMILES IDX 63 76 64 77 68 78 71 79 65 80 66 81 69 82 67 83 46 84 47 85
REMARK SMILES IDX 55 86 48 87 49 88 53 89 56 90 50 91 51 92 54 93 52 94
REMARK H PARENT 3 14 76 47 44 58
REMARK Flexibility Score: inf
ROOT
ATOM      1  C   UNL A   1      34.138  19.137  24.626  1.00  0.00     0.202 C 
ENDROOT
BRANCH   1   2
ATOM      2  C   UNL A   1      33.505  20.264  25.468  1.00  0.00     0.261 C 
BRANCH   2   3
ATOM      3  O   UNL A   1      32.753  21.189  24.638  1.00  0.00    -0.459 OA
BRANCH   3   4
ATOM      4  C   UNL A   1      32.479  22.394  25.234  1.00  0.00     0.356 C 
ATOM      5  O   UNL A   1      32.050  22.504  26.376  1.00  0.00    -0.244 OA
BRANCH   4   6
ATOM      6  C   UNL A   1      32.876  23.502  24.395  1.00  0.00     0.146 A 
ATOM      7  C   UNL A   1      32.919  25.144  22.843  1.00  0.00     0.151 A 
ATOM      8  C   UNL A   1      32.288  23.921  23.206  1.00  0.00     0.071 A 
ATOM      9  N   UNL A   1      33.969  25.368  23.657  1.00  0.00    -0.167 NA
ATOM     10  N   UNL A   1      33.930  24.364  24.563  1.00  0.00    -0.260 N 
ATOM     11  C   UNL A   1      35.042  24.249  25.480  1.00  0.00     0.174 C 
BRANCH   7  12
ATOM     12  C   UNL A   1      32.648  25.990  21.665  1.00  0.00     0.272 C 
ATOM     13  N   UNL A   1      31.893  27.150  21.730  1.00  0.00    -0.344 N 
ATOM     14  H   UNL A   1      32.197  27.860  21.118  1.00  0.00     0.164 HD
ATOM     15  O   UNL A   1      33.125  25.705  20.564  1.00  0.00    -0.267 OA
BRANCH  13  16
ATOM     16  C   UNL A   1      30.725  27.520  22.538  1.00  0.00     0.109 C 
ATOM     17  C   UNL A   1      30.216  28.919  22.175  1.00  0.00     0.036 C 
BRANCH  16  18
ATOM     18  C   UNL A   1      30.949  27.392  24.016  1.00  0.00    -0.026 A 
ATOM     19  C   UNL A   1      31.961  28.102  24.681  1.00  0.00     0.006 A 
ATOM     20  C   UNL A   1      30.220  26.416  24.698  1.00  0.00     0.006 A 
ATOM     21  C   UNL A   1      32.333  27.743  25.970  1.00  0.00     0.000 A 
ATOM     22  C   UNL A   1      30.615  26.040  25.966  1.00  0.00     0.000 A 
ATOM     23  C   UNL A   1      31.698  26.672  26.582  1.00  0.00     0.000 A 
ENDBRANCH  16  18
ENDBRANCH  13  16
ENDBRANCH   7  12
ENDBRANCH   4   6
ENDBRANCH   3   4
ENDBRANCH   2   3
ENDBRANCH   1   2
BRANCH   1  24
ATOM     24  O   UNL A   1      35.577  19.087  24.663  1.00  0.00    -0.374 OA
BRANCH  24  25
ATOM     25  C   UNL A   1      36.197  20.324  25.007  1.00  0.00     0.202 C 
BRANCH  25  26
ATOM     26  C   UNL A   1      37.728  20.298  24.982  1.00  0.00     0.261 C 
BRANCH  26  27
ATOM     27  O   UNL A   1      38.234  21.462  25.653  1.00  0.00    -0.460 OA
BRANCH  27  28
ATOM     28  C   UNL A   1      39.476  21.293  26.153  1.00  0.00     0.338 C 
ATOM     29  O   UNL A   1      40.271  20.405  25.899  1.00  0.00    -0.246 OA
BRANCH  28  30
ATOM     30  C   UNL A   1      39.855  22.487  26.919  1.00  0.00     0.060 A 
ATOM     31  C   UNL A   1      39.177  23.666  26.598  1.00  0.00     0.016 A 
ATOM     32  C   UNL A   1      40.898  22.483  27.848  1.00  0.00     0.016 A 
ATOM     33  C   UNL A   1      39.602  24.873  27.136  1.00  0.00     0.010 A 
ATOM     34  C   UNL A   1      41.323  23.700  28.392  1.00  0.00     0.010 A 
ATOM     35  C   UNL A   1      40.712  24.903  27.993  1.00  0.00    -0.014 A 
BRANCH  35  36
ATOM     36  C   UNL A   1      41.321  26.219  28.297  1.00  0.00     0.031 A 
ATOM     37  C   UNL A   1      42.710  26.507  27.796  1.00  0.00     0.074 A 
ATOM     38  C   UNL A   1      40.608  27.175  28.915  1.00  0.00     0.049 A 
ATOM     39  N   UNL A   1      43.410  27.610  27.878  1.00  0.00    -0.248 NA
ATOM     40  C   UNL A   1      43.400  25.408  27.102  1.00  0.00     0.031 C 
ATOM     41  C   UNL A   1      39.236  27.025  29.398  1.00  0.00     0.029 A 
ATOM     42  N   UNL A   1      40.937  28.470  29.225  1.00  0.00    -0.354 N 
ATOM     43  C   UNL A   1      44.618  27.338  27.246  1.00  0.00     0.074 A 
ATOM     44  C   UNL A   1      44.572  25.957  26.818  1.00  0.00     0.031 C 
ATOM     45  C   UNL A   1      38.837  28.188  29.940  1.00  0.00     0.029 A 
ATOM     46  C   UNL A   1      39.932  29.153  29.864  1.00  0.00     0.049 A 
ATOM     47  H   UNL A   1      41.809  28.872  29.009  1.00  0.00     0.167 HD
ATOM     48  C   UNL A   1      45.663  28.170  27.029  1.00  0.00     0.037 A 
ATOM     49  C   UNL A   1      39.907  30.412  30.342  1.00  0.00     0.037 A 
ATOM     50  C   UNL A   1      45.703  29.544  27.450  1.00  0.00     0.049 A 
ATOM     51  C   UNL A   1      41.112  31.296  30.148  1.00  0.00     0.074 A 
ATOM     52  C   UNL A   1      46.710  30.475  27.267  1.00  0.00     0.029 A 
ATOM     53  N   UNL A   1      44.688  30.184  28.146  1.00  0.00    -0.354 N 
ATOM     54  N   UNL A   1      42.238  31.038  29.530  1.00  0.00    -0.248 NA
ATOM     55  C   UNL A   1      41.037  32.650  30.716  1.00  0.00     0.031 C 
ATOM     56  C   UNL A   1      46.326  31.664  27.897  1.00  0.00     0.029 A 
ATOM     57  C   UNL A   1      45.057  31.491  28.425  1.00  0.00     0.049 A 
ATOM     58  H   UNL A   1      43.832  29.772  28.404  1.00  0.00     0.167 HD
ATOM     59  C   UNL A   1      42.995  32.200  29.610  1.00  0.00     0.074 A 
ATOM     60  C   UNL A   1      42.192  33.170  30.325  1.00  0.00     0.031 C 
ATOM     61  C   UNL A   1      44.242  32.443  29.135  1.00  0.00     0.037 A 
BRANCH  48  62
ATOM     62  C   UNL A   1      46.862  27.606  26.325  1.00  0.00     0.064 A 
ATOM     63  C   UNL A   1      47.903  26.979  27.025  1.00  0.00     0.173 A 
ATOM     64  C   UNL A   1      46.955  27.667  24.926  1.00  0.00     0.173 A 
ATOM     65  F   UNL A   1      47.869  26.909  28.365  1.00  0.00    -0.203 F 
ATOM     66  C   UNL A   1      49.005  26.454  26.353  1.00  0.00     0.198 A 
ATOM     67  C   UNL A   1      48.044  27.116  24.256  1.00  0.00     0.198 A 
ATOM     68  F   UNL A   1      45.986  28.253  24.209  1.00  0.00    -0.203 F 
ATOM     69  F   UNL A   1      50.008  25.899  27.046  1.00  0.00    -0.200 F 
ATOM     70  C   UNL A   1      49.070  26.516  24.969  1.00  0.00     0.200 A 
ATOM     71  F   UNL A   1      48.101  27.167  22.917  1.00  0.00    -0.200 F 
ATOM     72  F   UNL A   1      50.127  26.004  24.323  1.00  0.00    -0.200 F 
ENDBRANCH  48  62
BRANCH  49  73
ATOM     73  C   UNL A   1      38.703  30.910  31.055  1.00  0.00     0.064 A 
ATOM     74  C   UNL A   1      37.638  31.499  30.361  1.00  0.00     0.173 A 
ATOM     75  C   UNL A   1      38.601  30.819  32.451  1.00  0.00     0.173 A 
ATOM     76  F   UNL A   1      37.698  31.632  29.028  1.00  0.00    -0.203 F 
ATOM     77  C   UNL A   1      36.524  31.995  31.038  1.00  0.00     0.198 A 
ATOM     78  C   UNL A   1      37.476  31.287  33.123  1.00  0.00     0.198 A 
ATOM     79  F   UNL A   1      39.594  30.263  33.161  1.00  0.00    -0.203 F 
ATOM     80  F   UNL A   1      35.539  32.594  30.355  1.00  0.00    -0.200 F 
ATOM     81  C   UNL A   1      36.442  31.882  32.418  1.00  0.00     0.200 A 
ATOM     82  F   UNL A   1      37.395  31.164  34.456  1.00  0.00    -0.200 F 
ATOM     83  F   UNL A   1      35.369  32.353  33.068  1.00  0.00    -0.200 F 
ENDBRANCH  49  73
BRANCH  61  84
ATOM     84  C   UNL A   1      44.803  33.819  29.348  1.00  0.00     0.064 A 
ATOM     85  C   UNL A   1      45.575  34.132  30.476  1.00  0.00     0.173 A 
ATOM     86  C   UNL A   1      44.599  34.826  28.392  1.00  0.00     0.173 A 
ATOM     87  F   UNL A   1      45.788  33.209  31.427  1.00  0.00    -0.203 F 
ATOM     88  C   UNL A   1      46.101  35.410  30.651  1.00  0.00     0.198 A 
ATOM     89  C   UNL A   1      45.152  36.092  28.555  1.00  0.00     0.198 A 
ATOM     90  F   UNL A   1      43.874  34.575  27.290  1.00  0.00    -0.203 F 
ATOM     91  F   UNL A   1      46.796  35.700  31.760  1.00  0.00    -0.200 F 
ATOM     92  C   UNL A   1      45.895  36.386  29.687  1.00  0.00     0.200 A 
ATOM     93  F   UNL A   1      44.962  37.030  27.616  1.00  0.00    -0.200 F 
ATOM     94  F   UNL A   1      46.407  37.613  29.855  1.00  0.00    -0.200 F 
ENDBRANCH  61  84
ENDBRANCH  35  36
ENDBRANCH  28  30
ENDBRANCH  27  28
ENDBRANCH  26  27
ENDBRANCH  25  26
ENDBRANCH  24  25
ENDBRANCH   1  24
TORSDOF 17
ENDMDL
