MODEL 1
REMARK VINA RESULT:     -10.8      0.000      0.000
REMARK SMILES O=C(OCCOCCOC(=O)[C@@]1([NH2+]C2CC2)CC[C@H](OC2CCC2)C1)c1ccc(-c2c3nc(c(-c4c(F)c(F)c(F)c(F)c4F)c4ccc([nH]4)c(-c4c(F)c(F)c(F)c(F)c4F)c4nc(c(-c5c(F)c(F)c(F)c(F)c5F)c5ccc2[nH]5)C=C4)C=C3)cc1
REMARK SMILES IDX 6 1 5 2 4 3 3 4 2 5 1 6 26 7 27 8 88 9 28 10 87 11 29 12
REMARK SMILES IDX 30 13 31 14 81 15 32 16 86 17 80 18 82 19 33 20 85 21 79 22
REMARK SMILES IDX 78 23 34 25 66 26 46 27 65 28 47 29 50 30 64 31 83 32 48 33
REMARK SMILES IDX 49 34 63 36 84 37 51 38 35 39 36 40 44 41 37 42 38 43 42 44
REMARK SMILES IDX 45 45 39 46 40 47 43 48 41 49 67 50 68 51 76 52 69 53 70 54
REMARK SMILES IDX 74 55 77 56 71 57 72 58 75 59 73 60 52 61 53 62 61 63 54 64
REMARK SMILES IDX 55 65 59 66 62 67 56 68 57 69 60 70 58 71 7 72 8 73 9 74
REMARK SMILES IDX 10 75 11 76 12 77 17 78 25 79 18 80 19 81 13 82 14 85 15 86
REMARK SMILES IDX 16 87 20 88 21 89 22 90 24 91 23 92
REMARK H PARENT 82 24 50 35 13 83 13 84
REMARK Flexibility Score: inf
ROOT
ATOM      1  O   UNL A   1      31.644  28.651  23.799  1.00  0.00    -0.374 OA
ENDROOT
BRANCH   1   2
ATOM      2  C   UNL A   1      31.054  29.736  24.509  1.00  0.00     0.202 C 
BRANCH   2   3
ATOM      3  C   UNL A   1      31.520  29.892  25.955  1.00  0.00     0.261 C 
BRANCH   3   4
ATOM      4  O   UNL A   1      32.876  30.368  25.977  1.00  0.00    -0.460 OA
BRANCH   4   5
ATOM      5  C   UNL A   1      33.402  31.215  26.897  1.00  0.00     0.338 C 
ATOM      6  O   UNL A   1      32.786  32.226  27.224  1.00  0.00    -0.246 OA
BRANCH   5   7
ATOM      7  C   UNL A   1      34.665  30.887  27.609  1.00  0.00     0.060 A 
ATOM      8  C   UNL A   1      35.020  29.594  27.981  1.00  0.00     0.016 A 
ATOM      9  C   UNL A   1      35.561  31.925  27.891  1.00  0.00     0.016 A 
ATOM     10  C   UNL A   1      36.140  29.325  28.718  1.00  0.00     0.010 A 
ATOM     11  C   UNL A   1      36.760  31.652  28.558  1.00  0.00     0.010 A 
ATOM     12  C   UNL A   1      37.037  30.344  28.979  1.00  0.00    -0.014 A 
BRANCH  12  13
ATOM     13  C   UNL A   1      38.189  29.970  29.803  1.00  0.00     0.031 A 
ATOM     14  C   UNL A   1      39.280  29.192  29.155  1.00  0.00     0.074 A 
ATOM     15  C   UNL A   1      38.319  30.524  31.022  1.00  0.00     0.049 A 
ATOM     16  N   UNL A   1      40.344  28.664  29.689  1.00  0.00    -0.248 NA
ATOM     17  C   UNL A   1      39.164  28.984  27.701  1.00  0.00     0.031 C 
ATOM     18  C   UNL A   1      37.373  31.475  31.625  1.00  0.00     0.029 A 
ATOM     19  N   UNL A   1      39.320  30.431  31.943  1.00  0.00    -0.354 N 
ATOM     20  C   UNL A   1      40.977  27.989  28.656  1.00  0.00     0.074 A 
ATOM     21  C   UNL A   1      40.204  28.205  27.454  1.00  0.00     0.031 C 
ATOM     22  C   UNL A   1      37.874  31.918  32.787  1.00  0.00     0.029 A 
ATOM     23  C   UNL A   1      39.102  31.190  33.065  1.00  0.00     0.049 A 
ATOM     24  H   UNL A   1      40.122  29.873  31.816  1.00  0.00     0.167 HD
ATOM     25  C   UNL A   1      42.090  27.228  28.743  1.00  0.00     0.037 A 
ATOM     26  C   UNL A   1      39.803  31.236  34.212  1.00  0.00     0.037 A 
ATOM     27  C   UNL A   1      42.827  27.084  29.969  1.00  0.00     0.049 A 
ATOM     28  C   UNL A   1      40.992  30.324  34.310  1.00  0.00     0.074 A 
ATOM     29  C   UNL A   1      43.917  26.284  30.244  1.00  0.00     0.029 A 
ATOM     30  N   UNL A   1      42.537  27.791  31.133  1.00  0.00    -0.354 N 
ATOM     31  N   UNL A   1      41.515  29.547  33.389  1.00  0.00    -0.248 NA
ATOM     32  C   UNL A   1      41.669  30.262  35.607  1.00  0.00     0.031 C 
ATOM     33  C   UNL A   1      44.261  26.478  31.588  1.00  0.00     0.029 A 
ATOM     34  C   UNL A   1      43.423  27.441  32.134  1.00  0.00     0.049 A 
ATOM     35  H   UNL A   1      41.808  28.445  31.230  1.00  0.00     0.167 HD
ATOM     36  C   UNL A   1      42.591  28.913  33.985  1.00  0.00     0.074 A 
ATOM     37  C   UNL A   1      42.655  29.415  35.346  1.00  0.00     0.031 C 
ATOM     38  C   UNL A   1      43.447  27.996  33.467  1.00  0.00     0.037 A 
BRANCH  25  39
ATOM     39  C   UNL A   1      42.457  26.427  27.529  1.00  0.00     0.064 A 
ATOM     40  C   UNL A   1      41.904  25.167  27.258  1.00  0.00     0.173 A 
ATOM     41  C   UNL A   1      43.460  26.900  26.669  1.00  0.00     0.173 A 
ATOM     42  F   UNL A   1      40.971  24.650  28.071  1.00  0.00    -0.203 F 
ATOM     43  C   UNL A   1      42.371  24.394  26.196  1.00  0.00     0.198 A 
ATOM     44  C   UNL A   1      43.903  26.138  25.592  1.00  0.00     0.198 A 
ATOM     45  F   UNL A   1      44.036  28.091  26.891  1.00  0.00    -0.203 F 
ATOM     46  F   UNL A   1      41.884  23.159  26.005  1.00  0.00    -0.200 F 
ATOM     47  C   UNL A   1      43.369  24.880  25.363  1.00  0.00     0.200 A 
ATOM     48  F   UNL A   1      44.869  26.609  24.790  1.00  0.00    -0.200 F 
ATOM     49  F   UNL A   1      43.830  24.126  24.357  1.00  0.00    -0.200 F 
ENDBRANCH  25  39
BRANCH  26  50
ATOM     50  C   UNL A   1      39.356  32.093  35.342  1.00  0.00     0.064 A 
ATOM     51  C   UNL A   1      39.753  33.433  35.437  1.00  0.00     0.173 A 
ATOM     52  C   UNL A   1      38.515  31.596  36.352  1.00  0.00     0.173 A 
ATOM     53  F   UNL A   1      40.570  33.957  34.512  1.00  0.00    -0.203 F 
ATOM     54  C   UNL A   1      39.339  34.236  36.501  1.00  0.00     0.198 A 
ATOM     55  C   UNL A   1      38.075  32.407  37.396  1.00  0.00     0.198 A 
ATOM     56  F   UNL A   1      38.105  30.319  36.318  1.00  0.00    -0.203 F 
ATOM     57  F   UNL A   1      39.769  35.502  36.588  1.00  0.00    -0.200 F 
ATOM     58  C   UNL A   1      38.494  33.725  37.475  1.00  0.00     0.200 A 
ATOM     59  F   UNL A   1      37.246  31.911  38.324  1.00  0.00    -0.200 F 
ATOM     60  F   UNL A   1      38.093  34.499  38.492  1.00  0.00    -0.200 F 
ENDBRANCH  26  50
BRANCH  38  61
ATOM     61  C   UNL A   1      44.550  27.540  34.367  1.00  0.00     0.064 A 
ATOM     62  C   UNL A   1      45.763  28.237  34.457  1.00  0.00     0.173 A 
ATOM     63  C   UNL A   1      44.367  26.411  35.178  1.00  0.00     0.173 A 
ATOM     64  F   UNL A   1      45.984  29.311  33.684  1.00  0.00    -0.203 F 
ATOM     65  C   UNL A   1      46.768  27.801  35.313  1.00  0.00     0.198 A 
ATOM     66  C   UNL A   1      45.362  25.997  36.055  1.00  0.00     0.198 A 
ATOM     67  F   UNL A   1      43.219  25.719  35.126  1.00  0.00    -0.203 F 
ATOM     68  F   UNL A   1      47.941  28.448  35.349  1.00  0.00    -0.200 F 
ATOM     69  C   UNL A   1      46.565  26.687  36.116  1.00  0.00     0.200 A 
ATOM     70  F   UNL A   1      45.159  24.931  36.840  1.00  0.00    -0.200 F 
ATOM     71  F   UNL A   1      47.532  26.273  36.946  1.00  0.00    -0.200 F 
ENDBRANCH  38  61
ENDBRANCH  12  13
ENDBRANCH   5   7
ENDBRANCH   4   5
ENDBRANCH   3   4
ENDBRANCH   2   3
ENDBRANCH   1   2
BRANCH   1  72
ATOM     72  C   UNL A   1      30.804  27.530  23.556  1.00  0.00     0.202 C 
BRANCH  72  73
ATOM     73  C   UNL A   1      31.088  26.982  22.160  1.00  0.00     0.261 C 
BRANCH  73  74
ATOM     74  O   UNL A   1      31.503  25.610  22.275  1.00  0.00    -0.459 OA
BRANCH  74  75
ATOM     75  C   UNL A   1      32.853  25.360  22.349  1.00  0.00     0.368 C 
ATOM     76  O   UNL A   1      33.704  25.970  21.717  1.00  0.00    -0.245 OA
BRANCH  75  77
ATOM     77  C   UNL A   1      33.101  24.236  23.385  1.00  0.00     0.197 C 
ATOM     78  C   UNL A   1      32.461  22.895  22.983  1.00  0.00     0.084 C 
ATOM     79  C   UNL A   1      34.595  23.845  23.343  1.00  0.00     0.113 C 
ATOM     80  C   UNL A   1      33.231  21.848  23.747  1.00  0.00     0.039 C 
ATOM     81  C   UNL A   1      34.656  22.387  23.819  1.00  0.00     0.125 C 
BRANCH  77  82
ATOM     82  N   UNL A   1      32.793  24.620  24.776  1.00  0.00    -0.330 N 
ATOM     83  H   UNL A   1      32.691  23.748  25.294  1.00  0.00     0.347 HD
ATOM     84  H   UNL A   1      31.986  25.231  24.646  1.00  0.00     0.347 HD
BRANCH  82  85
ATOM     85  C   UNL A   1      33.674  25.462  25.575  1.00  0.00     0.183 C 
ATOM     86  C   UNL A   1      34.023  26.907  25.357  1.00  0.00     0.071 C 
ATOM     87  C   UNL A   1      32.980  26.559  26.361  1.00  0.00     0.071 C 
ENDBRANCH  82  85
ENDBRANCH  77  82
BRANCH  81  88
ATOM     88  O   UNL A   1      35.113  22.356  25.165  1.00  0.00    -0.375 OA
BRANCH  88  89
ATOM     89  C   UNL A   1      36.196  21.476  25.539  1.00  0.00     0.118 C 
ATOM     90  C   UNL A   1      36.224  20.054  24.920  1.00  0.00     0.032 C 
ATOM     91  C   UNL A   1      37.617  21.672  24.955  1.00  0.00     0.032 C 
ATOM     92  C   UNL A   1      37.761  20.138  24.961  1.00  0.00     0.005 C 
ENDBRANCH  88  89
ENDBRANCH  81  88
ENDBRANCH  75  77
ENDBRANCH  74  75
ENDBRANCH  73  74
ENDBRANCH  72  73
ENDBRANCH   1  72
TORSDOF 18
ENDMDL
MODEL 2
REMARK VINA RESULT:     -10.6      1.110      1.901
REMARK SMILES O=C(OCCOCCOC(=O)[C@@]1([NH2+]C2CC2)CC[C@H](OC2CCC2)C1)c1ccc(-c2c3nc(c(-c4c(F)c(F)c(F)c(F)c4F)c4ccc([nH]4)c(-c4c(F)c(F)c(F)c(F)c4F)c4nc(c(-c5c(F)c(F)c(F)c(F)c5F)c5ccc2[nH]5)C=C4)C=C3)cc1
REMARK SMILES IDX 6 1 5 2 4 3 3 4 2 5 1 6 26 7 27 8 88 9 28 10 87 11 29 12
REMARK SMILES IDX 30 13 31 14 81 15 32 16 86 17 80 18 82 19 33 20 85 21 79 22
REMARK SMILES IDX 78 23 34 25 66 26 46 27 65 28 47 29 50 30 64 31 83 32 48 33
REMARK SMILES IDX 49 34 63 36 84 37 51 38 35 39 36 40 44 41 37 42 38 43 42 44
REMARK SMILES IDX 45 45 39 46 40 47 43 48 41 49 67 50 68 51 76 52 69 53 70 54
REMARK SMILES IDX 74 55 77 56 71 57 72 58 75 59 73 60 52 61 53 62 61 63 54 64
REMARK SMILES IDX 55 65 59 66 62 67 56 68 57 69 60 70 58 71 7 72 8 73 9 74
REMARK SMILES IDX 10 75 11 76 12 77 17 78 25 79 18 80 19 81 13 82 14 85 15 86
REMARK SMILES IDX 16 87 20 88 21 89 22 90 24 91 23 92
REMARK H PARENT 82 24 50 35 13 83 13 84
REMARK Flexibility Score: inf
ROOT
ATOM      1  O   UNL A   1      31.049  27.898  24.981  1.00  0.00    -0.374 OA
ENDROOT
BRANCH   1   2
ATOM      2  C   UNL A   1      31.677  28.579  26.063  1.00  0.00     0.202 C 
BRANCH   2   3
ATOM      3  C   UNL A   1      31.780  30.094  25.900  1.00  0.00     0.261 C 
BRANCH   3   4
ATOM      4  O   UNL A   1      33.148  30.506  26.068  1.00  0.00    -0.460 OA
BRANCH   4   5
ATOM      5  C   UNL A   1      33.623  31.278  27.076  1.00  0.00     0.338 C 
ATOM      6  O   UNL A   1      32.962  32.230  27.485  1.00  0.00    -0.246 OA
BRANCH   5   7
ATOM      7  C   UNL A   1      34.884  30.930  27.781  1.00  0.00     0.060 A 
ATOM      8  C   UNL A   1      35.186  29.644  28.217  1.00  0.00     0.016 A 
ATOM      9  C   UNL A   1      35.832  31.938  27.991  1.00  0.00     0.016 A 
ATOM     10  C   UNL A   1      36.308  29.362  28.947  1.00  0.00     0.010 A 
ATOM     11  C   UNL A   1      37.031  31.645  28.649  1.00  0.00     0.010 A 
ATOM     12  C   UNL A   1      37.256  30.350  29.135  1.00  0.00    -0.014 A 
BRANCH  12  13
ATOM     13  C   UNL A   1      38.406  29.967  29.957  1.00  0.00     0.031 A 
ATOM     14  C   UNL A   1      39.505  29.207  29.299  1.00  0.00     0.074 A 
ATOM     15  C   UNL A   1      38.528  30.498  31.187  1.00  0.00     0.049 A 
ATOM     16  N   UNL A   1      40.569  28.675  29.828  1.00  0.00    -0.248 NA
ATOM     17  C   UNL A   1      39.397  29.027  27.841  1.00  0.00     0.031 C 
ATOM     18  C   UNL A   1      37.574  31.432  31.804  1.00  0.00     0.029 A 
ATOM     19  N   UNL A   1      39.525  30.393  32.112  1.00  0.00    -0.354 N 
ATOM     20  C   UNL A   1      41.211  28.023  28.785  1.00  0.00     0.074 A 
ATOM     21  C   UNL A   1      40.442  28.258  27.585  1.00  0.00     0.031 C 
ATOM     22  C   UNL A   1      38.066  31.855  32.977  1.00  0.00     0.029 A 
ATOM     23  C   UNL A   1      39.298  31.129  33.247  1.00  0.00     0.049 A 
ATOM     24  H   UNL A   1      40.331  29.842  31.977  1.00  0.00     0.167 HD
ATOM     25  C   UNL A   1      42.327  27.267  28.863  1.00  0.00     0.037 A 
ATOM     26  C   UNL A   1      39.993  31.157  34.397  1.00  0.00     0.037 A 
ATOM     27  C   UNL A   1      43.060  27.104  30.089  1.00  0.00     0.049 A 
ATOM     28  C   UNL A   1      41.187  30.250  34.483  1.00  0.00     0.074 A 
ATOM     29  C   UNL A   1      44.153  26.305  30.354  1.00  0.00     0.029 A 
ATOM     30  N   UNL A   1      42.761  27.787  31.266  1.00  0.00    -0.354 N 
ATOM     31  N   UNL A   1      41.718  29.494  33.550  1.00  0.00    -0.248 NA
ATOM     32  C   UNL A   1      41.859  30.166  35.782  1.00  0.00     0.031 C 
ATOM     33  C   UNL A   1      44.491  26.476  31.703  1.00  0.00     0.029 A 
ATOM     34  C   UNL A   1      43.644  27.423  32.264  1.00  0.00     0.049 A 
ATOM     35  H   UNL A   1      42.028  28.435  31.371  1.00  0.00     0.167 HD
ATOM     36  C   UNL A   1      42.796  28.854  34.138  1.00  0.00     0.074 A 
ATOM     37  C   UNL A   1      42.850  29.330  35.510  1.00  0.00     0.031 C 
ATOM     38  C   UNL A   1      43.659  27.952  33.607  1.00  0.00     0.037 A 
BRANCH  25  39
ATOM     39  C   UNL A   1      42.704  26.492  27.636  1.00  0.00     0.064 A 
ATOM     40  C   UNL A   1      42.218  25.203  27.376  1.00  0.00     0.173 A 
ATOM     41  C   UNL A   1      43.653  27.024  26.748  1.00  0.00     0.173 A 
ATOM     42  F   UNL A   1      41.340  24.630  28.214  1.00  0.00    -0.203 F 
ATOM     43  C   UNL A   1      42.697  24.461  26.297  1.00  0.00     0.198 A 
ATOM     44  C   UNL A   1      44.108  26.292  25.656  1.00  0.00     0.198 A 
ATOM     45  F   UNL A   1      44.166  28.246  26.959  1.00  0.00    -0.203 F 
ATOM     46  F   UNL A   1      42.278  23.200  26.115  1.00  0.00    -0.200 F 
ATOM     47  C   UNL A   1      43.641  25.006  25.438  1.00  0.00     0.200 A 
ATOM     48  F   UNL A   1      45.021  26.820  24.829  1.00  0.00    -0.200 F 
ATOM     49  F   UNL A   1      44.116  24.282  24.415  1.00  0.00    -0.200 F 
ENDBRANCH  25  39
BRANCH  26  50
ATOM     50  C   UNL A   1      39.536  31.989  35.541  1.00  0.00     0.064 A 
ATOM     51  C   UNL A   1      38.573  31.517  36.443  1.00  0.00     0.173 A 
ATOM     52  C   UNL A   1      40.055  33.275  35.766  1.00  0.00     0.173 A 
ATOM     53  F   UNL A   1      38.028  30.305  36.267  1.00  0.00    -0.203 F 
ATOM     54  C   UNL A   1      38.140  32.301  37.514  1.00  0.00     0.198 A 
ATOM     55  C   UNL A   1      39.647  34.044  36.855  1.00  0.00     0.198 A 
ATOM     56  F   UNL A   1      40.977  33.784  34.935  1.00  0.00    -0.203 F 
ATOM     57  F   UNL A   1      37.187  31.840  38.335  1.00  0.00    -0.200 F 
ATOM     58  C   UNL A   1      38.682  33.560  37.723  1.00  0.00     0.200 A 
ATOM     59  F   UNL A   1      40.188  35.253  37.060  1.00  0.00    -0.200 F 
ATOM     60  F   UNL A   1      38.270  34.309  38.755  1.00  0.00    -0.200 F 
ENDBRANCH  26  50
BRANCH  38  61
ATOM     61  C   UNL A   1      44.761  27.485  34.504  1.00  0.00     0.064 A 
ATOM     62  C   UNL A   1      45.980  28.172  34.591  1.00  0.00     0.173 A 
ATOM     63  C   UNL A   1      44.571  26.356  35.313  1.00  0.00     0.173 A 
ATOM     64  F   UNL A   1      46.208  29.245  33.820  1.00  0.00    -0.203 F 
ATOM     65  C   UNL A   1      46.984  27.725  35.444  1.00  0.00     0.198 A 
ATOM     66  C   UNL A   1      45.564  25.933  36.186  1.00  0.00     0.198 A 
ATOM     67  F   UNL A   1      43.416  25.675  35.263  1.00  0.00    -0.203 F 
ATOM     68  F   UNL A   1      48.162  28.362  35.478  1.00  0.00    -0.200 F 
ATOM     69  C   UNL A   1      46.773  26.612  36.245  1.00  0.00     0.200 A 
ATOM     70  F   UNL A   1      45.354  24.866  36.970  1.00  0.00    -0.200 F 
ATOM     71  F   UNL A   1      47.738  26.188  37.072  1.00  0.00    -0.200 F 
ENDBRANCH  38  61
ENDBRANCH  12  13
ENDBRANCH   5   7
ENDBRANCH   4   5
ENDBRANCH   3   4
ENDBRANCH   2   3
ENDBRANCH   1   2
BRANCH   1  72
ATOM     72  C   UNL A   1      31.815  27.774  23.789  1.00  0.00     0.202 C 
BRANCH  72  73
ATOM     73  C   UNL A   1      31.755  26.329  23.300  1.00  0.00     0.261 C 
BRANCH  73  74
ATOM     74  O   UNL A   1      32.608  25.521  24.128  1.00  0.00    -0.459 OA
BRANCH  74  75
ATOM     75  C   UNL A   1      33.289  24.491  23.524  1.00  0.00     0.368 C 
ATOM     76  O   UNL A   1      33.903  24.593  22.472  1.00  0.00    -0.245 OA
BRANCH  75  77
ATOM     77  C   UNL A   1      33.183  23.228  24.414  1.00  0.00     0.197 C 
ATOM     78  C   UNL A   1      31.772  23.011  24.988  1.00  0.00     0.084 C 
ATOM     79  C   UNL A   1      33.304  21.978  23.515  1.00  0.00     0.113 C 
ATOM     80  C   UNL A   1      31.705  21.543  25.322  1.00  0.00     0.039 C 
ATOM     81  C   UNL A   1      32.554  20.861  24.255  1.00  0.00     0.125 C 
BRANCH  77  82
ATOM     82  N   UNL A   1      34.239  23.126  25.440  1.00  0.00    -0.330 N 
ATOM     83  H   UNL A   1      33.874  22.500  26.158  1.00  0.00     0.347 HD
ATOM     84  H   UNL A   1      34.407  24.108  25.661  1.00  0.00     0.347 HD
BRANCH  82  85
ATOM     85  C   UNL A   1      35.585  22.656  25.144  1.00  0.00     0.183 C 
ATOM     86  C   UNL A   1      36.653  23.348  24.343  1.00  0.00     0.071 C 
ATOM     87  C   UNL A   1      36.702  23.422  25.830  1.00  0.00     0.071 C 
ENDBRANCH  82  85
ENDBRANCH  77  82
BRANCH  81  88
ATOM     88  O   UNL A   1      33.499  19.997  24.872  1.00  0.00    -0.375 OA
BRANCH  88  89
ATOM     89  C   UNL A   1      33.432  18.572  24.642  1.00  0.00     0.118 C 
ATOM     90  C   UNL A   1      32.785  18.078  23.323  1.00  0.00     0.032 C 
ATOM     91  C   UNL A   1      34.694  17.773  24.229  1.00  0.00     0.032 C 
ATOM     92  C   UNL A   1      33.774  16.899  23.355  1.00  0.00     0.005 C 
ENDBRANCH  88  89
ENDBRANCH  81  88
ENDBRANCH  75  77
ENDBRANCH  74  75
ENDBRANCH  73  74
ENDBRANCH  72  73
ENDBRANCH   1  72
TORSDOF 18
ENDMDL
MODEL 3
REMARK VINA RESULT:     -10.4      4.090      9.885
REMARK SMILES O=C(OCCOCCOC(=O)[C@@]1([NH2+]C2CC2)CC[C@H](OC2CCC2)C1)c1ccc(-c2c3nc(c(-c4c(F)c(F)c(F)c(F)c4F)c4ccc([nH]4)c(-c4c(F)c(F)c(F)c(F)c4F)c4nc(c(-c5c(F)c(F)c(F)c(F)c5F)c5ccc2[nH]5)C=C4)C=C3)cc1
REMARK SMILES IDX 6 1 5 2 4 3 3 4 2 5 1 6 26 7 27 8 88 9 28 10 87 11 29 12
REMARK SMILES IDX 30 13 31 14 81 15 32 16 86 17 80 18 82 19 33 20 85 21 79 22
REMARK SMILES IDX 78 23 34 25 66 26 46 27 65 28 47 29 50 30 64 31 83 32 48 33
REMARK SMILES IDX 49 34 63 36 84 37 51 38 35 39 36 40 44 41 37 42 38 43 42 44
REMARK SMILES IDX 45 45 39 46 40 47 43 48 41 49 67 50 68 51 76 52 69 53 70 54
REMARK SMILES IDX 74 55 77 56 71 57 72 58 75 59 73 60 52 61 53 62 61 63 54 64
REMARK SMILES IDX 55 65 59 66 62 67 56 68 57 69 60 70 58 71 7 72 8 73 9 74
REMARK SMILES IDX 10 75 11 76 12 77 17 78 25 79 18 80 19 81 13 82 14 85 15 86
REMARK SMILES IDX 16 87 20 88 21 89 22 90 24 91 23 92
REMARK H PARENT 82 24 50 35 13 83 13 84
REMARK Flexibility Score: inf
ROOT
ATOM      1  O   UNL A   1      34.714  21.299  26.262  1.00  0.00    -0.374 OA
ENDROOT
BRANCH   1   2
ATOM      2  C   UNL A   1      35.205  20.739  25.048  1.00  0.00     0.202 C 
BRANCH   2   3
ATOM      3  C   UNL A   1      36.717  20.523  25.001  1.00  0.00     0.261 C 
BRANCH   3   4
ATOM      4  O   UNL A   1      37.376  21.560  25.747  1.00  0.00    -0.460 OA
BRANCH   4   5
ATOM      5  C   UNL A   1      38.684  21.566  26.107  1.00  0.00     0.338 C 
ATOM      6  O   UNL A   1      39.357  20.543  25.995  1.00  0.00    -0.246 OA
BRANCH   5   7
ATOM      7  C   UNL A   1      39.358  22.820  26.531  1.00  0.00     0.060 A 
ATOM      8  C   UNL A   1      38.954  24.084  26.114  1.00  0.00     0.016 A 
ATOM      9  C   UNL A   1      40.435  22.731  27.422  1.00  0.00     0.016 A 
ATOM     10  C   UNL A   1      39.646  25.219  26.439  1.00  0.00     0.010 A 
ATOM     11  C   UNL A   1      41.091  23.892  27.844  1.00  0.00     0.010 A 
ATOM     12  C   UNL A   1      40.694  25.136  27.336  1.00  0.00    -0.014 A 
BRANCH  12  13
ATOM     13  C   UNL A   1      41.396  26.395  27.598  1.00  0.00     0.031 A 
ATOM     14  C   UNL A   1      40.750  27.369  28.520  1.00  0.00     0.074 A 
ATOM     15  C   UNL A   1      42.670  26.523  27.184  1.00  0.00     0.049 A 
ATOM     16  N   UNL A   1      41.119  28.579  28.830  1.00  0.00    -0.248 NA
ATOM     17  C   UNL A   1      39.521  26.917  29.196  1.00  0.00     0.031 C 
ATOM     18  C   UNL A   1      43.430  25.498  26.454  1.00  0.00     0.029 A 
ATOM     19  N   UNL A   1      43.573  27.528  27.373  1.00  0.00    -0.354 N 
ATOM     20  C   UNL A   1      40.123  29.063  29.666  1.00  0.00     0.074 A 
ATOM     21  C   UNL A   1      39.155  28.007  29.850  1.00  0.00     0.031 C 
ATOM     22  C   UNL A   1      44.699  25.907  26.313  1.00  0.00     0.029 A 
ATOM     23  C   UNL A   1      44.804  27.265  26.824  1.00  0.00     0.049 A 
ATOM     24  H   UNL A   1      43.363  28.360  27.856  1.00  0.00     0.167 HD
ATOM     25  C   UNL A   1      40.035  30.305  30.190  1.00  0.00     0.037 A 
ATOM     26  C   UNL A   1      45.872  28.072  26.707  1.00  0.00     0.037 A 
ATOM     27  C   UNL A   1      41.056  31.297  29.990  1.00  0.00     0.049 A 
ATOM     28  C   UNL A   1      45.721  29.471  27.230  1.00  0.00     0.074 A 
ATOM     29  C   UNL A   1      41.074  32.622  30.375  1.00  0.00     0.029 A 
ATOM     30  N   UNL A   1      42.264  31.045  29.346  1.00  0.00    -0.354 N 
ATOM     31  N   UNL A   1      44.713  30.003  27.885  1.00  0.00    -0.248 NA
ATOM     32  C   UNL A   1      46.827  30.395  26.972  1.00  0.00     0.031 C 
ATOM     33  C   UNL A   1      42.279  33.181  29.929  1.00  0.00     0.029 A 
ATOM     34  C   UNL A   1      43.035  32.191  29.316  1.00  0.00     0.049 A 
ATOM     35  H   UNL A   1      42.531  30.176  28.967  1.00  0.00     0.167 HD
ATOM     36  C   UNL A   1      45.066  31.318  28.133  1.00  0.00     0.074 A 
ATOM     37  C   UNL A   1      46.393  31.496  27.571  1.00  0.00     0.031 C 
ATOM     38  C   UNL A   1      44.363  32.297  28.758  1.00  0.00     0.037 A 
BRANCH  25  39
ATOM     39  C   UNL A   1      38.754  30.653  30.888  1.00  0.00     0.064 A 
ATOM     40  C   UNL A   1      37.616  31.103  30.202  1.00  0.00     0.173 A 
ATOM     41  C   UNL A   1      38.702  30.623  32.290  1.00  0.00     0.173 A 
ATOM     42  F   UNL A   1      37.625  31.191  28.864  1.00  0.00    -0.203 F 
ATOM     43  C   UNL A   1      36.491  31.547  30.896  1.00  0.00     0.198 A 
ATOM     44  C   UNL A   1      37.567  31.040  32.979  1.00  0.00     0.198 A 
ATOM     45  F   UNL A   1      39.768  30.218  32.998  1.00  0.00    -0.203 F 
ATOM     46  F   UNL A   1      35.446  32.049  30.222  1.00  0.00    -0.200 F 
ATOM     47  C   UNL A   1      36.467  31.515  32.283  1.00  0.00     0.200 A 
ATOM     48  F   UNL A   1      37.547  31.009  34.319  1.00  0.00    -0.200 F 
ATOM     49  F   UNL A   1      35.393  31.963  32.947  1.00  0.00    -0.200 F 
ENDBRANCH  25  39
BRANCH  26  50
ATOM     50  C   UNL A   1      47.104  27.606  26.016  1.00  0.00     0.064 A 
ATOM     51  C   UNL A   1      48.177  27.062  26.734  1.00  0.00     0.173 A 
ATOM     52  C   UNL A   1      47.237  27.686  24.619  1.00  0.00     0.173 A 
ATOM     53  F   UNL A   1      48.114  26.978  28.071  1.00  0.00    -0.203 F 
ATOM     54  C   UNL A   1      49.336  26.630  26.086  1.00  0.00     0.198 A 
ATOM     55  C   UNL A   1      48.380  27.223  23.970  1.00  0.00     0.198 A 
ATOM     56  F   UNL A   1      46.245  28.201  23.877  1.00  0.00    -0.203 F 
ATOM     57  F   UNL A   1      50.362  26.154  26.804  1.00  0.00    -0.200 F 
ATOM     58  C   UNL A   1      49.433  26.703  24.706  1.00  0.00     0.200 A 
ATOM     59  F   UNL A   1      48.460  27.283  22.634  1.00  0.00    -0.200 F 
ATOM     60  F   UNL A   1      50.543  26.283  24.084  1.00  0.00    -0.200 F 
ENDBRANCH  26  50
BRANCH  38  61
ATOM     61  C   UNL A   1      45.057  33.612  28.912  1.00  0.00     0.064 A 
ATOM     62  C   UNL A   1      44.921  34.633  27.961  1.00  0.00     0.173 A 
ATOM     63  C   UNL A   1      45.834  33.860  30.053  1.00  0.00     0.173 A 
ATOM     64  F   UNL A   1      44.202  34.428  26.848  1.00  0.00    -0.203 F 
ATOM     65  C   UNL A   1      45.566  35.852  28.136  1.00  0.00     0.198 A 
ATOM     66  C   UNL A   1      46.450  35.091  30.238  1.00  0.00     0.198 A 
ATOM     67  F   UNL A   1      45.984  32.911  30.989  1.00  0.00    -0.203 F 
ATOM     68  F   UNL A   1      45.469  36.799  27.193  1.00  0.00    -0.200 F 
ATOM     69  C   UNL A   1      46.322  36.083  29.276  1.00  0.00     0.200 A 
ATOM     70  F   UNL A   1      47.168  35.317  31.346  1.00  0.00    -0.200 F 
ATOM     71  F   UNL A   1      46.936  37.262  29.447  1.00  0.00    -0.200 F 
ENDBRANCH  38  61
ENDBRANCH  12  13
ENDBRANCH   5   7
ENDBRANCH   4   5
ENDBRANCH   3   4
ENDBRANCH   2   3
ENDBRANCH   1   2
BRANCH   1  72
ATOM     72  C   UNL A   1      33.415  21.873  26.206  1.00  0.00     0.202 C 
BRANCH  72  73
ATOM     73  C   UNL A   1      33.539  23.394  26.150  1.00  0.00     0.261 C 
BRANCH  73  74
ATOM     74  O   UNL A   1      32.527  23.911  25.269  1.00  0.00    -0.459 OA
BRANCH  74  75
ATOM     75  C   UNL A   1      31.729  24.924  25.744  1.00  0.00     0.368 C 
ATOM     76  O   UNL A   1      31.146  24.897  26.819  1.00  0.00    -0.245 OA
BRANCH  75  77
ATOM     77  C   UNL A   1      31.740  26.093  24.729  1.00  0.00     0.197 C 
ATOM     78  C   UNL A   1      31.832  25.620  23.267  1.00  0.00     0.084 C 
ATOM     79  C   UNL A   1      30.342  26.748  24.712  1.00  0.00     0.113 C 
ATOM     80  C   UNL A   1      31.285  26.762  22.449  1.00  0.00     0.039 C 
ATOM     81  C   UNL A   1      30.194  27.377  23.320  1.00  0.00     0.125 C 
BRANCH  77  82
ATOM     82  N   UNL A   1      32.712  27.157  25.047  1.00  0.00    -0.330 N 
ATOM     83  H   UNL A   1      32.812  27.711  24.196  1.00  0.00     0.347 HD
ATOM     84  H   UNL A   1      33.504  26.615  25.395  1.00  0.00     0.347 HD
BRANCH  82  85
ATOM     85  C   UNL A   1      32.511  28.112  26.128  1.00  0.00     0.183 C 
ATOM     86  C   UNL A   1      33.553  28.885  26.887  1.00  0.00     0.071 C 
ATOM     87  C   UNL A   1      32.820  29.556  25.779  1.00  0.00     0.071 C 
ENDBRANCH  82  85
ENDBRANCH  77  82
BRANCH  81  88
ATOM     88  O   UNL A   1      30.393  28.781  23.420  1.00  0.00    -0.375 OA
BRANCH  88  89
ATOM     89  C   UNL A   1      29.425  29.689  22.850  1.00  0.00     0.118 C 
ATOM     90  C   UNL A   1      27.922  29.355  23.027  1.00  0.00     0.032 C 
ATOM     91  C   UNL A   1      29.121  31.050  23.524  1.00  0.00     0.032 C 
ATOM     92  C   UNL A   1      27.657  30.871  23.075  1.00  0.00     0.005 C 
ENDBRANCH  88  89
ENDBRANCH  81  88
ENDBRANCH  75  77
ENDBRANCH  74  75
ENDBRANCH  73  74
ENDBRANCH  72  73
ENDBRANCH   1  72
TORSDOF 18
ENDMDL
