MODEL 1
REMARK VINA RESULT:     -10.6      0.000      0.000
REMARK SMILES Cc1nc2cc(C(=O)OCCOCCOC(=O)c3ccc(-c4c5nc(c(-c6c(F)c(F)c(F)c(F)c6F)c6ccc([nH]6)c(-c6c(F)c(F)c(F)c(F)c6F)c6nc(c(-c7c(F)c(F)c(F)c(F)c7F)c7ccc4[nH]7)C=C6)C=C5)cc3)ccc2n1C
REMARK SMILES IDX 13 1 12 2 11 3 10 4 9 5 7 6 8 7 6 8 1 9 2 10 3 11 84 12 4 13
REMARK SMILES IDX 83 14 85 15 5 16 82 17 81 18 14 19 15 20 16 21 17 22 18 23
REMARK SMILES IDX 19 24 80 25 20 26 79 27 21 28 22 29 23 30 73 31 24 32 78 33
REMARK SMILES IDX 72 34 74 35 25 36 77 37 71 38 70 39 26 41 58 42 38 43 57 44
REMARK SMILES IDX 39 45 42 46 56 47 75 48 40 49 41 50 55 52 76 53 43 54 27 55
REMARK SMILES IDX 28 56 36 57 29 58 30 59 34 60 37 61 31 62 32 63 35 64 33 65
REMARK SMILES IDX 59 66 60 67 68 68 61 69 62 70 66 71 69 72 63 73 64 74 67 75
REMARK SMILES IDX 65 76 44 77 45 78 53 79 46 80 47 81 51 82 54 83 48 84 49 85
REMARK SMILES IDX 52 86 50 87
REMARK H PARENT 74 40 42 51
REMARK Flexibility Score: inf
ROOT
ATOM      1  C   UNL A   1      41.860  19.509  26.220  1.00  0.00     0.202 C 
ENDROOT
BRANCH   1   2
ATOM      2  O   UNL A   1      42.692  18.936  25.208  1.00  0.00    -0.374 OA
BRANCH   2   3
ATOM      3  C   UNL A   1      44.102  18.996  25.376  1.00  0.00     0.202 C 
BRANCH   3   4
ATOM      4  C   UNL A   1      44.894  19.931  24.449  1.00  0.00     0.261 C 
BRANCH   4   5
ATOM      5  O   UNL A   1      45.377  21.112  25.105  1.00  0.00    -0.460 OA
BRANCH   5   6
ATOM      6  C   UNL A   1      44.793  22.259  24.672  1.00  0.00     0.338 C 
ATOM      7  O   UNL A   1      43.939  22.358  23.805  1.00  0.00    -0.246 OA
BRANCH   6   8
ATOM      8  C   UNL A   1      45.221  23.417  25.488  1.00  0.00     0.062 A 
ATOM      9  C   UNL A   1      46.418  29.238  26.070  1.00  0.00     0.087 C 
ATOM     10  C   UNL A   1      46.135  27.782  26.119  1.00  0.00     0.106 A 
ATOM     11  N   UNL A   1      45.459  27.118  25.207  1.00  0.00    -0.233 NA
ATOM     12  N   UNL A   1      46.579  26.932  27.112  1.00  0.00    -0.331 N 
ATOM     13  C   UNL A   1      45.505  25.807  25.590  1.00  0.00     0.090 A 
ATOM     14  C   UNL A   1      46.162  25.655  26.807  1.00  0.00     0.068 A 
ATOM     15  C   UNL A   1      47.431  27.318  28.211  1.00  0.00     0.151 C 
ATOM     16  C   UNL A   1      45.023  24.682  24.916  1.00  0.00     0.046 A 
ATOM     17  C   UNL A   1      46.314  24.405  27.430  1.00  0.00     0.029 A 
ATOM     18  C   UNL A   1      45.827  23.281  26.742  1.00  0.00     0.018 A 
ENDBRANCH   6   8
ENDBRANCH   5   6
ENDBRANCH   4   5
ENDBRANCH   3   4
ENDBRANCH   2   3
ENDBRANCH   1   2
BRANCH   1  19
ATOM     19  C   UNL A   1      42.321  20.821  26.866  1.00  0.00     0.261 C 
BRANCH  19  20
ATOM     20  O   UNL A   1      41.305  21.362  27.728  1.00  0.00    -0.460 OA
BRANCH  20  21
ATOM     21  C   UNL A   1      40.382  22.158  27.143  1.00  0.00     0.338 C 
ATOM     22  O   UNL A   1      39.327  21.841  26.619  1.00  0.00    -0.246 OA
BRANCH  21  23
ATOM     23  C   UNL A   1      40.788  23.545  27.392  1.00  0.00     0.060 A 
ATOM     24  C   UNL A   1      42.111  23.934  27.193  1.00  0.00     0.016 A 
ATOM     25  C   UNL A   1      39.829  24.459  27.833  1.00  0.00     0.016 A 
ATOM     26  C   UNL A   1      42.473  25.259  27.435  1.00  0.00     0.010 A 
ATOM     27  C   UNL A   1      40.204  25.767  28.117  1.00  0.00     0.010 A 
ATOM     28  C   UNL A   1      41.521  26.187  27.893  1.00  0.00    -0.014 A 
BRANCH  28  29
ATOM     29  C   UNL A   1      41.884  27.620  27.944  1.00  0.00     0.031 A 
ATOM     30  C   UNL A   1      40.732  28.566  27.792  1.00  0.00     0.074 A 
ATOM     31  C   UNL A   1      43.026  28.066  28.511  1.00  0.00     0.049 A 
ATOM     32  N   UNL A   1      39.961  28.897  28.787  1.00  0.00    -0.248 NA
ATOM     33  C   UNL A   1      40.214  28.977  26.488  1.00  0.00     0.031 C 
ATOM     34  C   UNL A   1      43.699  27.389  29.625  1.00  0.00     0.029 A 
ATOM     35  N   UNL A   1      43.693  29.266  28.391  1.00  0.00    -0.354 N 
ATOM     36  C   UNL A   1      38.844  29.519  28.259  1.00  0.00     0.074 A 
ATOM     37  C   UNL A   1      39.054  29.563  26.829  1.00  0.00     0.031 C 
ATOM     38  C   UNL A   1      44.562  28.255  30.197  1.00  0.00     0.029 A 
ATOM     39  C   UNL A   1      44.613  29.493  29.417  1.00  0.00     0.049 A 
ATOM     40  H   UNL A   1      43.535  29.901  27.655  1.00  0.00     0.167 HD
ATOM     41  C   UNL A   1      37.810  29.955  29.027  1.00  0.00     0.037 A 
ATOM     42  C   UNL A   1      44.868  30.708  29.980  1.00  0.00     0.037 A 
ATOM     43  C   UNL A   1      37.925  29.707  30.433  1.00  0.00     0.049 A 
ATOM     44  C   UNL A   1      43.534  31.044  30.596  1.00  0.00     0.074 A 
ATOM     45  C   UNL A   1      37.491  28.764  31.340  1.00  0.00     0.029 A 
ATOM     46  N   UNL A   1      38.727  30.545  31.171  1.00  0.00    -0.354 N 
ATOM     47  N   UNL A   1      43.056  30.555  31.709  1.00  0.00    -0.248 NA
ATOM     48  C   UNL A   1      42.546  31.703  29.739  1.00  0.00     0.031 C 
ATOM     49  C   UNL A   1      38.442  28.805  32.410  1.00  0.00     0.029 A 
ATOM     50  C   UNL A   1      39.404  29.750  32.060  1.00  0.00     0.049 A 
ATOM     51  H   UNL A   1      38.799  31.523  31.080  1.00  0.00     0.167 HD
ATOM     52  C   UNL A   1      41.668  30.629  31.580  1.00  0.00     0.074 A 
ATOM     53  C   UNL A   1      41.423  31.355  30.351  1.00  0.00     0.031 C 
ATOM     54  C   UNL A   1      40.797  29.952  32.380  1.00  0.00     0.037 A 
BRANCH  41  55
ATOM     55  C   UNL A   1      36.724  30.826  28.539  1.00  0.00     0.064 A 
ATOM     56  C   UNL A   1      36.916  32.212  28.630  1.00  0.00     0.173 A 
ATOM     57  C   UNL A   1      35.457  30.353  28.188  1.00  0.00     0.173 A 
ATOM     58  F   UNL A   1      38.117  32.698  28.988  1.00  0.00    -0.203 F 
ATOM     59  C   UNL A   1      35.871  33.099  28.411  1.00  0.00     0.198 A 
ATOM     60  C   UNL A   1      34.410  31.246  27.959  1.00  0.00     0.198 A 
ATOM     61  F   UNL A   1      35.224  29.035  28.109  1.00  0.00    -0.203 F 
ATOM     62  F   UNL A   1      36.076  34.415  28.550  1.00  0.00    -0.200 F 
ATOM     63  C   UNL A   1      34.615  32.616  28.082  1.00  0.00     0.200 A 
ATOM     64  F   UNL A   1      33.191  30.785  27.647  1.00  0.00    -0.200 F 
ATOM     65  F   UNL A   1      33.599  33.470  27.898  1.00  0.00    -0.200 F 
ENDBRANCH  41  55
BRANCH  42  66
ATOM     66  C   UNL A   1      45.663  31.691  29.171  1.00  0.00     0.064 A 
ATOM     67  C   UNL A   1      46.908  32.134  29.663  1.00  0.00     0.173 A 
ATOM     68  C   UNL A   1      45.253  32.258  27.952  1.00  0.00     0.173 A 
ATOM     69  F   UNL A   1      47.330  31.749  30.877  1.00  0.00    -0.203 F 
ATOM     70  C   UNL A   1      47.739  32.981  28.926  1.00  0.00     0.198 A 
ATOM     71  C   UNL A   1      46.097  33.081  27.199  1.00  0.00     0.198 A 
ATOM     72  F   UNL A   1      44.031  32.026  27.456  1.00  0.00    -0.203 F 
ATOM     73  F   UNL A   1      48.927  33.352  29.425  1.00  0.00    -0.200 F 
ATOM     74  C   UNL A   1      47.346  33.428  27.679  1.00  0.00     0.200 A 
ATOM     75  F   UNL A   1      45.696  33.522  25.998  1.00  0.00    -0.200 F 
ATOM     76  F   UNL A   1      48.163  34.197  26.945  1.00  0.00    -0.200 F 
ENDBRANCH  42  66
BRANCH  54  77
ATOM     77  C   UNL A   1      41.401  29.197  33.511  1.00  0.00     0.064 A 
ATOM     78  C   UNL A   1      41.877  27.895  33.317  1.00  0.00     0.173 A 
ATOM     79  C   UNL A   1      41.576  29.786  34.774  1.00  0.00     0.173 A 
ATOM     80  F   UNL A   1      41.736  27.294  32.126  1.00  0.00    -0.203 F 
ATOM     81  C   UNL A   1      42.538  27.220  34.339  1.00  0.00     0.198 A 
ATOM     82  C   UNL A   1      42.256  29.115  35.786  1.00  0.00     0.198 A 
ATOM     83  F   UNL A   1      41.121  31.024  35.022  1.00  0.00    -0.203 F 
ATOM     84  F   UNL A   1      43.002  25.981  34.128  1.00  0.00    -0.200 F 
ATOM     85  C   UNL A   1      42.742  27.836  35.565  1.00  0.00     0.200 A 
ATOM     86  F   UNL A   1      42.463  29.717  36.965  1.00  0.00    -0.200 F 
ATOM     87  F   UNL A   1      43.419  27.200  36.531  1.00  0.00    -0.200 F 
ENDBRANCH  54  77
ENDBRANCH  28  29
ENDBRANCH  21  23
ENDBRANCH  20  21
ENDBRANCH  19  20
ENDBRANCH   1  19
TORSDOF 14
ENDMDL
MODEL 2
REMARK VINA RESULT:     -10.5      4.498     10.512
REMARK SMILES Cc1nc2cc(C(=O)OCCOCCOC(=O)c3ccc(-c4c5nc(c(-c6c(F)c(F)c(F)c(F)c6F)c6ccc([nH]6)c(-c6c(F)c(F)c(F)c(F)c6F)c6nc(c(-c7c(F)c(F)c(F)c(F)c7F)c7ccc4[nH]7)C=C6)C=C5)cc3)ccc2n1C
REMARK SMILES IDX 13 1 12 2 11 3 10 4 9 5 7 6 8 7 6 8 1 9 2 10 3 11 84 12 4 13
REMARK SMILES IDX 83 14 85 15 5 16 82 17 81 18 14 19 15 20 16 21 17 22 18 23
REMARK SMILES IDX 19 24 80 25 20 26 79 27 21 28 22 29 23 30 73 31 24 32 78 33
REMARK SMILES IDX 72 34 74 35 25 36 77 37 71 38 70 39 26 41 58 42 38 43 57 44
REMARK SMILES IDX 39 45 42 46 56 47 75 48 40 49 41 50 55 52 76 53 43 54 27 55
REMARK SMILES IDX 28 56 36 57 29 58 30 59 34 60 37 61 31 62 32 63 35 64 33 65
REMARK SMILES IDX 59 66 60 67 68 68 61 69 62 70 66 71 69 72 63 73 64 74 67 75
REMARK SMILES IDX 65 76 44 77 45 78 53 79 46 80 47 81 51 82 54 83 48 84 49 85
REMARK SMILES IDX 52 86 50 87
REMARK H PARENT 74 40 42 51
REMARK Flexibility Score: inf
ROOT
ATOM      1  C   UNL A   1      33.256  35.087  28.796  1.00  0.00     0.202 C 
ENDROOT
BRANCH   1   2
ATOM      2  O   UNL A   1      32.715  34.981  30.116  1.00  0.00    -0.374 OA
BRANCH   2   3
ATOM      3  C   UNL A   1      32.808  36.107  30.979  1.00  0.00     0.202 C 
BRANCH   3   4
ATOM      4  C   UNL A   1      32.817  35.849  32.493  1.00  0.00     0.261 C 
BRANCH   4   5
ATOM      5  O   UNL A   1      34.117  35.534  33.012  1.00  0.00    -0.460 OA
BRANCH   5   6
ATOM      6  C   UNL A   1      34.343  34.203  33.155  1.00  0.00     0.338 C 
ATOM      7  O   UNL A   1      33.515  33.310  33.066  1.00  0.00    -0.246 OA
BRANCH   6   8
ATOM      8  C   UNL A   1      35.788  33.921  33.306  1.00  0.00     0.062 A 
ATOM      9  C   UNL A   1      40.271  30.732  35.629  1.00  0.00     0.087 C 
ATOM     10  C   UNL A   1      39.290  31.605  34.936  1.00  0.00     0.106 A 
ATOM     11  N   UNL A   1      38.005  31.351  34.828  1.00  0.00    -0.233 NA
ATOM     12  N   UNL A   1      39.600  32.814  34.347  1.00  0.00    -0.331 N 
ATOM     13  C   UNL A   1      37.461  32.437  34.200  1.00  0.00     0.090 A 
ATOM     14  C   UNL A   1      38.440  33.359  33.841  1.00  0.00     0.068 A 
ATOM     15  C   UNL A   1      40.901  33.437  34.371  1.00  0.00     0.151 C 
ATOM     16  C   UNL A   1      36.118  32.710  33.932  1.00  0.00     0.046 A 
ATOM     17  C   UNL A   1      38.139  34.547  33.155  1.00  0.00     0.029 A 
ATOM     18  C   UNL A   1      36.785  34.812  32.892  1.00  0.00     0.018 A 
ENDBRANCH   6   8
ENDBRANCH   5   6
ENDBRANCH   4   5
ENDBRANCH   3   4
ENDBRANCH   2   3
ENDBRANCH   1   2
BRANCH   1  19
ATOM     19  C   UNL A   1      34.755  34.821  28.615  1.00  0.00     0.261 C 
BRANCH  19  20
ATOM     20  O   UNL A   1      35.151  33.606  29.275  1.00  0.00    -0.460 OA
BRANCH  20  21
ATOM     21  C   UNL A   1      35.404  32.544  28.478  1.00  0.00     0.338 C 
ATOM     22  O   UNL A   1      34.934  32.287  27.381  1.00  0.00    -0.246 OA
BRANCH  21  23
ATOM     23  C   UNL A   1      36.505  31.795  29.092  1.00  0.00     0.060 A 
ATOM     24  C   UNL A   1      36.927  32.101  30.384  1.00  0.00     0.016 A 
ATOM     25  C   UNL A   1      37.120  30.778  28.358  1.00  0.00     0.016 A 
ATOM     26  C   UNL A   1      37.975  31.374  30.947  1.00  0.00     0.010 A 
ATOM     27  C   UNL A   1      38.194  30.087  28.905  1.00  0.00     0.010 A 
ATOM     28  C   UNL A   1      38.612  30.357  30.215  1.00  0.00    -0.014 A 
BRANCH  28  29
ATOM     29  C   UNL A   1      39.576  29.473  30.905  1.00  0.00     0.031 A 
ATOM     30  C   UNL A   1      39.617  28.065  30.393  1.00  0.00     0.074 A 
ATOM     31  C   UNL A   1      40.630  29.945  31.606  1.00  0.00     0.049 A 
ATOM     32  N   UNL A   1      40.308  27.722  29.343  1.00  0.00    -0.248 NA
ATOM     33  C   UNL A   1      38.689  27.031  30.846  1.00  0.00     0.031 C 
ATOM     34  C   UNL A   1      41.315  31.204  31.296  1.00  0.00     0.029 A 
ATOM     35  N   UNL A   1      41.432  29.348  32.556  1.00  0.00    -0.354 N 
ATOM     36  C   UNL A   1      39.894  26.458  28.968  1.00  0.00     0.074 A 
ATOM     37  C   UNL A   1      38.900  26.060  29.942  1.00  0.00     0.031 C 
ATOM     38  C   UNL A   1      42.518  31.202  31.908  1.00  0.00     0.029 A 
ATOM     39  C   UNL A   1      42.638  30.019  32.763  1.00  0.00     0.049 A 
ATOM     40  H   UNL A   1      41.178  28.529  33.040  1.00  0.00     0.167 HD
ATOM     41  C   UNL A   1      40.386  25.813  27.876  1.00  0.00     0.037 A 
ATOM     42  C   UNL A   1      43.833  29.414  33.018  1.00  0.00     0.037 A 
ATOM     43  C   UNL A   1      41.351  26.537  27.104  1.00  0.00     0.049 A 
ATOM     44  C   UNL A   1      44.055  28.632  31.749  1.00  0.00     0.074 A 
ATOM     45  C   UNL A   1      41.369  27.325  25.974  1.00  0.00     0.029 A 
ATOM     46  N   UNL A   1      42.645  26.578  27.568  1.00  0.00    -0.354 N 
ATOM     47  N   UNL A   1      44.470  29.118  30.609  1.00  0.00    -0.248 NA
ATOM     48  C   UNL A   1      43.453  27.300  31.667  1.00  0.00     0.031 C 
ATOM     49  C   UNL A   1      42.514  28.172  26.123  1.00  0.00     0.029 A 
ATOM     50  C   UNL A   1      43.093  27.856  27.350  1.00  0.00     0.049 A 
ATOM     51  H   UNL A   1      43.149  25.837  27.975  1.00  0.00     0.167 HD
ATOM     52  C   UNL A   1      43.961  28.259  29.634  1.00  0.00     0.074 A 
ATOM     53  C   UNL A   1      43.357  27.157  30.353  1.00  0.00     0.031 C 
ATOM     54  C   UNL A   1      43.904  28.570  28.308  1.00  0.00     0.037 A 
BRANCH  41  55
ATOM     55  C   UNL A   1      40.151  24.388  27.578  1.00  0.00     0.064 A 
ATOM     56  C   UNL A   1      41.104  23.467  28.035  1.00  0.00     0.173 A 
ATOM     57  C   UNL A   1      39.157  23.937  26.706  1.00  0.00     0.173 A 
ATOM     58  F   UNL A   1      42.087  23.873  28.857  1.00  0.00    -0.203 F 
ATOM     59  C   UNL A   1      41.088  22.144  27.612  1.00  0.00     0.198 A 
ATOM     60  C   UNL A   1      39.136  22.606  26.288  1.00  0.00     0.198 A 
ATOM     61  F   UNL A   1      38.237  24.789  26.229  1.00  0.00    -0.203 F 
ATOM     62  F   UNL A   1      42.039  21.300  28.031  1.00  0.00    -0.200 F 
ATOM     63  C   UNL A   1      40.107  21.715  26.732  1.00  0.00     0.200 A 
ATOM     64  F   UNL A   1      38.194  22.186  25.433  1.00  0.00    -0.200 F 
ATOM     65  F   UNL A   1      40.107  20.447  26.300  1.00  0.00    -0.200 F 
ENDBRANCH  41  55
BRANCH  42  66
ATOM     66  C   UNL A   1      44.031  28.825  34.384  1.00  0.00     0.064 A 
ATOM     67  C   UNL A   1      45.275  28.988  35.026  1.00  0.00     0.173 A 
ATOM     68  C   UNL A   1      43.076  28.070  35.087  1.00  0.00     0.173 A 
ATOM     69  F   UNL A   1      46.293  29.584  34.386  1.00  0.00    -0.203 F 
ATOM     70  C   UNL A   1      45.502  28.540  36.330  1.00  0.00     0.198 A 
ATOM     71  C   UNL A   1      43.292  27.648  36.403  1.00  0.00     0.198 A 
ATOM     72  F   UNL A   1      41.911  27.727  34.522  1.00  0.00    -0.203 F 
ATOM     73  F   UNL A   1      46.695  28.743  36.908  1.00  0.00    -0.200 F 
ATOM     74  C   UNL A   1      44.498  27.898  37.030  1.00  0.00     0.200 A 
ATOM     75  F   UNL A   1      42.314  27.012  37.065  1.00  0.00    -0.200 F 
ATOM     76  F   UNL A   1      44.693  27.515  38.299  1.00  0.00    -0.200 F 
ENDBRANCH  42  66
BRANCH  54  77
ATOM     77  C   UNL A   1      44.536  29.857  27.911  1.00  0.00     0.064 A 
ATOM     78  C   UNL A   1      45.846  29.879  27.420  1.00  0.00     0.173 A 
ATOM     79  C   UNL A   1      43.821  31.066  27.950  1.00  0.00     0.173 A 
ATOM     80  F   UNL A   1      46.565  28.748  27.360  1.00  0.00    -0.203 F 
ATOM     81  C   UNL A   1      46.409  31.061  26.949  1.00  0.00     0.198 A 
ATOM     82  C   UNL A   1      44.381  32.241  27.457  1.00  0.00     0.198 A 
ATOM     83  F   UNL A   1      42.568  31.107  28.431  1.00  0.00    -0.203 F 
ATOM     84  F   UNL A   1      47.659  31.059  26.465  1.00  0.00    -0.200 F 
ATOM     85  C   UNL A   1      45.671  32.236  26.952  1.00  0.00     0.200 A 
ATOM     86  F   UNL A   1      43.661  33.372  27.450  1.00  0.00    -0.200 F 
ATOM     87  F   UNL A   1      46.201  33.363  26.454  1.00  0.00    -0.200 F 
ENDBRANCH  54  77
ENDBRANCH  28  29
ENDBRANCH  21  23
ENDBRANCH  20  21
ENDBRANCH  19  20
ENDBRANCH   1  19
TORSDOF 14
ENDMDL
MODEL 3
REMARK VINA RESULT:     -10.2      3.954      6.453
REMARK SMILES Cc1nc2cc(C(=O)OCCOCCOC(=O)c3ccc(-c4c5nc(c(-c6c(F)c(F)c(F)c(F)c6F)c6ccc([nH]6)c(-c6c(F)c(F)c(F)c(F)c6F)c6nc(c(-c7c(F)c(F)c(F)c(F)c7F)c7ccc4[nH]7)C=C6)C=C5)cc3)ccc2n1C
REMARK SMILES IDX 13 1 12 2 11 3 10 4 9 5 7 6 8 7 6 8 1 9 2 10 3 11 84 12 4 13
REMARK SMILES IDX 83 14 85 15 5 16 82 17 81 18 14 19 15 20 16 21 17 22 18 23
REMARK SMILES IDX 19 24 80 25 20 26 79 27 21 28 22 29 23 30 73 31 24 32 78 33
REMARK SMILES IDX 72 34 74 35 25 36 77 37 71 38 70 39 26 41 58 42 38 43 57 44
REMARK SMILES IDX 39 45 42 46 56 47 75 48 40 49 41 50 55 52 76 53 43 54 27 55
REMARK SMILES IDX 28 56 36 57 29 58 30 59 34 60 37 61 31 62 32 63 35 64 33 65
REMARK SMILES IDX 59 66 60 67 68 68 61 69 62 70 66 71 69 72 63 73 64 74 67 75
REMARK SMILES IDX 65 76 44 77 45 78 53 79 46 80 47 81 51 82 54 83 48 84 49 85
REMARK SMILES IDX 52 86 50 87
REMARK H PARENT 74 40 42 51
REMARK Flexibility Score: inf
ROOT
ATOM      1  C   UNL A   1      37.605  22.868  25.696  1.00  0.00     0.202 C 
ENDROOT
BRANCH   1   2
ATOM      2  O   UNL A   1      37.169  23.225  24.382  1.00  0.00    -0.374 OA
BRANCH   2   3
ATOM      3  C   UNL A   1      35.784  23.471  24.170  1.00  0.00     0.202 C 
BRANCH   3   4
ATOM      4  C   UNL A   1      35.089  24.483  25.093  1.00  0.00     0.261 C 
BRANCH   4   5
ATOM      5  O   UNL A   1      34.040  23.907  25.885  1.00  0.00    -0.460 OA
BRANCH   5   6
ATOM      6  C   UNL A   1      32.836  23.869  25.258  1.00  0.00     0.338 C 
ATOM      7  O   UNL A   1      32.073  24.807  25.090  1.00  0.00    -0.246 OA
BRANCH   6   8
ATOM      8  C   UNL A   1      32.591  22.539  24.656  1.00  0.00     0.062 A 
ATOM      9  C   UNL A   1      32.703  16.576  24.944  1.00  0.00     0.087 C 
ATOM     10  C   UNL A   1      32.571  18.036  24.710  1.00  0.00     0.106 A 
ATOM     11  N   UNL A   1      32.635  18.955  25.648  1.00  0.00    -0.233 NA
ATOM     12  N   UNL A   1      32.401  18.616  23.470  1.00  0.00    -0.331 N 
ATOM     13  C   UNL A   1      32.553  20.156  25.000  1.00  0.00     0.090 A 
ATOM     14  C   UNL A   1      32.360  19.983  23.633  1.00  0.00     0.068 A 
ATOM     15  C   UNL A   1      32.388  17.901  22.216  1.00  0.00     0.151 C 
ATOM     16  C   UNL A   1      32.668  21.444  25.528  1.00  0.00     0.046 A 
ATOM     17  C   UNL A   1      32.213  21.066  22.751  1.00  0.00     0.029 A 
ATOM     18  C   UNL A   1      32.333  22.357  23.293  1.00  0.00     0.018 A 
ENDBRANCH   6   8
ENDBRANCH   5   6
ENDBRANCH   4   5
ENDBRANCH   3   4
ENDBRANCH   2   3
ENDBRANCH   1   2
BRANCH   1  19
ATOM     19  C   UNL A   1      38.544  21.664  25.834  1.00  0.00     0.261 C 
BRANCH  19  20
ATOM     20  O   UNL A   1      39.911  22.085  25.985  1.00  0.00    -0.460 OA
BRANCH  20  21
ATOM     21  C   UNL A   1      40.376  22.174  27.251  1.00  0.00     0.338 C 
ATOM     22  O   UNL A   1      40.550  21.278  28.062  1.00  0.00    -0.246 OA
BRANCH  21  23
ATOM     23  C   UNL A   1      40.812  23.559  27.455  1.00  0.00     0.060 A 
ATOM     24  C   UNL A   1      42.080  23.962  27.044  1.00  0.00     0.016 A 
ATOM     25  C   UNL A   1      39.937  24.456  28.070  1.00  0.00     0.016 A 
ATOM     26  C   UNL A   1      42.472  25.286  27.248  1.00  0.00     0.010 A 
ATOM     27  C   UNL A   1      40.347  25.762  28.312  1.00  0.00     0.010 A 
ATOM     28  C   UNL A   1      41.606  26.197  27.878  1.00  0.00    -0.014 A 
BRANCH  28  29
ATOM     29  C   UNL A   1      41.966  27.631  27.896  1.00  0.00     0.031 A 
ATOM     30  C   UNL A   1      40.807  28.572  27.757  1.00  0.00     0.074 A 
ATOM     31  C   UNL A   1      43.120  28.090  28.425  1.00  0.00     0.049 A 
ATOM     32  N   UNL A   1      40.060  28.917  28.767  1.00  0.00    -0.248 NA
ATOM     33  C   UNL A   1      40.253  28.959  26.460  1.00  0.00     0.031 C 
ATOM     34  C   UNL A   1      43.824  27.434  29.533  1.00  0.00     0.029 A 
ATOM     35  N   UNL A   1      43.780  29.290  28.268  1.00  0.00    -0.354 N 
ATOM     36  C   UNL A   1      38.929  29.527  28.257  1.00  0.00     0.074 A 
ATOM     37  C   UNL A   1      39.101  29.547  26.821  1.00  0.00     0.031 C 
ATOM     38  C   UNL A   1      44.699  28.312  30.067  1.00  0.00     0.029 A 
ATOM     39  C   UNL A   1      44.725  29.537  29.265  1.00  0.00     0.049 A 
ATOM     40  H   UNL A   1      43.601  29.912  27.526  1.00  0.00     0.167 HD
ATOM     41  C   UNL A   1      37.913  29.973  29.044  1.00  0.00     0.037 A 
ATOM     42  C   UNL A   1      44.991  30.762  29.801  1.00  0.00     0.037 A 
ATOM     43  C   UNL A   1      38.066  29.749  30.451  1.00  0.00     0.049 A 
ATOM     44  C   UNL A   1      43.672  31.105  30.445  1.00  0.00     0.074 A 
ATOM     45  C   UNL A   1      37.658  28.821  31.384  1.00  0.00     0.029 A 
ATOM     46  N   UNL A   1      38.883  30.602  31.153  1.00  0.00    -0.354 N 
ATOM     47  N   UNL A   1      43.224  30.633  31.579  1.00  0.00    -0.248 NA
ATOM     48  C   UNL A   1      42.660  31.746  29.604  1.00  0.00     0.031 C 
ATOM     49  C   UNL A   1      38.636  28.882  32.429  1.00  0.00     0.029 A 
ATOM     50  C   UNL A   1      39.585  29.824  32.038  1.00  0.00     0.049 A 
ATOM     51  H   UNL A   1      38.950  31.578  31.044  1.00  0.00     0.167 HD
ATOM     52  C   UNL A   1      41.834  30.701  31.484  1.00  0.00     0.074 A 
ATOM     53  C   UNL A   1      41.555  31.406  30.250  1.00  0.00     0.031 C 
ATOM     54  C   UNL A   1      40.986  30.035  32.318  1.00  0.00     0.037 A 
BRANCH  41  55
ATOM     55  C   UNL A   1      36.812  30.832  28.570  1.00  0.00     0.064 A 
ATOM     56  C   UNL A   1      36.971  32.219  28.703  1.00  0.00     0.173 A 
ATOM     57  C   UNL A   1      35.560  30.341  28.191  1.00  0.00     0.173 A 
ATOM     58  F   UNL A   1      38.156  32.722  29.088  1.00  0.00    -0.203 F 
ATOM     59  C   UNL A   1      35.907  33.088  28.498  1.00  0.00     0.198 A 
ATOM     60  C   UNL A   1      34.495  31.216  27.977  1.00  0.00     0.198 A 
ATOM     61  F   UNL A   1      35.359  29.020  28.072  1.00  0.00    -0.203 F 
ATOM     62  F   UNL A   1      36.080  34.404  28.677  1.00  0.00    -0.200 F 
ATOM     63  C   UNL A   1      34.666  32.586  28.142  1.00  0.00     0.200 A 
ATOM     64  F   UNL A   1      33.290  30.736  27.638  1.00  0.00    -0.200 F 
ATOM     65  F   UNL A   1      33.632  33.421  27.972  1.00  0.00    -0.200 F 
ENDBRANCH  41  55
BRANCH  42  66
ATOM     66  C   UNL A   1      45.762  31.733  28.956  1.00  0.00     0.064 A 
ATOM     67  C   UNL A   1      46.987  32.237  29.437  1.00  0.00     0.173 A 
ATOM     68  C   UNL A   1      45.344  32.233  27.709  1.00  0.00     0.173 A 
ATOM     69  F   UNL A   1      47.410  31.920  30.670  1.00  0.00    -0.203 F 
ATOM     70  C   UNL A   1      47.797  33.078  28.669  1.00  0.00     0.198 A 
ATOM     71  C   UNL A   1      46.169  33.048  26.927  1.00  0.00     0.198 A 
ATOM     72  F   UNL A   1      44.135  31.939  27.215  1.00  0.00    -0.203 F 
ATOM     73  F   UNL A   1      48.969  33.508  29.160  1.00  0.00    -0.200 F 
ATOM     74  C   UNL A   1      47.402  33.456  27.400  1.00  0.00     0.200 A 
ATOM     75  F   UNL A   1      45.765  33.423  25.705  1.00  0.00    -0.200 F 
ATOM     76  F   UNL A   1      48.200  34.217  26.639  1.00  0.00    -0.200 F 
ENDBRANCH  42  66
BRANCH  54  77
ATOM     77  C   UNL A   1      41.622  29.301  33.446  1.00  0.00     0.064 A 
ATOM     78  C   UNL A   1      41.744  29.906  34.702  1.00  0.00     0.173 A 
ATOM     79  C   UNL A   1      42.049  27.971  33.305  1.00  0.00     0.173 A 
ATOM     80  F   UNL A   1      41.345  31.174  34.884  1.00  0.00    -0.203 F 
ATOM     81  C   UNL A   1      42.241  29.193  35.789  1.00  0.00     0.198 A 
ATOM     82  C   UNL A   1      42.524  27.255  34.400  1.00  0.00     0.198 A 
ATOM     83  F   UNL A   1      41.974  27.348  32.118  1.00  0.00    -0.203 F 
ATOM     84  F   UNL A   1      42.333  29.784  36.988  1.00  0.00    -0.200 F 
ATOM     85  C   UNL A   1      42.614  27.865  35.641  1.00  0.00     0.200 A 
ATOM     86  F   UNL A   1      42.873  25.968  34.258  1.00  0.00    -0.200 F 
ATOM     87  F   UNL A   1      43.049  27.168  36.701  1.00  0.00    -0.200 F 
ENDBRANCH  54  77
ENDBRANCH  28  29
ENDBRANCH  21  23
ENDBRANCH  20  21
ENDBRANCH  19  20
ENDBRANCH   1  19
TORSDOF 14
ENDMDL
