MODEL 1
REMARK VINA RESULT:     -11.5      0.000      0.000
REMARK SMILES O=C(OCCOCCOC(=O)C1CC[NH+]([C@@H]2CC(=O)N(c3ccc(Oc4ccccc4)cc3)C2=O)CC1)c1ccc(-c2c3nc(c(-c4c(F)c(F)c(F)c(F)c4F)c4ccc([nH]4)c(-c4c(F)c(F)c(F)c(F)c4F)c4nc(c(-c5c(F)c(F)c(F)c(F)c5F)c5ccc2[nH]5)C=C4)C=C3)cc1
REMARK SMILES IDX 7 1 6 2 5 3 4 4 3 5 2 6 1 7 38 8 39 9 100 10 40 11 99 12
REMARK SMILES IDX 41 13 42 14 43 15 93 16 44 17 98 18 92 19 94 20 45 21 97 22
REMARK SMILES IDX 91 23 90 24 46 26 78 27 58 28 77 29 59 30 62 31 76 32 95 33
REMARK SMILES IDX 60 34 61 35 75 37 96 38 63 39 47 40 48 41 56 42 49 43 50 44
REMARK SMILES IDX 54 45 57 46 51 47 52 48 55 49 53 50 79 51 80 52 88 53 81 54
REMARK SMILES IDX 82 55 86 56 89 57 83 58 84 59 87 60 85 61 64 62 65 63 73 64
REMARK SMILES IDX 66 65 67 66 71 67 74 68 68 69 69 70 72 71 70 72 8 73 9 74
REMARK SMILES IDX 10 75 11 76 12 77 13 78 37 79 14 80 36 81 15 82 16 84 17 85
REMARK SMILES IDX 34 86 18 87 20 88 35 89 19 90 21 91 22 92 33 93 23 94 32 95
REMARK SMILES IDX 24 96 25 97 26 98 27 99 31 100 28 101 30 102 29 103
REMARK H PARENT 94 25 62 36 15 83
REMARK Flexibility Score: inf
ROOT
ATOM      1  C   UNL A   1      34.987  20.674  25.386  1.00  0.00     0.202 C 
ENDROOT
BRANCH   1   2
ATOM      2  O   UNL A   1      35.910  19.711  24.875  1.00  0.00    -0.374 OA
BRANCH   2   3
ATOM      3  C   UNL A   1      37.299  20.024  24.982  1.00  0.00     0.202 C 
BRANCH   3   4
ATOM      4  C   UNL A   1      37.633  21.512  24.870  1.00  0.00     0.261 C 
BRANCH   4   5
ATOM      5  O   UNL A   1      38.093  22.021  26.125  1.00  0.00    -0.460 OA
BRANCH   5   6
ATOM      6  C   UNL A   1      39.385  22.105  26.521  1.00  0.00     0.338 C 
ATOM      7  O   UNL A   1      40.031  21.068  26.654  1.00  0.00    -0.246 OA
BRANCH   6   8
ATOM      8  C   UNL A   1      40.091  23.401  26.758  1.00  0.00     0.060 A 
ATOM      9  C   UNL A   1      39.767  24.625  26.165  1.00  0.00     0.016 A 
ATOM     10  C   UNL A   1      41.101  23.389  27.732  1.00  0.00     0.016 A 
ATOM     11  C   UNL A   1      40.404  25.797  26.510  1.00  0.00     0.010 A 
ATOM     12  C   UNL A   1      41.752  24.568  28.095  1.00  0.00     0.010 A 
ATOM     13  C   UNL A   1      41.392  25.770  27.480  1.00  0.00    -0.014 A 
BRANCH  13  14
ATOM     14  C   UNL A   1      42.121  27.018  27.702  1.00  0.00     0.031 A 
ATOM     15  C   UNL A   1      43.414  27.195  26.985  1.00  0.00     0.074 A 
ATOM     16  C   UNL A   1      41.533  28.003  28.400  1.00  0.00     0.049 A 
ATOM     17  N   UNL A   1      44.284  28.160  27.074  1.00  0.00    -0.248 NA
ATOM     18  C   UNL A   1      43.772  26.139  26.022  1.00  0.00     0.031 C 
ATOM     19  C   UNL A   1      40.187  27.938  28.977  1.00  0.00     0.029 A 
ATOM     20  N   UNL A   1      41.978  29.252  28.722  1.00  0.00    -0.354 N 
ATOM     21  C   UNL A   1      45.313  27.806  26.216  1.00  0.00     0.074 A 
ATOM     22  C   UNL A   1      44.960  26.544  25.606  1.00  0.00     0.031 C 
ATOM     23  C   UNL A   1      39.920  29.100  29.591  1.00  0.00     0.029 A 
ATOM     24  C   UNL A   1      41.104  29.947  29.520  1.00  0.00     0.049 A 
ATOM     25  H   UNL A   1      42.838  29.618  28.413  1.00  0.00     0.167 HD
ATOM     26  C   UNL A   1      46.460  28.483  25.990  1.00  0.00     0.037 A 
ATOM     27  C   UNL A   1      41.288  31.110  30.169  1.00  0.00     0.037 A 
ATOM     28  C   UNL A   1      46.756  29.733  26.634  1.00  0.00     0.049 A 
ATOM     29  C   UNL A   1      42.614  31.796  29.987  1.00  0.00     0.074 A 
ATOM     30  C   UNL A   1      47.896  30.506  26.552  1.00  0.00     0.029 A 
ATOM     31  N   UNL A   1      45.881  30.389  27.497  1.00  0.00    -0.354 N 
ATOM     32  N   UNL A   1      43.635  31.432  29.242  1.00  0.00    -0.248 NA
ATOM     33  C   UNL A   1      42.829  33.035  30.738  1.00  0.00     0.031 C 
ATOM     34  C   UNL A   1      47.735  31.598  27.413  1.00  0.00     0.029 A 
ATOM     35  C   UNL A   1      46.468  31.545  27.979  1.00  0.00     0.049 A 
ATOM     36  H   UNL A   1      44.978  30.076  27.730  1.00  0.00     0.167 HD
ATOM     37  C   UNL A   1      44.608  32.403  29.421  1.00  0.00     0.074 A 
ATOM     38  C   UNL A   1      44.044  33.382  30.335  1.00  0.00     0.031 C 
ATOM     39  C   UNL A   1      45.853  32.485  28.886  1.00  0.00     0.037 A 
BRANCH  26  40
ATOM     40  C   UNL A   1      47.481  27.816  25.117  1.00  0.00     0.064 A 
ATOM     41  C   UNL A   1      48.570  27.101  25.641  1.00  0.00     0.173 A 
ATOM     42  C   UNL A   1      47.414  27.972  23.723  1.00  0.00     0.173 A 
ATOM     43  F   UNL A   1      48.703  26.953  26.968  1.00  0.00    -0.203 F 
ATOM     44  C   UNL A   1      49.574  26.611  24.809  1.00  0.00     0.198 A 
ATOM     45  C   UNL A   1      48.402  27.452  22.893  1.00  0.00     0.198 A 
ATOM     46  F   UNL A   1      46.403  28.657  23.168  1.00  0.00    -0.203 F 
ATOM     47  F   UNL A   1      50.647  26.009  25.340  1.00  0.00    -0.200 F 
ATOM     48  C   UNL A   1      49.488  26.785  23.436  1.00  0.00     0.200 A 
ATOM     49  F   UNL A   1      48.315  27.621  21.565  1.00  0.00    -0.200 F 
ATOM     50  F   UNL A   1      50.465  26.330  22.638  1.00  0.00    -0.200 F 
ENDBRANCH  26  40
BRANCH  27  51
ATOM     51  C   UNL A   1      40.237  31.624  31.085  1.00  0.00     0.064 A 
ATOM     52  C   UNL A   1      39.373  32.659  30.704  1.00  0.00     0.173 A 
ATOM     53  C   UNL A   1      40.060  31.071  32.365  1.00  0.00     0.173 A 
ATOM     54  F   UNL A   1      39.509  33.236  29.502  1.00  0.00    -0.203 F 
ATOM     55  C   UNL A   1      38.383  33.127  31.569  1.00  0.00     0.198 A 
ATOM     56  C   UNL A   1      39.050  31.516  33.215  1.00  0.00     0.198 A 
ATOM     57  F   UNL A   1      40.858  30.077  32.784  1.00  0.00    -0.203 F 
ATOM     58  F   UNL A   1      37.596  34.144  31.195  1.00  0.00    -0.200 F 
ATOM     59  C   UNL A   1      38.217  32.549  32.820  1.00  0.00     0.200 A 
ATOM     60  F   UNL A   1      38.886  30.941  34.415  1.00  0.00    -0.200 F 
ATOM     61  F   UNL A   1      37.260  32.992  33.646  1.00  0.00    -0.200 F 
ENDBRANCH  27  51
BRANCH  39  62
ATOM     62  C   UNL A   1      46.664  33.690  29.252  1.00  0.00     0.064 A 
ATOM     63  C   UNL A   1      46.536  34.901  28.558  1.00  0.00     0.173 A 
ATOM     64  C   UNL A   1      47.523  33.646  30.360  1.00  0.00     0.173 A 
ATOM     65  F   UNL A   1      45.738  34.984  27.483  1.00  0.00    -0.203 F 
ATOM     66  C   UNL A   1      47.253  36.025  28.955  1.00  0.00     0.198 A 
ATOM     67  C   UNL A   1      48.211  34.781  30.774  1.00  0.00     0.198 A 
ATOM     68  F   UNL A   1      47.670  32.510  31.058  1.00  0.00    -0.203 F 
ATOM     69  F   UNL A   1      47.149  37.164  28.256  1.00  0.00    -0.200 F 
ATOM     70  C   UNL A   1      48.079  35.967  30.068  1.00  0.00     0.200 A 
ATOM     71  F   UNL A   1      48.992  34.727  31.860  1.00  0.00    -0.200 F 
ATOM     72  F   UNL A   1      48.753  37.056  30.460  1.00  0.00    -0.200 F 
ENDBRANCH  39  62
ENDBRANCH  13  14
ENDBRANCH   6   8
ENDBRANCH   5   6
ENDBRANCH   4   5
ENDBRANCH   3   4
ENDBRANCH   2   3
ENDBRANCH   1   2
BRANCH   1  73
ATOM     73  C   UNL A   1      33.766  20.753  24.473  1.00  0.00     0.261 C 
BRANCH  73  74
ATOM     74  O   UNL A   1      33.513  22.138  24.191  1.00  0.00    -0.463 OA
BRANCH  74  75
ATOM     75  C   UNL A   1      32.278  22.564  24.579  1.00  0.00     0.309 C 
ATOM     76  O   UNL A   1      31.375  22.878  23.816  1.00  0.00    -0.252 OA
BRANCH  75  77
ATOM     77  C   UNL A   1      32.198  22.592  26.098  1.00  0.00     0.110 C 
ATOM     78  C   UNL A   1      30.819  22.951  26.657  1.00  0.00     0.077 C 
ATOM     79  C   UNL A   1      33.188  23.620  26.600  1.00  0.00     0.077 C 
ATOM     80  C   UNL A   1      30.361  24.342  26.233  1.00  0.00     0.263 C 
ATOM     81  C   UNL A   1      32.763  25.012  26.143  1.00  0.00     0.263 C 
ATOM     82  N   UNL A   1      31.374  25.369  26.479  1.00  0.00    -0.324 N 
ATOM     83  H   UNL A   1      31.413  25.447  27.496  1.00  0.00     0.348 HD
BRANCH  82  84
ATOM     84  C   UNL A   1      30.957  26.683  25.923  1.00  0.00     0.284 C 
ATOM     85  C   UNL A   1      31.514  27.096  24.557  1.00  0.00     0.176 C 
ATOM     86  C   UNL A   1      31.403  27.801  26.847  1.00  0.00     0.292 C 
ATOM     87  C   UNL A   1      32.350  28.306  24.829  1.00  0.00     0.240 C 
ATOM     88  N   UNL A   1      32.321  28.572  26.171  1.00  0.00    -0.245 N 
ATOM     89  O   UNL A   1      31.010  27.944  27.996  1.00  0.00    -0.267 OA
ATOM     90  O   UNL A   1      32.962  28.902  23.946  1.00  0.00    -0.274 OA
BRANCH  88  91
ATOM     91  C   UNL A   1      33.111  29.540  26.815  1.00  0.00     0.052 A 
ATOM     92  C   UNL A   1      32.600  30.830  27.017  1.00  0.00     0.031 A 
ATOM     93  C   UNL A   1      34.395  29.233  27.263  1.00  0.00     0.031 A 
ATOM     94  C   UNL A   1      33.379  31.812  27.625  1.00  0.00     0.049 A 
ATOM     95  C   UNL A   1      35.188  30.228  27.836  1.00  0.00     0.049 A 
ATOM     96  C   UNL A   1      34.690  31.526  27.998  1.00  0.00     0.127 A 
BRANCH  96  97
ATOM     97  O   UNL A   1      35.392  32.588  28.525  1.00  0.00    -0.457 OA
BRANCH  97  98
ATOM     98  C   UNL A   1      34.922  33.139  29.689  1.00  0.00     0.127 A 
ATOM     99  C   UNL A   1      34.901  32.334  30.825  1.00  0.00     0.047 A 
ATOM    100  C   UNL A   1      34.464  34.457  29.735  1.00  0.00     0.047 A 
ATOM    101  C   UNL A   1      34.471  32.869  32.036  1.00  0.00     0.004 A 
ATOM    102  C   UNL A   1      34.043  34.992  30.951  1.00  0.00     0.004 A 
ATOM    103  C   UNL A   1      34.054  34.200  32.100  1.00  0.00     0.000 A 
ENDBRANCH  97  98
ENDBRANCH  96  97
ENDBRANCH  88  91
ENDBRANCH  82  84
ENDBRANCH  75  77
ENDBRANCH  74  75
ENDBRANCH  73  74
ENDBRANCH   1  73
TORSDOF 18
ENDMDL
MODEL 2
REMARK VINA RESULT:     -11.1      0.660      7.170
REMARK SMILES O=C(OCCOCCOC(=O)C1CC[NH+]([C@@H]2CC(=O)N(c3ccc(Oc4ccccc4)cc3)C2=O)CC1)c1ccc(-c2c3nc(c(-c4c(F)c(F)c(F)c(F)c4F)c4ccc([nH]4)c(-c4c(F)c(F)c(F)c(F)c4F)c4nc(c(-c5c(F)c(F)c(F)c(F)c5F)c5ccc2[nH]5)C=C4)C=C3)cc1
REMARK SMILES IDX 7 1 6 2 5 3 4 4 3 5 2 6 1 7 38 8 39 9 100 10 40 11 99 12
REMARK SMILES IDX 41 13 42 14 43 15 93 16 44 17 98 18 92 19 94 20 45 21 97 22
REMARK SMILES IDX 91 23 90 24 46 26 78 27 58 28 77 29 59 30 62 31 76 32 95 33
REMARK SMILES IDX 60 34 61 35 75 37 96 38 63 39 47 40 48 41 56 42 49 43 50 44
REMARK SMILES IDX 54 45 57 46 51 47 52 48 55 49 53 50 79 51 80 52 88 53 81 54
REMARK SMILES IDX 82 55 86 56 89 57 83 58 84 59 87 60 85 61 64 62 65 63 73 64
REMARK SMILES IDX 66 65 67 66 71 67 74 68 68 69 69 70 72 71 70 72 8 73 9 74
REMARK SMILES IDX 10 75 11 76 12 77 13 78 37 79 14 80 36 81 15 82 16 84 17 85
REMARK SMILES IDX 34 86 18 87 20 88 35 89 19 90 21 91 22 92 33 93 23 94 32 95
REMARK SMILES IDX 24 96 25 97 26 98 27 99 31 100 28 101 30 102 29 103
REMARK H PARENT 94 25 62 36 15 83
REMARK Flexibility Score: inf
ROOT
ATOM      1  C   UNL A   1      34.820  20.555  25.141  1.00  0.00     0.202 C 
ENDROOT
BRANCH   1   2
ATOM      2  O   UNL A   1      36.170  20.503  24.679  1.00  0.00    -0.374 OA
BRANCH   2   3
ATOM      3  C   UNL A   1      36.710  21.700  24.116  1.00  0.00     0.202 C 
BRANCH   3   4
ATOM      4  C   UNL A   1      37.075  22.781  25.134  1.00  0.00     0.261 C 
BRANCH   4   5
ATOM      5  O   UNL A   1      37.750  22.209  26.257  1.00  0.00    -0.460 OA
BRANCH   5   6
ATOM      6  C   UNL A   1      39.088  22.203  26.460  1.00  0.00     0.338 C 
ATOM      7  O   UNL A   1      39.697  21.140  26.359  1.00  0.00    -0.246 OA
BRANCH   6   8
ATOM      8  C   UNL A   1      39.883  23.436  26.747  1.00  0.00     0.060 A 
ATOM      9  C   UNL A   1      39.694  24.685  26.148  1.00  0.00     0.016 A 
ATOM     10  C   UNL A   1      40.830  23.338  27.778  1.00  0.00     0.016 A 
ATOM     11  C   UNL A   1      40.402  25.800  26.539  1.00  0.00     0.010 A 
ATOM     12  C   UNL A   1      41.552  24.459  28.189  1.00  0.00     0.010 A 
ATOM     13  C   UNL A   1      41.327  25.689  27.564  1.00  0.00    -0.014 A 
BRANCH  13  14
ATOM     14  C   UNL A   1      42.141  26.873  27.839  1.00  0.00     0.031 A 
ATOM     15  C   UNL A   1      41.581  27.890  28.770  1.00  0.00     0.074 A 
ATOM     16  C   UNL A   1      43.401  26.920  27.378  1.00  0.00     0.049 A 
ATOM     17  N   UNL A   1      42.058  29.054  29.109  1.00  0.00    -0.248 NA
ATOM     18  C   UNL A   1      40.306  27.541  29.423  1.00  0.00     0.031 C 
ATOM     19  C   UNL A   1      44.055  25.861  26.603  1.00  0.00     0.029 A 
ATOM     20  N   UNL A   1      44.362  27.880  27.514  1.00  0.00    -0.354 N 
ATOM     21  C   UNL A   1      41.122  29.595  29.975  1.00  0.00     0.074 A 
ATOM     22  C   UNL A   1      40.053  28.635  30.121  1.00  0.00     0.031 C 
ATOM     23  C   UNL A   1      45.311  26.238  26.325  1.00  0.00     0.029 A 
ATOM     24  C   UNL A   1      45.514  27.590  26.829  1.00  0.00     0.049 A 
ATOM     25  H   UNL A   1      44.239  28.698  28.048  1.00  0.00     0.167 HD
ATOM     26  C   UNL A   1      41.162  30.808  30.569  1.00  0.00     0.037 A 
ATOM     27  C   UNL A   1      46.580  28.374  26.590  1.00  0.00     0.037 A 
ATOM     28  C   UNL A   1      42.253  31.724  30.377  1.00  0.00     0.049 A 
ATOM     29  C   UNL A   1      46.557  29.761  27.173  1.00  0.00     0.074 A 
ATOM     30  C   UNL A   1      42.408  33.006  30.863  1.00  0.00     0.029 A 
ATOM     31  N   UNL A   1      43.386  31.435  29.620  1.00  0.00    -0.354 N 
ATOM     32  N   UNL A   1      45.639  30.322  27.928  1.00  0.00    -0.248 NA
ATOM     33  C   UNL A   1      47.696  30.629  26.864  1.00  0.00     0.031 C 
ATOM     34  C   UNL A   1      43.606  33.515  30.348  1.00  0.00     0.029 A 
ATOM     35  C   UNL A   1      44.233  32.528  29.599  1.00  0.00     0.049 A 
ATOM     36  H   UNL A   1      43.558  30.580  29.165  1.00  0.00     0.167 HD
ATOM     37  C   UNL A   1      46.094  31.603  28.200  1.00  0.00     0.074 A 
ATOM     38  C   UNL A   1      47.382  31.727  27.538  1.00  0.00     0.031 C 
ATOM     39  C   UNL A   1      45.509  32.590  28.925  1.00  0.00     0.037 A 
BRANCH  26  40
ATOM     40  C   UNL A   1      39.953  31.219  31.356  1.00  0.00     0.064 A 
ATOM     41  C   UNL A   1      38.992  32.109  30.851  1.00  0.00     0.173 A 
ATOM     42  C   UNL A   1      39.801  30.778  32.680  1.00  0.00     0.173 A 
ATOM     43  F   UNL A   1      39.107  32.591  29.605  1.00  0.00    -0.203 F 
ATOM     44  C   UNL A   1      37.954  32.577  31.656  1.00  0.00     0.198 A 
ATOM     45  C   UNL A   1      38.745  31.221  33.470  1.00  0.00     0.198 A 
ATOM     46  F   UNL A   1      40.697  29.937  33.219  1.00  0.00    -0.203 F 
ATOM     47  F   UNL A   1      37.100  33.494  31.179  1.00  0.00    -0.200 F 
ATOM     48  C   UNL A   1      37.832  32.131  32.963  1.00  0.00     0.200 A 
ATOM     49  F   UNL A   1      38.628  30.787  34.733  1.00  0.00    -0.200 F 
ATOM     50  F   UNL A   1      36.845  32.598  33.742  1.00  0.00    -0.200 F 
ENDBRANCH  26  40
BRANCH  27  51
ATOM     51  C   UNL A   1      47.677  27.890  25.712  1.00  0.00     0.064 A 
ATOM     52  C   UNL A   1      48.881  27.407  26.241  1.00  0.00     0.173 A 
ATOM     53  C   UNL A   1      47.534  27.882  24.314  1.00  0.00     0.173 A 
ATOM     54  F   UNL A   1      49.079  27.409  27.566  1.00  0.00    -0.203 F 
ATOM     55  C   UNL A   1      49.900  26.945  25.407  1.00  0.00     0.198 A 
ATOM     56  C   UNL A   1      48.539  27.390  23.484  1.00  0.00     0.198 A 
ATOM     57  F   UNL A   1      46.403  28.333  23.751  1.00  0.00    -0.203 F 
ATOM     58  F   UNL A   1      51.057  26.524  25.937  1.00  0.00    -0.200 F 
ATOM     59  C   UNL A   1      49.725  26.929  24.031  1.00  0.00     0.200 A 
ATOM     60  F   UNL A   1      48.355  27.362  22.157  1.00  0.00    -0.200 F 
ATOM     61  F   UNL A   1      50.701  26.476  23.232  1.00  0.00    -0.200 F 
ENDBRANCH  27  51
BRANCH  39  62
ATOM     62  C   UNL A   1      46.277  33.869  29.064  1.00  0.00     0.064 A 
ATOM     63  C   UNL A   1      47.234  34.046  30.072  1.00  0.00     0.173 A 
ATOM     64  C   UNL A   1      46.102  34.897  28.125  1.00  0.00     0.173 A 
ATOM     65  F   UNL A   1      47.422  33.096  31.000  1.00  0.00    -0.203 F 
ATOM     66  C   UNL A   1      47.980  35.217  30.144  1.00  0.00     0.198 A 
ATOM     67  C   UNL A   1      46.875  36.050  28.180  1.00  0.00     0.198 A 
ATOM     68  F   UNL A   1      45.203  34.766  27.138  1.00  0.00    -0.203 F 
ATOM     69  F   UNL A   1      48.862  35.387  31.139  1.00  0.00    -0.200 F 
ATOM     70  C   UNL A   1      47.808  36.212  29.192  1.00  0.00     0.200 A 
ATOM     71  F   UNL A   1      46.721  37.001  27.248  1.00  0.00    -0.200 F 
ATOM     72  F   UNL A   1      48.543  37.330  29.252  1.00  0.00    -0.200 F 
ENDBRANCH  39  62
ENDBRANCH  13  14
ENDBRANCH   6   8
ENDBRANCH   5   6
ENDBRANCH   4   5
ENDBRANCH   3   4
ENDBRANCH   2   3
ENDBRANCH   1   2
BRANCH   1  73
ATOM     73  C   UNL A   1      33.914  21.075  24.028  1.00  0.00     0.261 C 
BRANCH  73  74
ATOM     74  O   UNL A   1      33.568  22.434  24.338  1.00  0.00    -0.463 OA
BRANCH  74  75
ATOM     75  C   UNL A   1      32.259  22.608  24.674  1.00  0.00     0.309 C 
ATOM     76  O   UNL A   1      31.340  22.719  23.874  1.00  0.00    -0.252 OA
BRANCH  75  77
ATOM     77  C   UNL A   1      32.118  22.644  26.188  1.00  0.00     0.110 C 
ATOM     78  C   UNL A   1      30.724  23.029  26.690  1.00  0.00     0.077 C 
ATOM     79  C   UNL A   1      33.104  23.658  26.725  1.00  0.00     0.077 C 
ATOM     80  C   UNL A   1      30.308  24.426  26.241  1.00  0.00     0.263 C 
ATOM     81  C   UNL A   1      32.722  25.055  26.246  1.00  0.00     0.263 C 
ATOM     82  N   UNL A   1      31.327  25.436  26.524  1.00  0.00    -0.324 N 
ATOM     83  H   UNL A   1      31.326  25.519  27.541  1.00  0.00     0.348 HD
BRANCH  82  84
ATOM     84  C   UNL A   1      30.956  26.755  25.946  1.00  0.00     0.284 C 
ATOM     85  C   UNL A   1      31.537  27.131  24.580  1.00  0.00     0.176 C 
ATOM     86  C   UNL A   1      31.427  27.872  26.858  1.00  0.00     0.292 C 
ATOM     87  C   UNL A   1      32.406  28.319  24.843  1.00  0.00     0.240 C 
ATOM     88  N   UNL A   1      32.374  28.604  26.181  1.00  0.00    -0.245 N 
ATOM     89  O   UNL A   1      31.028  28.043  28.002  1.00  0.00    -0.267 OA
ATOM     90  O   UNL A   1      33.044  28.884  23.958  1.00  0.00    -0.274 OA
BRANCH  88  91
ATOM     91  C   UNL A   1      33.187  29.557  26.819  1.00  0.00     0.052 A 
ATOM     92  C   UNL A   1      32.718  30.868  26.990  1.00  0.00     0.031 A 
ATOM     93  C   UNL A   1      34.453  29.216  27.291  1.00  0.00     0.031 A 
ATOM     94  C   UNL A   1      33.520  31.834  27.592  1.00  0.00     0.049 A 
ATOM     95  C   UNL A   1      35.272  30.194  27.858  1.00  0.00     0.049 A 
ATOM     96  C   UNL A   1      34.815  31.510  27.989  1.00  0.00     0.127 A 
BRANCH  96  97
ATOM     97  O   UNL A   1      35.546  32.557  28.507  1.00  0.00    -0.457 OA
BRANCH  97  98
ATOM     98  C   UNL A   1      34.855  33.673  28.905  1.00  0.00     0.127 A 
ATOM     99  C   UNL A   1      34.758  34.730  28.004  1.00  0.00     0.047 A 
ATOM    100  C   UNL A   1      34.280  33.757  30.175  1.00  0.00     0.047 A 
ATOM    101  C   UNL A   1      34.028  35.863  28.354  1.00  0.00     0.004 A 
ATOM    102  C   UNL A   1      33.542  34.887  30.517  1.00  0.00     0.004 A 
ATOM    103  C   UNL A   1      33.412  35.936  29.604  1.00  0.00     0.000 A 
ENDBRANCH  97  98
ENDBRANCH  96  97
ENDBRANCH  88  91
ENDBRANCH  82  84
ENDBRANCH  75  77
ENDBRANCH  74  75
ENDBRANCH  73  74
ENDBRANCH   1  73
TORSDOF 18
ENDMDL
MODEL 3
REMARK VINA RESULT:     -11.0      2.320      7.264
REMARK SMILES O=C(OCCOCCOC(=O)C1CC[NH+]([C@@H]2CC(=O)N(c3ccc(Oc4ccccc4)cc3)C2=O)CC1)c1ccc(-c2c3nc(c(-c4c(F)c(F)c(F)c(F)c4F)c4ccc([nH]4)c(-c4c(F)c(F)c(F)c(F)c4F)c4nc(c(-c5c(F)c(F)c(F)c(F)c5F)c5ccc2[nH]5)C=C4)C=C3)cc1
REMARK SMILES IDX 7 1 6 2 5 3 4 4 3 5 2 6 1 7 38 8 39 9 100 10 40 11 99 12
REMARK SMILES IDX 41 13 42 14 43 15 93 16 44 17 98 18 92 19 94 20 45 21 97 22
REMARK SMILES IDX 91 23 90 24 46 26 78 27 58 28 77 29 59 30 62 31 76 32 95 33
REMARK SMILES IDX 60 34 61 35 75 37 96 38 63 39 47 40 48 41 56 42 49 43 50 44
REMARK SMILES IDX 54 45 57 46 51 47 52 48 55 49 53 50 79 51 80 52 88 53 81 54
REMARK SMILES IDX 82 55 86 56 89 57 83 58 84 59 87 60 85 61 64 62 65 63 73 64
REMARK SMILES IDX 66 65 67 66 71 67 74 68 68 69 69 70 72 71 70 72 8 73 9 74
REMARK SMILES IDX 10 75 11 76 12 77 13 78 37 79 14 80 36 81 15 82 16 84 17 85
REMARK SMILES IDX 34 86 18 87 20 88 35 89 19 90 21 91 22 92 33 93 23 94 32 95
REMARK SMILES IDX 24 96 25 97 26 98 27 99 31 100 28 101 30 102 29 103
REMARK H PARENT 94 25 62 36 15 83
REMARK Flexibility Score: inf
ROOT
ATOM      1  C   UNL A   1      37.761  22.327  25.373  1.00  0.00     0.202 C 
ENDROOT
BRANCH   1   2
ATOM      2  O   UNL A   1      38.497  21.453  26.229  1.00  0.00    -0.374 OA
BRANCH   2   3
ATOM      3  C   UNL A   1      39.762  20.992  25.751  1.00  0.00     0.202 C 
BRANCH   3   4
ATOM      4  C   UNL A   1      40.332  19.788  26.502  1.00  0.00     0.261 C 
BRANCH   4   5
ATOM      5  O   UNL A   1      41.377  19.170  25.746  1.00  0.00    -0.460 OA
BRANCH   5   6
ATOM      6  C   UNL A   1      42.673  19.560  25.718  1.00  0.00     0.338 C 
ATOM      7  O   UNL A   1      43.530  18.744  25.387  1.00  0.00    -0.246 OA
BRANCH   6   8
ATOM      8  C   UNL A   1      43.119  20.955  26.018  1.00  0.00     0.060 A 
ATOM      9  C   UNL A   1      43.334  21.963  25.073  1.00  0.00     0.016 A 
ATOM     10  C   UNL A   1      43.235  21.292  27.375  1.00  0.00     0.016 A 
ATOM     11  C   UNL A   1      43.649  23.253  25.437  1.00  0.00     0.010 A 
ATOM     12  C   UNL A   1      43.549  22.595  27.760  1.00  0.00     0.010 A 
ATOM     13  C   UNL A   1      43.751  23.572  26.781  1.00  0.00    -0.014 A 
BRANCH  13  14
ATOM     14  C   UNL A   1      44.221  24.920  27.097  1.00  0.00     0.031 A 
ATOM     15  C   UNL A   1      43.227  25.883  27.646  1.00  0.00     0.074 A 
ATOM     16  C   UNL A   1      45.536  25.185  27.034  1.00  0.00     0.049 A 
ATOM     17  N   UNL A   1      43.366  27.147  27.925  1.00  0.00    -0.248 NA
ATOM     18  C   UNL A   1      41.887  25.340  27.933  1.00  0.00     0.031 C 
ATOM     19  C   UNL A   1      46.573  24.216  26.667  1.00  0.00     0.029 A 
ATOM     20  N   UNL A   1      46.225  26.333  27.299  1.00  0.00    -0.354 N 
ATOM     21  C   UNL A   1      42.123  27.563  28.374  1.00  0.00     0.074 A 
ATOM     22  C   UNL A   1      41.241  26.419  28.342  1.00  0.00     0.031 C 
ATOM     23  C   UNL A   1      47.770  24.818  26.722  1.00  0.00     0.029 A 
ATOM     24  C   UNL A   1      47.569  26.225  27.045  1.00  0.00     0.049 A 
ATOM     25  H   UNL A   1      45.801  27.154  27.637  1.00  0.00     0.167 HD
ATOM     26  C   UNL A   1      41.764  28.808  28.754  1.00  0.00     0.037 A 
ATOM     27  C   UNL A   1      48.507  27.188  27.016  1.00  0.00     0.037 A 
ATOM     28  C   UNL A   1      42.689  29.909  28.758  1.00  0.00     0.049 A 
ATOM     29  C   UNL A   1      48.065  28.589  27.341  1.00  0.00     0.074 A 
ATOM     30  C   UNL A   1      42.461  31.235  29.060  1.00  0.00     0.029 A 
ATOM     31  N   UNL A   1      44.038  29.792  28.429  1.00  0.00    -0.354 N 
ATOM     32  N   UNL A   1      46.871  29.016  27.688  1.00  0.00    -0.248 NA
ATOM     33  C   UNL A   1      49.079  29.641  27.255  1.00  0.00     0.031 C 
ATOM     34  C   UNL A   1      43.658  31.932  28.855  1.00  0.00     0.029 A 
ATOM     35  C   UNL A   1      44.650  31.030  28.493  1.00  0.00     0.049 A 
ATOM     36  H   UNL A   1      44.488  28.952  28.187  1.00  0.00     0.167 HD
ATOM     37  C   UNL A   1      46.991  30.383  27.879  1.00  0.00     0.074 A 
ATOM     38  C   UNL A   1      48.384  30.709  27.623  1.00  0.00     0.031 C 
ATOM     39  C   UNL A   1      46.046  31.291  28.230  1.00  0.00     0.037 A 
BRANCH  26  40
ATOM     40  C   UNL A   1      40.315  29.031  29.068  1.00  0.00     0.064 A 
ATOM     41  C   UNL A   1      39.799  28.917  30.369  1.00  0.00     0.173 A 
ATOM     42  C   UNL A   1      39.407  29.277  28.027  1.00  0.00     0.173 A 
ATOM     43  F   UNL A   1      40.617  28.645  31.398  1.00  0.00    -0.203 F 
ATOM     44  C   UNL A   1      38.428  28.994  30.607  1.00  0.00     0.198 A 
ATOM     45  C   UNL A   1      38.042  29.388  28.273  1.00  0.00     0.198 A 
ATOM     46  F   UNL A   1      39.842  29.382  26.762  1.00  0.00    -0.203 F 
ATOM     47  F   UNL A   1      37.952  28.795  31.844  1.00  0.00    -0.200 F 
ATOM     48  C   UNL A   1      37.552  29.231  29.559  1.00  0.00     0.200 A 
ATOM     49  F   UNL A   1      37.196  29.618  27.258  1.00  0.00    -0.200 F 
ATOM     50  F   UNL A   1      36.231  29.285  29.787  1.00  0.00    -0.200 F 
ENDBRANCH  26  40
BRANCH  27  51
ATOM     51  C   UNL A   1      49.894  26.861  26.596  1.00  0.00     0.064 A 
ATOM     52  C   UNL A   1      50.274  26.869  25.247  1.00  0.00     0.173 A 
ATOM     53  C   UNL A   1      50.884  26.553  27.545  1.00  0.00     0.173 A 
ATOM     54  F   UNL A   1      49.367  27.138  24.298  1.00  0.00    -0.203 F 
ATOM     55  C   UNL A   1      51.582  26.570  24.865  1.00  0.00     0.198 A 
ATOM     56  C   UNL A   1      52.198  26.287  27.165  1.00  0.00     0.198 A 
ATOM     57  F   UNL A   1      50.579  26.530  28.851  1.00  0.00    -0.203 F 
ATOM     58  F   UNL A   1      51.909  26.546  23.566  1.00  0.00    -0.200 F 
ATOM     59  C   UNL A   1      52.544  26.289  25.824  1.00  0.00     0.200 A 
ATOM     60  F   UNL A   1      53.125  26.033  28.099  1.00  0.00    -0.200 F 
ATOM     61  F   UNL A   1      53.803  26.012  25.457  1.00  0.00    -0.200 F 
ENDBRANCH  27  51
BRANCH  39  62
ATOM     62  C   UNL A   1      46.502  32.710  28.391  1.00  0.00     0.064 A 
ATOM     63  C   UNL A   1      46.431  33.630  27.337  1.00  0.00     0.173 A 
ATOM     64  C   UNL A   1      46.944  33.165  29.643  1.00  0.00     0.173 A 
ATOM     65  F   UNL A   1      46.029  33.233  26.119  1.00  0.00    -0.203 F 
ATOM     66  C   UNL A   1      46.801  34.956  27.526  1.00  0.00     0.198 A 
ATOM     67  C   UNL A   1      47.279  34.500  29.836  1.00  0.00     0.198 A 
ATOM     68  F   UNL A   1      47.020  32.322  30.682  1.00  0.00    -0.203 F 
ATOM     69  F   UNL A   1      46.765  35.813  26.496  1.00  0.00    -0.200 F 
ATOM     70  C   UNL A   1      47.213  35.392  28.777  1.00  0.00     0.200 A 
ATOM     71  F   UNL A   1      47.657  34.923  31.050  1.00  0.00    -0.200 F 
ATOM     72  F   UNL A   1      47.549  36.676  28.962  1.00  0.00    -0.200 F 
ENDBRANCH  39  62
ENDBRANCH  13  14
ENDBRANCH   6   8
ENDBRANCH   5   6
ENDBRANCH   4   5
ENDBRANCH   3   4
ENDBRANCH   2   3
ENDBRANCH   1   2
BRANCH   1  73
ATOM     73  C   UNL A   1      36.264  22.086  25.556  1.00  0.00     0.261 C 
BRANCH  73  74
ATOM     74  O   UNL A   1      35.565  23.224  25.029  1.00  0.00    -0.463 OA
BRANCH  74  75
ATOM     75  C   UNL A   1      35.032  23.021  23.791  1.00  0.00     0.309 C 
ATOM     76  O   UNL A   1      35.579  23.317  22.737  1.00  0.00    -0.252 OA
BRANCH  75  77
ATOM     77  C   UNL A   1      33.661  22.375  23.922  1.00  0.00     0.110 C 
ATOM     78  C   UNL A   1      32.863  22.305  22.618  1.00  0.00     0.077 C 
ATOM     79  C   UNL A   1      32.858  23.181  24.919  1.00  0.00     0.077 C 
ATOM     80  C   UNL A   1      32.573  23.685  22.036  1.00  0.00     0.263 C 
ATOM     81  C   UNL A   1      32.600  24.579  24.365  1.00  0.00     0.263 C 
ATOM     82  N   UNL A   1      32.000  24.603  23.021  1.00  0.00    -0.324 N 
ATOM     83  H   UNL A   1      31.065  24.233  23.197  1.00  0.00     0.348 HD
BRANCH  82  84
ATOM     84  C   UNL A   1      31.866  25.976  22.465  1.00  0.00     0.284 C 
ATOM     85  C   UNL A   1      33.089  26.601  21.790  1.00  0.00     0.176 C 
ATOM     86  C   UNL A   1      31.528  26.953  23.576  1.00  0.00     0.292 C 
ATOM     87  C   UNL A   1      33.444  27.776  22.643  1.00  0.00     0.240 C 
ATOM     88  N   UNL A   1      32.574  27.837  23.697  1.00  0.00    -0.245 N 
ATOM     89  O   UNL A   1      30.503  26.913  24.242  1.00  0.00    -0.267 OA
ATOM     90  O   UNL A   1      34.397  28.513  22.396  1.00  0.00    -0.274 OA
BRANCH  88  91
ATOM     91  C   UNL A   1      32.694  28.717  24.788  1.00  0.00     0.052 A 
ATOM     92  C   UNL A   1      33.778  28.586  25.669  1.00  0.00     0.031 A 
ATOM     93  C   UNL A   1      31.754  29.723  25.003  1.00  0.00     0.031 A 
ATOM     94  C   UNL A   1      33.898  29.427  26.773  1.00  0.00     0.049 A 
ATOM     95  C   UNL A   1      31.853  30.538  26.131  1.00  0.00     0.049 A 
ATOM     96  C   UNL A   1      32.913  30.378  27.030  1.00  0.00     0.127 A 
BRANCH  96  97
ATOM     97  O   UNL A   1      33.094  31.107  28.185  1.00  0.00    -0.457 OA
BRANCH  97  98
ATOM     98  C   UNL A   1      33.966  32.164  28.133  1.00  0.00     0.127 A 
ATOM     99  C   UNL A   1      33.427  33.442  28.001  1.00  0.00     0.047 A 
ATOM    100  C   UNL A   1      35.347  31.970  28.194  1.00  0.00     0.047 A 
ATOM    101  C   UNL A   1      34.277  34.545  27.987  1.00  0.00     0.004 A 
ATOM    102  C   UNL A   1      36.193  33.076  28.190  1.00  0.00     0.004 A 
ATOM    103  C   UNL A   1      35.657  34.362  28.094  1.00  0.00     0.000 A 
ENDBRANCH  97  98
ENDBRANCH  96  97
ENDBRANCH  88  91
ENDBRANCH  82  84
ENDBRANCH  75  77
ENDBRANCH  74  75
ENDBRANCH  73  74
ENDBRANCH   1  73
TORSDOF 18
ENDMDL
