MODEL 1
REMARK VINA RESULT:     -10.8      0.000      0.000
REMARK SMILES O=C(OCCOCCOC(=O)[C@H]1CC=CC[C@@H]1c1nc2cc(Cl)ccc2o1)c1ccc(-c2c3nc(c(-c4c(F)c(F)c(F)c(F)c4F)c4ccc([nH]4)c(-c4c(F)c(F)c(F)c(F)c4F)c4nc(c(-c5c(F)c(F)c(F)c(F)c5F)c5ccc2[nH]5)C=C4)C=C3)cc1
REMARK SMILES IDX 5 1 4 2 3 3 2 4 1 5 28 6 29 7 90 8 30 9 89 10 31 11 32 12
REMARK SMILES IDX 33 13 83 14 34 15 88 16 82 17 84 18 35 19 87 20 81 21 80 22
REMARK SMILES IDX 36 24 68 25 48 26 67 27 49 28 52 29 66 30 85 31 50 32 51 33
REMARK SMILES IDX 65 35 86 36 53 37 37 38 38 39 46 40 39 41 40 42 44 43 47 44
REMARK SMILES IDX 41 45 42 46 45 47 43 48 69 49 70 50 78 51 71 52 72 53 76 54
REMARK SMILES IDX 79 55 73 56 74 57 77 58 75 59 54 60 55 61 63 62 56 63 57 64
REMARK SMILES IDX 61 65 64 66 58 67 59 68 62 69 60 70 6 71 7 72 8 73 9 74
REMARK SMILES IDX 10 75 11 76 12 77 13 78 17 79 14 80 16 81 15 82 18 83 19 84
REMARK SMILES IDX 27 85 20 86 26 87 21 88 25 89 22 90 24 91 23 92
REMARK H PARENT 84 23 52 34
REMARK Flexibility Score: inf
ROOT
ATOM      1  C   UNL A   1      43.216  21.389  26.120  1.00  0.00     0.202 C 
ENDROOT
BRANCH   1   2
ATOM      2  C   UNL A   1      42.137  20.557  26.832  1.00  0.00     0.261 C 
BRANCH   2   3
ATOM      3  O   UNL A   1      41.140  21.265  27.598  1.00  0.00    -0.460 OA
BRANCH   3   4
ATOM      4  C   UNL A   1      40.236  22.172  27.138  1.00  0.00     0.338 C 
ATOM      5  O   UNL A   1      39.358  21.860  26.354  1.00  0.00    -0.246 OA
BRANCH   4   6
ATOM      6  C   UNL A   1      40.366  23.583  27.564  1.00  0.00     0.060 A 
ATOM      7  C   UNL A   1      39.336  24.469  27.221  1.00  0.00     0.016 A 
ATOM      8  C   UNL A   1      41.484  24.038  28.263  1.00  0.00     0.016 A 
ATOM      9  C   UNL A   1      39.473  25.831  27.491  1.00  0.00     0.010 A 
ATOM     10  C   UNL A   1      41.638  25.401  28.492  1.00  0.00     0.010 A 
ATOM     11  C   UNL A   1      40.641  26.308  28.099  1.00  0.00    -0.014 A 
BRANCH  11  12
ATOM     12  C   UNL A   1      40.643  27.656  28.682  1.00  0.00     0.031 A 
ATOM     13  C   UNL A   1      41.717  28.477  28.092  1.00  0.00     0.074 A 
ATOM     14  C   UNL A   1      39.848  28.245  29.601  1.00  0.00     0.049 A 
ATOM     15  N   UNL A   1      42.780  28.849  28.724  1.00  0.00    -0.248 NA
ATOM     16  C   UNL A   1      41.701  28.808  26.664  1.00  0.00     0.031 C 
ATOM     17  C   UNL A   1      38.699  27.696  30.300  1.00  0.00     0.029 A 
ATOM     18  N   UNL A   1      39.878  29.543  30.065  1.00  0.00    -0.354 N 
ATOM     19  C   UNL A   1      43.490  29.615  27.823  1.00  0.00     0.074 A 
ATOM     20  C   UNL A   1      42.877  29.426  26.533  1.00  0.00     0.031 C 
ATOM     21  C   UNL A   1      37.987  28.686  30.883  1.00  0.00     0.029 A 
ATOM     22  C   UNL A   1      38.735  29.919  30.753  1.00  0.00     0.049 A 
ATOM     23  H   UNL A   1      40.642  30.148  29.921  1.00  0.00     0.167 HD
ATOM     24  C   UNL A   1      44.352  30.560  28.270  1.00  0.00     0.037 A 
ATOM     25  C   UNL A   1      38.430  31.113  31.308  1.00  0.00     0.037 A 
ATOM     26  C   UNL A   1      44.650  30.416  29.669  1.00  0.00     0.049 A 
ATOM     27  C   UNL A   1      39.688  31.699  31.800  1.00  0.00     0.074 A 
ATOM     28  C   UNL A   1      45.458  29.614  30.444  1.00  0.00     0.029 A 
ATOM     29  N   UNL A   1      43.735  30.994  30.507  1.00  0.00    -0.354 N 
ATOM     30  N   UNL A   1      40.378  31.188  32.783  1.00  0.00    -0.248 NA
ATOM     31  C   UNL A   1      40.357  32.744  31.035  1.00  0.00     0.031 C 
ATOM     32  C   UNL A   1      44.925  29.647  31.768  1.00  0.00     0.029 A 
ATOM     33  C   UNL A   1      43.800  30.463  31.771  1.00  0.00     0.049 A 
ATOM     34  H   UNL A   1      43.108  31.701  30.236  1.00  0.00     0.167 HD
ATOM     35  C   UNL A   1      41.679  31.504  32.461  1.00  0.00     0.074 A 
ATOM     36  C   UNL A   1      41.591  32.614  31.526  1.00  0.00     0.031 C 
ATOM     37  C   UNL A   1      42.683  30.611  32.676  1.00  0.00     0.037 A 
BRANCH  24  38
ATOM     38  C   UNL A   1      44.566  31.855  27.550  1.00  0.00     0.064 A 
ATOM     39  C   UNL A   1      45.747  32.054  26.819  1.00  0.00     0.173 A 
ATOM     40  C   UNL A   1      43.776  33.002  27.784  1.00  0.00     0.173 A 
ATOM     41  F   UNL A   1      46.593  31.036  26.604  1.00  0.00    -0.203 F 
ATOM     42  C   UNL A   1      46.114  33.321  26.361  1.00  0.00     0.198 A 
ATOM     43  C   UNL A   1      44.113  34.250  27.273  1.00  0.00     0.198 A 
ATOM     44  F   UNL A   1      42.718  32.974  28.607  1.00  0.00    -0.203 F 
ATOM     45  F   UNL A   1      47.295  33.491  25.751  1.00  0.00    -0.200 F 
ATOM     46  C   UNL A   1      45.292  34.415  26.578  1.00  0.00     0.200 A 
ATOM     47  F   UNL A   1      43.321  35.303  27.524  1.00  0.00    -0.200 F 
ATOM     48  F   UNL A   1      45.661  35.635  26.166  1.00  0.00    -0.200 F 
ENDBRANCH  24  38
BRANCH  25  49
ATOM     49  C   UNL A   1      37.126  31.801  31.411  1.00  0.00     0.064 A 
ATOM     50  C   UNL A   1      36.485  31.991  32.645  1.00  0.00     0.173 A 
ATOM     51  C   UNL A   1      36.631  32.546  30.325  1.00  0.00     0.173 A 
ATOM     52  F   UNL A   1      36.925  31.355  33.740  1.00  0.00    -0.203 F 
ATOM     53  C   UNL A   1      35.431  32.899  32.790  1.00  0.00     0.198 A 
ATOM     54  C   UNL A   1      35.568  33.439  30.466  1.00  0.00     0.198 A 
ATOM     55  F   UNL A   1      37.245  32.500  29.135  1.00  0.00    -0.203 F 
ATOM     56  F   UNL A   1      34.894  33.110  34.000  1.00  0.00    -0.200 F 
ATOM     57  C   UNL A   1      34.979  33.628  31.703  1.00  0.00     0.200 A 
ATOM     58  F   UNL A   1      35.164  34.166  29.413  1.00  0.00    -0.200 F 
ATOM     59  F   UNL A   1      34.012  34.543  31.856  1.00  0.00    -0.200 F 
ENDBRANCH  25  49
BRANCH  37  60
ATOM     60  C   UNL A   1      42.505  29.627  33.789  1.00  0.00     0.064 A 
ATOM     61  C   UNL A   1      41.888  28.374  33.655  1.00  0.00     0.173 A 
ATOM     62  C   UNL A   1      43.029  29.961  35.046  1.00  0.00     0.173 A 
ATOM     63  F   UNL A   1      41.420  27.957  32.471  1.00  0.00    -0.203 F 
ATOM     64  C   UNL A   1      41.771  27.509  34.744  1.00  0.00     0.198 A 
ATOM     65  C   UNL A   1      42.937  29.085  36.124  1.00  0.00     0.198 A 
ATOM     66  F   UNL A   1      43.654  31.135  35.224  1.00  0.00    -0.203 F 
ATOM     67  F   UNL A   1      41.161  26.324  34.600  1.00  0.00    -0.200 F 
ATOM     68  C   UNL A   1      42.301  27.864  35.974  1.00  0.00     0.200 A 
ATOM     69  F   UNL A   1      43.480  29.419  37.302  1.00  0.00    -0.200 F 
ATOM     70  F   UNL A   1      42.212  27.022  37.015  1.00  0.00    -0.200 F 
ENDBRANCH  37  60
ENDBRANCH  11  12
ENDBRANCH   4   6
ENDBRANCH   3   4
ENDBRANCH   2   3
ENDBRANCH   1   2
BRANCH   1  71
ATOM     71  O   UNL A   1      42.721  22.148  25.032  1.00  0.00    -0.374 OA
BRANCH  71  72
ATOM     72  C   UNL A   1      43.299  23.439  24.847  1.00  0.00     0.202 C 
BRANCH  72  73
ATOM     73  C   UNL A   1      44.814  23.476  24.612  1.00  0.00     0.261 C 
BRANCH  73  74
ATOM     74  O   UNL A   1      45.329  24.827  24.600  1.00  0.00    -0.463 OA
BRANCH  74  75
ATOM     75  C   UNL A   1      46.573  24.977  25.112  1.00  0.00     0.310 C 
ATOM     76  O   UNL A   1      47.546  25.312  24.454  1.00  0.00    -0.252 OA
BRANCH  75  77
ATOM     77  C   UNL A   1      46.639  24.745  26.593  1.00  0.00     0.115 C 
ATOM     78  C   UNL A   1      48.048  25.073  27.119  1.00  0.00     0.043 C 
ATOM     79  C   UNL A   1      45.538  25.605  27.252  1.00  0.00     0.094 C 
ATOM     80  C   UNL A   1      48.270  26.524  27.435  1.00  0.00    -0.030 C 
ATOM     81  C   UNL A   1      45.855  27.124  27.207  1.00  0.00     0.041 C 
ATOM     82  C   UNL A   1      47.301  27.449  27.443  1.00  0.00    -0.030 C 
BRANCH  79  83
ATOM     83  C   UNL A   1      45.300  25.197  28.670  1.00  0.00     0.199 A 
ATOM     84  N   UNL A   1      44.996  23.999  29.130  1.00  0.00    -0.213 NA
ATOM     85  O   UNL A   1      45.317  26.186  29.613  1.00  0.00    -0.440 OA
ATOM     86  C   UNL A   1      44.694  24.234  30.447  1.00  0.00     0.111 A 
ATOM     87  C   UNL A   1      44.888  25.573  30.742  1.00  0.00     0.154 A 
ATOM     88  C   UNL A   1      44.229  23.380  31.449  1.00  0.00     0.053 A 
ATOM     89  C   UNL A   1      44.651  26.170  31.970  1.00  0.00     0.051 A 
ATOM     90  C   UNL A   1      43.964  23.946  32.702  1.00  0.00     0.043 A 
ATOM     91  C   UNL A   1      44.167  25.310  32.959  1.00  0.00     0.024 A 
ATOM     92  Cl  UNL A   1      43.355  22.939  33.960  1.00  0.00    -0.084 Cl
ENDBRANCH  79  83
ENDBRANCH  75  77
ENDBRANCH  74  75
ENDBRANCH  73  74
ENDBRANCH  72  73
ENDBRANCH  71  72
ENDBRANCH   1  71
TORSDOF 15
ENDMDL
MODEL 2
REMARK VINA RESULT:     -10.7      3.708      6.580
REMARK SMILES O=C(OCCOCCOC(=O)[C@H]1CC=CC[C@@H]1c1nc2cc(Cl)ccc2o1)c1ccc(-c2c3nc(c(-c4c(F)c(F)c(F)c(F)c4F)c4ccc([nH]4)c(-c4c(F)c(F)c(F)c(F)c4F)c4nc(c(-c5c(F)c(F)c(F)c(F)c5F)c5ccc2[nH]5)C=C4)C=C3)cc1
REMARK SMILES IDX 5 1 4 2 3 3 2 4 1 5 28 6 29 7 90 8 30 9 89 10 31 11 32 12
REMARK SMILES IDX 33 13 83 14 34 15 88 16 82 17 84 18 35 19 87 20 81 21 80 22
REMARK SMILES IDX 36 24 68 25 48 26 67 27 49 28 52 29 66 30 85 31 50 32 51 33
REMARK SMILES IDX 65 35 86 36 53 37 37 38 38 39 46 40 39 41 40 42 44 43 47 44
REMARK SMILES IDX 41 45 42 46 45 47 43 48 69 49 70 50 78 51 71 52 72 53 76 54
REMARK SMILES IDX 79 55 73 56 74 57 77 58 75 59 54 60 55 61 63 62 56 63 57 64
REMARK SMILES IDX 61 65 64 66 58 67 59 68 62 69 60 70 6 71 7 72 8 73 9 74
REMARK SMILES IDX 10 75 11 76 12 77 13 78 17 79 14 80 16 81 15 82 18 83 19 84
REMARK SMILES IDX 27 85 20 86 26 87 21 88 25 89 22 90 24 91 23 92
REMARK H PARENT 84 23 52 34
REMARK Flexibility Score: inf
ROOT
ATOM      1  C   UNL A   1      37.537  22.586  25.338  1.00  0.00     0.202 C 
ENDROOT
BRANCH   1   2
ATOM      2  C   UNL A   1      38.628  21.576  25.727  1.00  0.00     0.261 C 
BRANCH   2   3
ATOM      3  O   UNL A   1      39.512  21.926  26.812  1.00  0.00    -0.460 OA
BRANCH   3   4
ATOM      4  C   UNL A   1      40.699  22.586  26.730  1.00  0.00     0.338 C 
ATOM      5  O   UNL A   1      41.714  22.033  26.349  1.00  0.00    -0.246 OA
BRANCH   4   6
ATOM      6  C   UNL A   1      40.758  23.998  27.171  1.00  0.00     0.060 A 
ATOM      7  C   UNL A   1      39.924  24.921  26.527  1.00  0.00     0.016 A 
ATOM      8  C   UNL A   1      41.631  24.416  28.176  1.00  0.00     0.016 A 
ATOM      9  C   UNL A   1      40.036  26.280  26.821  1.00  0.00     0.010 A 
ATOM     10  C   UNL A   1      41.772  25.775  28.436  1.00  0.00     0.010 A 
ATOM     11  C   UNL A   1      40.985  26.717  27.754  1.00  0.00    -0.014 A 
BRANCH  11  12
ATOM     12  C   UNL A   1      40.872  28.074  28.305  1.00  0.00     0.031 A 
ATOM     13  C   UNL A   1      41.971  28.928  27.816  1.00  0.00     0.074 A 
ATOM     14  C   UNL A   1      39.961  28.646  29.121  1.00  0.00     0.049 A 
ATOM     15  N   UNL A   1      42.945  29.353  28.549  1.00  0.00    -0.248 NA
ATOM     16  C   UNL A   1      42.096  29.233  26.387  1.00  0.00     0.031 C 
ATOM     17  C   UNL A   1      38.766  28.063  29.706  1.00  0.00     0.029 A 
ATOM     18  N   UNL A   1      39.892  29.952  29.559  1.00  0.00    -0.354 N 
ATOM     19  C   UNL A   1      43.717  30.132  27.712  1.00  0.00     0.074 A 
ATOM     20  C   UNL A   1      43.254  29.896  26.369  1.00  0.00     0.031 C 
ATOM     21  C   UNL A   1      37.958  29.033  30.188  1.00  0.00     0.029 A 
ATOM     22  C   UNL A   1      38.667  30.292  30.113  1.00  0.00     0.049 A 
ATOM     23  H   UNL A   1      40.642  30.585  29.484  1.00  0.00     0.167 HD
ATOM     24  C   UNL A   1      44.490  31.119  28.228  1.00  0.00     0.037 A 
ATOM     25  C   UNL A   1      38.259  31.483  30.606  1.00  0.00     0.037 A 
ATOM     26  C   UNL A   1      44.641  31.011  29.654  1.00  0.00     0.049 A 
ATOM     27  C   UNL A   1      39.433  32.128  31.217  1.00  0.00     0.074 A 
ATOM     28  C   UNL A   1      45.392  30.256  30.528  1.00  0.00     0.029 A 
ATOM     29  N   UNL A   1      43.620  31.565  30.377  1.00  0.00    -0.354 N 
ATOM     30  N   UNL A   1      40.033  31.662  32.279  1.00  0.00    -0.248 NA
ATOM     31  C   UNL A   1      40.140  33.185  30.505  1.00  0.00     0.031 C 
ATOM     32  C   UNL A   1      44.719  30.290  31.786  1.00  0.00     0.029 A 
ATOM     33  C   UNL A   1      43.569  31.059  31.652  1.00  0.00     0.049 A 
ATOM     34  H   UNL A   1      42.998  32.242  30.026  1.00  0.00     0.167 HD
ATOM     35  C   UNL A   1      41.348  32.025  32.090  1.00  0.00     0.074 A 
ATOM     36  C   UNL A   1      41.319  33.115  31.127  1.00  0.00     0.031 C 
ATOM     37  C   UNL A   1      42.357  31.178  32.429  1.00  0.00     0.037 A 
BRANCH  24  38
ATOM     38  C   UNL A   1      44.729  32.409  27.508  1.00  0.00     0.064 A 
ATOM     39  C   UNL A   1      45.938  32.606  26.822  1.00  0.00     0.173 A 
ATOM     40  C   UNL A   1      43.928  33.556  27.701  1.00  0.00     0.173 A 
ATOM     41  F   UNL A   1      46.794  31.588  26.649  1.00  0.00    -0.203 F 
ATOM     42  C   UNL A   1      46.321  33.869  26.370  1.00  0.00     0.198 A 
ATOM     43  C   UNL A   1      44.282  34.801  27.194  1.00  0.00     0.198 A 
ATOM     44  F   UNL A   1      42.838  33.531  28.482  1.00  0.00    -0.203 F 
ATOM     45  F   UNL A   1      47.525  34.037  25.806  1.00  0.00    -0.200 F 
ATOM     46  C   UNL A   1      45.488  34.963  26.546  1.00  0.00     0.200 A 
ATOM     47  F   UNL A   1      43.479  35.853  27.406  1.00  0.00    -0.200 F 
ATOM     48  F   UNL A   1      45.870  36.181  26.140  1.00  0.00    -0.200 F 
ENDBRANCH  24  38
BRANCH  25  49
ATOM     49  C   UNL A   1      36.926  32.118  30.555  1.00  0.00     0.064 A 
ATOM     50  C   UNL A   1      36.020  32.024  31.622  1.00  0.00     0.173 A 
ATOM     51  C   UNL A   1      36.639  33.082  29.571  1.00  0.00     0.173 A 
ATOM     52  F   UNL A   1      36.245  31.164  32.626  1.00  0.00    -0.203 F 
ATOM     53  C   UNL A   1      34.907  32.867  31.715  1.00  0.00     0.198 A 
ATOM     54  C   UNL A   1      35.520  33.912  29.655  1.00  0.00     0.198 A 
ATOM     55  F   UNL A   1      37.501  33.307  28.570  1.00  0.00    -0.203 F 
ATOM     56  F   UNL A   1      34.106  32.799  32.788  1.00  0.00    -0.200 F 
ATOM     57  C   UNL A   1      34.663  33.816  30.737  1.00  0.00     0.200 A 
ATOM     58  F   UNL A   1      35.314  34.851  28.719  1.00  0.00    -0.200 F 
ATOM     59  F   UNL A   1      33.634  34.665  30.858  1.00  0.00    -0.200 F 
ENDBRANCH  25  49
BRANCH  37  60
ATOM     60  C   UNL A   1      42.099  30.207  33.537  1.00  0.00     0.064 A 
ATOM     61  C   UNL A   1      41.639  28.893  33.357  1.00  0.00     0.173 A 
ATOM     62  C   UNL A   1      42.376  30.621  34.848  1.00  0.00     0.173 A 
ATOM     63  F   UNL A   1      41.412  28.402  32.131  1.00  0.00    -0.203 F 
ATOM     64  C   UNL A   1      41.433  28.046  34.447  1.00  0.00     0.198 A 
ATOM     65  C   UNL A   1      42.198  29.766  35.931  1.00  0.00     0.198 A 
ATOM     66  F   UNL A   1      42.845  31.858  35.076  1.00  0.00    -0.203 F 
ATOM     67  F   UNL A   1      40.973  26.801  34.254  1.00  0.00    -0.200 F 
ATOM     68  C   UNL A   1      41.718  28.482  35.731  1.00  0.00     0.200 A 
ATOM     69  F   UNL A   1      42.506  30.182  37.167  1.00  0.00    -0.200 F 
ATOM     70  F   UNL A   1      41.545  27.660  36.776  1.00  0.00    -0.200 F 
ENDBRANCH  37  60
ENDBRANCH  11  12
ENDBRANCH   4   6
ENDBRANCH   3   4
ENDBRANCH   2   3
ENDBRANCH   1   2
BRANCH   1  71
ATOM     71  O   UNL A   1      36.232  22.182  25.713  1.00  0.00    -0.374 OA
BRANCH  71  72
ATOM     72  C   UNL A   1      35.533  21.359  24.780  1.00  0.00     0.202 C 
BRANCH  72  73
ATOM     73  C   UNL A   1      34.217  21.923  24.231  1.00  0.00     0.261 C 
BRANCH  73  74
ATOM     74  O   UNL A   1      34.028  23.310  24.591  1.00  0.00    -0.463 OA
BRANCH  74  75
ATOM     75  C   UNL A   1      33.968  24.175  23.551  1.00  0.00     0.310 C 
ATOM     76  O   UNL A   1      33.928  23.831  22.379  1.00  0.00    -0.252 OA
BRANCH  75  77
ATOM     77  C   UNL A   1      33.896  25.612  23.975  1.00  0.00     0.115 C 
ATOM     78  C   UNL A   1      33.520  26.500  22.775  1.00  0.00     0.043 C 
ATOM     79  C   UNL A   1      32.880  25.709  25.134  1.00  0.00     0.094 C 
ATOM     80  C   UNL A   1      32.044  26.605  22.519  1.00  0.00    -0.030 C 
ATOM     81  C   UNL A   1      31.415  25.497  24.669  1.00  0.00     0.041 C 
ATOM     82  C   UNL A   1      31.102  26.129  23.344  1.00  0.00    -0.030 C 
BRANCH  79  83
ATOM     83  C   UNL A   1      32.984  27.021  25.844  1.00  0.00     0.199 A 
ATOM     84  N   UNL A   1      32.069  27.965  25.945  1.00  0.00    -0.213 NA
ATOM     85  O   UNL A   1      34.195  27.335  26.396  1.00  0.00    -0.440 OA
ATOM     86  C   UNL A   1      32.752  29.009  26.514  1.00  0.00     0.111 A 
ATOM     87  C   UNL A   1      34.054  28.625  26.786  1.00  0.00     0.154 A 
ATOM     88  C   UNL A   1      32.355  30.315  26.808  1.00  0.00     0.053 A 
ATOM     89  C   UNL A   1      35.036  29.435  27.333  1.00  0.00     0.051 A 
ATOM     90  C   UNL A   1      33.321  31.172  27.350  1.00  0.00     0.043 A 
ATOM     91  C   UNL A   1      34.634  30.746  27.605  1.00  0.00     0.024 A 
ATOM     92  Cl  UNL A   1      32.888  32.802  27.697  1.00  0.00    -0.084 Cl
ENDBRANCH  79  83
ENDBRANCH  75  77
ENDBRANCH  74  75
ENDBRANCH  73  74
ENDBRANCH  72  73
ENDBRANCH  71  72
ENDBRANCH   1  71
TORSDOF 15
ENDMDL
MODEL 3
REMARK VINA RESULT:     -10.6      4.399     10.773
REMARK SMILES O=C(OCCOCCOC(=O)[C@H]1CC=CC[C@@H]1c1nc2cc(Cl)ccc2o1)c1ccc(-c2c3nc(c(-c4c(F)c(F)c(F)c(F)c4F)c4ccc([nH]4)c(-c4c(F)c(F)c(F)c(F)c4F)c4nc(c(-c5c(F)c(F)c(F)c(F)c5F)c5ccc2[nH]5)C=C4)C=C3)cc1
REMARK SMILES IDX 5 1 4 2 3 3 2 4 1 5 28 6 29 7 90 8 30 9 89 10 31 11 32 12
REMARK SMILES IDX 33 13 83 14 34 15 88 16 82 17 84 18 35 19 87 20 81 21 80 22
REMARK SMILES IDX 36 24 68 25 48 26 67 27 49 28 52 29 66 30 85 31 50 32 51 33
REMARK SMILES IDX 65 35 86 36 53 37 37 38 38 39 46 40 39 41 40 42 44 43 47 44
REMARK SMILES IDX 41 45 42 46 45 47 43 48 69 49 70 50 78 51 71 52 72 53 76 54
REMARK SMILES IDX 79 55 73 56 74 57 77 58 75 59 54 60 55 61 63 62 56 63 57 64
REMARK SMILES IDX 61 65 64 66 58 67 59 68 62 69 60 70 6 71 7 72 8 73 9 74
REMARK SMILES IDX 10 75 11 76 12 77 13 78 17 79 14 80 16 81 15 82 18 83 19 84
REMARK SMILES IDX 27 85 20 86 26 87 21 88 25 89 22 90 24 91 23 92
REMARK H PARENT 84 23 52 34
REMARK Flexibility Score: inf
ROOT
ATOM      1  C   UNL A   1      34.061  35.016  30.479  1.00  0.00     0.202 C 
ENDROOT
BRANCH   1   2
ATOM      2  C   UNL A   1      34.033  34.000  29.326  1.00  0.00     0.261 C 
BRANCH   2   3
ATOM      3  O   UNL A   1      34.613  32.700  29.562  1.00  0.00    -0.460 OA
BRANCH   3   4
ATOM      4  C   UNL A   1      34.792  31.700  28.656  1.00  0.00     0.338 C 
ATOM      5  O   UNL A   1      33.904  31.356  27.898  1.00  0.00    -0.246 OA
BRANCH   4   6
ATOM      6  C   UNL A   1      36.086  30.981  28.639  1.00  0.00     0.060 A 
ATOM      7  C   UNL A   1      37.206  31.634  29.171  1.00  0.00     0.016 A 
ATOM      8  C   UNL A   1      36.208  29.705  28.089  1.00  0.00     0.016 A 
ATOM      9  C   UNL A   1      38.467  31.049  29.062  1.00  0.00     0.010 A 
ATOM     10  C   UNL A   1      37.472  29.143  27.943  1.00  0.00     0.010 A 
ATOM     11  C   UNL A   1      38.611  29.815  28.417  1.00  0.00    -0.014 A 
BRANCH  11  12
ATOM     12  C   UNL A   1      39.854  29.053  28.600  1.00  0.00     0.031 A 
ATOM     13  C   UNL A   1      40.091  28.779  30.030  1.00  0.00     0.074 A 
ATOM     14  C   UNL A   1      40.754  28.566  27.719  1.00  0.00     0.049 A 
ATOM     15  N   UNL A   1      41.025  29.327  30.732  1.00  0.00    -0.248 NA
ATOM     16  C   UNL A   1      39.156  27.943  30.791  1.00  0.00     0.031 C 
ATOM     17  C   UNL A   1      40.746  28.646  26.268  1.00  0.00     0.029 A 
ATOM     18  N   UNL A   1      41.881  27.810  27.963  1.00  0.00    -0.354 N 
ATOM     19  C   UNL A   1      40.909  28.771  31.989  1.00  0.00     0.074 A 
ATOM     20  C   UNL A   1      39.657  28.059  32.022  1.00  0.00     0.031 C 
ATOM     21  C   UNL A   1      41.632  27.768  25.746  1.00  0.00     0.029 A 
ATOM     22  C   UNL A   1      42.402  27.201  26.832  1.00  0.00     0.049 A 
ATOM     23  H   UNL A   1      42.277  27.710  28.859  1.00  0.00     0.167 HD
ATOM     24  C   UNL A   1      41.989  28.712  32.806  1.00  0.00     0.037 A 
ATOM     25  C   UNL A   1      43.470  26.379  26.725  1.00  0.00     0.037 A 
ATOM     26  C   UNL A   1      43.068  29.547  32.351  1.00  0.00     0.049 A 
ATOM     27  C   UNL A   1      44.459  26.816  27.724  1.00  0.00     0.074 A 
ATOM     28  C   UNL A   1      43.379  30.889  32.385  1.00  0.00     0.029 A 
ATOM     29  N   UNL A   1      43.873  28.972  31.406  1.00  0.00    -0.354 N 
ATOM     30  N   UNL A   1      45.079  27.963  27.662  1.00  0.00    -0.248 NA
ATOM     31  C   UNL A   1      44.604  26.087  28.978  1.00  0.00     0.031 C 
ATOM     32  C   UNL A   1      44.330  31.119  31.345  1.00  0.00     0.029 A 
ATOM     33  C   UNL A   1      44.572  29.915  30.694  1.00  0.00     0.049 A 
ATOM     34  H   UNL A   1      43.941  28.003  31.254  1.00  0.00     0.167 HD
ATOM     35  C   UNL A   1      45.279  28.292  28.984  1.00  0.00     0.074 A 
ATOM     36  C   UNL A   1      45.171  27.042  29.718  1.00  0.00     0.031 C 
ATOM     37  C   UNL A   1      45.138  29.577  29.408  1.00  0.00     0.037 A 
BRANCH  24  38
ATOM     38  C   UNL A   1      42.221  27.573  33.749  1.00  0.00     0.064 A 
ATOM     39  C   UNL A   1      41.850  27.704  35.096  1.00  0.00     0.173 A 
ATOM     40  C   UNL A   1      43.042  26.469  33.432  1.00  0.00     0.173 A 
ATOM     41  F   UNL A   1      41.125  28.756  35.503  1.00  0.00    -0.203 F 
ATOM     42  C   UNL A   1      42.282  26.792  36.061  1.00  0.00     0.198 A 
ATOM     43  C   UNL A   1      43.420  25.529  34.384  1.00  0.00     0.198 A 
ATOM     44  F   UNL A   1      43.599  26.329  32.220  1.00  0.00    -0.203 F 
ATOM     45  F   UNL A   1      41.990  27.002  37.352  1.00  0.00    -0.200 F 
ATOM     46  C   UNL A   1      43.057  25.701  35.703  1.00  0.00     0.200 A 
ATOM     47  F   UNL A   1      44.198  24.499  34.023  1.00  0.00    -0.200 F 
ATOM     48  F   UNL A   1      43.498  24.845  36.634  1.00  0.00    -0.200 F 
ENDBRANCH  24  38
BRANCH  25  49
ATOM     49  C   UNL A   1      43.680  25.216  25.838  1.00  0.00     0.064 A 
ATOM     50  C   UNL A   1      44.894  25.005  25.169  1.00  0.00     0.173 A 
ATOM     51  C   UNL A   1      42.785  24.130  25.871  1.00  0.00     0.173 A 
ATOM     52  F   UNL A   1      45.823  25.971  25.133  1.00  0.00    -0.203 F 
ATOM     53  C   UNL A   1      45.209  23.769  24.593  1.00  0.00     0.198 A 
ATOM     54  C   UNL A   1      43.090  22.903  25.282  1.00  0.00     0.198 A 
ATOM     55  F   UNL A   1      41.645  24.212  26.572  1.00  0.00    -0.203 F 
ATOM     56  F   UNL A   1      46.411  23.583  24.029  1.00  0.00    -0.200 F 
ATOM     57  C   UNL A   1      44.311  22.717  24.658  1.00  0.00     0.200 A 
ATOM     58  F   UNL A   1      42.227  21.881  25.382  1.00  0.00    -0.200 F 
ATOM     59  F   UNL A   1      44.638  21.516  24.162  1.00  0.00    -0.200 F 
ENDBRANCH  25  49
BRANCH  37  60
ATOM     60  C   UNL A   1      45.404  30.664  28.416  1.00  0.00     0.064 A 
ATOM     61  C   UNL A   1      44.438  31.223  27.565  1.00  0.00     0.173 A 
ATOM     62  C   UNL A   1      46.701  31.195  28.359  1.00  0.00     0.173 A 
ATOM     63  F   UNL A   1      43.163  30.815  27.606  1.00  0.00    -0.203 F 
ATOM     64  C   UNL A   1      44.768  32.244  26.673  1.00  0.00     0.198 A 
ATOM     65  C   UNL A   1      47.022  32.233  27.490  1.00  0.00     0.198 A 
ATOM     66  F   UNL A   1      47.659  30.717  29.170  1.00  0.00    -0.203 F 
ATOM     67  F   UNL A   1      43.834  32.751  25.855  1.00  0.00    -0.200 F 
ATOM     68  C   UNL A   1      46.057  32.751  26.641  1.00  0.00     0.200 A 
ATOM     69  F   UNL A   1      48.262  32.741  27.486  1.00  0.00    -0.200 F 
ATOM     70  F   UNL A   1      46.369  33.749  25.802  1.00  0.00    -0.200 F 
ENDBRANCH  37  60
ENDBRANCH  11  12
ENDBRANCH   4   6
ENDBRANCH   3   4
ENDBRANCH   2   3
ENDBRANCH   1   2
BRANCH   1  71
ATOM     71  O   UNL A   1      33.246  34.648  31.578  1.00  0.00    -0.374 OA
BRANCH  71  72
ATOM     72  C   UNL A   1      33.855  34.714  32.867  1.00  0.00     0.202 C 
BRANCH  72  73
ATOM     73  C   UNL A   1      34.344  33.386  33.455  1.00  0.00     0.261 C 
BRANCH  73  74
ATOM     74  O   UNL A   1      35.687  33.064  33.029  1.00  0.00    -0.463 OA
BRANCH  74  75
ATOM     75  C   UNL A   1      36.661  33.338  33.928  1.00  0.00     0.310 C 
ATOM     76  O   UNL A   1      36.588  33.065  35.117  1.00  0.00    -0.252 OA
BRANCH  75  77
ATOM     77  C   UNL A   1      37.879  33.964  33.315  1.00  0.00     0.115 C 
ATOM     78  C   UNL A   1      38.941  34.228  34.397  1.00  0.00     0.043 C 
ATOM     79  C   UNL A   1      38.381  33.020  32.200  1.00  0.00     0.094 C 
ATOM     80  C   UNL A   1      39.821  33.050  34.703  1.00  0.00    -0.030 C 
ATOM     81  C   UNL A   1      39.006  31.713  32.755  1.00  0.00     0.041 C 
ATOM     82  C   UNL A   1      39.830  31.914  33.994  1.00  0.00    -0.030 C 
BRANCH  79  83
ATOM     83  C   UNL A   1      39.374  33.700  31.314  1.00  0.00     0.199 A 
ATOM     84  N   UNL A   1      39.157  34.662  30.438  1.00  0.00    -0.213 NA
ATOM     85  O   UNL A   1      40.657  33.230  31.342  1.00  0.00    -0.440 OA
ATOM     86  C   UNL A   1      40.353  34.762  29.775  1.00  0.00     0.111 A 
ATOM     87  C   UNL A   1      41.270  33.883  30.326  1.00  0.00     0.154 A 
ATOM     88  C   UNL A   1      40.737  35.547  28.686  1.00  0.00     0.053 A 
ATOM     89  C   UNL A   1      42.571  33.695  29.886  1.00  0.00     0.051 A 
ATOM     90  C   UNL A   1      42.040  35.378  28.201  1.00  0.00     0.043 A 
ATOM     91  C   UNL A   1      42.938  34.471  28.784  1.00  0.00     0.024 A 
ATOM     92  Cl  UNL A   1      42.548  36.300  26.839  1.00  0.00    -0.084 Cl
ENDBRANCH  79  83
ENDBRANCH  75  77
ENDBRANCH  74  75
ENDBRANCH  73  74
ENDBRANCH  72  73
ENDBRANCH  71  72
ENDBRANCH   1  71
TORSDOF 15
ENDMDL
