MODEL 1
REMARK VINA RESULT:     -10.4      0.000      0.000
REMARK SMILES C#CCN(CC(=O)OCCOCCOC(=O)c1ccc(-c2c3nc(c(-c4c(F)c(F)c(F)c(F)c4F)c4ccc([nH]4)c(-c4c(F)c(F)c(F)c(F)c4F)c4nc(c(-c5c(F)c(F)c(F)c(F)c5F)c5ccc2[nH]5)C=C4)C=C3)cc1)C(=O)c1c[nH]c(=O)[nH]1
REMARK SMILES IDX 10 1 9 2 8 3 6 4 7 5 5 6 4 7 3 8 2 9 1 10 80 11 81 12 82 13
REMARK SMILES IDX 83 14 87 15 84 16 85 17 86 20 11 21 12 22 13 23 14 24 15 25
REMARK SMILES IDX 16 26 17 27 18 28 79 29 19 30 78 31 20 32 21 33 22 34 72 35
REMARK SMILES IDX 23 36 77 37 71 38 73 39 24 40 76 41 70 42 69 43 25 45 57 46
REMARK SMILES IDX 37 47 56 48 38 49 41 50 55 51 74 52 39 53 40 54 54 56 75 57
REMARK SMILES IDX 42 58 26 59 27 60 35 61 28 62 29 63 33 64 36 65 30 66 31 67
REMARK SMILES IDX 34 68 32 69 58 70 59 71 67 72 60 73 61 74 65 75 68 76 62 77
REMARK SMILES IDX 63 78 66 79 64 80 43 81 44 82 52 83 45 84 46 85 50 86 53 87
REMARK SMILES IDX 47 88 48 89 51 90 49 91
REMARK H PARENT 87 18 84 19 73 44 41 55
REMARK Flexibility Score: inf
ROOT
ATOM      1  C   UNL A   1      31.863  28.878  27.194  1.00  0.00     0.202 C 
ENDROOT
BRANCH   1   2
ATOM      2  C   UNL A   1      32.185  27.420  26.844  1.00  0.00     0.261 C 
BRANCH   2   3
ATOM      3  O   UNL A   1      31.036  26.678  26.378  1.00  0.00    -0.462 OA
BRANCH   3   4
ATOM      4  C   UNL A   1      31.222  25.345  26.177  1.00  0.00     0.325 C 
ATOM      5  O   UNL A   1      31.343  24.529  27.084  1.00  0.00    -0.250 OA
BRANCH   4   6
ATOM      6  C   UNL A   1      31.118  24.901  24.701  1.00  0.00     0.243 C 
BRANCH   6   7
ATOM      7  N   UNL A   1      32.322  24.784  23.859  1.00  0.00    -0.315 N 
BRANCH   7   8
ATOM      8  C   UNL A   1      33.086  23.494  23.919  1.00  0.00     0.210 C 
BRANCH   8   9
ATOM      9  C   UNL A   1      34.135  23.749  24.989  1.00  0.00    -0.085 C 
ATOM     10  C   UNL A   1      35.034  23.967  25.906  1.00  0.00     0.006 C 
ENDBRANCH   8   9
ENDBRANCH   7   8
BRANCH   7  11
ATOM     11  C   UNL A   1      32.741  25.740  22.921  1.00  0.00     0.273 C 
ATOM     12  O   UNL A   1      33.590  25.481  22.066  1.00  0.00    -0.267 OA
BRANCH  11  13
ATOM     13  C   UNL A   1      32.143  27.118  22.904  1.00  0.00     0.125 A 
ATOM     14  C   UNL A   1      32.707  28.259  23.342  1.00  0.00     0.119 A 
ATOM     15  N   UNL A   1      31.011  27.466  22.194  1.00  0.00    -0.302 N 
ATOM     16  N   UNL A   1      31.929  29.325  22.977  1.00  0.00    -0.312 N 
ATOM     17  C   UNL A   1      30.864  28.864  22.203  1.00  0.00     0.323 A 
ATOM     18  H   UNL A   1      30.400  26.832  21.751  1.00  0.00     0.172 HD
ATOM     19  H   UNL A   1      32.095  30.265  23.220  1.00  0.00     0.171 HD
ATOM     20  O   UNL A   1      30.026  29.536  21.635  1.00  0.00    -0.248 OA
ENDBRANCH  11  13
ENDBRANCH   7  11
ENDBRANCH   6   7
ENDBRANCH   4   6
ENDBRANCH   3   4
ENDBRANCH   2   3
ENDBRANCH   1   2
BRANCH   1  21
ATOM     21  O   UNL A   1      32.163  29.857  26.208  1.00  0.00    -0.374 OA
BRANCH  21  22
ATOM     22  C   UNL A   1      31.436  31.082  26.175  1.00  0.00     0.202 C 
BRANCH  22  23
ATOM     23  C   UNL A   1      31.985  32.303  26.906  1.00  0.00     0.261 C 
BRANCH  23  24
ATOM     24  O   UNL A   1      33.177  32.072  27.601  1.00  0.00    -0.460 OA
BRANCH  24  25
ATOM     25  C   UNL A   1      33.831  33.171  28.004  1.00  0.00     0.338 C 
ATOM     26  O   UNL A   1      33.540  34.336  27.918  1.00  0.00    -0.246 OA
BRANCH  25  27
ATOM     27  C   UNL A   1      35.038  32.559  28.528  1.00  0.00     0.060 A 
ATOM     28  C   UNL A   1      35.004  31.203  28.834  1.00  0.00     0.016 A 
ATOM     29  C   UNL A   1      36.223  33.306  28.483  1.00  0.00     0.016 A 
ATOM     30  C   UNL A   1      36.187  30.593  29.200  1.00  0.00     0.010 A 
ATOM     31  C   UNL A   1      37.410  32.685  28.813  1.00  0.00     0.010 A 
ATOM     32  C   UNL A   1      37.372  31.347  29.229  1.00  0.00    -0.014 A 
BRANCH  32  33
ATOM     33  C   UNL A   1      38.530  30.777  29.921  1.00  0.00     0.031 A 
ATOM     34  C   UNL A   1      38.713  31.137  31.361  1.00  0.00     0.074 A 
ATOM     35  C   UNL A   1      39.326  29.916  29.274  1.00  0.00     0.049 A 
ATOM     36  N   UNL A   1      39.576  30.679  32.224  1.00  0.00    -0.248 NA
ATOM     37  C   UNL A   1      37.797  32.157  31.905  1.00  0.00     0.031 C 
ATOM     38  C   UNL A   1      39.196  29.540  27.867  1.00  0.00     0.029 A 
ATOM     39  N   UNL A   1      40.389  29.191  29.727  1.00  0.00    -0.354 N 
ATOM     40  C   UNL A   1      39.306  31.353  33.407  1.00  0.00     0.074 A 
ATOM     41  C   UNL A   1      38.242  32.291  33.143  1.00  0.00     0.031 C 
ATOM     42  C   UNL A   1      40.141  28.631  27.573  1.00  0.00     0.029 A 
ATOM     43  C   UNL A   1      40.939  28.379  28.769  1.00  0.00     0.049 A 
ATOM     44  H   UNL A   1      40.728  29.245  30.649  1.00  0.00     0.167 HD
ATOM     45  C   UNL A   1      39.890  31.179  34.612  1.00  0.00     0.037 A 
ATOM     46  C   UNL A   1      41.969  27.521  28.873  1.00  0.00     0.037 A 
ATOM     47  C   UNL A   1      40.950  30.236  34.835  1.00  0.00     0.049 A 
ATOM     48  C   UNL A   1      42.602  27.342  30.225  1.00  0.00     0.074 A 
ATOM     49  C   UNL A   1      41.628  29.949  36.003  1.00  0.00     0.029 A 
ATOM     50  N   UNL A   1      41.492  29.426  33.842  1.00  0.00    -0.354 N 
ATOM     51  N   UNL A   1      42.318  27.942  31.358  1.00  0.00    -0.248 NA
ATOM     52  C   UNL A   1      43.677  26.351  30.321  1.00  0.00     0.031 C 
ATOM     53  C   UNL A   1      42.611  28.997  35.707  1.00  0.00     0.029 A 
ATOM     54  C   UNL A   1      42.507  28.649  34.367  1.00  0.00     0.049 A 
ATOM     55  H   UNL A   1      41.194  29.408  32.904  1.00  0.00     0.167 HD
ATOM     56  C   UNL A   1      43.161  27.388  32.309  1.00  0.00     0.074 A 
ATOM     57  C   UNL A   1      43.955  26.389  31.618  1.00  0.00     0.031 C 
ATOM     58  C   UNL A   1      43.272  27.669  33.633  1.00  0.00     0.037 A 
BRANCH  45  59
ATOM     59  C   UNL A   1      39.411  32.052  35.735  1.00  0.00     0.064 A 
ATOM     60  C   UNL A   1      39.986  33.307  35.998  1.00  0.00     0.173 A 
ATOM     61  C   UNL A   1      38.394  31.606  36.593  1.00  0.00     0.173 A 
ATOM     62  F   UNL A   1      40.982  33.768  35.227  1.00  0.00    -0.203 F 
ATOM     63  C   UNL A   1      39.590  34.061  37.101  1.00  0.00     0.198 A 
ATOM     64  C   UNL A   1      37.978  32.378  37.674  1.00  0.00     0.198 A 
ATOM     65  F   UNL A   1      37.817  30.412  36.394  1.00  0.00    -0.203 F 
ATOM     66  F   UNL A   1      40.205  35.220  37.374  1.00  0.00    -0.200 F 
ATOM     67  C   UNL A   1      38.584  33.598  37.935  1.00  0.00     0.200 A 
ATOM     68  F   UNL A   1      37.003  31.931  38.477  1.00  0.00    -0.200 F 
ATOM     69  F   UNL A   1      38.210  34.321  39.000  1.00  0.00    -0.200 F 
ENDBRANCH  45  59
BRANCH  46  70
ATOM     70  C   UNL A   1      42.409  26.761  27.678  1.00  0.00     0.064 A 
ATOM     71  C   UNL A   1      43.397  27.261  26.820  1.00  0.00     0.173 A 
ATOM     72  C   UNL A   1      41.886  25.489  27.400  1.00  0.00     0.173 A 
ATOM     73  F   UNL A   1      43.923  28.475  27.040  1.00  0.00    -0.203 F 
ATOM     74  C   UNL A   1      43.838  26.522  25.723  1.00  0.00     0.198 A 
ATOM     75  C   UNL A   1      42.345  24.741  26.319  1.00  0.00     0.198 A 
ATOM     76  F   UNL A   1      40.948  24.960  28.200  1.00  0.00    -0.203 F 
ATOM     77  F   UNL A   1      44.767  27.033  24.904  1.00  0.00    -0.200 F 
ATOM     78  C   UNL A   1      43.318  25.260  25.478  1.00  0.00     0.200 A 
ATOM     79  F   UNL A   1      41.854  23.514  26.099  1.00  0.00    -0.200 F 
ATOM     80  F   UNL A   1      43.755  24.544  24.434  1.00  0.00    -0.200 F 
ENDBRANCH  46  70
BRANCH  58  81
ATOM     81  C   UNL A   1      44.269  26.862  34.410  1.00  0.00     0.064 A 
ATOM     82  C   UNL A   1      43.928  25.632  34.987  1.00  0.00     0.173 A 
ATOM     83  C   UNL A   1      45.588  27.316  34.549  1.00  0.00     0.173 A 
ATOM     84  F   UNL A   1      42.674  25.164  34.891  1.00  0.00    -0.203 F 
ATOM     85  C   UNL A   1      44.867  24.898  35.707  1.00  0.00     0.198 A 
ATOM     86  C   UNL A   1      46.533  26.565  35.239  1.00  0.00     0.198 A 
ATOM     87  F   UNL A   1      45.964  28.483  34.004  1.00  0.00    -0.203 F 
ATOM     88  F   UNL A   1      44.506  23.752  36.300  1.00  0.00    -0.200 F 
ATOM     89  C   UNL A   1      46.168  25.362  35.827  1.00  0.00     0.200 A 
ATOM     90  F   UNL A   1      47.794  27.006  35.341  1.00  0.00    -0.200 F 
ATOM     91  F   UNL A   1      47.072  24.653  36.518  1.00  0.00    -0.200 F 
ENDBRANCH  58  81
ENDBRANCH  32  33
ENDBRANCH  25  27
ENDBRANCH  24  25
ENDBRANCH  23  24
ENDBRANCH  22  23
ENDBRANCH  21  22
ENDBRANCH   1  21
TORSDOF 19
ENDMDL
MODEL 2
REMARK VINA RESULT:     -10.2      1.248      2.801
REMARK SMILES C#CCN(CC(=O)OCCOCCOC(=O)c1ccc(-c2c3nc(c(-c4c(F)c(F)c(F)c(F)c4F)c4ccc([nH]4)c(-c4c(F)c(F)c(F)c(F)c4F)c4nc(c(-c5c(F)c(F)c(F)c(F)c5F)c5ccc2[nH]5)C=C4)C=C3)cc1)C(=O)c1c[nH]c(=O)[nH]1
REMARK SMILES IDX 10 1 9 2 8 3 6 4 7 5 5 6 4 7 3 8 2 9 1 10 80 11 81 12 82 13
REMARK SMILES IDX 83 14 87 15 84 16 85 17 86 20 11 21 12 22 13 23 14 24 15 25
REMARK SMILES IDX 16 26 17 27 18 28 79 29 19 30 78 31 20 32 21 33 22 34 72 35
REMARK SMILES IDX 23 36 77 37 71 38 73 39 24 40 76 41 70 42 69 43 25 45 57 46
REMARK SMILES IDX 37 47 56 48 38 49 41 50 55 51 74 52 39 53 40 54 54 56 75 57
REMARK SMILES IDX 42 58 26 59 27 60 35 61 28 62 29 63 33 64 36 65 30 66 31 67
REMARK SMILES IDX 34 68 32 69 58 70 59 71 67 72 60 73 61 74 65 75 68 76 62 77
REMARK SMILES IDX 63 78 66 79 64 80 43 81 44 82 52 83 45 84 46 85 50 86 53 87
REMARK SMILES IDX 47 88 48 89 51 90 49 91
REMARK H PARENT 87 18 84 19 73 44 41 55
REMARK Flexibility Score: inf
ROOT
ATOM      1  C   UNL A   1      32.506  28.713  23.629  1.00  0.00     0.202 C 
ENDROOT
BRANCH   1   2
ATOM      2  C   UNL A   1      31.120  28.947  23.017  1.00  0.00     0.261 C 
BRANCH   2   3
ATOM      3  O   UNL A   1      30.611  27.802  22.298  1.00  0.00    -0.462 OA
BRANCH   3   4
ATOM      4  C   UNL A   1      30.577  26.627  22.984  1.00  0.00     0.325 C 
ATOM      5  O   UNL A   1      29.875  26.433  23.971  1.00  0.00    -0.250 OA
BRANCH   4   6
ATOM      6  C   UNL A   1      31.386  25.484  22.333  1.00  0.00     0.243 C 
BRANCH   6   7
ATOM      7  N   UNL A   1      32.345  24.691  23.122  1.00  0.00    -0.315 N 
BRANCH   7   8
ATOM      8  C   UNL A   1      33.314  23.827  22.368  1.00  0.00     0.210 C 
BRANCH   8   9
ATOM      9  C   UNL A   1      32.662  22.454  22.392  1.00  0.00    -0.085 C 
ATOM     10  C   UNL A   1      32.104  21.277  22.413  1.00  0.00     0.006 C 
ENDBRANCH   8   9
ENDBRANCH   7   8
BRANCH   7  11
ATOM     11  C   UNL A   1      32.500  24.771  24.514  1.00  0.00     0.273 C 
ATOM     12  O   UNL A   1      33.224  25.619  25.039  1.00  0.00    -0.267 OA
BRANCH  11  13
ATOM     13  C   UNL A   1      31.759  23.835  25.427  1.00  0.00     0.125 A 
ATOM     14  C   UNL A   1      32.251  22.758  26.067  1.00  0.00     0.119 A 
ATOM     15  N   UNL A   1      30.510  24.091  25.955  1.00  0.00    -0.302 N 
ATOM     16  N   UNL A   1      31.319  22.285  26.951  1.00  0.00    -0.312 N 
ATOM     17  C   UNL A   1      30.215  23.136  26.944  1.00  0.00     0.323 A 
ATOM     18  H   UNL A   1      29.917  24.829  25.681  1.00  0.00     0.172 HD
ATOM     19  H   UNL A   1      31.414  21.476  27.505  1.00  0.00     0.171 HD
ATOM     20  O   UNL A   1      29.239  23.077  27.666  1.00  0.00    -0.248 OA
ENDBRANCH  11  13
ENDBRANCH   7  11
ENDBRANCH   6   7
ENDBRANCH   4   6
ENDBRANCH   3   4
ENDBRANCH   2   3
ENDBRANCH   1   2
BRANCH   1  21
ATOM     21  O   UNL A   1      32.721  29.211  24.943  1.00  0.00    -0.374 OA
BRANCH  21  22
ATOM     22  C   UNL A   1      31.762  30.078  25.542  1.00  0.00     0.202 C 
BRANCH  22  23
ATOM     23  C   UNL A   1      32.132  30.851  26.805  1.00  0.00     0.261 C 
BRANCH  23  24
ATOM     24  O   UNL A   1      33.507  30.932  27.049  1.00  0.00    -0.460 OA
BRANCH  24  25
ATOM     25  C   UNL A   1      33.912  32.037  27.693  1.00  0.00     0.338 C 
ATOM     26  O   UNL A   1      33.417  33.131  27.769  1.00  0.00    -0.246 OA
BRANCH  25  27
ATOM     27  C   UNL A   1      35.172  31.556  28.232  1.00  0.00     0.060 A 
ATOM     28  C   UNL A   1      35.345  30.182  28.364  1.00  0.00     0.016 A 
ATOM     29  C   UNL A   1      36.217  32.478  28.375  1.00  0.00     0.016 A 
ATOM     30  C   UNL A   1      36.588  29.722  28.745  1.00  0.00     0.010 A 
ATOM     31  C   UNL A   1      37.468  32.012  28.720  1.00  0.00     0.010 A 
ATOM     32  C   UNL A   1      37.628  30.641  28.963  1.00  0.00    -0.014 A 
BRANCH  32  33
ATOM     33  C   UNL A   1      38.822  30.171  29.670  1.00  0.00     0.031 A 
ATOM     34  C   UNL A   1      39.009  30.633  31.080  1.00  0.00     0.074 A 
ATOM     35  C   UNL A   1      39.648  29.306  29.066  1.00  0.00     0.049 A 
ATOM     36  N   UNL A   1      39.906  30.272  31.955  1.00  0.00    -0.248 NA
ATOM     37  C   UNL A   1      38.055  31.644  31.572  1.00  0.00     0.031 C 
ATOM     38  C   UNL A   1      39.514  28.833  27.689  1.00  0.00     0.029 A 
ATOM     39  N   UNL A   1      40.750  28.662  29.546  1.00  0.00    -0.354 N 
ATOM     40  C   UNL A   1      39.622  31.009  33.096  1.00  0.00     0.074 A 
ATOM     41  C   UNL A   1      38.511  31.878  32.791  1.00  0.00     0.031 C 
ATOM     42  C   UNL A   1      40.496  27.951  27.438  1.00  0.00     0.029 A 
ATOM     43  C   UNL A   1      41.322  27.814  28.634  1.00  0.00     0.049 A 
ATOM     44  H   UNL A   1      41.099  28.792  30.457  1.00  0.00     0.167 HD
ATOM     45  C   UNL A   1      40.231  30.941  34.300  1.00  0.00     0.037 A 
ATOM     46  C   UNL A   1      42.393  27.014  28.774  1.00  0.00     0.037 A 
ATOM     47  C   UNL A   1      41.337  30.064  34.564  1.00  0.00     0.049 A 
ATOM     48  C   UNL A   1      43.054  26.952  30.123  1.00  0.00     0.074 A 
ATOM     49  C   UNL A   1      42.044  29.886  35.737  1.00  0.00     0.029 A 
ATOM     50  N   UNL A   1      41.901  29.217  33.616  1.00  0.00    -0.354 N 
ATOM     51  N   UNL A   1      42.759  27.612  31.220  1.00  0.00    -0.248 NA
ATOM     52  C   UNL A   1      44.175  26.020  30.265  1.00  0.00     0.031 C 
ATOM     53  C   UNL A   1      43.067  28.963  35.485  1.00  0.00     0.029 A 
ATOM     54  C   UNL A   1      42.960  28.523  34.173  1.00  0.00     0.049 A 
ATOM     55  H   UNL A   1      41.591  29.124  32.687  1.00  0.00     0.167 HD
ATOM     56  C   UNL A   1      43.641  27.160  32.190  1.00  0.00     0.074 A 
ATOM     57  C   UNL A   1      44.470  26.156  31.551  1.00  0.00     0.031 C 
ATOM     58  C   UNL A   1      43.758  27.533  33.490  1.00  0.00     0.037 A 
BRANCH  45  59
ATOM     59  C   UNL A   1      39.728  31.864  35.372  1.00  0.00     0.064 A 
ATOM     60  C   UNL A   1      38.718  31.480  36.270  1.00  0.00     0.173 A 
ATOM     61  C   UNL A   1      40.229  33.170  35.472  1.00  0.00     0.173 A 
ATOM     62  F   UNL A   1      38.183  30.251  36.199  1.00  0.00    -0.203 F 
ATOM     63  C   UNL A   1      38.200  32.382  37.197  1.00  0.00     0.198 A 
ATOM     64  C   UNL A   1      39.732  34.058  36.422  1.00  0.00     0.198 A 
ATOM     65  F   UNL A   1      41.187  33.593  34.634  1.00  0.00    -0.203 F 
ATOM     66  F   UNL A   1      37.186  32.015  37.992  1.00  0.00    -0.200 F 
ATOM     67  C   UNL A   1      38.710  33.669  37.275  1.00  0.00     0.200 A 
ATOM     68  F   UNL A   1      40.229  35.300  36.499  1.00  0.00    -0.200 F 
ATOM     69  F   UNL A   1      38.205  34.538  38.161  1.00  0.00    -0.200 F 
ENDBRANCH  45  59
BRANCH  46  70
ATOM     70  C   UNL A   1      42.850  26.198  27.623  1.00  0.00     0.064 A 
ATOM     71  C   UNL A   1      42.281  24.948  27.345  1.00  0.00     0.173 A 
ATOM     72  C   UNL A   1      43.830  26.679  26.742  1.00  0.00     0.173 A 
ATOM     73  F   UNL A   1      41.344  24.442  28.160  1.00  0.00    -0.203 F 
ATOM     74  C   UNL A   1      42.683  24.206  26.236  1.00  0.00     0.198 A 
ATOM     75  C   UNL A   1      44.213  25.948  25.621  1.00  0.00     0.198 A 
ATOM     76  F   UNL A   1      44.395  27.876  26.957  1.00  0.00    -0.203 F 
ATOM     77  F   UNL A   1      42.140  23.002  26.005  1.00  0.00    -0.200 F 
ATOM     78  C   UNL A   1      43.642  24.709  25.370  1.00  0.00     0.200 A 
ATOM     79  F   UNL A   1      45.125  26.448  24.776  1.00  0.00    -0.200 F 
ATOM     80  F   UNL A   1      44.015  24.003  24.295  1.00  0.00    -0.200 F 
ENDBRANCH  46  70
BRANCH  58  81
ATOM     81  C   UNL A   1      44.803  26.825  34.301  1.00  0.00     0.064 A 
ATOM     82  C   UNL A   1      44.524  25.628  34.974  1.00  0.00     0.173 A 
ATOM     83  C   UNL A   1      46.105  27.339  34.374  1.00  0.00     0.173 A 
ATOM     84  F   UNL A   1      43.289  25.106  34.942  1.00  0.00    -0.203 F 
ATOM     85  C   UNL A   1      45.507  24.987  35.722  1.00  0.00     0.198 A 
ATOM     86  C   UNL A   1      47.094  26.678  35.095  1.00  0.00     0.198 A 
ATOM     87  F   UNL A   1      46.422  28.476  33.737  1.00  0.00    -0.203 F 
ATOM     88  F   UNL A   1      45.206  23.875  36.406  1.00  0.00    -0.200 F 
ATOM     89  C   UNL A   1      46.791  25.509  35.778  1.00  0.00     0.200 A 
ATOM     90  F   UNL A   1      48.338  27.175  35.134  1.00  0.00    -0.200 F 
ATOM     91  F   UNL A   1      47.737  24.889  36.497  1.00  0.00    -0.200 F 
ENDBRANCH  58  81
ENDBRANCH  32  33
ENDBRANCH  25  27
ENDBRANCH  24  25
ENDBRANCH  23  24
ENDBRANCH  22  23
ENDBRANCH  21  22
ENDBRANCH   1  21
TORSDOF 19
ENDMDL
MODEL 3
REMARK VINA RESULT:     -10.2      1.713      3.139
REMARK SMILES C#CCN(CC(=O)OCCOCCOC(=O)c1ccc(-c2c3nc(c(-c4c(F)c(F)c(F)c(F)c4F)c4ccc([nH]4)c(-c4c(F)c(F)c(F)c(F)c4F)c4nc(c(-c5c(F)c(F)c(F)c(F)c5F)c5ccc2[nH]5)C=C4)C=C3)cc1)C(=O)c1c[nH]c(=O)[nH]1
REMARK SMILES IDX 10 1 9 2 8 3 6 4 7 5 5 6 4 7 3 8 2 9 1 10 80 11 81 12 82 13
REMARK SMILES IDX 83 14 87 15 84 16 85 17 86 20 11 21 12 22 13 23 14 24 15 25
REMARK SMILES IDX 16 26 17 27 18 28 79 29 19 30 78 31 20 32 21 33 22 34 72 35
REMARK SMILES IDX 23 36 77 37 71 38 73 39 24 40 76 41 70 42 69 43 25 45 57 46
REMARK SMILES IDX 37 47 56 48 38 49 41 50 55 51 74 52 39 53 40 54 54 56 75 57
REMARK SMILES IDX 42 58 26 59 27 60 35 61 28 62 29 63 33 64 36 65 30 66 31 67
REMARK SMILES IDX 34 68 32 69 58 70 59 71 67 72 60 73 61 74 65 75 68 76 62 77
REMARK SMILES IDX 63 78 66 79 64 80 43 81 44 82 52 83 45 84 46 85 50 86 53 87
REMARK SMILES IDX 47 88 48 89 51 90 49 91
REMARK H PARENT 87 18 84 19 73 44 41 55
REMARK Flexibility Score: inf
ROOT
ATOM      1  C   UNL A   1      32.706  28.299  24.046  1.00  0.00     0.202 C 
ENDROOT
BRANCH   1   2
ATOM      2  C   UNL A   1      32.834  27.063  24.945  1.00  0.00     0.261 C 
BRANCH   2   3
ATOM      3  O   UNL A   1      31.721  26.149  24.822  1.00  0.00    -0.462 OA
BRANCH   3   4
ATOM      4  C   UNL A   1      31.820  24.983  25.517  1.00  0.00     0.325 C 
ATOM      5  O   UNL A   1      30.853  24.315  25.869  1.00  0.00    -0.250 OA
BRANCH   4   6
ATOM      6  C   UNL A   1      33.265  24.472  25.705  1.00  0.00     0.243 C 
BRANCH   6   7
ATOM      7  N   UNL A   1      33.689  23.176  25.146  1.00  0.00    -0.315 N 
BRANCH   7   8
ATOM      8  C   UNL A   1      33.820  23.077  23.654  1.00  0.00     0.210 C 
BRANCH   8   9
ATOM      9  C   UNL A   1      35.323  23.010  23.431  1.00  0.00    -0.085 C 
ATOM     10  C   UNL A   1      36.610  22.954  23.240  1.00  0.00     0.006 C 
ENDBRANCH   8   9
ENDBRANCH   7   8
BRANCH   7  11
ATOM     11  C   UNL A   1      34.091  22.067  25.905  1.00  0.00     0.273 C 
ATOM     12  O   UNL A   1      34.650  22.196  26.996  1.00  0.00    -0.267 OA
BRANCH  11  13
ATOM     13  C   UNL A   1      33.828  20.667  25.425  1.00  0.00     0.125 A 
ATOM     14  C   UNL A   1      34.717  19.801  24.906  1.00  0.00     0.119 A 
ATOM     15  N   UNL A   1      32.670  19.962  25.684  1.00  0.00    -0.302 N 
ATOM     16  N   UNL A   1      34.134  18.570  24.774  1.00  0.00    -0.312 N 
ATOM     17  C   UNL A   1      32.845  18.620  25.303  1.00  0.00     0.323 A 
ATOM     18  H   UNL A   1      31.849  20.341  26.075  1.00  0.00     0.172 HD
ATOM     19  H   UNL A   1      34.556  17.776  24.371  1.00  0.00     0.171 HD
ATOM     20  O   UNL A   1      32.070  17.693  25.436  1.00  0.00    -0.248 OA
ENDBRANCH  11  13
ENDBRANCH   7  11
ENDBRANCH   6   7
ENDBRANCH   4   6
ENDBRANCH   3   4
ENDBRANCH   2   3
ENDBRANCH   1   2
BRANCH   1  21
ATOM     21  O   UNL A   1      31.868  29.347  24.512  1.00  0.00    -0.374 OA
BRANCH  21  22
ATOM     22  C   UNL A   1      31.662  29.528  25.911  1.00  0.00     0.202 C 
BRANCH  22  23
ATOM     23  C   UNL A   1      32.037  30.856  26.561  1.00  0.00     0.261 C 
BRANCH  23  24
ATOM     24  O   UNL A   1      33.399  30.994  26.848  1.00  0.00    -0.460 OA
BRANCH  24  25
ATOM     25  C   UNL A   1      33.722  32.050  27.609  1.00  0.00     0.338 C 
ATOM     26  O   UNL A   1      33.167  33.106  27.768  1.00  0.00    -0.246 OA
BRANCH  25  27
ATOM     27  C   UNL A   1      34.986  31.583  28.149  1.00  0.00     0.060 A 
ATOM     28  C   UNL A   1      35.163  30.213  28.308  1.00  0.00     0.016 A 
ATOM     29  C   UNL A   1      36.030  32.511  28.266  1.00  0.00     0.016 A 
ATOM     30  C   UNL A   1      36.410  29.763  28.691  1.00  0.00     0.010 A 
ATOM     31  C   UNL A   1      37.285  32.054  28.612  1.00  0.00     0.010 A 
ATOM     32  C   UNL A   1      37.449  30.689  28.882  1.00  0.00    -0.014 A 
BRANCH  32  33
ATOM     33  C   UNL A   1      38.649  30.236  29.591  1.00  0.00     0.031 A 
ATOM     34  C   UNL A   1      38.819  30.687  31.006  1.00  0.00     0.074 A 
ATOM     35  C   UNL A   1      39.495  29.394  28.983  1.00  0.00     0.049 A 
ATOM     36  N   UNL A   1      39.719  30.337  31.883  1.00  0.00    -0.248 NA
ATOM     37  C   UNL A   1      37.843  31.674  31.504  1.00  0.00     0.031 C 
ATOM     38  C   UNL A   1      39.378  28.932  27.601  1.00  0.00     0.029 A 
ATOM     39  N   UNL A   1      40.608  28.767  29.463  1.00  0.00    -0.354 N 
ATOM     40  C   UNL A   1      39.414  31.056  33.030  1.00  0.00     0.074 A 
ATOM     41  C   UNL A   1      38.287  31.906  32.727  1.00  0.00     0.031 C 
ATOM     42  C   UNL A   1      40.379  28.073  27.346  1.00  0.00     0.029 A 
ATOM     43  C   UNL A   1      41.202  27.941  28.545  1.00  0.00     0.049 A 
ATOM     44  H   UNL A   1      40.949  28.895  30.376  1.00  0.00     0.167 HD
ATOM     45  C   UNL A   1      40.019  30.989  34.236  1.00  0.00     0.037 A 
ATOM     46  C   UNL A   1      42.288  27.161  28.684  1.00  0.00     0.037 A 
ATOM     47  C   UNL A   1      41.141  30.132  34.497  1.00  0.00     0.049 A 
ATOM     48  C   UNL A   1      42.942  27.099  30.035  1.00  0.00     0.074 A 
ATOM     49  C   UNL A   1      41.846  29.956  35.672  1.00  0.00     0.029 A 
ATOM     50  N   UNL A   1      41.727  29.305  33.544  1.00  0.00    -0.354 N 
ATOM     51  N   UNL A   1      42.629  27.742  31.137  1.00  0.00    -0.248 NA
ATOM     52  C   UNL A   1      44.082  26.188  30.174  1.00  0.00     0.031 C 
ATOM     53  C   UNL A   1      42.888  29.057  35.416  1.00  0.00     0.029 A 
ATOM     54  C   UNL A   1      42.796  28.627  34.099  1.00  0.00     0.049 A 
ATOM     55  H   UNL A   1      41.423  29.215  32.612  1.00  0.00     0.167 HD
ATOM     56  C   UNL A   1      43.515  27.299  32.107  1.00  0.00     0.074 A 
ATOM     57  C   UNL A   1      44.367  26.317  31.463  1.00  0.00     0.031 C 
ATOM     58  C   UNL A   1      43.618  27.661  33.411  1.00  0.00     0.037 A 
BRANCH  45  59
ATOM     59  C   UNL A   1      39.492  31.890  35.314  1.00  0.00     0.064 A 
ATOM     60  C   UNL A   1      39.922  33.222  35.446  1.00  0.00     0.173 A 
ATOM     61  C   UNL A   1      38.580  31.401  36.262  1.00  0.00     0.173 A 
ATOM     62  F   UNL A   1      40.816  33.731  34.585  1.00  0.00    -0.203 F 
ATOM     63  C   UNL A   1      39.491  34.013  36.509  1.00  0.00     0.198 A 
ATOM     64  C   UNL A   1      38.127  32.206  37.303  1.00  0.00     0.198 A 
ATOM     65  F   UNL A   1      38.144  30.135  36.189  1.00  0.00    -0.203 F 
ATOM     66  F   UNL A   1      39.972  35.256  36.655  1.00  0.00    -0.200 F 
ATOM     67  C   UNL A   1      38.591  33.506  37.434  1.00  0.00     0.200 A 
ATOM     68  F   UNL A   1      37.254  31.716  38.193  1.00  0.00    -0.200 F 
ATOM     69  F   UNL A   1      38.184  34.266  38.460  1.00  0.00    -0.200 F 
ENDBRANCH  45  59
BRANCH  46  70
ATOM     70  C   UNL A   1      42.767  26.365  27.527  1.00  0.00     0.064 A 
ATOM     71  C   UNL A   1      43.768  26.850  26.674  1.00  0.00     0.173 A 
ATOM     72  C   UNL A   1      42.270  25.076  27.283  1.00  0.00     0.173 A 
ATOM     73  F   UNL A   1      44.270  28.079  26.862  1.00  0.00    -0.203 F 
ATOM     74  C   UNL A   1      44.245  26.079  25.616  1.00  0.00     0.198 A 
ATOM     75  C   UNL A   1      42.765  24.297  26.241  1.00  0.00     0.198 A 
ATOM     76  F   UNL A   1      41.322  24.561  28.080  1.00  0.00    -0.203 F 
ATOM     77  F   UNL A   1      45.186  26.575  24.800  1.00  0.00    -0.200 F 
ATOM     78  C   UNL A   1      43.750  24.801  25.404  1.00  0.00     0.200 A 
ATOM     79  F   UNL A   1      42.299  23.055  26.054  1.00  0.00    -0.200 F 
ATOM     80  F   UNL A   1      44.223  24.055  24.397  1.00  0.00    -0.200 F 
ENDBRANCH  46  70
BRANCH  58  81
ATOM     81  C   UNL A   1      44.673  26.966  34.221  1.00  0.00     0.064 A 
ATOM     82  C   UNL A   1      45.970  27.483  34.336  1.00  0.00     0.173 A 
ATOM     83  C   UNL A   1      44.366  25.787  34.913  1.00  0.00     0.173 A 
ATOM     84  F   UNL A   1      46.312  28.603  33.681  1.00  0.00    -0.203 F 
ATOM     85  C   UNL A   1      46.935  26.823  35.091  1.00  0.00     0.198 A 
ATOM     86  C   UNL A   1      45.322  25.147  35.694  1.00  0.00     0.198 A 
ATOM     87  F   UNL A   1      43.134  25.260  34.842  1.00  0.00    -0.203 F 
ATOM     88  F   UNL A   1      48.186  27.302  35.141  1.00  0.00    -0.200 F 
ATOM     89  C   UNL A   1      46.609  25.660  35.773  1.00  0.00     0.200 A 
ATOM     90  F   UNL A   1      45.002  24.033  36.365  1.00  0.00    -0.200 F 
ATOM     91  F   UNL A   1      47.539  25.027  36.501  1.00  0.00    -0.200 F 
ENDBRANCH  58  81
ENDBRANCH  32  33
ENDBRANCH  25  27
ENDBRANCH  24  25
ENDBRANCH  23  24
ENDBRANCH  22  23
ENDBRANCH  21  22
ENDBRANCH   1  21
TORSDOF 19
ENDMDL
