MODEL 1
REMARK VINA RESULT:     -10.7      0.000      0.000
REMARK SMILES CC(=O)N[C@@H](Cc1cc(Br)c(O)c(Br)c1)C(=O)OCCOCCOC(=O)c1ccc(-c2c3nc(c(-c4c(F)c(F)c(F)c(F)c4F)c4ccc([nH]4)c(-c4c(F)c(F)c(F)c(F)c4F)c4nc(c(-c5c(F)c(F)c(F)c(F)c5F)c5ccc2[nH]5)C=C4)C=C3)cc1
REMARK SMILES IDX 20 1 19 2 18 3 16 4 17 5 5 6 4 7 1 8 2 9 3 10 6 12 7 13 8 14
REMARK SMILES IDX 15 15 9 16 13 17 10 18 11 19 14 20 12 21 21 23 22 24 23 25
REMARK SMILES IDX 24 26 25 27 26 28 27 29 28 30 89 31 29 32 88 33 30 34 31 35
REMARK SMILES IDX 32 36 82 37 33 38 87 39 81 40 83 41 34 42 86 43 80 44 79 45
REMARK SMILES IDX 35 47 67 48 47 49 66 50 48 51 51 52 65 53 84 54 49 55 50 56
REMARK SMILES IDX 64 58 85 59 52 60 36 61 37 62 45 63 38 64 39 65 43 66 46 67
REMARK SMILES IDX 40 68 41 69 44 70 42 71 68 72 69 73 77 74 70 75 71 76 75 77
REMARK SMILES IDX 78 78 72 79 73 80 76 81 74 82 53 83 54 84 62 85 55 86 56 87
REMARK SMILES IDX 60 88 63 89 57 90 58 91 61 92 59 93
REMARK H PARENT 4 11 12 22 83 46 51 57
REMARK Flexibility Score: inf
ROOT
ATOM      1  C   UNL A   1      36.830  22.045  25.521  1.00  0.00     0.202 C 
ENDROOT
BRANCH   1   2
ATOM      2  C   UNL A   1      36.190  22.229  24.143  1.00  0.00     0.261 C 
BRANCH   2   3
ATOM      3  O   UNL A   1      34.768  22.407  24.222  1.00  0.00    -0.462 OA
BRANCH   3   4
ATOM      4  C   UNL A   1      34.303  23.631  23.845  1.00  0.00     0.329 C 
ATOM      5  O   UNL A   1      34.512  24.157  22.757  1.00  0.00    -0.250 OA
BRANCH   4   6
ATOM      6  C   UNL A   1      33.580  24.363  24.983  1.00  0.00     0.196 C 
BRANCH   6   7
ATOM      7  N   UNL A   1      33.322  23.544  26.174  1.00  0.00    -0.343 N 
ATOM      8  C   UNL A   1      30.966  24.217  26.478  1.00  0.00     0.114 C 
ATOM      9  C   UNL A   1      32.163  23.398  26.876  1.00  0.00     0.217 C 
ATOM     10  O   UNL A   1      32.114  22.590  27.802  1.00  0.00    -0.275 OA
ATOM     11  H   UNL A   1      34.090  23.030  26.513  1.00  0.00     0.164 HD
ENDBRANCH   6   7
BRANCH   6  12
ATOM     12  C   UNL A   1      34.364  25.643  25.334  1.00  0.00     0.072 C 
BRANCH  12  13
ATOM     13  C   UNL A   1      33.546  26.919  25.287  1.00  0.00    -0.043 A 
ATOM     14  C   UNL A   1      33.875  28.001  26.116  1.00  0.00     0.023 A 
ATOM     15  C   UNL A   1      32.463  27.052  24.404  1.00  0.00     0.023 A 
ATOM     16  C   UNL A   1      33.145  29.192  26.047  1.00  0.00     0.061 A 
ATOM     17  C   UNL A   1      31.754  28.253  24.317  1.00  0.00     0.061 A 
ATOM     18  Br  UNL A   1      33.617  30.618  27.204  1.00  0.00    -0.047 Br
ATOM     19  C   UNL A   1      32.091  29.328  25.141  1.00  0.00     0.143 A 
ATOM     20  Br  UNL A   1      30.353  28.377  23.045  1.00  0.00    -0.047 Br
BRANCH  19  21
ATOM     21  O   UNL A   1      31.380  30.497  25.049  1.00  0.00    -0.506 OA
ATOM     22  H   UNL A   1      31.478  31.156  25.707  1.00  0.00     0.293 HD
ENDBRANCH  19  21
ENDBRANCH  12  13
ENDBRANCH   6  12
ENDBRANCH   4   6
ENDBRANCH   3   4
ENDBRANCH   2   3
ENDBRANCH   1   2
BRANCH   1  23
ATOM     23  O   UNL A   1      38.051  22.741  25.749  1.00  0.00    -0.374 OA
BRANCH  23  24
ATOM     24  C   UNL A   1      39.143  22.013  26.312  1.00  0.00     0.202 C 
BRANCH  24  25
ATOM     25  C   UNL A   1      39.445  20.628  25.727  1.00  0.00     0.261 C 
BRANCH  25  26
ATOM     26  O   UNL A   1      40.296  19.831  26.575  1.00  0.00    -0.460 OA
BRANCH  26  27
ATOM     27  C   UNL A   1      41.567  19.685  26.132  1.00  0.00     0.338 C 
ATOM     28  O   UNL A   1      42.012  18.788  25.428  1.00  0.00    -0.246 OA
BRANCH  27  29
ATOM     29  C   UNL A   1      42.379  20.855  26.497  1.00  0.00     0.060 A 
ATOM     30  C   UNL A   1      42.438  21.227  27.846  1.00  0.00     0.016 A 
ATOM     31  C   UNL A   1      42.946  21.660  25.510  1.00  0.00     0.016 A 
ATOM     32  C   UNL A   1      43.030  22.437  28.210  1.00  0.00     0.010 A 
ATOM     33  C   UNL A   1      43.529  22.877  25.875  1.00  0.00     0.010 A 
ATOM     34  C   UNL A   1      43.543  23.286  27.221  1.00  0.00    -0.014 A 
BRANCH  34  35
ATOM     35  C   UNL A   1      43.980  24.661  27.561  1.00  0.00     0.031 A 
ATOM     36  C   UNL A   1      42.950  25.683  27.949  1.00  0.00     0.074 A 
ATOM     37  C   UNL A   1      45.279  25.000  27.501  1.00  0.00     0.049 A 
ATOM     38  N   UNL A   1      43.088  26.970  28.145  1.00  0.00    -0.248 NA
ATOM     39  C   UNL A   1      41.577  25.189  28.136  1.00  0.00     0.031 C 
ATOM     40  C   UNL A   1      46.372  24.085  27.184  1.00  0.00     0.029 A 
ATOM     41  N   UNL A   1      45.892  26.214  27.681  1.00  0.00    -0.354 N 
ATOM     42  C   UNL A   1      41.820  27.441  28.458  1.00  0.00     0.074 A 
ATOM     43  C   UNL A   1      40.923  26.306  28.417  1.00  0.00     0.031 C 
ATOM     44  C   UNL A   1      47.525  24.774  27.170  1.00  0.00     0.029 A 
ATOM     45  C   UNL A   1      47.242  26.185  27.432  1.00  0.00     0.049 A 
ATOM     46  H   UNL A   1      45.411  27.026  27.960  1.00  0.00     0.167 HD
ATOM     47  C   UNL A   1      41.442  28.708  28.751  1.00  0.00     0.037 A 
ATOM     48  C   UNL A   1      48.137  27.190  27.384  1.00  0.00     0.037 A 
ATOM     49  C   UNL A   1      42.338  29.834  28.793  1.00  0.00     0.049 A 
ATOM     50  C   UNL A   1      47.681  28.602  27.647  1.00  0.00     0.074 A 
ATOM     51  C   UNL A   1      42.052  31.155  29.086  1.00  0.00     0.029 A 
ATOM     52  N   UNL A   1      43.698  29.766  28.530  1.00  0.00    -0.354 N 
ATOM     53  N   UNL A   1      46.482  29.042  27.943  1.00  0.00    -0.248 NA
ATOM     54  C   UNL A   1      48.701  29.658  27.564  1.00  0.00     0.031 C 
ATOM     55  C   UNL A   1      43.233  31.895  28.960  1.00  0.00     0.029 A 
ATOM     56  C   UNL A   1      44.262  31.026  28.634  1.00  0.00     0.049 A 
ATOM     57  H   UNL A   1      44.189  28.944  28.302  1.00  0.00     0.167 HD
ATOM     58  C   UNL A   1      46.608  30.416  28.112  1.00  0.00     0.074 A 
ATOM     59  C   UNL A   1      48.002  30.739  27.886  1.00  0.00     0.031 C 
ATOM     60  C   UNL A   1      45.656  31.326  28.428  1.00  0.00     0.037 A 
BRANCH  47  61
ATOM     61  C   UNL A   1      39.987  28.954  29.017  1.00  0.00     0.064 A 
ATOM     62  C   UNL A   1      39.083  29.227  27.980  1.00  0.00     0.173 A 
ATOM     63  C   UNL A   1      39.483  28.876  30.325  1.00  0.00     0.173 A 
ATOM     64  F   UNL A   1      39.517  29.324  26.714  1.00  0.00    -0.203 F 
ATOM     65  C   UNL A   1      37.731  29.433  28.245  1.00  0.00     0.198 A 
ATOM     66  C   UNL A   1      38.127  29.058  30.583  1.00  0.00     0.198 A 
ATOM     67  F   UNL A   1      40.305  28.611  31.351  1.00  0.00    -0.203 F 
ATOM     68  F   UNL A   1      36.892  29.730  27.243  1.00  0.00    -0.200 F 
ATOM     69  C   UNL A   1      37.254  29.342  29.544  1.00  0.00     0.200 A 
ATOM     70  F   UNL A   1      37.666  28.958  31.837  1.00  0.00    -0.200 F 
ATOM     71  F   UNL A   1      35.952  29.534  29.796  1.00  0.00    -0.200 F 
ENDBRANCH  47  61
BRANCH  48  72
ATOM     72  C   UNL A   1      49.554  26.898  27.050  1.00  0.00     0.064 A 
ATOM     73  C   UNL A   1      49.984  26.838  25.718  1.00  0.00     0.173 A 
ATOM     74  C   UNL A   1      50.508  26.672  28.055  1.00  0.00     0.173 A 
ATOM     75  F   UNL A   1      49.102  27.022  24.723  1.00  0.00    -0.203 F 
ATOM     76  C   UNL A   1      51.309  26.550  25.401  1.00  0.00     0.198 A 
ATOM     77  C   UNL A   1      51.838  26.408  27.738  1.00  0.00     0.198 A 
ATOM     78  F   UNL A   1      50.148  26.713  29.347  1.00  0.00    -0.203 F 
ATOM     79  F   UNL A   1      51.683  26.455  24.118  1.00  0.00    -0.200 F 
ATOM     80  C   UNL A   1      52.236  26.341  26.412  1.00  0.00     0.200 A 
ATOM     81  F   UNL A   1      52.731  26.213  28.718  1.00  0.00    -0.200 F 
ATOM     82  F   UNL A   1      53.511  26.062  26.106  1.00  0.00    -0.200 F 
ENDBRANCH  48  72
BRANCH  60  83
ATOM     83  C   UNL A   1      46.086  32.752  28.602  1.00  0.00     0.064 A 
ATOM     84  C   UNL A   1      46.035  33.671  27.544  1.00  0.00     0.173 A 
ATOM     85  C   UNL A   1      46.483  33.220  29.864  1.00  0.00     0.173 A 
ATOM     86  F   UNL A   1      45.676  33.268  26.317  1.00  0.00    -0.203 F 
ATOM     87  C   UNL A   1      46.378  35.007  27.743  1.00  0.00     0.198 A 
ATOM     88  C   UNL A   1      46.801  34.560  30.064  1.00  0.00     0.198 A 
ATOM     89  F   UNL A   1      46.540  32.381  30.909  1.00  0.00    -0.203 F 
ATOM     90  F   UNL A   1      46.349  35.863  26.712  1.00  0.00    -0.200 F 
ATOM     91  C   UNL A   1      46.751  35.451  29.003  1.00  0.00     0.200 A 
ATOM     92  F   UNL A   1      47.149  34.991  31.283  1.00  0.00    -0.200 F 
ATOM     93  F   UNL A   1      47.065  36.740  29.193  1.00  0.00    -0.200 F 
ENDBRANCH  60  83
ENDBRANCH  34  35
ENDBRANCH  27  29
ENDBRANCH  26  27
ENDBRANCH  25  26
ENDBRANCH  24  25
ENDBRANCH  23  24
ENDBRANCH   1  23
TORSDOF 18
ENDMDL
MODEL 2
REMARK VINA RESULT:     -10.7      0.641      1.992
REMARK SMILES CC(=O)N[C@@H](Cc1cc(Br)c(O)c(Br)c1)C(=O)OCCOCCOC(=O)c1ccc(-c2c3nc(c(-c4c(F)c(F)c(F)c(F)c4F)c4ccc([nH]4)c(-c4c(F)c(F)c(F)c(F)c4F)c4nc(c(-c5c(F)c(F)c(F)c(F)c5F)c5ccc2[nH]5)C=C4)C=C3)cc1
REMARK SMILES IDX 20 1 19 2 18 3 16 4 17 5 5 6 4 7 1 8 2 9 3 10 6 12 7 13 8 14
REMARK SMILES IDX 15 15 9 16 13 17 10 18 11 19 14 20 12 21 21 23 22 24 23 25
REMARK SMILES IDX 24 26 25 27 26 28 27 29 28 30 89 31 29 32 88 33 30 34 31 35
REMARK SMILES IDX 32 36 82 37 33 38 87 39 81 40 83 41 34 42 86 43 80 44 79 45
REMARK SMILES IDX 35 47 67 48 47 49 66 50 48 51 51 52 65 53 84 54 49 55 50 56
REMARK SMILES IDX 64 58 85 59 52 60 36 61 37 62 45 63 38 64 39 65 43 66 46 67
REMARK SMILES IDX 40 68 41 69 44 70 42 71 68 72 69 73 77 74 70 75 71 76 75 77
REMARK SMILES IDX 78 78 72 79 73 80 76 81 74 82 53 83 54 84 62 85 55 86 56 87
REMARK SMILES IDX 60 88 63 89 57 90 58 91 61 92 59 93
REMARK H PARENT 4 11 12 22 83 46 51 57
REMARK Flexibility Score: inf
ROOT
ATOM      1  C   UNL A   1      36.617  22.117  25.699  1.00  0.00     0.202 C 
ENDROOT
BRANCH   1   2
ATOM      2  C   UNL A   1      35.978  21.999  24.313  1.00  0.00     0.261 C 
BRANCH   2   3
ATOM      3  O   UNL A   1      34.566  22.255  24.340  1.00  0.00    -0.462 OA
BRANCH   3   4
ATOM      4  C   UNL A   1      34.170  23.439  23.794  1.00  0.00     0.329 C 
ATOM      5  O   UNL A   1      34.452  23.821  22.663  1.00  0.00    -0.250 OA
BRANCH   4   6
ATOM      6  C   UNL A   1      33.421  24.328  24.796  1.00  0.00     0.196 C 
BRANCH   6   7
ATOM      7  N   UNL A   1      33.026  23.655  26.040  1.00  0.00    -0.343 N 
ATOM      8  C   UNL A   1      30.720  24.531  26.120  1.00  0.00     0.114 C 
ATOM      9  C   UNL A   1      31.820  23.668  26.673  1.00  0.00     0.217 C 
ATOM     10  O   UNL A   1      31.650  22.964  27.666  1.00  0.00    -0.275 OA
ATOM     11  H   UNL A   1      33.729  23.121  26.477  1.00  0.00     0.164 HD
ENDBRANCH   6   7
BRANCH   6  12
ATOM     12  C   UNL A   1      34.264  25.589  25.076  1.00  0.00     0.072 C 
BRANCH  12  13
ATOM     13  C   UNL A   1      33.496  26.894  24.993  1.00  0.00    -0.043 A 
ATOM     14  C   UNL A   1      32.491  27.064  24.030  1.00  0.00     0.023 A 
ATOM     15  C   UNL A   1      33.759  27.946  25.885  1.00  0.00     0.023 A 
ATOM     16  C   UNL A   1      31.757  28.253  23.976  1.00  0.00     0.061 A 
ATOM     17  C   UNL A   1      33.004  29.121  25.847  1.00  0.00     0.061 A 
ATOM     18  Br  UNL A   1      30.424  28.441  22.642  1.00  0.00    -0.047 Br
ATOM     19  C   UNL A   1      32.002  29.281  24.890  1.00  0.00     0.143 A 
ATOM     20  Br  UNL A   1      33.371  30.463  27.137  1.00  0.00    -0.047 Br
BRANCH  19  21
ATOM     21  O   UNL A   1      31.275  30.443  24.861  1.00  0.00    -0.506 OA
ATOM     22  H   UNL A   1      30.393  30.452  25.176  1.00  0.00     0.293 HD
ENDBRANCH  19  21
ENDBRANCH  12  13
ENDBRANCH   6  12
ENDBRANCH   4   6
ENDBRANCH   3   4
ENDBRANCH   2   3
ENDBRANCH   1   2
BRANCH   1  23
ATOM     23  O   UNL A   1      37.828  22.861  25.775  1.00  0.00    -0.374 OA
BRANCH  23  24
ATOM     24  C   UNL A   1      39.010  22.178  26.195  1.00  0.00     0.202 C 
BRANCH  24  25
ATOM     25  C   UNL A   1      39.253  20.773  25.628  1.00  0.00     0.261 C 
BRANCH  25  26
ATOM     26  O   UNL A   1      40.055  19.947  26.495  1.00  0.00    -0.460 OA
BRANCH  26  27
ATOM     27  C   UNL A   1      41.345  19.800  26.109  1.00  0.00     0.338 C 
ATOM     28  O   UNL A   1      41.815  18.924  25.396  1.00  0.00    -0.246 OA
BRANCH  27  29
ATOM     29  C   UNL A   1      42.150  20.947  26.555  1.00  0.00     0.060 A 
ATOM     30  C   UNL A   1      42.220  21.215  27.928  1.00  0.00     0.016 A 
ATOM     31  C   UNL A   1      42.699  21.832  25.627  1.00  0.00     0.016 A 
ATOM     32  C   UNL A   1      42.804  22.399  28.378  1.00  0.00     0.010 A 
ATOM     33  C   UNL A   1      43.275  23.022  26.079  1.00  0.00     0.010 A 
ATOM     34  C   UNL A   1      43.299  23.327  27.452  1.00  0.00    -0.014 A 
BRANCH  34  35
ATOM     35  C   UNL A   1      43.727  24.676  27.893  1.00  0.00     0.031 A 
ATOM     36  C   UNL A   1      42.684  25.704  28.228  1.00  0.00     0.074 A 
ATOM     37  C   UNL A   1      45.031  24.988  27.970  1.00  0.00     0.049 A 
ATOM     38  N   UNL A   1      42.825  26.977  28.493  1.00  0.00    -0.248 NA
ATOM     39  C   UNL A   1      41.290  25.232  28.264  1.00  0.00     0.031 C 
ATOM     40  C   UNL A   1      46.133  24.064  27.716  1.00  0.00     0.029 A 
ATOM     41  N   UNL A   1      45.647  26.180  28.260  1.00  0.00    -0.354 N 
ATOM     42  C   UNL A   1      41.542  27.463  28.708  1.00  0.00     0.074 A 
ATOM     43  C   UNL A   1      40.633  26.351  28.533  1.00  0.00     0.031 C 
ATOM     44  C   UNL A   1      47.294  24.727  27.841  1.00  0.00     0.029 A 
ATOM     45  C   UNL A   1      47.014  26.131  28.138  1.00  0.00     0.049 A 
ATOM     46  H   UNL A   1      45.157  26.990  28.530  1.00  0.00     0.167 HD
ATOM     47  C   UNL A   1      41.161  28.724  29.020  1.00  0.00     0.037 A 
ATOM     48  C   UNL A   1      47.927  27.117  28.219  1.00  0.00     0.037 A 
ATOM     49  C   UNL A   1      42.070  29.827  29.196  1.00  0.00     0.049 A 
ATOM     50  C   UNL A   1      47.474  28.527  28.501  1.00  0.00     0.074 A 
ATOM     51  C   UNL A   1      41.782  31.140  29.520  1.00  0.00     0.029 A 
ATOM     52  N   UNL A   1      43.447  29.740  29.059  1.00  0.00    -0.354 N 
ATOM     53  N   UNL A   1      46.261  28.980  28.703  1.00  0.00    -0.248 NA
ATOM     54  C   UNL A   1      48.517  29.562  28.561  1.00  0.00     0.031 C 
ATOM     55  C   UNL A   1      42.982  31.859  29.538  1.00  0.00     0.029 A 
ATOM     56  C   UNL A   1      44.022  30.982  29.271  1.00  0.00     0.049 A 
ATOM     57  H   UNL A   1      43.943  28.918  28.841  1.00  0.00     0.167 HD
ATOM     58  C   UNL A   1      46.395  30.342  28.944  1.00  0.00     0.074 A 
ATOM     59  C   UNL A   1      47.810  30.643  28.864  1.00  0.00     0.031 C 
ATOM     60  C   UNL A   1      45.434  31.259  29.210  1.00  0.00     0.037 A 
BRANCH  47  61
ATOM     61  C   UNL A   1      39.692  28.991  29.160  1.00  0.00     0.064 A 
ATOM     62  C   UNL A   1      39.048  28.929  30.403  1.00  0.00     0.173 A 
ATOM     63  C   UNL A   1      38.928  29.350  28.038  1.00  0.00     0.173 A 
ATOM     64  F   UNL A   1      39.731  28.578  31.502  1.00  0.00    -0.203 F 
ATOM     65  C   UNL A   1      37.685  29.199  30.516  1.00  0.00     0.198 A 
ATOM     66  C   UNL A   1      37.572  29.643  28.160  1.00  0.00     0.198 A 
ATOM     67  F   UNL A   1      39.499  29.429  26.827  1.00  0.00    -0.203 F 
ATOM     68  F   UNL A   1      37.081  29.098  31.708  1.00  0.00    -0.200 F 
ATOM     69  C   UNL A   1      36.951  29.562  29.397  1.00  0.00     0.200 A 
ATOM     70  F   UNL A   1      36.867  30.005  27.080  1.00  0.00    -0.200 F 
ATOM     71  F   UNL A   1      35.643  29.828  29.509  1.00  0.00    -0.200 F 
ENDBRANCH  47  61
BRANCH  48  72
ATOM     72  C   UNL A   1      49.364  26.808  28.006  1.00  0.00     0.064 A 
ATOM     73  C   UNL A   1      49.908  26.760  26.715  1.00  0.00     0.173 A 
ATOM     74  C   UNL A   1      50.222  26.553  29.087  1.00  0.00     0.173 A 
ATOM     75  F   UNL A   1      49.120  26.971  25.650  1.00  0.00    -0.203 F 
ATOM     76  C   UNL A   1      51.252  26.456  26.512  1.00  0.00     0.198 A 
ATOM     77  C   UNL A   1      51.571  26.273  28.884  1.00  0.00     0.198 A 
ATOM     78  F   UNL A   1      49.750  26.582  30.343  1.00  0.00    -0.203 F 
ATOM     79  F   UNL A   1      51.736  26.373  25.266  1.00  0.00    -0.200 F 
ATOM     80  C   UNL A   1      52.084  26.219  27.597  1.00  0.00     0.200 A 
ATOM     81  F   UNL A   1      52.372  26.051  29.935  1.00  0.00    -0.200 F 
ATOM     82  F   UNL A   1      53.376  25.925  27.400  1.00  0.00    -0.200 F 
ENDBRANCH  48  72
BRANCH  60  83
ATOM     83  C   UNL A   1      45.872  32.666  29.487  1.00  0.00     0.064 A 
ATOM     84  C   UNL A   1      46.230  33.086  30.776  1.00  0.00     0.173 A 
ATOM     85  C   UNL A   1      46.003  33.584  28.433  1.00  0.00     0.173 A 
ATOM     86  F   UNL A   1      46.108  32.250  31.816  1.00  0.00    -0.203 F 
ATOM     87  C   UNL A   1      46.696  34.380  31.000  1.00  0.00     0.198 A 
ATOM     88  C   UNL A   1      46.491  34.868  28.658  1.00  0.00     0.198 A 
ATOM     89  F   UNL A   1      45.679  33.227  27.182  1.00  0.00    -0.203 F 
ATOM     90  F   UNL A   1      47.007  34.770  32.244  1.00  0.00    -0.200 F 
ATOM     91  C   UNL A   1      46.834  35.265  29.941  1.00  0.00     0.200 A 
ATOM     92  F   UNL A   1      46.636  35.718  27.633  1.00  0.00    -0.200 F 
ATOM     93  F   UNL A   1      47.296  36.505  30.159  1.00  0.00    -0.200 F 
ENDBRANCH  60  83
ENDBRANCH  34  35
ENDBRANCH  27  29
ENDBRANCH  26  27
ENDBRANCH  25  26
ENDBRANCH  24  25
ENDBRANCH  23  24
ENDBRANCH   1  23
TORSDOF 18
ENDMDL
MODEL 3
REMARK VINA RESULT:     -10.4      1.635      7.428
REMARK SMILES CC(=O)N[C@@H](Cc1cc(Br)c(O)c(Br)c1)C(=O)OCCOCCOC(=O)c1ccc(-c2c3nc(c(-c4c(F)c(F)c(F)c(F)c4F)c4ccc([nH]4)c(-c4c(F)c(F)c(F)c(F)c4F)c4nc(c(-c5c(F)c(F)c(F)c(F)c5F)c5ccc2[nH]5)C=C4)C=C3)cc1
REMARK SMILES IDX 20 1 19 2 18 3 16 4 17 5 5 6 4 7 1 8 2 9 3 10 6 12 7 13 8 14
REMARK SMILES IDX 15 15 9 16 13 17 10 18 11 19 14 20 12 21 21 23 22 24 23 25
REMARK SMILES IDX 24 26 25 27 26 28 27 29 28 30 89 31 29 32 88 33 30 34 31 35
REMARK SMILES IDX 32 36 82 37 33 38 87 39 81 40 83 41 34 42 86 43 80 44 79 45
REMARK SMILES IDX 35 47 67 48 47 49 66 50 48 51 51 52 65 53 84 54 49 55 50 56
REMARK SMILES IDX 64 58 85 59 52 60 36 61 37 62 45 63 38 64 39 65 43 66 46 67
REMARK SMILES IDX 40 68 41 69 44 70 42 71 68 72 69 73 77 74 70 75 71 76 75 77
REMARK SMILES IDX 78 78 72 79 73 80 76 81 74 82 53 83 54 84 62 85 55 86 56 87
REMARK SMILES IDX 60 88 63 89 57 90 58 91 61 92 59 93
REMARK H PARENT 4 11 12 22 83 46 51 57
REMARK Flexibility Score: inf
ROOT
ATOM      1  C   UNL A   1      35.308  19.820  24.998  1.00  0.00     0.202 C 
ENDROOT
BRANCH   1   2
ATOM      2  C   UNL A   1      35.291  21.348  24.906  1.00  0.00     0.261 C 
BRANCH   2   3
ATOM      3  O   UNL A   1      34.079  21.845  24.319  1.00  0.00    -0.462 OA
BRANCH   3   4
ATOM      4  C   UNL A   1      34.167  23.070  23.729  1.00  0.00     0.329 C 
ATOM      5  O   UNL A   1      34.815  23.317  22.718  1.00  0.00    -0.250 OA
BRANCH   4   6
ATOM      6  C   UNL A   1      33.463  24.167  24.538  1.00  0.00     0.196 C 
BRANCH   6   7
ATOM      7  N   UNL A   1      33.160  23.805  25.929  1.00  0.00    -0.343 N 
ATOM      8  C   UNL A   1      30.713  23.625  25.651  1.00  0.00     0.114 C 
ATOM      9  C   UNL A   1      31.955  23.509  26.493  1.00  0.00     0.217 C 
ATOM     10  O   UNL A   1      31.909  23.138  27.664  1.00  0.00    -0.275 OA
ATOM     11  H   UNL A   1      33.932  23.772  26.539  1.00  0.00     0.164 HD
ENDBRANCH   6   7
BRANCH   6  12
ATOM     12  C   UNL A   1      34.294  25.463  24.457  1.00  0.00     0.072 C 
BRANCH  12  13
ATOM     13  C   UNL A   1      33.492  26.740  24.619  1.00  0.00    -0.043 A 
ATOM     14  C   UNL A   1      33.813  27.653  25.632  1.00  0.00     0.023 A 
ATOM     15  C   UNL A   1      32.432  27.043  23.750  1.00  0.00     0.023 A 
ATOM     16  C   UNL A   1      33.099  28.849  25.760  1.00  0.00     0.061 A 
ATOM     17  C   UNL A   1      31.739  28.252  23.861  1.00  0.00     0.061 A 
ATOM     18  Br  UNL A   1      33.559  30.040  27.161  1.00  0.00    -0.047 Br
ATOM     19  C   UNL A   1      32.068  29.159  24.869  1.00  0.00     0.143 A 
ATOM     20  Br  UNL A   1      30.371  28.620  22.600  1.00  0.00    -0.047 Br
BRANCH  19  21
ATOM     21  O   UNL A   1      31.374  30.337  24.970  1.00  0.00    -0.506 OA
ATOM     22  H   UNL A   1      30.644  30.401  25.554  1.00  0.00     0.293 HD
ENDBRANCH  19  21
ENDBRANCH  12  13
ENDBRANCH   6  12
ENDBRANCH   4   6
ENDBRANCH   3   4
ENDBRANCH   2   3
ENDBRANCH   1   2
BRANCH   1  23
ATOM     23  O   UNL A   1      36.544  19.183  24.695  1.00  0.00    -0.374 OA
BRANCH  23  24
ATOM     24  C   UNL A   1      37.732  19.977  24.717  1.00  0.00     0.202 C 
BRANCH  24  25
ATOM     25  C   UNL A   1      38.976  19.368  25.375  1.00  0.00     0.261 C 
BRANCH  25  26
ATOM     26  O   UNL A   1      39.310  19.989  26.632  1.00  0.00    -0.460 OA
BRANCH  26  27
ATOM     27  C   UNL A   1      40.621  20.287  26.791  1.00  0.00     0.338 C 
ATOM     28  O   UNL A   1      41.583  19.575  26.534  1.00  0.00    -0.246 OA
BRANCH  27  29
ATOM     29  C   UNL A   1      40.787  21.687  27.206  1.00  0.00     0.060 A 
ATOM     30  C   UNL A   1      40.058  22.672  26.526  1.00  0.00     0.016 A 
ATOM     31  C   UNL A   1      41.757  22.040  28.143  1.00  0.00     0.016 A 
ATOM     32  C   UNL A   1      40.330  24.021  26.750  1.00  0.00     0.010 A 
ATOM     33  C   UNL A   1      42.037  23.392  28.359  1.00  0.00     0.010 A 
ATOM     34  C   UNL A   1      41.349  24.387  27.639  1.00  0.00    -0.014 A 
BRANCH  34  35
ATOM     35  C   UNL A   1      41.797  25.797  27.732  1.00  0.00     0.031 A 
ATOM     36  C   UNL A   1      43.141  26.178  27.178  1.00  0.00     0.074 A 
ATOM     37  C   UNL A   1      41.025  26.721  28.327  1.00  0.00     0.049 A 
ATOM     38  N   UNL A   1      43.791  27.309  27.277  1.00  0.00    -0.248 NA
ATOM     39  C   UNL A   1      43.850  25.140  26.414  1.00  0.00     0.031 C 
ATOM     40  C   UNL A   1      39.686  26.482  28.858  1.00  0.00     0.029 A 
ATOM     41  N   UNL A   1      41.270  28.043  28.603  1.00  0.00    -0.354 N 
ATOM     42  C   UNL A   1      44.991  27.114  26.606  1.00  0.00     0.074 A 
ATOM     43  C   UNL A   1      44.985  25.754  26.112  1.00  0.00     0.031 C 
ATOM     44  C   UNL A   1      39.232  27.616  29.419  1.00  0.00     0.029 A 
ATOM     45  C   UNL A   1      40.268  28.644  29.324  1.00  0.00     0.049 A 
ATOM     46  H   UNL A   1      42.085  28.514  28.314  1.00  0.00     0.167 HD
ATOM     47  C   UNL A   1      46.004  27.993  26.423  1.00  0.00     0.037 A 
ATOM     48  C   UNL A   1      40.212  29.871  29.875  1.00  0.00     0.037 A 
ATOM     49  C   UNL A   1      46.005  29.346  26.914  1.00  0.00     0.049 A 
ATOM     50  C   UNL A   1      41.380  30.810  29.716  1.00  0.00     0.074 A 
ATOM     51  C   UNL A   1      46.981  30.316  26.774  1.00  0.00     0.029 A 
ATOM     52  N   UNL A   1      44.973  29.918  27.644  1.00  0.00    -0.354 N 
ATOM     53  N   UNL A   1      42.511  30.621  29.081  1.00  0.00    -0.248 NA
ATOM     54  C   UNL A   1      41.267  32.130  30.355  1.00  0.00     0.031 C 
ATOM     55  C   UNL A   1      46.559  31.462  27.455  1.00  0.00     0.029 A 
ATOM     56  C   UNL A   1      45.299  31.221  27.979  1.00  0.00     0.049 A 
ATOM     57  H   UNL A   1      44.135  29.464  27.888  1.00  0.00     0.167 HD
ATOM     58  C   UNL A   1      43.229  31.803  29.215  1.00  0.00     0.074 A 
ATOM     59  C   UNL A   1      42.406  32.706  29.993  1.00  0.00     0.031 C 
ATOM     60  C   UNL A   1      44.457  32.113  28.735  1.00  0.00     0.037 A 
BRANCH  47  61
ATOM     61  C   UNL A   1      47.217  27.509  25.686  1.00  0.00     0.064 A 
ATOM     62  C   UNL A   1      47.352  27.675  24.300  1.00  0.00     0.173 A 
ATOM     63  C   UNL A   1      48.276  26.906  26.383  1.00  0.00     0.173 A 
ATOM     64  F   UNL A   1      46.363  28.233  23.587  1.00  0.00    -0.203 F 
ATOM     65  C   UNL A   1      48.495  27.236  23.635  1.00  0.00     0.198 A 
ATOM     66  C   UNL A   1      49.427  26.491  25.718  1.00  0.00     0.198 A 
ATOM     67  F   UNL A   1      48.199  26.730  27.710  1.00  0.00    -0.203 F 
ATOM     68  F   UNL A   1      48.587  27.370  22.305  1.00  0.00    -0.200 F 
ATOM     69  C   UNL A   1      49.533  26.651  24.345  1.00  0.00     0.200 A 
ATOM     70  F   UNL A   1      50.434  25.937  26.407  1.00  0.00    -0.200 F 
ATOM     71  F   UNL A   1      50.634  26.236  23.704  1.00  0.00    -0.200 F 
ENDBRANCH  47  61
BRANCH  48  72
ATOM     72  C   UNL A   1      39.012  30.275  30.652  1.00  0.00     0.064 A 
ATOM     73  C   UNL A   1      38.950  30.076  32.038  1.00  0.00     0.173 A 
ATOM     74  C   UNL A   1      37.904  30.867  30.026  1.00  0.00     0.173 A 
ATOM     75  F   UNL A   1      39.974  29.489  32.675  1.00  0.00    -0.203 F 
ATOM     76  C   UNL A   1      37.820  30.440  32.766  1.00  0.00     0.198 A 
ATOM     77  C   UNL A   1      36.785  31.254  30.760  1.00  0.00     0.198 A 
ATOM     78  F   UNL A   1      37.912  31.076  28.701  1.00  0.00    -0.203 F 
ATOM     79  F   UNL A   1      37.768  30.197  34.083  1.00  0.00    -0.200 F 
ATOM     80  C   UNL A   1      36.741  31.034  32.128  1.00  0.00     0.200 A 
ATOM     81  F   UNL A   1      35.748  31.833  30.139  1.00  0.00    -0.200 F 
ATOM     82  F   UNL A   1      35.654  31.383  32.829  1.00  0.00    -0.200 F 
ENDBRANCH  48  72
BRANCH  60  83
ATOM     83  C   UNL A   1      44.974  33.498  28.987  1.00  0.00     0.064 A 
ATOM     84  C   UNL A   1      44.677  34.564  28.125  1.00  0.00     0.173 A 
ATOM     85  C   UNL A   1      45.716  33.775  30.146  1.00  0.00     0.173 A 
ATOM     86  F   UNL A   1      43.984  34.346  26.998  1.00  0.00    -0.203 F 
ATOM     87  C   UNL A   1      45.113  35.856  28.411  1.00  0.00     0.198 A 
ATOM     88  C   UNL A   1      46.128  35.071  30.441  1.00  0.00     0.198 A 
ATOM     89  F   UNL A   1      46.019  32.790  31.005  1.00  0.00    -0.203 F 
ATOM     90  F   UNL A   1      44.841  36.855  27.560  1.00  0.00    -0.200 F 
ATOM     91  C   UNL A   1      45.829  36.109  29.571  1.00  0.00     0.200 A 
ATOM     92  F   UNL A   1      46.809  35.317  31.567  1.00  0.00    -0.200 F 
ATOM     93  F   UNL A   1      46.234  37.356  29.851  1.00  0.00    -0.200 F 
ENDBRANCH  60  83
ENDBRANCH  34  35
ENDBRANCH  27  29
ENDBRANCH  26  27
ENDBRANCH  25  26
ENDBRANCH  24  25
ENDBRANCH  23  24
ENDBRANCH   1  23
TORSDOF 18
ENDMDL
