MODEL 1
REMARK VINA RESULT:     -12.2      0.000      0.000
REMARK SMILES C[C@@H](Oc1ccc(-c2ccccc2)cc1)C(=O)N1CCC[C@H](C(=O)OCCOCCOC(=O)c2ccc(-c3c4nc(c(-c5c(F)c(F)c(F)c(F)c5F)c5ccc([nH]5)c(-c5c(F)c(F)c(F)c(F)c5F)c5nc(c(-c6c(F)c(F)c(F)c(F)c6F)c6ccc3[nH]6)C=C5)C=C4)cc2)C1
REMARK SMILES IDX 26 1 25 2 23 3 24 4 22 5 18 6 19 7 97 8 20 9 21 10 16 11
REMARK SMILES IDX 17 12 2 13 1 14 3 15 4 16 5 17 15 18 6 19 14 20 7 21 8 22
REMARK SMILES IDX 9 23 13 24 10 25 12 26 11 27 27 28 28 29 29 30 30 31 31 32
REMARK SMILES IDX 32 33 33 34 34 35 35 36 96 37 36 38 95 39 37 40 38 41 39 42
REMARK SMILES IDX 89 43 40 44 94 45 88 46 90 47 41 48 93 49 87 50 86 51 42 53
REMARK SMILES IDX 74 54 54 55 73 56 55 57 58 58 72 59 91 60 56 61 57 62 71 64
REMARK SMILES IDX 92 65 59 66 43 67 44 68 52 69 45 70 46 71 50 72 53 73 47 74
REMARK SMILES IDX 48 75 51 76 49 77 75 78 76 79 84 80 77 81 78 82 82 83 85 84
REMARK SMILES IDX 79 85 80 86 83 87 81 88 60 89 61 90 69 91 62 92 63 93 67 94
REMARK SMILES IDX 70 95 64 96 65 97 68 98 66 99
REMARK H PARENT 90 52 58 63
REMARK Flexibility Score: inf
ROOT
ATOM      1  C   UNL A   1      34.020  26.614  26.097  1.00  0.00     0.261 C 
ENDROOT
BRANCH   1   2
ATOM      2  O   UNL A   1      34.058  25.264  25.596  1.00  0.00    -0.463 OA
BRANCH   2   3
ATOM      3  C   UNL A   1      33.557  24.289  26.393  1.00  0.00     0.310 C 
ATOM      4  O   UNL A   1      32.478  24.341  26.968  1.00  0.00    -0.252 OA
BRANCH   3   5
ATOM      5  C   UNL A   1      34.509  23.115  26.555  1.00  0.00     0.119 C 
ATOM      6  N   UNL A   1      34.399  22.263  24.259  1.00  0.00    -0.339 N 
ATOM      7  C   UNL A   1      33.915  20.947  24.660  1.00  0.00     0.119 C 
ATOM      8  C   UNL A   1      35.263  22.918  25.243  1.00  0.00     0.134 C 
ATOM      9  C   UNL A   1      33.138  21.014  25.969  1.00  0.00     0.022 C 
ATOM     10  C   UNL A   1      33.894  21.796  27.048  1.00  0.00     0.019 C 
BRANCH   6  11
ATOM     11  C   UNL A   1      33.967  22.815  23.058  1.00  0.00     0.263 C 
ATOM     12  O   UNL A   1      34.766  23.320  22.261  1.00  0.00    -0.271 OA
BRANCH  11  13
ATOM     13  C   UNL A   1      32.462  22.811  22.712  1.00  0.00     0.259 C 
ATOM     14  C   UNL A   1      31.980  21.426  22.288  1.00  0.00     0.064 C 
BRANCH  13  15
ATOM     15  O   UNL A   1      31.765  23.315  23.857  1.00  0.00    -0.481 OA
BRANCH  15  16
ATOM     16  C   UNL A   1      31.304  24.585  23.708  1.00  0.00     0.120 A 
ATOM     17  C   UNL A   1      30.325  25.066  24.571  1.00  0.00     0.047 A 
ATOM     18  C   UNL A   1      31.682  25.310  22.585  1.00  0.00     0.047 A 
ATOM     19  C   UNL A   1      29.715  26.295  24.303  1.00  0.00     0.012 A 
ATOM     20  C   UNL A   1      31.078  26.537  22.325  1.00  0.00     0.012 A 
ATOM     21  C   UNL A   1      30.068  27.041  23.164  1.00  0.00    -0.018 A 
BRANCH  21  22
ATOM     22  C   UNL A   1      29.369  28.287  22.812  1.00  0.00    -0.018 A 
ATOM     23  C   UNL A   1      28.051  28.535  23.224  1.00  0.00     0.009 A 
ATOM     24  C   UNL A   1      30.022  29.276  22.054  1.00  0.00     0.009 A 
ATOM     25  C   UNL A   1      27.415  29.737  22.902  1.00  0.00     0.001 A 
ATOM     26  C   UNL A   1      29.389  30.478  21.733  1.00  0.00     0.001 A 
ATOM     27  C   UNL A   1      28.085  30.709  22.162  1.00  0.00     0.000 A 
ENDBRANCH  21  22
ENDBRANCH  15  16
ENDBRANCH  13  15
ENDBRANCH  11  13
ENDBRANCH   6  11
ENDBRANCH   3   5
ENDBRANCH   2   3
ENDBRANCH   1   2
BRANCH   1  28
ATOM     28  C   UNL A   1      33.145  27.489  25.198  1.00  0.00     0.202 C 
BRANCH  28  29
ATOM     29  O   UNL A   1      32.278  28.399  25.879  1.00  0.00    -0.374 OA
BRANCH  29  30
ATOM     30  C   UNL A   1      31.998  29.639  25.235  1.00  0.00     0.202 C 
BRANCH  30  31
ATOM     31  C   UNL A   1      31.729  30.831  26.162  1.00  0.00     0.261 C 
BRANCH  31  32
ATOM     32  O   UNL A   1      32.540  30.805  27.350  1.00  0.00    -0.460 OA
BRANCH  32  33
ATOM     33  C   UNL A   1      33.319  31.900  27.514  1.00  0.00     0.338 C 
ATOM     34  O   UNL A   1      32.960  33.071  27.517  1.00  0.00    -0.246 OA
BRANCH  33  35
ATOM     35  C   UNL A   1      34.707  31.522  27.841  1.00  0.00     0.060 A 
ATOM     36  C   UNL A   1      34.940  30.178  28.152  1.00  0.00     0.016 A 
ATOM     37  C   UNL A   1      35.733  32.464  27.959  1.00  0.00     0.016 A 
ATOM     38  C   UNL A   1      36.180  29.781  28.643  1.00  0.00     0.010 A 
ATOM     39  C   UNL A   1      36.982  32.061  28.454  1.00  0.00     0.010 A 
ATOM     40  C   UNL A   1      37.197  30.726  28.838  1.00  0.00    -0.014 A 
BRANCH  40  41
ATOM     41  C   UNL A   1      38.423  30.305  29.562  1.00  0.00     0.031 A 
ATOM     42  C   UNL A   1      38.645  30.764  30.978  1.00  0.00     0.074 A 
ATOM     43  C   UNL A   1      39.287  29.445  28.994  1.00  0.00     0.049 A 
ATOM     44  N   UNL A   1      39.584  30.424  31.826  1.00  0.00    -0.248 NA
ATOM     45  C   UNL A   1      37.675  31.732  31.514  1.00  0.00     0.031 C 
ATOM     46  C   UNL A   1      39.177  28.913  27.637  1.00  0.00     0.029 A 
ATOM     47  N   UNL A   1      40.419  28.854  29.499  1.00  0.00    -0.354 N 
ATOM     48  C   UNL A   1      39.316  31.127  32.992  1.00  0.00     0.074 A 
ATOM     49  C   UNL A   1      38.148  31.943  32.733  1.00  0.00     0.031 C 
ATOM     50  C   UNL A   1      40.196  28.064  27.419  1.00  0.00     0.029 A 
ATOM     51  C   UNL A   1      41.034  28.002  28.615  1.00  0.00     0.049 A 
ATOM     52  H   UNL A   1      40.757  29.024  30.408  1.00  0.00     0.167 HD
ATOM     53  C   UNL A   1      39.972  31.085  34.178  1.00  0.00     0.037 A 
ATOM     54  C   UNL A   1      42.147  27.256  28.758  1.00  0.00     0.037 A 
ATOM     55  C   UNL A   1      41.134  30.276  34.439  1.00  0.00     0.049 A 
ATOM     56  C   UNL A   1      42.877  27.253  30.074  1.00  0.00     0.074 A 
ATOM     57  C   UNL A   1      41.857  30.156  35.613  1.00  0.00     0.029 A 
ATOM     58  N   UNL A   1      41.747  29.451  33.507  1.00  0.00    -0.354 N 
ATOM     59  N   UNL A   1      42.590  27.890  31.184  1.00  0.00    -0.248 NA
ATOM     60  C   UNL A   1      44.082  26.414  30.159  1.00  0.00     0.031 C 
ATOM     61  C   UNL A   1      42.933  29.292  35.380  1.00  0.00     0.029 A 
ATOM     62  C   UNL A   1      42.851  28.834  34.076  1.00  0.00     0.049 A 
ATOM     63  H   UNL A   1      41.442  29.321  32.580  1.00  0.00     0.167 HD
ATOM     64  C   UNL A   1      43.560  27.511  32.104  1.00  0.00     0.074 A 
ATOM     65  C   UNL A   1      44.432  26.574  31.428  1.00  0.00     0.031 C 
ATOM     66  C   UNL A   1      43.712  27.902  33.393  1.00  0.00     0.037 A 
BRANCH  53  67
ATOM     67  C   UNL A   1      39.454  31.956  35.285  1.00  0.00     0.064 A 
ATOM     68  C   UNL A   1      38.559  31.466  36.248  1.00  0.00     0.173 A 
ATOM     69  C   UNL A   1      39.888  33.284  35.408  1.00  0.00     0.173 A 
ATOM     70  F   UNL A   1      38.103  30.206  36.167  1.00  0.00    -0.203 F 
ATOM     71  C   UNL A   1      38.099  32.281  37.279  1.00  0.00     0.198 A 
ATOM     72  C   UNL A   1      39.448  34.088  36.456  1.00  0.00     0.198 A 
ATOM     73  F   UNL A   1      40.748  33.800  34.517  1.00  0.00    -0.203 F 
ATOM     74  F   UNL A   1      37.212  31.804  38.164  1.00  0.00    -0.200 F 
ATOM     75  C   UNL A   1      38.549  33.588  37.386  1.00  0.00     0.200 A 
ATOM     76  F   UNL A   1      39.892  35.347  36.565  1.00  0.00    -0.200 F 
ATOM     77  F   UNL A   1      38.111  34.369  38.384  1.00  0.00    -0.200 F 
ENDBRANCH  53  67
BRANCH  54  78
ATOM     78  C   UNL A   1      42.631  26.430  27.622  1.00  0.00     0.064 A 
ATOM     79  C   UNL A   1      43.601  26.914  26.734  1.00  0.00     0.173 A 
ATOM     80  C   UNL A   1      42.117  25.145  27.391  1.00  0.00     0.173 A 
ATOM     81  F   UNL A   1      44.102  28.148  26.897  1.00  0.00    -0.203 F 
ATOM     82  C   UNL A   1      44.029  26.152  25.650  1.00  0.00     0.198 A 
ATOM     83  C   UNL A   1      42.564  24.373  26.323  1.00  0.00     0.198 A 
ATOM     84  F   UNL A   1      41.182  24.641  28.209  1.00  0.00    -0.203 F 
ATOM     85  F   UNL A   1      44.923  26.657  24.789  1.00  0.00    -0.200 F 
ATOM     86  C   UNL A   1      43.513  24.879  25.447  1.00  0.00     0.200 A 
ATOM     87  F   UNL A   1      42.069  23.142  26.135  1.00  0.00    -0.200 F 
ATOM     88  F   UNL A   1      43.924  24.147  24.404  1.00  0.00    -0.200 F 
ENDBRANCH  54  78
BRANCH  66  89
ATOM     89  C   UNL A   1      44.850  27.297  34.163  1.00  0.00     0.064 A 
ATOM     90  C   UNL A   1      44.683  26.137  34.934  1.00  0.00     0.173 A 
ATOM     91  C   UNL A   1      46.127  27.878  34.121  1.00  0.00     0.173 A 
ATOM     92  F   UNL A   1      43.480  25.549  35.019  1.00  0.00    -0.203 F 
ATOM     93  C   UNL A   1      45.744  25.602  35.663  1.00  0.00     0.198 A 
ATOM     94  C   UNL A   1      47.191  27.325  34.827  1.00  0.00     0.198 A 
ATOM     95  F   UNL A   1      46.343  28.984  33.392  1.00  0.00    -0.203 F 
ATOM     96  F   UNL A   1      45.546  24.527  36.438  1.00  0.00    -0.200 F 
ATOM     97  C   UNL A   1      46.997  26.194  35.606  1.00  0.00     0.200 A 
ATOM     98  F   UNL A   1      48.405  27.891  34.760  1.00  0.00    -0.200 F 
ATOM     99  F   UNL A   1      48.014  25.680  36.310  1.00  0.00    -0.200 F 
ENDBRANCH  66  89
ENDBRANCH  40  41
ENDBRANCH  33  35
ENDBRANCH  32  33
ENDBRANCH  31  32
ENDBRANCH  30  31
ENDBRANCH  29  30
ENDBRANCH  28  29
ENDBRANCH   1  28
TORSDOF 19
ENDMDL
MODEL 2
REMARK VINA RESULT:     -12.1      1.501      4.523
REMARK SMILES C[C@@H](Oc1ccc(-c2ccccc2)cc1)C(=O)N1CCC[C@H](C(=O)OCCOCCOC(=O)c2ccc(-c3c4nc(c(-c5c(F)c(F)c(F)c(F)c5F)c5ccc([nH]5)c(-c5c(F)c(F)c(F)c(F)c5F)c5nc(c(-c6c(F)c(F)c(F)c(F)c6F)c6ccc3[nH]6)C=C5)C=C4)cc2)C1
REMARK SMILES IDX 26 1 25 2 23 3 24 4 22 5 18 6 19 7 97 8 20 9 21 10 16 11
REMARK SMILES IDX 17 12 2 13 1 14 3 15 4 16 5 17 15 18 6 19 14 20 7 21 8 22
REMARK SMILES IDX 9 23 13 24 10 25 12 26 11 27 27 28 28 29 29 30 30 31 31 32
REMARK SMILES IDX 32 33 33 34 34 35 35 36 96 37 36 38 95 39 37 40 38 41 39 42
REMARK SMILES IDX 89 43 40 44 94 45 88 46 90 47 41 48 93 49 87 50 86 51 42 53
REMARK SMILES IDX 74 54 54 55 73 56 55 57 58 58 72 59 91 60 56 61 57 62 71 64
REMARK SMILES IDX 92 65 59 66 43 67 44 68 52 69 45 70 46 71 50 72 53 73 47 74
REMARK SMILES IDX 48 75 51 76 49 77 75 78 76 79 84 80 77 81 78 82 82 83 85 84
REMARK SMILES IDX 79 85 80 86 83 87 81 88 60 89 61 90 69 91 62 92 63 93 67 94
REMARK SMILES IDX 70 95 64 96 65 97 68 98 66 99
REMARK H PARENT 90 52 58 63
REMARK Flexibility Score: inf
ROOT
ATOM      1  C   UNL A   1      33.156  29.701  25.270  1.00  0.00     0.261 C 
ENDROOT
BRANCH   1   2
ATOM      2  O   UNL A   1      32.039  29.274  24.466  1.00  0.00    -0.463 OA
BRANCH   2   3
ATOM      3  C   UNL A   1      32.311  28.544  23.358  1.00  0.00     0.310 C 
ATOM      4  O   UNL A   1      33.422  28.417  22.859  1.00  0.00    -0.252 OA
BRANCH   3   5
ATOM      5  C   UNL A   1      31.066  27.927  22.741  1.00  0.00     0.119 C 
ATOM      6  N   UNL A   1      30.772  26.085  24.331  1.00  0.00    -0.339 N 
ATOM      7  C   UNL A   1      30.870  25.048  23.310  1.00  0.00     0.119 C 
ATOM      8  C   UNL A   1      30.205  27.350  23.860  1.00  0.00     0.134 C 
ATOM      9  C   UNL A   1      31.714  25.509  22.128  1.00  0.00     0.022 C 
ATOM     10  C   UNL A   1      31.295  26.894  21.625  1.00  0.00     0.019 C 
BRANCH   6  11
ATOM     11  C   UNL A   1      31.270  25.839  25.607  1.00  0.00     0.263 C 
ATOM     12  O   UNL A   1      30.633  26.160  26.616  1.00  0.00    -0.271 OA
BRANCH  11  13
ATOM     13  C   UNL A   1      32.648  25.161  25.771  1.00  0.00     0.259 C 
ATOM     14  C   UNL A   1      33.753  26.177  26.049  1.00  0.00     0.064 C 
BRANCH  13  15
ATOM     15  O   UNL A   1      32.516  24.186  26.811  1.00  0.00    -0.481 OA
BRANCH  15  16
ATOM     16  C   UNL A   1      32.724  22.907  26.399  1.00  0.00     0.120 A 
ATOM     17  C   UNL A   1      34.003  22.364  26.464  1.00  0.00     0.047 A 
ATOM     18  C   UNL A   1      31.698  22.235  25.747  1.00  0.00     0.047 A 
ATOM     19  C   UNL A   1      34.256  21.126  25.866  1.00  0.00     0.012 A 
ATOM     20  C   UNL A   1      31.951  20.999  25.159  1.00  0.00     0.012 A 
ATOM     21  C   UNL A   1      33.239  20.433  25.187  1.00  0.00    -0.018 A 
BRANCH  21  22
ATOM     22  C   UNL A   1      33.508  19.178  24.468  1.00  0.00    -0.018 A 
ATOM     23  C   UNL A   1      34.623  18.381  24.768  1.00  0.00     0.009 A 
ATOM     24  C   UNL A   1      32.634  18.738  23.456  1.00  0.00     0.009 A 
ATOM     25  C   UNL A   1      34.847  17.178  24.092  1.00  0.00     0.001 A 
ATOM     26  C   UNL A   1      32.855  17.536  22.781  1.00  0.00     0.001 A 
ATOM     27  C   UNL A   1      33.960  16.755  23.103  1.00  0.00     0.000 A 
ENDBRANCH  21  22
ENDBRANCH  15  16
ENDBRANCH  13  15
ENDBRANCH  11  13
ENDBRANCH   6  11
ENDBRANCH   3   5
ENDBRANCH   2   3
ENDBRANCH   1   2
BRANCH   1  28
ATOM     28  C   UNL A   1      32.794  29.639  26.756  1.00  0.00     0.202 C 
BRANCH  28  29
ATOM     29  O   UNL A   1      31.704  30.472  27.159  1.00  0.00    -0.374 OA
BRANCH  29  30
ATOM     30  C   UNL A   1      31.442  31.629  26.369  1.00  0.00     0.202 C 
BRANCH  30  31
ATOM     31  C   UNL A   1      31.905  32.965  26.962  1.00  0.00     0.261 C 
BRANCH  31  32
ATOM     32  O   UNL A   1      32.832  32.800  28.050  1.00  0.00    -0.460 OA
BRANCH  32  33
ATOM     33  C   UNL A   1      33.875  33.662  28.025  1.00  0.00     0.338 C 
ATOM     34  O   UNL A   1      33.828  34.878  27.887  1.00  0.00    -0.246 OA
BRANCH  33  35
ATOM     35  C   UNL A   1      35.143  32.973  28.332  1.00  0.00     0.060 A 
ATOM     36  C   UNL A   1      35.050  31.664  28.818  1.00  0.00     0.016 A 
ATOM     37  C   UNL A   1      36.382  33.616  28.263  1.00  0.00     0.016 A 
ATOM     38  C   UNL A   1      36.185  31.016  29.296  1.00  0.00     0.010 A 
ATOM     39  C   UNL A   1      37.524  32.961  28.747  1.00  0.00     0.010 A 
ATOM     40  C   UNL A   1      37.423  31.675  29.305  1.00  0.00    -0.014 A 
BRANCH  40  41
ATOM     41  C   UNL A   1      38.557  31.036  30.017  1.00  0.00     0.031 A 
ATOM     42  C   UNL A   1      38.779  31.332  31.476  1.00  0.00     0.074 A 
ATOM     43  C   UNL A   1      39.329  30.128  29.394  1.00  0.00     0.049 A 
ATOM     44  N   UNL A   1      39.635  30.799  32.313  1.00  0.00    -0.248 NA
ATOM     45  C   UNL A   1      37.917  32.363  32.076  1.00  0.00     0.031 C 
ATOM     46  C   UNL A   1      39.206  29.741  27.990  1.00  0.00     0.029 A 
ATOM     47  N   UNL A   1      40.358  29.354  29.871  1.00  0.00    -0.354 N 
ATOM     48  C   UNL A   1      39.411  31.421  33.533  1.00  0.00     0.074 A 
ATOM     49  C   UNL A   1      38.366  32.400  33.322  1.00  0.00     0.031 C 
ATOM     50  C   UNL A   1      40.119  28.792  27.720  1.00  0.00     0.029 A 
ATOM     51  C   UNL A   1      40.896  28.514  28.927  1.00  0.00     0.049 A 
ATOM     52  H   UNL A   1      40.679  29.396  30.801  1.00  0.00     0.167 HD
ATOM     53  C   UNL A   1      40.010  31.188  34.727  1.00  0.00     0.037 A 
ATOM     54  C   UNL A   1      41.900  27.623  29.027  1.00  0.00     0.037 A 
ATOM     55  C   UNL A   1      41.051  30.217  34.941  1.00  0.00     0.049 A 
ATOM     56  C   UNL A   1      42.572  27.407  30.357  1.00  0.00     0.074 A 
ATOM     57  C   UNL A   1      41.708  29.898  36.118  1.00  0.00     0.029 A 
ATOM     58  N   UNL A   1      41.592  29.408  33.952  1.00  0.00    -0.354 N 
ATOM     59  N   UNL A   1      42.324  27.971  31.514  1.00  0.00    -0.248 NA
ATOM     60  C   UNL A   1      43.659  26.416  30.395  1.00  0.00     0.031 C 
ATOM     61  C   UNL A   1      42.675  28.929  35.833  1.00  0.00     0.029 A 
ATOM     62  C   UNL A   1      42.588  28.606  34.489  1.00  0.00     0.049 A 
ATOM     63  H   UNL A   1      41.310  29.404  33.009  1.00  0.00     0.167 HD
ATOM     64  C   UNL A   1      43.202  27.388  32.419  1.00  0.00     0.074 A 
ATOM     65  C   UNL A   1      43.977  26.413  31.682  1.00  0.00     0.031 C 
ATOM     66  C   UNL A   1      43.352  27.638  33.744  1.00  0.00     0.037 A 
BRANCH  53  67
ATOM     67  C   UNL A   1      39.562  32.013  35.898  1.00  0.00     0.064 A 
ATOM     68  C   UNL A   1      38.494  31.611  36.714  1.00  0.00     0.173 A 
ATOM     69  C   UNL A   1      40.233  33.199  36.231  1.00  0.00     0.173 A 
ATOM     70  F   UNL A   1      37.811  30.491  36.430  1.00  0.00    -0.203 F 
ATOM     71  C   UNL A   1      38.100  32.379  37.808  1.00  0.00     0.198 A 
ATOM     72  C   UNL A   1      39.853  33.950  37.340  1.00  0.00     0.198 A 
ATOM     73  F   UNL A   1      41.264  33.625  35.487  1.00  0.00    -0.203 F 
ATOM     74  F   UNL A   1      37.050  31.997  38.549  1.00  0.00    -0.200 F 
ATOM     75  C   UNL A   1      38.784  33.543  38.123  1.00  0.00     0.200 A 
ATOM     76  F   UNL A   1      40.522  35.069  37.651  1.00  0.00    -0.200 F 
ATOM     77  F   UNL A   1      38.407  34.277  39.179  1.00  0.00    -0.200 F 
ENDBRANCH  53  67
BRANCH  54  78
ATOM     78  C   UNL A   1      42.322  26.848  27.832  1.00  0.00     0.064 A 
ATOM     79  C   UNL A   1      41.795  25.576  27.569  1.00  0.00     0.173 A 
ATOM     80  C   UNL A   1      43.275  27.359  26.938  1.00  0.00     0.173 A 
ATOM     81  F   UNL A   1      40.902  25.035  28.410  1.00  0.00    -0.203 F 
ATOM     82  C   UNL A   1      42.217  24.837  26.467  1.00  0.00     0.198 A 
ATOM     83  C   UNL A   1      43.676  26.630  25.822  1.00  0.00     0.198 A 
ATOM     84  F   UNL A   1      43.812  28.568  27.151  1.00  0.00    -0.203 F 
ATOM     85  F   UNL A   1      41.733  23.604  26.264  1.00  0.00    -0.200 F 
ATOM     86  C   UNL A   1      43.154  25.367  25.590  1.00  0.00     0.200 A 
ATOM     87  F   UNL A   1      44.576  27.148  24.975  1.00  0.00    -0.200 F 
ATOM     88  F   UNL A   1      43.560  24.655  24.531  1.00  0.00    -0.200 F 
ENDBRANCH  54  78
BRANCH  66  89
ATOM     89  C   UNL A   1      44.375  26.824  34.483  1.00  0.00     0.064 A 
ATOM     90  C   UNL A   1      45.697  27.266  34.638  1.00  0.00     0.173 A 
ATOM     91  C   UNL A   1      44.024  25.590  35.054  1.00  0.00     0.173 A 
ATOM     92  F   UNL A   1      46.087  28.432  34.100  1.00  0.00    -0.203 F 
ATOM     93  C   UNL A   1      46.640  26.487  35.306  1.00  0.00     0.198 A 
ATOM     94  C   UNL A   1      44.961  24.828  35.745  1.00  0.00     0.198 A 
ATOM     95  F   UNL A   1      42.771  25.125  34.942  1.00  0.00    -0.203 F 
ATOM     96  F   UNL A   1      47.910  26.903  35.391  1.00  0.00    -0.200 F 
ATOM     97  C   UNL A   1      46.270  25.270  35.861  1.00  0.00     0.200 A 
ATOM     98  F   UNL A   1      44.599  23.659  36.293  1.00  0.00    -0.200 F 
ATOM     99  F   UNL A   1      47.179  24.521  36.501  1.00  0.00    -0.200 F 
ENDBRANCH  66  89
ENDBRANCH  40  41
ENDBRANCH  33  35
ENDBRANCH  32  33
ENDBRANCH  31  32
ENDBRANCH  30  31
ENDBRANCH  29  30
ENDBRANCH  28  29
ENDBRANCH   1  28
TORSDOF 19
ENDMDL
MODEL 3
REMARK VINA RESULT:     -11.7      1.518      4.397
REMARK SMILES C[C@@H](Oc1ccc(-c2ccccc2)cc1)C(=O)N1CCC[C@H](C(=O)OCCOCCOC(=O)c2ccc(-c3c4nc(c(-c5c(F)c(F)c(F)c(F)c5F)c5ccc([nH]5)c(-c5c(F)c(F)c(F)c(F)c5F)c5nc(c(-c6c(F)c(F)c(F)c(F)c6F)c6ccc3[nH]6)C=C5)C=C4)cc2)C1
REMARK SMILES IDX 26 1 25 2 23 3 24 4 22 5 18 6 19 7 97 8 20 9 21 10 16 11
REMARK SMILES IDX 17 12 2 13 1 14 3 15 4 16 5 17 15 18 6 19 14 20 7 21 8 22
REMARK SMILES IDX 9 23 13 24 10 25 12 26 11 27 27 28 28 29 29 30 30 31 31 32
REMARK SMILES IDX 32 33 33 34 34 35 35 36 96 37 36 38 95 39 37 40 38 41 39 42
REMARK SMILES IDX 89 43 40 44 94 45 88 46 90 47 41 48 93 49 87 50 86 51 42 53
REMARK SMILES IDX 74 54 54 55 73 56 55 57 58 58 72 59 91 60 56 61 57 62 71 64
REMARK SMILES IDX 92 65 59 66 43 67 44 68 52 69 45 70 46 71 50 72 53 73 47 74
REMARK SMILES IDX 48 75 51 76 49 77 75 78 76 79 84 80 77 81 78 82 82 83 85 84
REMARK SMILES IDX 79 85 80 86 83 87 81 88 60 89 61 90 69 91 62 92 63 93 67 94
REMARK SMILES IDX 70 95 64 96 65 97 68 98 66 99
REMARK H PARENT 90 52 58 63
REMARK Flexibility Score: inf
ROOT
ATOM      1  C   UNL A   1      33.138  29.703  25.096  1.00  0.00     0.261 C 
ENDROOT
BRANCH   1   2
ATOM      2  O   UNL A   1      32.293  28.747  24.428  1.00  0.00    -0.463 OA
BRANCH   2   3
ATOM      3  C   UNL A   1      32.900  27.772  23.710  1.00  0.00     0.310 C 
ATOM      4  O   UNL A   1      34.028  27.346  23.922  1.00  0.00    -0.252 OA
BRANCH   3   5
ATOM      5  C   UNL A   1      32.051  27.282  22.548  1.00  0.00     0.119 C 
ATOM      6  N   UNL A   1      30.469  25.918  23.831  1.00  0.00    -0.339 N 
ATOM      7  C   UNL A   1      30.797  24.684  23.123  1.00  0.00     0.119 C 
ATOM      8  C   UNL A   1      30.611  27.135  23.030  1.00  0.00     0.134 C 
ATOM      9  C   UNL A   1      32.224  24.711  22.589  1.00  0.00     0.022 C 
ATOM     10  C   UNL A   1      32.533  26.008  21.835  1.00  0.00     0.019 C 
BRANCH   6  11
ATOM     11  C   UNL A   1      30.133  25.863  25.180  1.00  0.00     0.263 C 
ATOM     12  O   UNL A   1      28.953  25.808  25.544  1.00  0.00    -0.271 OA
BRANCH  11  13
ATOM     13  C   UNL A   1      31.249  25.882  26.247  1.00  0.00     0.259 C 
ATOM     14  C   UNL A   1      31.038  26.993  27.272  1.00  0.00     0.064 C 
BRANCH  13  15
ATOM     15  O   UNL A   1      31.287  24.580  26.840  1.00  0.00    -0.481 OA
BRANCH  15  16
ATOM     16  C   UNL A   1      32.479  23.940  26.693  1.00  0.00     0.120 A 
ATOM     17  C   UNL A   1      33.531  24.588  26.055  1.00  0.00     0.047 A 
ATOM     18  C   UNL A   1      32.562  22.592  27.014  1.00  0.00     0.047 A 
ATOM     19  C   UNL A   1      34.686  23.870  25.732  1.00  0.00     0.012 A 
ATOM     20  C   UNL A   1      33.717  21.882  26.699  1.00  0.00     0.012 A 
ATOM     21  C   UNL A   1      34.789  22.500  26.032  1.00  0.00    -0.018 A 
BRANCH  21  22
ATOM     22  C   UNL A   1      35.955  21.706  25.614  1.00  0.00    -0.018 A 
ATOM     23  C   UNL A   1      37.265  22.187  25.758  1.00  0.00     0.009 A 
ATOM     24  C   UNL A   1      35.779  20.423  25.064  1.00  0.00     0.009 A 
ATOM     25  C   UNL A   1      38.361  21.405  25.380  1.00  0.00     0.001 A 
ATOM     26  C   UNL A   1      36.871  19.640  24.687  1.00  0.00     0.001 A 
ATOM     27  C   UNL A   1      38.163  20.131  24.850  1.00  0.00     0.000 A 
ENDBRANCH  21  22
ENDBRANCH  15  16
ENDBRANCH  13  15
ENDBRANCH  11  13
ENDBRANCH   6  11
ENDBRANCH   3   5
ENDBRANCH   2   3
ENDBRANCH   1   2
BRANCH   1  28
ATOM     28  C   UNL A   1      32.726  29.841  26.563  1.00  0.00     0.202 C 
BRANCH  28  29
ATOM     29  O   UNL A   1      31.482  30.507  26.793  1.00  0.00    -0.374 OA
BRANCH  29  30
ATOM     30  C   UNL A   1      31.283  31.759  26.142  1.00  0.00     0.202 C 
BRANCH  30  31
ATOM     31  C   UNL A   1      31.840  32.989  26.867  1.00  0.00     0.261 C 
BRANCH  31  32
ATOM     32  O   UNL A   1      32.802  32.648  27.882  1.00  0.00    -0.460 OA
BRANCH  32  33
ATOM     33  C   UNL A   1      33.814  33.539  28.008  1.00  0.00     0.338 C 
ATOM     34  O   UNL A   1      33.731  34.761  27.994  1.00  0.00    -0.246 OA
BRANCH  33  35
ATOM     35  C   UNL A   1      35.087  32.860  28.316  1.00  0.00     0.060 A 
ATOM     36  C   UNL A   1      35.004  31.545  28.787  1.00  0.00     0.016 A 
ATOM     37  C   UNL A   1      36.319  33.516  28.262  1.00  0.00     0.016 A 
ATOM     38  C   UNL A   1      36.142  30.903  29.266  1.00  0.00     0.010 A 
ATOM     39  C   UNL A   1      37.465  32.867  28.746  1.00  0.00     0.010 A 
ATOM     40  C   UNL A   1      37.373  31.574  29.289  1.00  0.00    -0.014 A 
BRANCH  40  41
ATOM     41  C   UNL A   1      38.510  30.939  30.003  1.00  0.00     0.031 A 
ATOM     42  C   UNL A   1      38.738  31.246  31.458  1.00  0.00     0.074 A 
ATOM     43  C   UNL A   1      39.277  30.024  29.384  1.00  0.00     0.049 A 
ATOM     44  N   UNL A   1      39.597  30.719  32.296  1.00  0.00    -0.248 NA
ATOM     45  C   UNL A   1      37.881  32.284  32.053  1.00  0.00     0.031 C 
ATOM     46  C   UNL A   1      39.148  29.626  27.984  1.00  0.00     0.029 A 
ATOM     47  N   UNL A   1      40.307  29.252  29.863  1.00  0.00    -0.354 N 
ATOM     48  C   UNL A   1      39.379  31.352  33.512  1.00  0.00     0.074 A 
ATOM     49  C   UNL A   1      38.334  32.331  33.297  1.00  0.00     0.031 C 
ATOM     50  C   UNL A   1      40.057  28.673  27.717  1.00  0.00     0.029 A 
ATOM     51  C   UNL A   1      40.839  28.404  28.923  1.00  0.00     0.049 A 
ATOM     52  H   UNL A   1      40.632  29.302  30.791  1.00  0.00     0.167 HD
ATOM     53  C   UNL A   1      39.982  31.127  34.705  1.00  0.00     0.037 A 
ATOM     54  C   UNL A   1      41.842  27.512  29.027  1.00  0.00     0.037 A 
ATOM     55  C   UNL A   1      41.022  30.156  34.923  1.00  0.00     0.049 A 
ATOM     56  C   UNL A   1      42.520  27.305  30.355  1.00  0.00     0.074 A 
ATOM     57  C   UNL A   1      41.683  29.846  36.099  1.00  0.00     0.029 A 
ATOM     58  N   UNL A   1      41.558  29.338  33.938  1.00  0.00    -0.354 N 
ATOM     59  N   UNL A   1      42.277  27.879  31.509  1.00  0.00    -0.248 NA
ATOM     60  C   UNL A   1      43.604  26.313  30.397  1.00  0.00     0.031 C 
ATOM     61  C   UNL A   1      42.648  28.872  35.818  1.00  0.00     0.029 A 
ATOM     62  C   UNL A   1      42.555  28.539  34.477  1.00  0.00     0.049 A 
ATOM     63  H   UNL A   1      41.272  29.327  32.996  1.00  0.00     0.167 HD
ATOM     64  C   UNL A   1      43.158  27.303  32.415  1.00  0.00     0.074 A 
ATOM     65  C   UNL A   1      43.928  26.320  31.683  1.00  0.00     0.031 C 
ATOM     66  C   UNL A   1      43.314  27.563  33.737  1.00  0.00     0.037 A 
BRANCH  53  67
ATOM     67  C   UNL A   1      39.541  31.963  35.870  1.00  0.00     0.064 A 
ATOM     68  C   UNL A   1      40.182  33.169  36.194  1.00  0.00     0.173 A 
ATOM     69  C   UNL A   1      38.440  31.575  36.648  1.00  0.00     0.173 A 
ATOM     70  F   UNL A   1      41.248  33.578  35.489  1.00  0.00    -0.203 F 
ATOM     71  C   UNL A   1      39.751  33.943  37.269  1.00  0.00     0.198 A 
ATOM     72  C   UNL A   1      37.995  32.365  37.705  1.00  0.00     0.198 A 
ATOM     73  F   UNL A   1      37.789  30.434  36.378  1.00  0.00    -0.203 F 
ATOM     74  F   UNL A   1      40.403  35.070  37.586  1.00  0.00    -0.200 F 
ATOM     75  C   UNL A   1      38.655  33.544  38.018  1.00  0.00     0.200 A 
ATOM     76  F   UNL A   1      36.929  31.984  38.422  1.00  0.00    -0.200 F 
ATOM     77  F   UNL A   1      38.237  34.293  39.048  1.00  0.00    -0.200 F 
ENDBRANCH  53  67
BRANCH  54  78
ATOM     78  C   UNL A   1      42.257  26.726  27.836  1.00  0.00     0.064 A 
ATOM     79  C   UNL A   1      41.689  25.476  27.558  1.00  0.00     0.173 A 
ATOM     80  C   UNL A   1      43.245  27.205  26.962  1.00  0.00     0.173 A 
ATOM     81  F   UNL A   1      40.762  24.964  28.381  1.00  0.00    -0.203 F 
ATOM     82  C   UNL A   1      42.105  24.725  26.461  1.00  0.00     0.198 A 
ATOM     83  C   UNL A   1      43.640  26.466  25.851  1.00  0.00     0.198 A 
ATOM     84  F   UNL A   1      43.822  28.393  27.190  1.00  0.00    -0.203 F 
ATOM     85  F   UNL A   1      41.580  23.511  26.244  1.00  0.00    -0.200 F 
ATOM     86  C   UNL A   1      43.076  25.223  25.604  1.00  0.00     0.200 A 
ATOM     87  F   UNL A   1      44.574  26.954  25.023  1.00  0.00    -0.200 F 
ATOM     88  F   UNL A   1      43.476  24.501  24.550  1.00  0.00    -0.200 F 
ENDBRANCH  54  78
BRANCH  66  89
ATOM     89  C   UNL A   1      44.338  26.754  34.479  1.00  0.00     0.064 A 
ATOM     90  C   UNL A   1      44.000  25.561  35.136  1.00  0.00     0.173 A 
ATOM     91  C   UNL A   1      45.677  27.171  34.525  1.00  0.00     0.173 A 
ATOM     92  F   UNL A   1      42.731  25.125  35.134  1.00  0.00    -0.203 F 
ATOM     93  C   UNL A   1      44.958  24.835  35.841  1.00  0.00     0.198 A 
ATOM     94  C   UNL A   1      46.637  26.428  35.206  1.00  0.00     0.198 A 
ATOM     95  F   UNL A   1      46.056  28.300  33.907  1.00  0.00    -0.203 F 
ATOM     96  F   UNL A   1      44.600  23.729  36.508  1.00  0.00    -0.200 F 
ATOM     97  C   UNL A   1      46.276  25.267  35.872  1.00  0.00     0.200 A 
ATOM     98  F   UNL A   1      47.913  26.840  35.225  1.00  0.00    -0.200 F 
ATOM     99  F   UNL A   1      47.194  24.569  36.554  1.00  0.00    -0.200 F 
ENDBRANCH  66  89
ENDBRANCH  40  41
ENDBRANCH  33  35
ENDBRANCH  32  33
ENDBRANCH  31  32
ENDBRANCH  30  31
ENDBRANCH  29  30
ENDBRANCH  28  29
ENDBRANCH   1  28
TORSDOF 19
ENDMDL
