MODEL 1
REMARK VINA RESULT:     -11.6      0.000      0.000
REMARK SMILES O=C(C[C@H]1C(=O)Nc2ccccc21)OCCOCCOC(=O)c1ccc(-c2c3nc(c(-c4c(F)c(F)c(F)c(F)c4F)c4ccc([nH]4)c(-c4c(F)c(F)c(F)c(F)c4F)c4nc(c(-c5c(F)c(F)c(F)c(F)c5F)c5ccc2[nH]5)C=C4)C=C3)cc1
REMARK SMILES IDX 18 1 17 2 16 3 15 4 14 5 2 6 1 7 3 8 4 9 5 10 13 11 6 12
REMARK SMILES IDX 7 13 8 14 12 15 9 17 11 18 10 19 19 20 20 21 21 22 22 23
REMARK SMILES IDX 23 24 24 25 85 26 25 27 84 28 26 29 27 30 28 31 78 32 29 33
REMARK SMILES IDX 83 34 77 35 79 36 30 37 82 38 76 39 75 40 31 42 63 43 43 44
REMARK SMILES IDX 62 45 44 46 47 47 61 48 80 49 45 50 46 51 60 53 81 54 48 55
REMARK SMILES IDX 32 56 33 57 41 58 34 59 35 60 39 61 42 62 36 63 37 64 40 65
REMARK SMILES IDX 38 66 64 67 65 68 73 69 66 70 67 71 71 72 74 73 68 74 69 75
REMARK SMILES IDX 72 76 70 77 49 78 50 79 58 80 51 81 52 82 56 83 59 84 53 85
REMARK SMILES IDX 54 86 57 87 55 88
REMARK H PARENT 7 16 79 41 47 52
REMARK Flexibility Score: inf
ROOT
ATOM      1  C   UNL A   1      31.705  29.065  25.096  1.00  0.00     0.202 C 
ENDROOT
BRANCH   1   2
ATOM      2  O   UNL A   1      31.337  27.909  25.859  1.00  0.00    -0.374 OA
BRANCH   2   3
ATOM      3  C   UNL A   1      30.729  26.866  25.100  1.00  0.00     0.202 C 
BRANCH   3   4
ATOM      4  C   UNL A   1      30.010  25.785  25.899  1.00  0.00     0.261 C 
BRANCH   4   5
ATOM      5  O   UNL A   1      30.898  24.905  26.591  1.00  0.00    -0.463 OA
BRANCH   5   6
ATOM      6  C   UNL A   1      30.723  23.564  26.584  1.00  0.00     0.307 C 
ATOM      7  O   UNL A   1      30.094  23.033  27.498  1.00  0.00    -0.252 OA
BRANCH   6   8
ATOM      8  C   UNL A   1      31.395  22.718  25.527  1.00  0.00     0.141 C 
BRANCH   8   9
ATOM      9  C   UNL A   1      32.576  21.880  26.005  1.00  0.00     0.122 C 
ATOM     10  C   UNL A   1      32.726  20.559  25.188  1.00  0.00     0.232 C 
ATOM     11  C   UNL A   1      33.883  22.560  25.657  1.00  0.00    -0.011 A 
ATOM     12  O   UNL A   1      31.994  19.584  25.192  1.00  0.00    -0.274 OA
ATOM     13  N   UNL A   1      33.884  20.643  24.440  1.00  0.00    -0.325 N 
ATOM     14  C   UNL A   1      34.577  21.801  24.716  1.00  0.00     0.045 A 
ATOM     15  C   UNL A   1      34.401  23.761  26.107  1.00  0.00     0.007 A 
ATOM     16  H   UNL A   1      34.177  19.961  23.791  1.00  0.00     0.169 HD
ATOM     17  C   UNL A   1      35.783  22.191  24.182  1.00  0.00     0.026 A 
ATOM     18  C   UNL A   1      35.627  24.180  25.581  1.00  0.00     0.000 A 
ATOM     19  C   UNL A   1      36.311  23.402  24.626  1.00  0.00     0.002 A 
ENDBRANCH   8   9
ENDBRANCH   6   8
ENDBRANCH   5   6
ENDBRANCH   4   5
ENDBRANCH   3   4
ENDBRANCH   2   3
ENDBRANCH   1   2
BRANCH   1  20
ATOM     20  C   UNL A   1      31.754  30.349  25.933  1.00  0.00     0.261 C 
BRANCH  20  21
ATOM     21  O   UNL A   1      32.775  30.258  26.938  1.00  0.00    -0.460 OA
BRANCH  21  22
ATOM     22  C   UNL A   1      33.346  31.442  27.286  1.00  0.00     0.338 C 
ATOM     23  O   UNL A   1      32.822  32.537  27.313  1.00  0.00    -0.246 OA
BRANCH  22  24
ATOM     24  C   UNL A   1      34.693  31.165  27.841  1.00  0.00     0.060 A 
ATOM     25  C   UNL A   1      35.022  29.833  28.132  1.00  0.00     0.016 A 
ATOM     26  C   UNL A   1      35.635  32.180  28.022  1.00  0.00     0.016 A 
ATOM     27  C   UNL A   1      36.279  29.515  28.643  1.00  0.00     0.010 A 
ATOM     28  C   UNL A   1      36.890  31.865  28.544  1.00  0.00     0.010 A 
ATOM     29  C   UNL A   1      37.203  30.537  28.889  1.00  0.00    -0.014 A 
BRANCH  29  30
ATOM     30  C   UNL A   1      38.408  30.283  29.709  1.00  0.00     0.031 A 
ATOM     31  C   UNL A   1      39.415  29.303  29.180  1.00  0.00     0.074 A 
ATOM     32  C   UNL A   1      38.578  30.858  30.911  1.00  0.00     0.049 A 
ATOM     33  N   UNL A   1      40.458  28.778  29.767  1.00  0.00    -0.248 NA
ATOM     34  C   UNL A   1      39.197  28.835  27.801  1.00  0.00     0.031 C 
ATOM     35  C   UNL A   1      37.685  31.845  31.510  1.00  0.00     0.029 A 
ATOM     36  N   UNL A   1      39.553  30.660  31.857  1.00  0.00    -0.354 N 
ATOM     37  C   UNL A   1      41.003  27.899  28.840  1.00  0.00     0.074 A 
ATOM     38  C   UNL A   1      40.165  27.943  27.663  1.00  0.00     0.031 C 
ATOM     39  C   UNL A   1      38.132  32.141  32.743  1.00  0.00     0.029 A 
ATOM     40  C   UNL A   1      39.319  31.335  33.029  1.00  0.00     0.049 A 
ATOM     41  H   UNL A   1      40.343  30.090  31.709  1.00  0.00     0.167 HD
ATOM     42  C   UNL A   1      42.106  27.124  28.964  1.00  0.00     0.037 A 
ATOM     43  C   UNL A   1      39.966  31.269  34.210  1.00  0.00     0.037 A 
ATOM     44  C   UNL A   1      42.934  27.092  30.138  1.00  0.00     0.049 A 
ATOM     45  C   UNL A   1      41.164  30.365  34.346  1.00  0.00     0.074 A 
ATOM     46  C   UNL A   1      44.099  26.379  30.355  1.00  0.00     0.029 A 
ATOM     47  N   UNL A   1      42.673  27.801  31.304  1.00  0.00    -0.354 N 
ATOM     48  N   UNL A   1      41.701  29.562  33.458  1.00  0.00    -0.248 NA
ATOM     49  C   UNL A   1      41.848  30.355  35.648  1.00  0.00     0.031 C 
ATOM     50  C   UNL A   1      44.510  26.610  31.671  1.00  0.00     0.029 A 
ATOM     51  C   UNL A   1      43.638  27.515  32.254  1.00  0.00     0.049 A 
ATOM     52  H   UNL A   1      41.915  28.415  31.434  1.00  0.00     0.167 HD
ATOM     53  C   UNL A   1      42.797  28.976  34.080  1.00  0.00     0.074 A 
ATOM     54  C   UNL A   1      42.851  29.518  35.422  1.00  0.00     0.031 C 
ATOM     55  C   UNL A   1      43.679  28.074  33.582  1.00  0.00     0.037 A 
BRANCH  42  56
ATOM     56  C   UNL A   1      42.447  26.222  27.815  1.00  0.00     0.064 A 
ATOM     57  C   UNL A   1      43.384  26.585  26.836  1.00  0.00     0.173 A 
ATOM     58  C   UNL A   1      41.819  24.973  27.690  1.00  0.00     0.173 A 
ATOM     59  F   UNL A   1      43.999  27.776  26.900  1.00  0.00    -0.203 F 
ATOM     60  C   UNL A   1      43.654  25.748  25.756  1.00  0.00     0.198 A 
ATOM     61  C   UNL A   1      42.116  24.124  26.627  1.00  0.00     0.198 A 
ATOM     62  F   UNL A   1      40.915  24.576  28.597  1.00  0.00    -0.203 F 
ATOM     63  F   UNL A   1      44.505  26.145  24.801  1.00  0.00    -0.200 F 
ATOM     64  C   UNL A   1      43.024  24.518  25.655  1.00  0.00     0.200 A 
ATOM     65  F   UNL A   1      41.514  22.930  26.538  1.00  0.00    -0.200 F 
ATOM     66  F   UNL A   1      43.283  23.713  24.615  1.00  0.00    -0.200 F 
ENDBRANCH  42  56
BRANCH  43  67
ATOM     67  C   UNL A   1      39.472  32.068  35.362  1.00  0.00     0.064 A 
ATOM     68  C   UNL A   1      38.591  31.518  36.302  1.00  0.00     0.173 A 
ATOM     69  C   UNL A   1      39.882  33.397  35.552  1.00  0.00     0.173 A 
ATOM     70  F   UNL A   1      38.150  30.262  36.150  1.00  0.00    -0.203 F 
ATOM     71  C   UNL A   1      38.134  32.267  37.385  1.00  0.00     0.198 A 
ATOM     72  C   UNL A   1      39.446  34.137  36.649  1.00  0.00     0.198 A 
ATOM     73  F   UNL A   1      40.722  33.972  34.679  1.00  0.00    -0.203 F 
ATOM     74  F   UNL A   1      37.265  31.728  38.251  1.00  0.00    -0.200 F 
ATOM     75  C   UNL A   1      38.568  33.573  37.563  1.00  0.00     0.200 A 
ATOM     76  F   UNL A   1      39.877  35.393  36.822  1.00  0.00    -0.200 F 
ATOM     77  F   UNL A   1      38.137  34.289  38.610  1.00  0.00    -0.200 F 
ENDBRANCH  43  67
BRANCH  55  78
ATOM     78  C   UNL A   1      44.809  27.640  34.471  1.00  0.00     0.064 A 
ATOM     79  C   UNL A   1      44.717  26.497  35.277  1.00  0.00     0.173 A 
ATOM     80  C   UNL A   1      46.030  28.331  34.447  1.00  0.00     0.173 A 
ATOM     81  F   UNL A   1      43.567  25.809  35.344  1.00  0.00    -0.203 F 
ATOM     82  C   UNL A   1      45.804  26.067  36.034  1.00  0.00     0.198 A 
ATOM     83  C   UNL A   1      47.123  27.882  35.181  1.00  0.00     0.198 A 
ATOM     84  F   UNL A   1      46.172  29.427  33.685  1.00  0.00    -0.203 F 
ATOM     85  F   UNL A   1      45.685  24.988  36.821  1.00  0.00    -0.200 F 
ATOM     86  C   UNL A   1      47.009  26.752  35.977  1.00  0.00     0.200 A 
ATOM     87  F   UNL A   1      48.291  28.536  35.111  1.00  0.00    -0.200 F 
ATOM     88  F   UNL A   1      48.060  26.325  36.690  1.00  0.00    -0.200 F 
ENDBRANCH  55  78
ENDBRANCH  29  30
ENDBRANCH  22  24
ENDBRANCH  21  22
ENDBRANCH  20  21
ENDBRANCH   1  20
TORSDOF 15
ENDMDL
MODEL 2
REMARK VINA RESULT:     -11.6      2.111      3.853
REMARK SMILES O=C(C[C@H]1C(=O)Nc2ccccc21)OCCOCCOC(=O)c1ccc(-c2c3nc(c(-c4c(F)c(F)c(F)c(F)c4F)c4ccc([nH]4)c(-c4c(F)c(F)c(F)c(F)c4F)c4nc(c(-c5c(F)c(F)c(F)c(F)c5F)c5ccc2[nH]5)C=C4)C=C3)cc1
REMARK SMILES IDX 18 1 17 2 16 3 15 4 14 5 2 6 1 7 3 8 4 9 5 10 13 11 6 12
REMARK SMILES IDX 7 13 8 14 12 15 9 17 11 18 10 19 19 20 20 21 21 22 22 23
REMARK SMILES IDX 23 24 24 25 85 26 25 27 84 28 26 29 27 30 28 31 78 32 29 33
REMARK SMILES IDX 83 34 77 35 79 36 30 37 82 38 76 39 75 40 31 42 63 43 43 44
REMARK SMILES IDX 62 45 44 46 47 47 61 48 80 49 45 50 46 51 60 53 81 54 48 55
REMARK SMILES IDX 32 56 33 57 41 58 34 59 35 60 39 61 42 62 36 63 37 64 40 65
REMARK SMILES IDX 38 66 64 67 65 68 73 69 66 70 67 71 71 72 74 73 68 74 69 75
REMARK SMILES IDX 72 76 70 77 49 78 50 79 58 80 51 81 52 82 56 83 59 84 53 85
REMARK SMILES IDX 54 86 57 87 55 88
REMARK H PARENT 7 16 79 41 47 52
REMARK Flexibility Score: inf
ROOT
ATOM      1  C   UNL A   1      32.218  28.523  25.807  1.00  0.00     0.202 C 
ENDROOT
BRANCH   1   2
ATOM      2  O   UNL A   1      33.552  28.006  25.717  1.00  0.00    -0.374 OA
BRANCH   2   3
ATOM      3  C   UNL A   1      33.631  26.587  25.607  1.00  0.00     0.202 C 
BRANCH   3   4
ATOM      4  C   UNL A   1      34.030  26.040  24.239  1.00  0.00     0.261 C 
BRANCH   4   5
ATOM      5  O   UNL A   1      32.963  25.373  23.562  1.00  0.00    -0.463 OA
BRANCH   5   6
ATOM      6  C   UNL A   1      32.534  25.770  22.343  1.00  0.00     0.307 C 
ATOM      7  O   UNL A   1      33.252  25.584  21.361  1.00  0.00    -0.252 OA
BRANCH   6   8
ATOM      8  C   UNL A   1      31.240  26.539  22.207  1.00  0.00     0.141 C 
BRANCH   8   9
ATOM      9  C   UNL A   1      31.171  27.855  22.973  1.00  0.00     0.122 C 
ATOM     10  C   UNL A   1      32.120  28.936  22.367  1.00  0.00     0.232 C 
ATOM     11  C   UNL A   1      29.831  28.524  22.756  1.00  0.00    -0.011 A 
ATOM     12  O   UNL A   1      33.339  28.958  22.378  1.00  0.00    -0.274 OA
ATOM     13  N   UNL A   1      31.342  29.932  21.812  1.00  0.00    -0.325 N 
ATOM     14  C   UNL A   1      30.002  29.711  22.045  1.00  0.00     0.045 A 
ATOM     15  C   UNL A   1      28.565  28.107  23.126  1.00  0.00     0.007 A 
ATOM     16  H   UNL A   1      31.699  30.703  21.312  1.00  0.00     0.169 HD
ATOM     17  C   UNL A   1      28.953  30.516  21.668  1.00  0.00     0.026 A 
ATOM     18  C   UNL A   1      27.480  28.908  22.756  1.00  0.00     0.000 A 
ATOM     19  C   UNL A   1      27.672  30.101  22.032  1.00  0.00     0.002 A 
ENDBRANCH   8   9
ENDBRANCH   6   8
ENDBRANCH   5   6
ENDBRANCH   4   5
ENDBRANCH   3   4
ENDBRANCH   2   3
ENDBRANCH   1   2
BRANCH   1  20
ATOM     20  C   UNL A   1      32.173  30.048  25.970  1.00  0.00     0.261 C 
BRANCH  20  21
ATOM     21  O   UNL A   1      32.579  30.427  27.294  1.00  0.00    -0.460 OA
BRANCH  21  22
ATOM     22  C   UNL A   1      33.301  31.577  27.365  1.00  0.00     0.338 C 
ATOM     23  O   UNL A   1      32.908  32.710  27.182  1.00  0.00    -0.246 OA
BRANCH  22  24
ATOM     24  C   UNL A   1      34.639  31.253  27.917  1.00  0.00     0.060 A 
ATOM     25  C   UNL A   1      34.890  29.926  28.295  1.00  0.00     0.016 A 
ATOM     26  C   UNL A   1      35.646  32.217  28.012  1.00  0.00     0.016 A 
ATOM     27  C   UNL A   1      36.136  29.565  28.807  1.00  0.00     0.010 A 
ATOM     28  C   UNL A   1      36.889  31.860  28.535  1.00  0.00     0.010 A 
ATOM     29  C   UNL A   1      37.125  30.541  28.966  1.00  0.00    -0.014 A 
BRANCH  29  30
ATOM     30  C   UNL A   1      38.329  30.267  29.783  1.00  0.00     0.031 A 
ATOM     31  C   UNL A   1      39.336  29.298  29.234  1.00  0.00     0.074 A 
ATOM     32  C   UNL A   1      38.497  30.815  30.997  1.00  0.00     0.049 A 
ATOM     33  N   UNL A   1      40.377  28.759  29.812  1.00  0.00    -0.248 NA
ATOM     34  C   UNL A   1      39.121  28.861  27.846  1.00  0.00     0.031 C 
ATOM     35  C   UNL A   1      37.604  31.790  31.617  1.00  0.00     0.029 A 
ATOM     36  N   UNL A   1      39.470  30.596  31.941  1.00  0.00    -0.354 N 
ATOM     37  C   UNL A   1      40.923  27.901  28.867  1.00  0.00     0.074 A 
ATOM     38  C   UNL A   1      40.088  27.972  27.690  1.00  0.00     0.031 C 
ATOM     39  C   UNL A   1      38.049  32.059  32.857  1.00  0.00     0.029 A 
ATOM     40  C   UNL A   1      39.234  31.245  33.128  1.00  0.00     0.049 A 
ATOM     41  H   UNL A   1      40.259  30.029  31.783  1.00  0.00     0.167 HD
ATOM     42  C   UNL A   1      42.025  27.122  28.977  1.00  0.00     0.037 A 
ATOM     43  C   UNL A   1      39.878  31.153  34.308  1.00  0.00     0.037 A 
ATOM     44  C   UNL A   1      42.851  27.064  30.151  1.00  0.00     0.049 A 
ATOM     45  C   UNL A   1      41.075  30.244  34.426  1.00  0.00     0.074 A 
ATOM     46  C   UNL A   1      44.014  26.345  30.354  1.00  0.00     0.029 A 
ATOM     47  N   UNL A   1      42.588  27.746  31.331  1.00  0.00    -0.354 N 
ATOM     48  N   UNL A   1      41.614  29.461  33.522  1.00  0.00    -0.248 NA
ATOM     49  C   UNL A   1      41.756  30.205  35.729  1.00  0.00     0.031 C 
ATOM     50  C   UNL A   1      44.423  26.546  31.676  1.00  0.00     0.029 A 
ATOM     51  C   UNL A   1      43.551  27.439  32.277  1.00  0.00     0.049 A 
ATOM     52  H   UNL A   1      41.830  28.358  31.474  1.00  0.00     0.167 HD
ATOM     53  C   UNL A   1      42.707  28.860  34.133  1.00  0.00     0.074 A 
ATOM     54  C   UNL A   1      42.759  29.372  35.486  1.00  0.00     0.031 C 
ATOM     55  C   UNL A   1      43.590  27.969  33.618  1.00  0.00     0.037 A 
BRANCH  42  56
ATOM     56  C   UNL A   1      42.368  26.245  27.809  1.00  0.00     0.064 A 
ATOM     57  C   UNL A   1      41.732  25.013  27.592  1.00  0.00     0.173 A 
ATOM     58  C   UNL A   1      43.353  26.644  26.892  1.00  0.00     0.173 A 
ATOM     59  F   UNL A   1      40.795  24.577  28.448  1.00  0.00    -0.203 F 
ATOM     60  C   UNL A   1      42.096  24.197  26.523  1.00  0.00     0.198 A 
ATOM     61  C   UNL A   1      43.691  25.841  25.807  1.00  0.00     0.198 A 
ATOM     62  F   UNL A   1      43.992  27.812  27.053  1.00  0.00    -0.203 F 
ATOM     63  F   UNL A   1      41.520  22.997  26.374  1.00  0.00    -0.200 F 
ATOM     64  C   UNL A   1      43.070  24.614  25.630  1.00  0.00     0.200 A 
ATOM     65  F   UNL A   1      44.625  26.252  24.938  1.00  0.00    -0.200 F 
ATOM     66  F   UNL A   1      43.421  23.828  24.602  1.00  0.00    -0.200 F 
ENDBRANCH  42  56
BRANCH  43  67
ATOM     67  C   UNL A   1      39.383  31.927  35.476  1.00  0.00     0.064 A 
ATOM     68  C   UNL A   1      39.772  33.257  35.683  1.00  0.00     0.173 A 
ATOM     69  C   UNL A   1      38.500  31.354  36.404  1.00  0.00     0.173 A 
ATOM     70  F   UNL A   1      40.634  33.841  34.840  1.00  0.00    -0.203 F 
ATOM     71  C   UNL A   1      39.301  33.983  36.777  1.00  0.00     0.198 A 
ATOM     72  C   UNL A   1      38.009  32.087  37.482  1.00  0.00     0.198 A 
ATOM     73  F   UNL A   1      38.099  30.082  36.253  1.00  0.00    -0.203 F 
ATOM     74  F   UNL A   1      39.715  35.242  36.971  1.00  0.00    -0.200 F 
ATOM     75  C   UNL A   1      38.414  33.400  37.670  1.00  0.00     0.200 A 
ATOM     76  F   UNL A   1      37.143  31.525  38.334  1.00  0.00    -0.200 F 
ATOM     77  F   UNL A   1      37.953  34.102  38.714  1.00  0.00    -0.200 F 
ENDBRANCH  43  67
BRANCH  55  78
ATOM     78  C   UNL A   1      44.717  27.514  34.499  1.00  0.00     0.064 A 
ATOM     79  C   UNL A   1      44.622  26.354  35.280  1.00  0.00     0.173 A 
ATOM     80  C   UNL A   1      45.940  28.204  34.491  1.00  0.00     0.173 A 
ATOM     81  F   UNL A   1      43.471  25.667  35.331  1.00  0.00    -0.203 F 
ATOM     82  C   UNL A   1      45.707  25.906  36.030  1.00  0.00     0.198 A 
ATOM     83  C   UNL A   1      47.031  27.737  35.218  1.00  0.00     0.198 A 
ATOM     84  F   UNL A   1      46.085  29.315  33.753  1.00  0.00    -0.203 F 
ATOM     85  F   UNL A   1      45.585  24.811  36.793  1.00  0.00    -0.200 F 
ATOM     86  C   UNL A   1      46.913  26.591  35.989  1.00  0.00     0.200 A 
ATOM     87  F   UNL A   1      48.200  28.391  35.164  1.00  0.00    -0.200 F 
ATOM     88  F   UNL A   1      47.962  26.147  36.695  1.00  0.00    -0.200 F 
ENDBRANCH  55  78
ENDBRANCH  29  30
ENDBRANCH  22  24
ENDBRANCH  21  22
ENDBRANCH  20  21
ENDBRANCH   1  20
TORSDOF 15
ENDMDL
MODEL 3
REMARK VINA RESULT:     -11.6      0.998      2.484
REMARK SMILES O=C(C[C@H]1C(=O)Nc2ccccc21)OCCOCCOC(=O)c1ccc(-c2c3nc(c(-c4c(F)c(F)c(F)c(F)c4F)c4ccc([nH]4)c(-c4c(F)c(F)c(F)c(F)c4F)c4nc(c(-c5c(F)c(F)c(F)c(F)c5F)c5ccc2[nH]5)C=C4)C=C3)cc1
REMARK SMILES IDX 18 1 17 2 16 3 15 4 14 5 2 6 1 7 3 8 4 9 5 10 13 11 6 12
REMARK SMILES IDX 7 13 8 14 12 15 9 17 11 18 10 19 19 20 20 21 21 22 22 23
REMARK SMILES IDX 23 24 24 25 85 26 25 27 84 28 26 29 27 30 28 31 78 32 29 33
REMARK SMILES IDX 83 34 77 35 79 36 30 37 82 38 76 39 75 40 31 42 63 43 43 44
REMARK SMILES IDX 62 45 44 46 47 47 61 48 80 49 45 50 46 51 60 53 81 54 48 55
REMARK SMILES IDX 32 56 33 57 41 58 34 59 35 60 39 61 42 62 36 63 37 64 40 65
REMARK SMILES IDX 38 66 64 67 65 68 73 69 66 70 67 71 71 72 74 73 68 74 69 75
REMARK SMILES IDX 72 76 70 77 49 78 50 79 58 80 51 81 52 82 56 83 59 84 53 85
REMARK SMILES IDX 54 86 57 87 55 88
REMARK H PARENT 7 16 79 41 47 52
REMARK Flexibility Score: inf
ROOT
ATOM      1  C   UNL A   1      31.964  29.082  24.749  1.00  0.00     0.202 C 
ENDROOT
BRANCH   1   2
ATOM      2  O   UNL A   1      30.728  28.505  24.309  1.00  0.00    -0.374 OA
BRANCH   2   3
ATOM      3  C   UNL A   1      30.688  27.081  24.355  1.00  0.00     0.202 C 
BRANCH   3   4
ATOM      4  C   UNL A   1      31.324  26.431  25.580  1.00  0.00     0.261 C 
BRANCH   4   5
ATOM      5  O   UNL A   1      31.782  25.098  25.341  1.00  0.00    -0.463 OA
BRANCH   5   6
ATOM      6  C   UNL A   1      31.407  24.064  26.127  1.00  0.00     0.307 C 
ATOM      7  O   UNL A   1      31.150  24.270  27.313  1.00  0.00    -0.252 OA
BRANCH   6   8
ATOM      8  C   UNL A   1      31.418  22.654  25.582  1.00  0.00     0.141 C 
BRANCH   8   9
ATOM      9  C   UNL A   1      32.794  22.019  25.422  1.00  0.00     0.122 C 
ATOM     10  C   UNL A   1      33.360  21.496  26.779  1.00  0.00     0.232 C 
ATOM     11  C   UNL A   1      32.692  20.719  24.655  1.00  0.00    -0.011 A 
ATOM     12  O   UNL A   1      33.738  22.147  27.738  1.00  0.00    -0.274 OA
ATOM     13  N   UNL A   1      33.401  20.117  26.727  1.00  0.00    -0.325 N 
ATOM     14  C   UNL A   1      33.027  19.650  25.485  1.00  0.00     0.045 A 
ATOM     15  C   UNL A   1      32.306  20.493  23.346  1.00  0.00     0.007 A 
ATOM     16  H   UNL A   1      33.663  19.539  27.481  1.00  0.00     0.169 HD
ATOM     17  C   UNL A   1      32.986  18.339  25.072  1.00  0.00     0.026 A 
ATOM     18  C   UNL A   1      32.257  19.169  22.900  1.00  0.00     0.000 A 
ATOM     19  C   UNL A   1      32.593  18.102  23.755  1.00  0.00     0.002 A 
ENDBRANCH   8   9
ENDBRANCH   6   8
ENDBRANCH   5   6
ENDBRANCH   4   5
ENDBRANCH   3   4
ENDBRANCH   2   3
ENDBRANCH   1   2
BRANCH   1  20
ATOM     20  C   UNL A   1      31.772  30.212  25.769  1.00  0.00     0.261 C 
BRANCH  20  21
ATOM     21  O   UNL A   1      32.755  30.121  26.812  1.00  0.00    -0.460 OA
BRANCH  21  22
ATOM     22  C   UNL A   1      33.278  31.311  27.212  1.00  0.00     0.338 C 
ATOM     23  O   UNL A   1      32.713  32.383  27.282  1.00  0.00    -0.246 OA
BRANCH  22  24
ATOM     24  C   UNL A   1      34.632  31.062  27.763  1.00  0.00     0.060 A 
ATOM     25  C   UNL A   1      35.001  29.734  28.025  1.00  0.00     0.016 A 
ATOM     26  C   UNL A   1      35.543  32.101  27.969  1.00  0.00     0.016 A 
ATOM     27  C   UNL A   1      36.267  29.444  28.530  1.00  0.00     0.010 A 
ATOM     28  C   UNL A   1      36.806  31.812  28.486  1.00  0.00     0.010 A 
ATOM     29  C   UNL A   1      37.158  30.487  28.801  1.00  0.00    -0.014 A 
BRANCH  29  30
ATOM     30  C   UNL A   1      38.370  30.251  29.618  1.00  0.00     0.031 A 
ATOM     31  C   UNL A   1      39.387  29.280  29.089  1.00  0.00     0.074 A 
ATOM     32  C   UNL A   1      38.538  30.833  30.816  1.00  0.00     0.049 A 
ATOM     33  N   UNL A   1      40.438  28.770  29.674  1.00  0.00    -0.248 NA
ATOM     34  C   UNL A   1      39.169  28.804  27.713  1.00  0.00     0.031 C 
ATOM     35  C   UNL A   1      37.636  31.812  31.415  1.00  0.00     0.029 A 
ATOM     36  N   UNL A   1      39.519  30.651  31.760  1.00  0.00    -0.354 N 
ATOM     37  C   UNL A   1      40.990  27.894  28.749  1.00  0.00     0.074 A 
ATOM     38  C   UNL A   1      40.147  27.923  27.575  1.00  0.00     0.031 C 
ATOM     39  C   UNL A   1      38.085  32.119  32.645  1.00  0.00     0.029 A 
ATOM     40  C   UNL A   1      39.282  31.328  32.930  1.00  0.00     0.049 A 
ATOM     41  H   UNL A   1      40.315  30.090  31.611  1.00  0.00     0.167 HD
ATOM     42  C   UNL A   1      42.102  27.133  28.871  1.00  0.00     0.037 A 
ATOM     43  C   UNL A   1      39.934  31.275  34.108  1.00  0.00     0.037 A 
ATOM     44  C   UNL A   1      42.936  27.116  30.042  1.00  0.00     0.049 A 
ATOM     45  C   UNL A   1      41.144  30.385  34.243  1.00  0.00     0.074 A 
ATOM     46  C   UNL A   1      44.110  26.418  30.257  1.00  0.00     0.029 A 
ATOM     47  N   UNL A   1      42.671  27.826  31.206  1.00  0.00    -0.354 N 
ATOM     48  N   UNL A   1      41.687  29.586  33.356  1.00  0.00    -0.248 NA
ATOM     49  C   UNL A   1      41.832  30.390  35.542  1.00  0.00     0.031 C 
ATOM     50  C   UNL A   1      44.523  26.659  31.570  1.00  0.00     0.029 A 
ATOM     51  C   UNL A   1      43.643  27.557  32.153  1.00  0.00     0.049 A 
ATOM     52  H   UNL A   1      41.906  28.432  31.337  1.00  0.00     0.167 HD
ATOM     53  C   UNL A   1      42.792  29.015  33.976  1.00  0.00     0.074 A 
ATOM     54  C   UNL A   1      42.845  29.563  35.315  1.00  0.00     0.031 C 
ATOM     55  C   UNL A   1      43.683  28.122  33.479  1.00  0.00     0.037 A 
BRANCH  42  56
ATOM     56  C   UNL A   1      42.449  26.230  27.725  1.00  0.00     0.064 A 
ATOM     57  C   UNL A   1      41.847  24.974  27.558  1.00  0.00     0.173 A 
ATOM     58  C   UNL A   1      43.406  26.628  26.778  1.00  0.00     0.173 A 
ATOM     59  F   UNL A   1      40.938  24.538  28.445  1.00  0.00    -0.203 F 
ATOM     60  C   UNL A   1      42.215  24.136  26.508  1.00  0.00     0.198 A 
ATOM     61  C   UNL A   1      43.748  25.801  25.712  1.00  0.00     0.198 A 
ATOM     62  F   UNL A   1      44.013  27.819  26.891  1.00  0.00    -0.203 F 
ATOM     63  F   UNL A   1      41.671  22.915  26.407  1.00  0.00    -0.200 F 
ATOM     64  C   UNL A   1      43.161  24.552  25.585  1.00  0.00     0.200 A 
ATOM     65  F   UNL A   1      44.654  26.211  24.814  1.00  0.00    -0.200 F 
ATOM     66  F   UNL A   1      43.515  23.744  24.575  1.00  0.00    -0.200 F 
ENDBRANCH  42  56
BRANCH  43  67
ATOM     67  C   UNL A   1      39.436  32.073  35.259  1.00  0.00     0.064 A 
ATOM     68  C   UNL A   1      39.786  33.421  35.414  1.00  0.00     0.173 A 
ATOM     69  C   UNL A   1      38.587  31.506  36.221  1.00  0.00     0.173 A 
ATOM     70  F   UNL A   1      40.615  34.002  34.535  1.00  0.00    -0.203 F 
ATOM     71  C   UNL A   1      39.313  34.169  36.491  1.00  0.00     0.198 A 
ATOM     72  C   UNL A   1      38.092  32.260  37.283  1.00  0.00     0.198 A 
ATOM     73  F   UNL A   1      38.224  30.218  36.121  1.00  0.00    -0.203 F 
ATOM     74  F   UNL A   1      39.691  35.446  36.635  1.00  0.00    -0.200 F 
ATOM     75  C   UNL A   1      38.460  33.591  37.419  1.00  0.00     0.200 A 
ATOM     76  F   UNL A   1      37.260  31.701  38.170  1.00  0.00    -0.200 F 
ATOM     77  F   UNL A   1      37.995  34.313  38.447  1.00  0.00    -0.200 F 
ENDBRANCH  43  67
BRANCH  55  78
ATOM     78  C   UNL A   1      44.821  27.706  34.365  1.00  0.00     0.064 A 
ATOM     79  C   UNL A   1      46.012  28.442  34.431  1.00  0.00     0.173 A 
ATOM     80  C   UNL A   1      44.680  26.604  35.224  1.00  0.00     0.173 A 
ATOM     81  F   UNL A   1      46.201  29.495  33.622  1.00  0.00    -0.203 F 
ATOM     82  C   UNL A   1      47.026  28.084  35.317  1.00  0.00     0.198 A 
ATOM     83  C   UNL A   1      45.682  26.267  36.128  1.00  0.00     0.198 A 
ATOM     84  F   UNL A   1      43.556  25.872  35.205  1.00  0.00    -0.203 F 
ATOM     85  F   UNL A   1      48.169  28.783  35.343  1.00  0.00    -0.200 F 
ATOM     86  C   UNL A   1      46.855  27.005  36.172  1.00  0.00     0.200 A 
ATOM     87  F   UNL A   1      45.508  25.235  36.966  1.00  0.00    -0.200 F 
ATOM     88  F   UNL A   1      47.823  26.675  37.039  1.00  0.00    -0.200 F 
ENDBRANCH  55  78
ENDBRANCH  29  30
ENDBRANCH  22  24
ENDBRANCH  21  22
ENDBRANCH  20  21
ENDBRANCH   1  20
TORSDOF 15
ENDMDL
