MODEL 1
REMARK VINA RESULT:     -11.0      0.000      0.000
REMARK SMILES Cc1c(CC(=O)N[C@@H](C)C(=O)OCCOCCOC(=O)c2ccc(-c3c4nc(c(-c5c(F)c(F)c(F)c(F)c5F)c5ccc([nH]5)c(-c5c(F)c(F)c(F)c(F)c5F)c5nc(c(-c6c(F)c(F)c(F)c(F)c6F)c6ccc3[nH]6)C=C5)C=C4)cc2)c(=O)oc2cc3oc4c(c3cc12)CCCC4
REMARK SMILES IDX 14 1 13 2 12 3 10 4 11 5 8 6 9 7 7 8 5 9 6 10 4 12 3 13 1 14
REMARK SMILES IDX 2 15 95 16 84 17 87 18 94 19 85 20 86 21 88 22 93 23 89 24
REMARK SMILES IDX 92 25 90 26 91 27 96 28 99 29 97 30 98 31 15 32 16 33 17 34
REMARK SMILES IDX 18 35 19 36 20 37 21 38 22 39 83 40 23 41 82 42 24 43 25 44
REMARK SMILES IDX 26 45 76 46 27 47 81 48 75 49 77 50 28 51 80 52 74 53 73 54
REMARK SMILES IDX 29 56 61 57 41 58 60 59 42 60 45 61 59 62 78 63 43 64 44 65
REMARK SMILES IDX 58 67 79 68 46 69 30 70 31 71 39 72 32 73 33 74 37 75 40 76
REMARK SMILES IDX 34 77 35 78 38 79 36 80 62 81 63 82 71 83 64 84 65 85 69 86
REMARK SMILES IDX 72 87 66 88 67 89 70 90 68 91 47 92 48 93 56 94 49 95 50 96
REMARK SMILES IDX 54 97 57 98 51 99 52 100 55 101 53 102
REMARK H PARENT 7 11 77 55 45 66
REMARK Flexibility Score: inf
ROOT
ATOM      1  C   UNL A   1      43.896  19.737  24.748  1.00  0.00     0.202 C 
ENDROOT
BRANCH   1   2
ATOM      2  C   UNL A   1      44.588  20.956  25.371  1.00  0.00     0.261 C 
BRANCH   2   3
ATOM      3  O   UNL A   1      44.053  22.185  24.868  1.00  0.00    -0.462 OA
BRANCH   3   4
ATOM      4  C   UNL A   1      44.988  23.116  24.542  1.00  0.00     0.328 C 
ATOM      5  O   UNL A   1      45.636  23.132  23.501  1.00  0.00    -0.250 OA
BRANCH   4   6
ATOM      6  C   UNL A   1      45.181  24.162  25.641  1.00  0.00     0.189 C 
ATOM      7  C   UNL A   1      45.061  25.539  25.002  1.00  0.00     0.043 C 
BRANCH   6   8
ATOM      8  N   UNL A   1      46.424  24.081  26.423  1.00  0.00    -0.343 N 
ATOM      9  C   UNL A   1      46.738  24.652  27.625  1.00  0.00     0.225 C 
ATOM     10  O   UNL A   1      47.865  24.453  28.088  1.00  0.00    -0.275 OA
ATOM     11  H   UNL A   1      47.136  23.535  26.020  1.00  0.00     0.164 HD
BRANCH   9  12
ATOM     12  C   UNL A   1      45.715  25.487  28.403  1.00  0.00     0.143 C 
BRANCH  12  13
ATOM     13  C   UNL A   1      45.333  24.828  29.702  1.00  0.00     0.051 A 
ATOM     14  C   UNL A   1      46.823  26.299  31.098  1.00  0.00     0.046 C 
ATOM     15  C   UNL A   1      45.707  25.299  30.906  1.00  0.00    -0.029 A 
ATOM     16  C   UNL A   1      45.019  24.787  32.097  1.00  0.00     0.022 A 
ATOM     17  C   UNL A   1      44.433  23.650  29.569  1.00  0.00     0.340 A 
ATOM     18  C   UNL A   1      44.198  23.662  31.987  1.00  0.00     0.142 A 
ATOM     19  C   UNL A   1      45.239  25.354  33.356  1.00  0.00     0.024 A 
ATOM     20  O   UNL A   1      44.157  23.177  28.472  1.00  0.00    -0.246 OA
ATOM     21  O   UNL A   1      43.904  23.114  30.727  1.00  0.00    -0.422 OA
ATOM     22  C   UNL A   1      43.706  22.953  33.087  1.00  0.00     0.095 A 
ATOM     23  C   UNL A   1      44.948  24.558  34.469  1.00  0.00     0.025 A 
ATOM     24  C   UNL A   1      44.248  23.367  34.293  1.00  0.00     0.138 A 
ATOM     25  C   UNL A   1      45.529  24.501  35.761  1.00  0.00     0.001 A 
ATOM     26  O   UNL A   1      44.388  22.575  35.394  1.00  0.00    -0.461 OA
ATOM     27  C   UNL A   1      45.349  23.182  36.135  1.00  0.00     0.108 A 
ATOM     28  C   UNL A   1      46.718  25.250  36.253  1.00  0.00     0.040 C 
ATOM     29  C   UNL A   1      46.498  22.359  36.619  1.00  0.00     0.076 C 
ATOM     30  C   UNL A   1      47.986  24.406  35.978  1.00  0.00     0.005 C 
ATOM     31  C   UNL A   1      47.733  22.877  35.822  1.00  0.00     0.008 C 
ENDBRANCH  12  13
ENDBRANCH   9  12
ENDBRANCH   6   8
ENDBRANCH   4   6
ENDBRANCH   3   4
ENDBRANCH   2   3
ENDBRANCH   1   2
BRANCH   1  32
ATOM     32  O   UNL A   1      42.632  19.370  25.291  1.00  0.00    -0.374 OA
BRANCH  32  33
ATOM     33  C   UNL A   1      42.244  19.937  26.546  1.00  0.00     0.202 C 
BRANCH  33  34
ATOM     34  C   UNL A   1      40.747  20.185  26.789  1.00  0.00     0.261 C 
BRANCH  34  35
ATOM     35  O   UNL A   1      40.519  21.442  27.452  1.00  0.00    -0.460 OA
BRANCH  35  36
ATOM     36  C   UNL A   1      39.730  22.328  26.802  1.00  0.00     0.338 C 
ATOM     37  O   UNL A   1      38.698  22.113  26.182  1.00  0.00    -0.246 OA
BRANCH  36  38
ATOM     38  C   UNL A   1      40.215  23.672  27.132  1.00  0.00     0.060 A 
ATOM     39  C   UNL A   1      41.463  24.101  26.688  1.00  0.00     0.016 A 
ATOM     40  C   UNL A   1      39.398  24.507  27.899  1.00  0.00     0.016 A 
ATOM     41  C   UNL A   1      41.891  25.389  27.014  1.00  0.00     0.010 A 
ATOM     42  C   UNL A   1      39.848  25.770  28.263  1.00  0.00     0.010 A 
ATOM     43  C   UNL A   1      41.084  26.235  27.797  1.00  0.00    -0.014 A 
BRANCH  43  44
ATOM     44  C   UNL A   1      41.472  27.654  27.928  1.00  0.00     0.031 A 
ATOM     45  C   UNL A   1      40.339  28.632  27.780  1.00  0.00     0.074 A 
ATOM     46  C   UNL A   1      42.563  28.035  28.626  1.00  0.00     0.049 A 
ATOM     47  N   UNL A   1      39.543  28.968  28.757  1.00  0.00    -0.248 NA
ATOM     48  C   UNL A   1      39.864  29.065  26.466  1.00  0.00     0.031 C 
ATOM     49  C   UNL A   1      43.004  27.401  29.873  1.00  0.00     0.029 A 
ATOM     50  N   UNL A   1      43.358  29.155  28.514  1.00  0.00    -0.354 N 
ATOM     51  C   UNL A   1      38.456  29.625  28.200  1.00  0.00     0.074 A 
ATOM     52  C   UNL A   1      38.705  29.667  26.776  1.00  0.00     0.031 C 
ATOM     53  C   UNL A   1      43.861  28.234  30.499  1.00  0.00     0.029 A 
ATOM     54  C   UNL A   1      44.134  29.392  29.646  1.00  0.00     0.049 A 
ATOM     55  H   UNL A   1      43.375  29.731  27.715  1.00  0.00     0.167 HD
ATOM     56  C   UNL A   1      37.415  30.103  28.936  1.00  0.00     0.037 A 
ATOM     57  C   UNL A   1      44.461  30.631  30.115  1.00  0.00     0.037 A 
ATOM     58  C   UNL A   1      37.503  29.895  30.349  1.00  0.00     0.049 A 
ATOM     59  C   UNL A   1      43.129  31.080  30.670  1.00  0.00     0.074 A 
ATOM     60  C   UNL A   1      37.003  29.025  31.295  1.00  0.00     0.029 A 
ATOM     61  N   UNL A   1      38.301  30.753  31.068  1.00  0.00    -0.354 N 
ATOM     62  N   UNL A   1      42.596  30.707  31.804  1.00  0.00    -0.248 NA
ATOM     63  C   UNL A   1      42.196  31.694  29.724  1.00  0.00     0.031 C 
ATOM     64  C   UNL A   1      37.909  29.109  32.401  1.00  0.00     0.029 A 
ATOM     65  C   UNL A   1      38.913  30.003  32.037  1.00  0.00     0.049 A 
ATOM     66  H   UNL A   1      38.412  31.719  30.916  1.00  0.00     0.167 HD
ATOM     67  C   UNL A   1      41.215  30.801  31.607  1.00  0.00     0.074 A 
ATOM     68  C   UNL A   1      41.040  31.424  30.312  1.00  0.00     0.031 C 
ATOM     69  C   UNL A   1      40.290  30.209  32.417  1.00  0.00     0.037 A 
BRANCH  56  70
ATOM     70  C   UNL A   1      36.348  30.989  28.428  1.00  0.00     0.064 A 
ATOM     71  C   UNL A   1      36.550  32.374  28.546  1.00  0.00     0.173 A 
ATOM     72  C   UNL A   1      35.074  30.537  28.080  1.00  0.00     0.173 A 
ATOM     73  F   UNL A   1      37.760  32.845  28.894  1.00  0.00    -0.203 F 
ATOM     74  C   UNL A   1      35.506  33.274  28.376  1.00  0.00     0.198 A 
ATOM     75  C   UNL A   1      34.028  31.444  27.893  1.00  0.00     0.198 A 
ATOM     76  F   UNL A   1      34.826  29.223  27.973  1.00  0.00    -0.203 F 
ATOM     77  F   UNL A   1      35.720  34.583  28.562  1.00  0.00    -0.200 F 
ATOM     78  C   UNL A   1      34.241  32.808  28.059  1.00  0.00     0.200 A 
ATOM     79  F   UNL A   1      32.800  30.999  27.590  1.00  0.00    -0.200 F 
ATOM     80  F   UNL A   1      33.225  33.671  27.932  1.00  0.00    -0.200 F 
ENDBRANCH  56  70
BRANCH  57  81
ATOM     81  C   UNL A   1      45.302  31.489  29.214  1.00  0.00     0.064 A 
ATOM     82  C   UNL A   1      46.273  30.866  28.403  1.00  0.00     0.173 A 
ATOM     83  C   UNL A   1      45.221  32.886  29.104  1.00  0.00     0.173 A 
ATOM     84  F   UNL A   1      46.518  29.552  28.533  1.00  0.00    -0.203 F 
ATOM     85  C   UNL A   1      47.000  31.569  27.442  1.00  0.00     0.198 A 
ATOM     86  C   UNL A   1      45.926  33.588  28.122  1.00  0.00     0.198 A 
ATOM     87  F   UNL A   1      44.446  33.602  29.930  1.00  0.00    -0.203 F 
ATOM     88  F   UNL A   1      47.878  30.923  26.663  1.00  0.00    -0.200 F 
ATOM     89  C   UNL A   1      46.797  32.927  27.275  1.00  0.00     0.200 A 
ATOM     90  F   UNL A   1      45.733  34.908  27.981  1.00  0.00    -0.200 F 
ATOM     91  F   UNL A   1      47.440  33.595  26.309  1.00  0.00    -0.200 F 
ENDBRANCH  57  81
BRANCH  69  92
ATOM     92  C   UNL A   1      40.815  29.559  33.646  1.00  0.00     0.064 A 
ATOM     93  C   UNL A   1      41.158  28.203  33.634  1.00  0.00     0.173 A 
ATOM     94  C   UNL A   1      41.050  30.292  34.821  1.00  0.00     0.173 A 
ATOM     95  F   UNL A   1      40.961  27.464  32.531  1.00  0.00    -0.203 F 
ATOM     96  C   UNL A   1      41.748  27.607  34.744  1.00  0.00     0.198 A 
ATOM     97  C   UNL A   1      41.665  29.700  35.919  1.00  0.00     0.198 A 
ATOM     98  F   UNL A   1      40.719  31.591  34.897  1.00  0.00    -0.203 F 
ATOM     99  F   UNL A   1      42.085  26.311  34.708  1.00  0.00    -0.200 F 
ATOM    100  C   UNL A   1      42.017  28.361  35.879  1.00  0.00     0.200 A 
ATOM    101  F   UNL A   1      41.940  30.433  37.007  1.00  0.00    -0.200 F 
ATOM    102  F   UNL A   1      42.631  27.797  36.928  1.00  0.00    -0.200 F 
ENDBRANCH  69  92
ENDBRANCH  43  44
ENDBRANCH  36  38
ENDBRANCH  35  36
ENDBRANCH  34  35
ENDBRANCH  33  34
ENDBRANCH  32  33
ENDBRANCH   1  32
TORSDOF 17
ENDMDL
MODEL 2
REMARK VINA RESULT:     -10.6      5.782     10.518
REMARK SMILES Cc1c(CC(=O)N[C@@H](C)C(=O)OCCOCCOC(=O)c2ccc(-c3c4nc(c(-c5c(F)c(F)c(F)c(F)c5F)c5ccc([nH]5)c(-c5c(F)c(F)c(F)c(F)c5F)c5nc(c(-c6c(F)c(F)c(F)c(F)c6F)c6ccc3[nH]6)C=C5)C=C4)cc2)c(=O)oc2cc3oc4c(c3cc12)CCCC4
REMARK SMILES IDX 14 1 13 2 12 3 10 4 11 5 8 6 9 7 7 8 5 9 6 10 4 12 3 13 1 14
REMARK SMILES IDX 2 15 95 16 84 17 87 18 94 19 85 20 86 21 88 22 93 23 89 24
REMARK SMILES IDX 92 25 90 26 91 27 96 28 99 29 97 30 98 31 15 32 16 33 17 34
REMARK SMILES IDX 18 35 19 36 20 37 21 38 22 39 83 40 23 41 82 42 24 43 25 44
REMARK SMILES IDX 26 45 76 46 27 47 81 48 75 49 77 50 28 51 80 52 74 53 73 54
REMARK SMILES IDX 29 56 61 57 41 58 60 59 42 60 45 61 59 62 78 63 43 64 44 65
REMARK SMILES IDX 58 67 79 68 46 69 30 70 31 71 39 72 32 73 33 74 37 75 40 76
REMARK SMILES IDX 34 77 35 78 38 79 36 80 62 81 63 82 71 83 64 84 65 85 69 86
REMARK SMILES IDX 72 87 66 88 67 89 70 90 68 91 47 92 48 93 56 94 49 95 50 96
REMARK SMILES IDX 54 97 57 98 51 99 52 100 55 101 53 102
REMARK H PARENT 7 11 77 55 45 66
REMARK Flexibility Score: inf
ROOT
ATOM      1  C   UNL A   1      47.440  23.324  38.998  1.00  0.00     0.202 C 
ENDROOT
BRANCH   1   2
ATOM      2  C   UNL A   1      48.917  23.019  39.279  1.00  0.00     0.261 C 
BRANCH   2   3
ATOM      3  O   UNL A   1      49.076  22.155  40.409  1.00  0.00    -0.462 OA
BRANCH   3   4
ATOM      4  C   UNL A   1      49.752  21.005  40.149  1.00  0.00     0.328 C 
ATOM      5  O   UNL A   1      50.960  20.925  39.954  1.00  0.00    -0.250 OA
BRANCH   4   6
ATOM      6  C   UNL A   1      48.833  19.783  40.096  1.00  0.00     0.189 C 
ATOM      7  C   UNL A   1      48.885  19.220  38.682  1.00  0.00     0.043 C 
BRANCH   6   8
ATOM      8  N   UNL A   1      47.435  19.988  40.501  1.00  0.00    -0.343 N 
ATOM      9  C   UNL A   1      46.382  19.115  40.478  1.00  0.00     0.225 C 
ATOM     10  O   UNL A   1      45.280  19.520  40.858  1.00  0.00    -0.275 OA
ATOM     11  H   UNL A   1      47.224  20.887  40.839  1.00  0.00     0.164 HD
BRANCH   9  12
ATOM     12  C   UNL A   1      46.562  17.660  40.029  1.00  0.00     0.143 C 
BRANCH  12  13
ATOM     13  C   UNL A   1      45.363  16.819  40.378  1.00  0.00     0.051 A 
ATOM     14  C   UNL A   1      46.319  16.041  42.572  1.00  0.00     0.046 C 
ATOM     15  C   UNL A   1      45.197  16.233  41.578  1.00  0.00    -0.029 A 
ATOM     16  C   UNL A   1      43.866  15.722  41.925  1.00  0.00     0.022 A 
ATOM     17  C   UNL A   1      44.318  16.743  39.321  1.00  0.00     0.340 A 
ATOM     18  C   UNL A   1      42.890  15.617  40.931  1.00  0.00     0.142 A 
ATOM     19  C   UNL A   1      43.584  15.258  43.212  1.00  0.00     0.024 A 
ATOM     20  O   UNL A   1      44.505  17.211  38.202  1.00  0.00    -0.246 OA
ATOM     21  O   UNL A   1      43.120  16.137  39.646  1.00  0.00    -0.422 OA
ATOM     22  C   UNL A   1      41.690  14.918  41.095  1.00  0.00     0.095 A 
ATOM     23  C   UNL A   1      42.505  14.378  43.348  1.00  0.00     0.025 A 
ATOM     24  C   UNL A   1      41.635  14.195  42.276  1.00  0.00     0.138 A 
ATOM     25  C   UNL A   1      42.273  13.307  44.249  1.00  0.00     0.001 A 
ATOM     26  O   UNL A   1      40.901  13.060  42.459  1.00  0.00    -0.461 OA
ATOM     27  C   UNL A   1      41.481  12.441  43.518  1.00  0.00     0.108 A 
ATOM     28  C   UNL A   1      43.209  12.764  45.270  1.00  0.00     0.040 C 
ATOM     29  C   UNL A   1      41.844  10.999  43.384  1.00  0.00     0.076 C 
ATOM     30  C   UNL A   1      44.050  11.638  44.625  1.00  0.00     0.005 C 
ATOM     31  C   UNL A   1      43.402  10.971  43.374  1.00  0.00     0.008 C 
ENDBRANCH  12  13
ENDBRANCH   9  12
ENDBRANCH   6   8
ENDBRANCH   4   6
ENDBRANCH   3   4
ENDBRANCH   2   3
ENDBRANCH   1   2
BRANCH   1  32
ATOM     32  O   UNL A   1      46.642  22.244  38.523  1.00  0.00    -0.374 OA
BRANCH  32  33
ATOM     33  C   UNL A   1      46.875  21.763  37.196  1.00  0.00     0.202 C 
BRANCH  33  34
ATOM     34  C   UNL A   1      45.653  21.500  36.304  1.00  0.00     0.261 C 
BRANCH  34  35
ATOM     35  O   UNL A   1      45.553  22.467  35.242  1.00  0.00    -0.460 OA
BRANCH  35  36
ATOM     36  C   UNL A   1      44.832  23.579  35.509  1.00  0.00     0.338 C 
ATOM     37  O   UNL A   1      44.416  23.972  36.590  1.00  0.00    -0.246 OA
BRANCH  36  38
ATOM     38  C   UNL A   1      44.788  24.379  34.282  1.00  0.00     0.060 A 
ATOM     39  C   UNL A   1      45.254  25.692  34.278  1.00  0.00     0.016 A 
ATOM     40  C   UNL A   1      44.271  23.797  33.121  1.00  0.00     0.016 A 
ATOM     41  C   UNL A   1      45.204  26.425  33.091  1.00  0.00     0.010 A 
ATOM     42  C   UNL A   1      44.178  24.545  31.954  1.00  0.00     0.010 A 
ATOM     43  C   UNL A   1      44.674  25.854  31.920  1.00  0.00    -0.014 A 
BRANCH  43  44
ATOM     44  C   UNL A   1      44.845  26.578  30.644  1.00  0.00     0.031 A 
ATOM     45  C   UNL A   1      44.778  25.713  29.415  1.00  0.00     0.074 A 
ATOM     46  C   UNL A   1      44.553  27.891  30.522  1.00  0.00     0.049 A 
ATOM     47  N   UNL A   1      43.662  25.366  28.837  1.00  0.00    -0.248 NA
ATOM     48  C   UNL A   1      45.939  24.959  28.942  1.00  0.00     0.031 C 
ATOM     49  C   UNL A   1      43.420  28.546  31.184  1.00  0.00     0.029 A 
ATOM     50  N   UNL A   1      45.037  28.844  29.652  1.00  0.00    -0.354 N 
ATOM     51  C   UNL A   1      43.955  24.341  27.950  1.00  0.00     0.074 A 
ATOM     52  C   UNL A   1      45.382  24.129  28.047  1.00  0.00     0.031 C 
ATOM     53  C   UNL A   1      43.185  29.724  30.570  1.00  0.00     0.029 A 
ATOM     54  C   UNL A   1      44.222  29.971  29.567  1.00  0.00     0.049 A 
ATOM     55  H   UNL A   1      45.872  28.739  29.143  1.00  0.00     0.167 HD
ATOM     56  C   UNL A   1      43.014  23.726  27.183  1.00  0.00     0.037 A 
ATOM     57  C   UNL A   1      44.034  30.705  28.432  1.00  0.00     0.037 A 
ATOM     58  C   UNL A   1      41.674  24.206  27.334  1.00  0.00     0.049 A 
ATOM     59  C   UNL A   1      43.174  29.758  27.627  1.00  0.00     0.074 A 
ATOM     60  C   UNL A   1      40.520  23.845  27.996  1.00  0.00     0.029 A 
ATOM     61  N   UNL A   1      41.338  25.364  26.676  1.00  0.00    -0.354 N 
ATOM     62  N   UNL A   1      41.896  29.540  27.791  1.00  0.00    -0.248 NA
ATOM     63  C   UNL A   1      43.876  28.740  26.842  1.00  0.00     0.031 C 
ATOM     64  C   UNL A   1      39.749  25.049  28.094  1.00  0.00     0.029 A 
ATOM     65  C   UNL A   1      40.503  26.063  27.508  1.00  0.00     0.049 A 
ATOM     66  H   UNL A   1      41.639  25.640  25.780  1.00  0.00     0.167 HD
ATOM     67  C   UNL A   1      41.689  28.229  27.354  1.00  0.00     0.074 A 
ATOM     68  C   UNL A   1      42.944  27.801  26.774  1.00  0.00     0.031 C 
ATOM     69  C   UNL A   1      40.575  27.497  27.645  1.00  0.00     0.037 A 
BRANCH  56  70
ATOM     70  C   UNL A   1      43.296  22.786  26.078  1.00  0.00     0.064 A 
ATOM     71  C   UNL A   1      43.180  21.414  26.356  1.00  0.00     0.173 A 
ATOM     72  C   UNL A   1      43.902  23.167  24.880  1.00  0.00     0.173 A 
ATOM     73  F   UNL A   1      42.616  21.010  27.507  1.00  0.00    -0.203 F 
ATOM     74  C   UNL A   1      43.699  20.456  25.494  1.00  0.00     0.198 A 
ATOM     75  C   UNL A   1      44.409  22.202  24.006  1.00  0.00     0.198 A 
ATOM     76  F   UNL A   1      44.052  24.465  24.578  1.00  0.00    -0.203 F 
ATOM     77  F   UNL A   1      43.630  19.159  25.822  1.00  0.00    -0.200 F 
ATOM     78  C   UNL A   1      44.323  20.851  24.322  1.00  0.00     0.200 A 
ATOM     79  F   UNL A   1      45.017  22.578  22.872  1.00  0.00    -0.200 F 
ATOM     80  F   UNL A   1      44.857  19.931  23.508  1.00  0.00    -0.200 F 
ENDBRANCH  56  70
BRANCH  57  81
ATOM     81  C   UNL A   1      45.244  31.391  27.867  1.00  0.00     0.064 A 
ATOM     82  C   UNL A   1      45.193  32.785  27.658  1.00  0.00     0.173 A 
ATOM     83  C   UNL A   1      46.449  30.764  27.509  1.00  0.00     0.173 A 
ATOM     84  F   UNL A   1      44.043  33.453  27.845  1.00  0.00    -0.203 F 
ATOM     85  C   UNL A   1      46.314  33.519  27.267  1.00  0.00     0.198 A 
ATOM     86  C   UNL A   1      47.580  31.500  27.146  1.00  0.00     0.198 A 
ATOM     87  F   UNL A   1      46.564  29.430  27.518  1.00  0.00    -0.203 F 
ATOM     88  F   UNL A   1      46.226  34.848  27.128  1.00  0.00    -0.200 F 
ATOM     89  C   UNL A   1      47.519  32.878  27.049  1.00  0.00     0.200 A 
ATOM     90  F   UNL A   1      48.740  30.867  26.920  1.00  0.00    -0.200 F 
ATOM     91  F   UNL A   1      48.615  33.584  26.741  1.00  0.00    -0.200 F 
ENDBRANCH  57  81
BRANCH  69  92
ATOM     92  C   UNL A   1      39.480  28.220  28.345  1.00  0.00     0.064 A 
ATOM     93  C   UNL A   1      38.646  29.092  27.636  1.00  0.00     0.173 A 
ATOM     94  C   UNL A   1      39.204  27.997  29.703  1.00  0.00     0.173 A 
ATOM     95  F   UNL A   1      38.865  29.329  26.333  1.00  0.00    -0.203 F 
ATOM     96  C   UNL A   1      37.555  29.693  28.254  1.00  0.00     0.198 A 
ATOM     97  C   UNL A   1      38.096  28.578  30.310  1.00  0.00     0.198 A 
ATOM     98  F   UNL A   1      39.984  27.188  30.438  1.00  0.00    -0.203 F 
ATOM     99  F   UNL A   1      36.758  30.513  27.555  1.00  0.00    -0.200 F 
ATOM    100  C   UNL A   1      37.270  29.422  29.586  1.00  0.00     0.200 A 
ATOM    101  F   UNL A   1      37.813  28.301  31.591  1.00  0.00    -0.200 F 
ATOM    102  F   UNL A   1      36.189  29.963  30.164  1.00  0.00    -0.200 F 
ENDBRANCH  69  92
ENDBRANCH  43  44
ENDBRANCH  36  38
ENDBRANCH  35  36
ENDBRANCH  34  35
ENDBRANCH  33  34
ENDBRANCH  32  33
ENDBRANCH   1  32
TORSDOF 17
ENDMDL
MODEL 3
REMARK VINA RESULT:     -10.0      8.757     14.858
REMARK SMILES Cc1c(CC(=O)N[C@@H](C)C(=O)OCCOCCOC(=O)c2ccc(-c3c4nc(c(-c5c(F)c(F)c(F)c(F)c5F)c5ccc([nH]5)c(-c5c(F)c(F)c(F)c(F)c5F)c5nc(c(-c6c(F)c(F)c(F)c(F)c6F)c6ccc3[nH]6)C=C5)C=C4)cc2)c(=O)oc2cc3oc4c(c3cc12)CCCC4
REMARK SMILES IDX 14 1 13 2 12 3 10 4 11 5 8 6 9 7 7 8 5 9 6 10 4 12 3 13 1 14
REMARK SMILES IDX 2 15 95 16 84 17 87 18 94 19 85 20 86 21 88 22 93 23 89 24
REMARK SMILES IDX 92 25 90 26 91 27 96 28 99 29 97 30 98 31 15 32 16 33 17 34
REMARK SMILES IDX 18 35 19 36 20 37 21 38 22 39 83 40 23 41 82 42 24 43 25 44
REMARK SMILES IDX 26 45 76 46 27 47 81 48 75 49 77 50 28 51 80 52 74 53 73 54
REMARK SMILES IDX 29 56 61 57 41 58 60 59 42 60 45 61 59 62 78 63 43 64 44 65
REMARK SMILES IDX 58 67 79 68 46 69 30 70 31 71 39 72 32 73 33 74 37 75 40 76
REMARK SMILES IDX 34 77 35 78 38 79 36 80 62 81 63 82 71 83 64 84 65 85 69 86
REMARK SMILES IDX 72 87 66 88 67 89 70 90 68 91 47 92 48 93 56 94 49 95 50 96
REMARK SMILES IDX 54 97 57 98 51 99 52 100 55 101 53 102
REMARK H PARENT 7 11 77 55 45 66
REMARK Flexibility Score: inf
ROOT
ATOM      1  C   UNL A   1      45.642  39.393  28.125  1.00  0.00     0.202 C 
ENDROOT
BRANCH   1   2
ATOM      2  C   UNL A   1      45.650  40.917  27.957  1.00  0.00     0.261 C 
BRANCH   2   3
ATOM      3  O   UNL A   1      44.400  41.501  28.338  1.00  0.00    -0.462 OA
BRANCH   3   4
ATOM      4  C   UNL A   1      43.306  40.864  27.844  1.00  0.00     0.328 C 
ATOM      5  O   UNL A   1      42.670  39.996  28.431  1.00  0.00    -0.250 OA
BRANCH   4   6
ATOM      6  C   UNL A   1      42.946  41.327  26.431  1.00  0.00     0.189 C 
ATOM      7  C   UNL A   1      41.724  40.538  25.978  1.00  0.00     0.043 C 
BRANCH   6   8
ATOM      8  N   UNL A   1      44.003  41.237  25.414  1.00  0.00    -0.343 N 
ATOM      9  C   UNL A   1      44.332  42.113  24.417  1.00  0.00     0.225 C 
ATOM     10  O   UNL A   1      45.262  41.815  23.662  1.00  0.00    -0.275 OA
ATOM     11  H   UNL A   1      44.558  40.426  25.458  1.00  0.00     0.164 HD
BRANCH   9  12
ATOM     12  C   UNL A   1      43.596  43.447  24.252  1.00  0.00     0.143 C 
BRANCH  12  13
ATOM     13  C   UNL A   1      43.056  43.616  22.856  1.00  0.00     0.051 A 
ATOM     14  C   UNL A   1      45.031  44.954  22.057  1.00  0.00     0.046 C 
ATOM     15  C   UNL A   1      43.772  44.147  21.848  1.00  0.00    -0.029 A 
ATOM     16  C   UNL A   1      43.282  43.965  20.477  1.00  0.00     0.022 A 
ATOM     17  C   UNL A   1      41.687  43.074  22.642  1.00  0.00     0.340 A 
ATOM     18  C   UNL A   1      41.986  43.486  20.267  1.00  0.00     0.142 A 
ATOM     19  C   UNL A   1      44.059  44.341  19.378  1.00  0.00     0.024 A 
ATOM     20  O   UNL A   1      41.008  42.662  23.577  1.00  0.00    -0.246 OA
ATOM     21  O   UNL A   1      41.208  43.036  21.346  1.00  0.00    -0.422 OA
ATOM     22  C   UNL A   1      41.343  43.516  19.026  1.00  0.00     0.095 A 
ATOM     23  C   UNL A   1      43.384  44.583  18.176  1.00  0.00     0.025 A 
ATOM     24  C   UNL A   1      42.046  44.219  18.060  1.00  0.00     0.138 A 
ATOM     25  C   UNL A   1      43.657  45.475  17.108  1.00  0.00     0.001 A 
ATOM     26  O   UNL A   1      41.478  44.855  16.996  1.00  0.00    -0.461 OA
ATOM     27  C   UNL A   1      42.402  45.770  16.609  1.00  0.00     0.108 A 
ATOM     28  C   UNL A   1      44.737  46.497  17.035  1.00  0.00     0.040 C 
ATOM     29  C   UNL A   1      41.964  47.186  16.426  1.00  0.00     0.076 C 
ATOM     30  C   UNL A   1      44.200  47.830  17.609  1.00  0.00     0.005 C 
ATOM     31  C   UNL A   1      42.649  47.977  17.580  1.00  0.00     0.008 C 
ENDBRANCH  12  13
ENDBRANCH   9  12
ENDBRANCH   6   8
ENDBRANCH   4   6
ENDBRANCH   3   4
ENDBRANCH   2   3
ENDBRANCH   1   2
BRANCH   1  32
ATOM     32  O   UNL A   1      45.622  38.616  26.932  1.00  0.00    -0.374 OA
BRANCH  32  33
ATOM     33  C   UNL A   1      45.939  37.225  27.025  1.00  0.00     0.202 C 
BRANCH  33  34
ATOM     34  C   UNL A   1      46.940  36.648  26.012  1.00  0.00     0.261 C 
BRANCH  34  35
ATOM     35  O   UNL A   1      47.146  35.237  26.213  1.00  0.00    -0.460 OA
BRANCH  35  36
ATOM     36  C   UNL A   1      46.214  34.414  25.682  1.00  0.00     0.338 C 
ATOM     37  O   UNL A   1      45.680  34.480  24.584  1.00  0.00    -0.246 OA
BRANCH  36  38
ATOM     38  C   UNL A   1      46.078  33.266  26.584  1.00  0.00     0.060 A 
ATOM     39  C   UNL A   1      46.848  33.182  27.742  1.00  0.00     0.016 A 
ATOM     40  C   UNL A   1      45.161  32.263  26.256  1.00  0.00     0.016 A 
ATOM     41  C   UNL A   1      46.689  32.079  28.582  1.00  0.00     0.010 A 
ATOM     42  C   UNL A   1      45.041  31.143  27.069  1.00  0.00     0.010 A 
ATOM     43  C   UNL A   1      45.779  31.057  28.256  1.00  0.00    -0.014 A 
BRANCH  43  44
ATOM     44  C   UNL A   1      45.481  30.029  29.275  1.00  0.00     0.031 A 
ATOM     45  C   UNL A   1      44.016  29.781  29.508  1.00  0.00     0.074 A 
ATOM     46  C   UNL A   1      46.355  29.045  29.574  1.00  0.00     0.049 A 
ATOM     47  N   UNL A   1      43.294  28.978  28.776  1.00  0.00    -0.248 NA
ATOM     48  C   UNL A   1      43.222  30.637  30.390  1.00  0.00     0.031 C 
ATOM     49  C   UNL A   1      47.202  28.369  28.586  1.00  0.00     0.029 A 
ATOM     50  N   UNL A   1      46.519  28.306  30.726  1.00  0.00    -0.354 N 
ATOM     51  C   UNL A   1      41.963  29.231  29.071  1.00  0.00     0.074 A 
ATOM     52  C   UNL A   1      41.970  30.263  30.084  1.00  0.00     0.031 C 
ATOM     53  C   UNL A   1      47.653  27.215  29.123  1.00  0.00     0.029 A 
ATOM     54  C   UNL A   1      47.242  27.132  30.525  1.00  0.00     0.049 A 
ATOM     55  H   UNL A   1      46.160  28.579  31.601  1.00  0.00     0.167 HD
ATOM     56  C   UNL A   1      40.929  28.577  28.474  1.00  0.00     0.037 A 
ATOM     57  C   UNL A   1      47.019  25.963  31.192  1.00  0.00     0.037 A 
ATOM     58  C   UNL A   1      41.292  27.586  27.507  1.00  0.00     0.049 A 
ATOM     59  C   UNL A   1      45.719  25.524  30.559  1.00  0.00     0.074 A 
ATOM     60  C   UNL A   1      41.383  27.471  26.136  1.00  0.00     0.029 A 
ATOM     61  N   UNL A   1      41.692  26.358  27.977  1.00  0.00    -0.354 N 
ATOM     62  N   UNL A   1      45.576  24.971  29.383  1.00  0.00    -0.248 NA
ATOM     63  C   UNL A   1      44.489  26.075  31.133  1.00  0.00     0.031 C 
ATOM     64  C   UNL A   1      42.288  26.383  25.909  1.00  0.00     0.029 A 
ATOM     65  C   UNL A   1      42.705  25.934  27.159  1.00  0.00     0.049 A 
ATOM     66  H   UNL A   1      41.322  25.876  28.752  1.00  0.00     0.167 HD
ATOM     67  C   UNL A   1      44.296  25.339  28.958  1.00  0.00     0.074 A 
ATOM     68  C   UNL A   1      43.681  26.006  30.086  1.00  0.00     0.031 C 
ATOM     69  C   UNL A   1      43.868  25.245  27.666  1.00  0.00     0.037 A 
BRANCH  56  70
ATOM     70  C   UNL A   1      39.515  28.651  28.897  1.00  0.00     0.064 A 
ATOM     71  C   UNL A   1      38.620  29.309  28.039  1.00  0.00     0.173 A 
ATOM     72  C   UNL A   1      39.081  28.337  30.186  1.00  0.00     0.173 A 
ATOM     73  F   UNL A   1      39.009  29.642  26.796  1.00  0.00    -0.203 F 
ATOM     74  C   UNL A   1      37.355  29.690  28.467  1.00  0.00     0.198 A 
ATOM     75  C   UNL A   1      37.802  28.705  30.611  1.00  0.00     0.198 A 
ATOM     76  F   UNL A   1      39.905  27.724  31.049  1.00  0.00    -0.203 F 
ATOM     77  F   UNL A   1      36.552  30.375  27.642  1.00  0.00    -0.200 F 
ATOM     78  C   UNL A   1      36.949  29.396  29.758  1.00  0.00     0.200 A 
ATOM     79  F   UNL A   1      37.404  28.426  31.860  1.00  0.00    -0.200 F 
ATOM     80  F   UNL A   1      35.743  29.794  30.185  1.00  0.00    -0.200 F 
ENDBRANCH  56  70
BRANCH  57  81
ATOM     81  C   UNL A   1      47.238  25.984  32.677  1.00  0.00     0.064 A 
ATOM     82  C   UNL A   1      48.226  26.844  33.201  1.00  0.00     0.173 A 
ATOM     83  C   UNL A   1      46.545  25.206  33.619  1.00  0.00     0.173 A 
ATOM     84  F   UNL A   1      49.031  27.529  32.373  1.00  0.00    -0.203 F 
ATOM     85  C   UNL A   1      48.401  27.026  34.574  1.00  0.00     0.198 A 
ATOM     86  C   UNL A   1      46.697  25.409  34.994  1.00  0.00     0.198 A 
ATOM     87  F   UNL A   1      45.694  24.247  33.232  1.00  0.00    -0.203 F 
ATOM     88  F   UNL A   1      49.321  27.890  35.021  1.00  0.00    -0.200 F 
ATOM     89  C   UNL A   1      47.607  26.335  35.470  1.00  0.00     0.200 A 
ATOM     90  F   UNL A   1      45.934  24.720  35.855  1.00  0.00    -0.200 F 
ATOM     91  F   UNL A   1      47.722  26.556  36.786  1.00  0.00    -0.200 F 
ENDBRANCH  57  81
BRANCH  69  92
ATOM     92  C   UNL A   1      44.794  24.576  26.715  1.00  0.00     0.064 A 
ATOM     93  C   UNL A   1      44.682  23.202  26.473  1.00  0.00     0.173 A 
ATOM     94  C   UNL A   1      45.745  25.303  25.982  1.00  0.00     0.173 A 
ATOM     95  F   UNL A   1      43.779  22.467  27.142  1.00  0.00    -0.203 F 
ATOM     96  C   UNL A   1      45.470  22.582  25.509  1.00  0.00     0.198 A 
ATOM     97  C   UNL A   1      46.513  24.685  25.001  1.00  0.00     0.198 A 
ATOM     98  F   UNL A   1      45.911  26.619  26.190  1.00  0.00    -0.203 F 
ATOM     99  F   UNL A   1      45.338  21.269  25.280  1.00  0.00    -0.200 F 
ATOM    100  C   UNL A   1      46.372  23.328  24.762  1.00  0.00     0.200 A 
ATOM    101  F   UNL A   1      47.370  25.410  24.268  1.00  0.00    -0.200 F 
ATOM    102  F   UNL A   1      47.094  22.738  23.799  1.00  0.00    -0.200 F 
ENDBRANCH  69  92
ENDBRANCH  43  44
ENDBRANCH  36  38
ENDBRANCH  35  36
ENDBRANCH  34  35
ENDBRANCH  33  34
ENDBRANCH  32  33
ENDBRANCH   1  32
TORSDOF 17
ENDMDL
