MODEL 1
REMARK VINA RESULT:     -12.1      0.000      0.000
REMARK SMILES CCOC(=O)c1cccc(Nc2c(-c3ccc(C(=O)OCCOCCOC(=O)c4ccc(-c5c6nc(c(-c7c(F)c(F)c(F)c(F)c7F)c7ccc([nH]7)c(-c7c(F)c(F)c(F)c(F)c7F)c7nc(c(-c8c(F)c(F)c(F)c(F)c8F)c8ccc5[nH]8)C=C7)C=C6)cc4)cc3)nc3cnccn23)c1
REMARK SMILES IDX 21 1 20 2 18 3 19 4 17 5 14 6 15 7 93 8 16 9 92 10 13 11
REMARK SMILES IDX 12 12 100 13 94 14 95 15 99 16 96 17 98 18 97 19 11 20 10 22
REMARK SMILES IDX 6 23 7 24 101 25 8 26 9 27 4 28 5 29 3 30 2 31 1 32 22 33
REMARK SMILES IDX 23 34 24 35 25 36 26 37 27 38 28 39 29 40 30 41 91 42 31 43
REMARK SMILES IDX 90 44 32 45 33 46 34 47 84 48 35 49 89 50 83 51 85 52 36 53
REMARK SMILES IDX 88 54 82 55 81 56 37 58 69 59 49 60 68 61 50 62 53 63 67 64
REMARK SMILES IDX 86 65 51 66 52 67 66 69 87 70 54 71 38 72 39 73 47 74 40 75
REMARK SMILES IDX 41 76 45 77 48 78 42 79 43 80 46 81 44 82 70 83 71 84 79 85
REMARK SMILES IDX 72 86 73 87 77 88 80 89 74 90 75 91 78 92 76 93 55 94 56 95
REMARK SMILES IDX 64 96 57 97 58 98 62 99 65 100 59 101 60 102 63 103 61 104
REMARK H PARENT 11 21 85 57 53 68
REMARK Flexibility Score: inf
ROOT
ATOM      1  C   UNL A   1      32.348  20.127  24.398  1.00  0.00     0.261 C 
ENDROOT
BRANCH   1   2
ATOM      2  O   UNL A   1      32.814  21.384  23.880  1.00  0.00    -0.460 OA
BRANCH   2   3
ATOM      3  C   UNL A   1      32.265  21.747  22.696  1.00  0.00     0.338 C 
ATOM      4  O   UNL A   1      32.053  21.022  21.736  1.00  0.00    -0.246 OA
BRANCH   3   5
ATOM      5  C   UNL A   1      31.797  23.150  22.750  1.00  0.00     0.060 A 
ATOM      6  C   UNL A   1      31.106  25.865  22.888  1.00  0.00     0.004 A 
ATOM      7  C   UNL A   1      32.279  25.467  22.235  1.00  0.00     0.011 A 
ATOM      8  C   UNL A   1      30.264  24.891  23.444  1.00  0.00     0.011 A 
ATOM      9  C   UNL A   1      32.625  24.119  22.173  1.00  0.00     0.016 A 
ATOM     10  C   UNL A   1      30.598  23.532  23.365  1.00  0.00     0.016 A 
BRANCH   6  11
ATOM     11  C   UNL A   1      30.840  27.276  23.096  1.00  0.00     0.114 A 
ATOM     12  C   UNL A   1      31.188  28.024  24.217  1.00  0.00     0.143 A 
ATOM     13  N   UNL A   1      30.588  29.252  24.002  1.00  0.00    -0.283 N 
ATOM     14  N   UNL A   1      30.053  27.996  22.224  1.00  0.00    -0.225 NA
ATOM     15  C   UNL A   1      29.897  29.153  22.821  1.00  0.00     0.157 A 
ATOM     16  C   UNL A   1      30.567  30.445  24.708  1.00  0.00     0.115 A 
ATOM     17  C   UNL A   1      29.108  30.274  22.389  1.00  0.00     0.158 A 
ATOM     18  C   UNL A   1      29.818  31.456  24.232  1.00  0.00     0.129 A 
ATOM     19  N   UNL A   1      29.063  31.388  23.071  1.00  0.00    -0.259 NA
BRANCH  12  20
ATOM     20  N   UNL A   1      31.968  27.728  25.295  1.00  0.00    -0.339 N 
ATOM     21  H   UNL A   1      31.989  28.391  26.023  1.00  0.00     0.168 HD
BRANCH  20  22
ATOM     22  C   UNL A   1      32.752  26.559  25.471  1.00  0.00     0.040 A 
ATOM     23  C   UNL A   1      32.930  24.297  26.365  1.00  0.00     0.062 A 
ATOM     24  C   UNL A   1      34.256  24.216  25.937  1.00  0.00     0.016 A 
ATOM     25  C   UNL A   1      32.172  25.450  26.111  1.00  0.00     0.041 A 
ATOM     26  C   UNL A   1      34.823  25.285  25.250  1.00  0.00     0.003 A 
ATOM     27  C   UNL A   1      34.077  26.447  25.027  1.00  0.00     0.026 A 
BRANCH  23  28
ATOM     28  C   UNL A   1      32.392  23.186  27.176  1.00  0.00     0.338 C 
ATOM     29  O   UNL A   1      33.052  22.201  27.467  1.00  0.00    -0.246 OA
BRANCH  28  30
ATOM     30  O   UNL A   1      31.097  23.421  27.492  1.00  0.00    -0.462 OA
BRANCH  30  31
ATOM     31  C   UNL A   1      30.138  22.652  26.748  1.00  0.00     0.230 C 
ATOM     32  C   UNL A   1      28.826  22.494  27.500  1.00  0.00     0.049 C 
ENDBRANCH  30  31
ENDBRANCH  28  30
ENDBRANCH  23  28
ENDBRANCH  20  22
ENDBRANCH  12  20
ENDBRANCH   6  11
ENDBRANCH   3   5
ENDBRANCH   2   3
ENDBRANCH   1   2
BRANCH   1  33
ATOM     33  C   UNL A   1      33.493  19.352  25.055  1.00  0.00     0.202 C 
BRANCH  33  34
ATOM     34  O   UNL A   1      34.800  19.688  24.590  1.00  0.00    -0.374 OA
BRANCH  34  35
ATOM     35  C   UNL A   1      35.536  20.623  25.385  1.00  0.00     0.202 C 
BRANCH  35  36
ATOM     36  C   UNL A   1      36.987  20.848  24.943  1.00  0.00     0.261 C 
BRANCH  36  37
ATOM     37  O   UNL A   1      37.637  21.824  25.780  1.00  0.00    -0.460 OA
BRANCH  37  38
ATOM     38  C   UNL A   1      38.902  21.522  26.151  1.00  0.00     0.338 C 
ATOM     39  O   UNL A   1      39.498  20.467  25.979  1.00  0.00    -0.246 OA
BRANCH  38  40
ATOM     40  C   UNL A   1      39.570  22.738  26.650  1.00  0.00     0.060 A 
ATOM     41  C   UNL A   1      39.138  23.972  26.146  1.00  0.00     0.016 A 
ATOM     42  C   UNL A   1      40.615  22.677  27.575  1.00  0.00     0.016 A 
ATOM     43  C   UNL A   1      39.764  25.150  26.553  1.00  0.00     0.010 A 
ATOM     44  C   UNL A   1      41.250  23.857  27.970  1.00  0.00     0.010 A 
ATOM     45  C   UNL A   1      40.839  25.098  27.449  1.00  0.00    -0.014 A 
BRANCH  45  46
ATOM     46  C   UNL A   1      41.589  26.330  27.786  1.00  0.00     0.031 A 
ATOM     47  C   UNL A   1      40.909  27.420  28.564  1.00  0.00     0.074 A 
ATOM     48  C   UNL A   1      42.866  26.477  27.393  1.00  0.00     0.049 A 
ATOM     49  N   UNL A   1      41.353  28.606  28.892  1.00  0.00    -0.248 NA
ATOM     50  C   UNL A   1      39.545  27.134  29.034  1.00  0.00     0.031 C 
ATOM     51  C   UNL A   1      43.645  25.474  26.668  1.00  0.00     0.029 A 
ATOM     52  N   UNL A   1      43.727  27.537  27.532  1.00  0.00    -0.354 N 
ATOM     53  C   UNL A   1      40.326  29.209  29.604  1.00  0.00     0.074 A 
ATOM     54  C   UNL A   1      39.226  28.268  29.642  1.00  0.00     0.031 C 
ATOM     55  C   UNL A   1      44.864  25.975  26.408  1.00  0.00     0.029 A 
ATOM     56  C   UNL A   1      44.937  27.345  26.914  1.00  0.00     0.049 A 
ATOM     57  H   UNL A   1      43.498  28.356  28.028  1.00  0.00     0.167 HD
ATOM     58  C   UNL A   1      40.307  30.434  30.180  1.00  0.00     0.037 A 
ATOM     59  C   UNL A   1      45.971  28.191  26.746  1.00  0.00     0.037 A 
ATOM     60  C   UNL A   1      41.401  31.368  30.139  1.00  0.00     0.049 A 
ATOM     61  C   UNL A   1      45.885  29.587  27.306  1.00  0.00     0.074 A 
ATOM     62  C   UNL A   1      41.495  32.615  30.732  1.00  0.00     0.029 A 
ATOM     63  N   UNL A   1      42.589  31.161  29.454  1.00  0.00    -0.354 N 
ATOM     64  N   UNL A   1      44.925  30.138  28.008  1.00  0.00    -0.248 NA
ATOM     65  C   UNL A   1      47.021  30.481  27.040  1.00  0.00     0.031 C 
ATOM     66  C   UNL A   1      42.717  33.185  30.361  1.00  0.00     0.029 A 
ATOM     67  C   UNL A   1      43.404  32.274  29.573  1.00  0.00     0.049 A 
ATOM     68  H   UNL A   1      42.819  30.343  28.957  1.00  0.00     0.167 HD
ATOM     69  C   UNL A   1      45.343  31.434  28.278  1.00  0.00     0.074 A 
ATOM     70  C   UNL A   1      46.654  31.584  27.679  1.00  0.00     0.031 C 
ATOM     71  C   UNL A   1      44.700  32.413  28.960  1.00  0.00     0.037 A 
BRANCH  58  72
ATOM     72  C   UNL A   1      39.051  30.850  30.886  1.00  0.00     0.064 A 
ATOM     73  C   UNL A   1      37.973  31.418  30.193  1.00  0.00     0.173 A 
ATOM     74  C   UNL A   1      38.909  30.638  32.265  1.00  0.00     0.173 A 
ATOM     75  F   UNL A   1      38.064  31.651  28.875  1.00  0.00    -0.203 F 
ATOM     76  C   UNL A   1      36.803  31.777  30.860  1.00  0.00     0.198 A 
ATOM     77  C   UNL A   1      37.731  30.976  32.924  1.00  0.00     0.198 A 
ATOM     78  F   UNL A   1      39.912  30.093  32.971  1.00  0.00    -0.203 F 
ATOM     79  F   UNL A   1      35.798  32.352  30.185  1.00  0.00    -0.200 F 
ATOM     80  C   UNL A   1      36.681  31.550  32.223  1.00  0.00     0.200 A 
ATOM     81  F   UNL A   1      37.611  30.747  34.239  1.00  0.00    -0.200 F 
ATOM     82  F   UNL A   1      35.554  31.889  32.862  1.00  0.00    -0.200 F 
ENDBRANCH  58  72
BRANCH  59  83
ATOM     83  C   UNL A   1      47.166  27.756  25.979  1.00  0.00     0.064 A 
ATOM     84  C   UNL A   1      47.181  27.799  24.579  1.00  0.00     0.173 A 
ATOM     85  C   UNL A   1      48.312  27.277  26.632  1.00  0.00     0.173 A 
ATOM     86  F   UNL A   1      46.099  28.221  23.910  1.00  0.00    -0.203 F 
ATOM     87  C   UNL A   1      48.296  27.370  23.860  1.00  0.00     0.198 A 
ATOM     88  C   UNL A   1      49.435  26.874  25.912  1.00  0.00     0.198 A 
ATOM     89  F   UNL A   1      48.345  27.212  27.970  1.00  0.00    -0.203 F 
ATOM     90  F   UNL A   1      48.271  27.384  22.519  1.00  0.00    -0.200 F 
ATOM     91  C   UNL A   1      49.423  26.915  24.526  1.00  0.00     0.200 A 
ATOM     92  F   UNL A   1      50.525  26.443  26.561  1.00  0.00    -0.200 F 
ATOM     93  F   UNL A   1      50.496  26.508  23.834  1.00  0.00    -0.200 F 
ENDBRANCH  59  83
BRANCH  71  94
ATOM     94  C   UNL A   1      45.400  33.733  29.097  1.00  0.00     0.064 A 
ATOM     95  C   UNL A   1      46.298  33.975  30.146  1.00  0.00     0.173 A 
ATOM     96  C   UNL A   1      45.213  34.744  28.144  1.00  0.00     0.173 A 
ATOM     97  F   UNL A   1      46.498  33.044  31.092  1.00  0.00    -0.203 F 
ATOM     98  C   UNL A   1      46.974  35.188  30.243  1.00  0.00     0.198 A 
ATOM     99  C   UNL A   1      45.909  35.947  28.230  1.00  0.00     0.198 A 
ATOM    100  F   UNL A   1      44.367  34.560  27.119  1.00  0.00    -0.203 F 
ATOM    101  F   UNL A   1      47.803  35.411  31.273  1.00  0.00    -0.200 F 
ATOM    102  C   UNL A   1      46.786  36.169  29.281  1.00  0.00     0.200 A 
ATOM    103  F   UNL A   1      45.734  36.890  27.293  1.00  0.00    -0.200 F 
ATOM    104  F   UNL A   1      47.445  37.333  29.370  1.00  0.00    -0.200 F 
ENDBRANCH  71  94
ENDBRANCH  45  46
ENDBRANCH  38  40
ENDBRANCH  37  38
ENDBRANCH  36  37
ENDBRANCH  35  36
ENDBRANCH  34  35
ENDBRANCH  33  34
ENDBRANCH   1  33
TORSDOF 20
ENDMDL
MODEL 2
REMARK VINA RESULT:     -12.0      1.688      2.977
REMARK SMILES CCOC(=O)c1cccc(Nc2c(-c3ccc(C(=O)OCCOCCOC(=O)c4ccc(-c5c6nc(c(-c7c(F)c(F)c(F)c(F)c7F)c7ccc([nH]7)c(-c7c(F)c(F)c(F)c(F)c7F)c7nc(c(-c8c(F)c(F)c(F)c(F)c8F)c8ccc5[nH]8)C=C7)C=C6)cc4)cc3)nc3cnccn23)c1
REMARK SMILES IDX 21 1 20 2 18 3 19 4 17 5 14 6 15 7 93 8 16 9 92 10 13 11
REMARK SMILES IDX 12 12 100 13 94 14 95 15 99 16 96 17 98 18 97 19 11 20 10 22
REMARK SMILES IDX 6 23 7 24 101 25 8 26 9 27 4 28 5 29 3 30 2 31 1 32 22 33
REMARK SMILES IDX 23 34 24 35 25 36 26 37 27 38 28 39 29 40 30 41 91 42 31 43
REMARK SMILES IDX 90 44 32 45 33 46 34 47 84 48 35 49 89 50 83 51 85 52 36 53
REMARK SMILES IDX 88 54 82 55 81 56 37 58 69 59 49 60 68 61 50 62 53 63 67 64
REMARK SMILES IDX 86 65 51 66 52 67 66 69 87 70 54 71 38 72 39 73 47 74 40 75
REMARK SMILES IDX 41 76 45 77 48 78 42 79 43 80 46 81 44 82 70 83 71 84 79 85
REMARK SMILES IDX 72 86 73 87 77 88 80 89 74 90 75 91 78 92 76 93 55 94 56 95
REMARK SMILES IDX 64 96 57 97 58 98 62 99 65 100 59 101 60 102 63 103 61 104
REMARK H PARENT 11 21 85 57 53 68
REMARK Flexibility Score: inf
ROOT
ATOM      1  C   UNL A   1      32.537  20.563  23.848  1.00  0.00     0.261 C 
ENDROOT
BRANCH   1   2
ATOM      2  O   UNL A   1      32.123  21.922  24.069  1.00  0.00    -0.460 OA
BRANCH   2   3
ATOM      3  C   UNL A   1      32.706  22.832  23.253  1.00  0.00     0.338 C 
ATOM      4  O   UNL A   1      33.687  22.656  22.546  1.00  0.00    -0.246 OA
BRANCH   3   5
ATOM      5  C   UNL A   1      31.899  24.072  23.198  1.00  0.00     0.060 A 
ATOM      6  C   UNL A   1      30.547  26.525  23.058  1.00  0.00     0.004 A 
ATOM      7  C   UNL A   1      31.590  26.242  22.168  1.00  0.00     0.011 A 
ATOM      8  C   UNL A   1      30.163  25.557  23.998  1.00  0.00     0.011 A 
ATOM      9  C   UNL A   1      32.266  25.026  22.242  1.00  0.00     0.016 A 
ATOM     10  C   UNL A   1      30.827  24.324  24.062  1.00  0.00     0.016 A 
BRANCH   6  11
ATOM     11  C   UNL A   1      29.963  27.853  23.085  1.00  0.00     0.114 A 
ATOM     12  C   UNL A   1      30.614  29.032  23.438  1.00  0.00     0.143 A 
ATOM     13  N   UNL A   1      29.607  29.980  23.455  1.00  0.00    -0.283 N 
ATOM     14  N   UNL A   1      28.613  28.049  22.899  1.00  0.00    -0.225 NA
ATOM     15  C   UNL A   1      28.438  29.322  23.167  1.00  0.00     0.157 A 
ATOM     16  C   UNL A   1      29.580  31.346  23.694  1.00  0.00     0.115 A 
ATOM     17  C   UNL A   1      27.207  30.061  23.193  1.00  0.00     0.158 A 
ATOM     18  C   UNL A   1      28.390  31.973  23.686  1.00  0.00     0.129 A 
ATOM     19  N   UNL A   1      27.179  31.342  23.449  1.00  0.00    -0.259 NA
BRANCH  12  20
ATOM     20  N   UNL A   1      31.928  29.302  23.679  1.00  0.00    -0.339 N 
ATOM     21  H   UNL A   1      32.433  29.734  22.952  1.00  0.00     0.168 HD
BRANCH  20  22
ATOM     22  C   UNL A   1      32.640  29.022  24.873  1.00  0.00     0.040 A 
ATOM     23  C   UNL A   1      33.820  29.872  26.831  1.00  0.00     0.062 A 
ATOM     24  C   UNL A   1      34.130  28.570  27.228  1.00  0.00     0.016 A 
ATOM     25  C   UNL A   1      33.057  30.099  25.676  1.00  0.00     0.041 A 
ATOM     26  C   UNL A   1      33.672  27.495  26.474  1.00  0.00     0.003 A 
ATOM     27  C   UNL A   1      32.940  27.722  25.304  1.00  0.00     0.026 A 
BRANCH  23  28
ATOM     28  C   UNL A   1      34.405  30.990  27.598  1.00  0.00     0.338 C 
ATOM     29  O   UNL A   1      35.422  30.874  28.264  1.00  0.00    -0.246 OA
BRANCH  28  30
ATOM     30  O   UNL A   1      33.637  32.098  27.471  1.00  0.00    -0.462 OA
BRANCH  30  31
ATOM     31  C   UNL A   1      33.852  33.107  28.472  1.00  0.00     0.230 C 
ATOM     32  C   UNL A   1      34.654  34.281  27.933  1.00  0.00     0.049 C 
ENDBRANCH  30  31
ENDBRANCH  28  30
ENDBRANCH  23  28
ENDBRANCH  20  22
ENDBRANCH  12  20
ENDBRANCH   6  11
ENDBRANCH   3   5
ENDBRANCH   2   3
ENDBRANCH   1   2
BRANCH   1  33
ATOM     33  C   UNL A   1      33.333  20.036  25.044  1.00  0.00     0.202 C 
BRANCH  33  34
ATOM     34  O   UNL A   1      34.734  19.873  24.817  1.00  0.00    -0.374 OA
BRANCH  34  35
ATOM     35  C   UNL A   1      35.573  20.960  25.218  1.00  0.00     0.202 C 
BRANCH  35  36
ATOM     36  C   UNL A   1      37.072  20.740  24.986  1.00  0.00     0.261 C 
BRANCH  36  37
ATOM     37  O   UNL A   1      37.846  21.821  25.543  1.00  0.00    -0.460 OA
BRANCH  37  38
ATOM     38  C   UNL A   1      39.016  21.462  26.118  1.00  0.00     0.338 C 
ATOM     39  O   UNL A   1      39.547  20.360  26.104  1.00  0.00    -0.246 OA
BRANCH  38  40
ATOM     40  C   UNL A   1      39.694  22.663  26.638  1.00  0.00     0.060 A 
ATOM     41  C   UNL A   1      39.288  23.908  26.140  1.00  0.00     0.016 A 
ATOM     42  C   UNL A   1      40.726  22.577  27.577  1.00  0.00     0.016 A 
ATOM     43  C   UNL A   1      39.925  25.073  26.567  1.00  0.00     0.010 A 
ATOM     44  C   UNL A   1      41.373  23.745  27.992  1.00  0.00     0.010 A 
ATOM     45  C   UNL A   1      40.987  24.996  27.477  1.00  0.00    -0.014 A 
BRANCH  45  46
ATOM     46  C   UNL A   1      41.751  26.214  27.836  1.00  0.00     0.031 A 
ATOM     47  C   UNL A   1      41.095  27.279  28.667  1.00  0.00     0.074 A 
ATOM     48  C   UNL A   1      43.018  26.369  27.415  1.00  0.00     0.049 A 
ATOM     49  N   UNL A   1      41.553  28.452  29.023  1.00  0.00    -0.248 NA
ATOM     50  C   UNL A   1      39.743  26.982  29.162  1.00  0.00     0.031 C 
ATOM     51  C   UNL A   1      43.774  25.389  26.638  1.00  0.00     0.029 A 
ATOM     52  N   UNL A   1      43.887  27.422  27.568  1.00  0.00    -0.354 N 
ATOM     53  C   UNL A   1      40.547  29.034  29.781  1.00  0.00     0.074 A 
ATOM     54  C   UNL A   1      39.444  28.096  29.816  1.00  0.00     0.031 C 
ATOM     55  C   UNL A   1      44.988  25.895  26.363  1.00  0.00     0.029 A 
ATOM     56  C   UNL A   1      45.080  27.246  26.912  1.00  0.00     0.049 A 
ATOM     57  H   UNL A   1      43.674  28.224  28.097  1.00  0.00     0.167 HD
ATOM     58  C   UNL A   1      40.548  30.239  30.398  1.00  0.00     0.037 A 
ATOM     59  C   UNL A   1      46.113  28.094  26.747  1.00  0.00     0.037 A 
ATOM     60  C   UNL A   1      41.644  31.170  30.361  1.00  0.00     0.049 A 
ATOM     61  C   UNL A   1      46.047  29.470  27.355  1.00  0.00     0.074 A 
ATOM     62  C   UNL A   1      41.759  32.396  30.993  1.00  0.00     0.029 A 
ATOM     63  N   UNL A   1      42.813  30.982  29.639  1.00  0.00    -0.354 N 
ATOM     64  N   UNL A   1      45.108  30.001  28.099  1.00  0.00    -0.248 NA
ATOM     65  C   UNL A   1      47.180  30.369  27.090  1.00  0.00     0.031 C 
ATOM     66  C   UNL A   1      42.974  32.974  30.610  1.00  0.00     0.029 A 
ATOM     67  C   UNL A   1      43.636  32.088  29.775  1.00  0.00     0.049 A 
ATOM     68  H   UNL A   1      43.027  30.181  29.109  1.00  0.00     0.167 HD
ATOM     69  C   UNL A   1      45.538  31.286  28.403  1.00  0.00     0.074 A 
ATOM     70  C   UNL A   1      46.834  31.451  27.776  1.00  0.00     0.031 C 
ATOM     71  C   UNL A   1      44.917  32.243  29.133  1.00  0.00     0.037 A 
BRANCH  58  72
ATOM     72  C   UNL A   1      39.312  30.635  31.150  1.00  0.00     0.064 A 
ATOM     73  C   UNL A   1      39.113  30.260  32.486  1.00  0.00     0.173 A 
ATOM     74  C   UNL A   1      38.335  31.435  30.538  1.00  0.00     0.173 A 
ATOM     75  F   UNL A   1      40.013  29.486  33.112  1.00  0.00    -0.203 F 
ATOM     76  C   UNL A   1      37.971  30.657  33.178  1.00  0.00     0.198 A 
ATOM     77  C   UNL A   1      37.207  31.849  31.239  1.00  0.00     0.198 A 
ATOM     78  F   UNL A   1      38.483  31.823  29.262  1.00  0.00    -0.203 F 
ATOM     79  F   UNL A   1      37.782  30.257  34.443  1.00  0.00    -0.200 F 
ATOM     80  C   UNL A   1      37.022  31.456  32.556  1.00  0.00     0.200 A 
ATOM     81  F   UNL A   1      36.296  32.628  30.640  1.00  0.00    -0.200 F 
ATOM     82  F   UNL A   1      35.927  31.841  33.224  1.00  0.00    -0.200 F 
ENDBRANCH  58  72
BRANCH  59  83
ATOM     83  C   UNL A   1      47.286  27.681  25.935  1.00  0.00     0.064 A 
ATOM     84  C   UNL A   1      47.258  27.751  24.536  1.00  0.00     0.173 A 
ATOM     85  C   UNL A   1      48.454  27.197  26.543  1.00  0.00     0.173 A 
ATOM     86  F   UNL A   1      46.153  28.179  23.909  1.00  0.00    -0.203 F 
ATOM     87  C   UNL A   1      48.352  27.343  23.775  1.00  0.00     0.198 A 
ATOM     88  C   UNL A   1      49.556  26.814  25.781  1.00  0.00     0.198 A 
ATOM     89  F   UNL A   1      48.528  27.106  27.878  1.00  0.00    -0.203 F 
ATOM     90  F   UNL A   1      48.285  27.382  22.437  1.00  0.00    -0.200 F 
ATOM     91  C   UNL A   1      49.502  26.881  24.398  1.00  0.00     0.200 A 
ATOM     92  F   UNL A   1      50.668  26.378  26.388  1.00  0.00    -0.200 F 
ATOM     93  F   UNL A   1      50.555  26.494  23.665  1.00  0.00    -0.200 F 
ENDBRANCH  59  83
BRANCH  71  94
ATOM     94  C   UNL A   1      45.625  33.555  29.296  1.00  0.00     0.064 A 
ATOM     95  C   UNL A   1      45.454  34.595  28.372  1.00  0.00     0.173 A 
ATOM     96  C   UNL A   1      46.439  33.795  30.414  1.00  0.00     0.173 A 
ATOM     97  F   UNL A   1      44.699  34.409  27.279  1.00  0.00    -0.203 F 
ATOM     98  C   UNL A   1      46.083  35.824  28.553  1.00  0.00     0.198 A 
ATOM     99  C   UNL A   1      47.047  35.033  30.605  1.00  0.00     0.198 A 
ATOM    100  F   UNL A   1      46.631  32.833  31.329  1.00  0.00    -0.203 F 
ATOM    101  F   UNL A   1      45.934  36.793  27.639  1.00  0.00    -0.200 F 
ATOM    102  C   UNL A   1      46.872  36.045  29.673  1.00  0.00     0.200 A 
ATOM    103  F   UNL A   1      47.799  35.248  31.694  1.00  0.00    -0.200 F 
ATOM    104  F   UNL A   1      47.468  37.231  29.851  1.00  0.00    -0.200 F 
ENDBRANCH  71  94
ENDBRANCH  45  46
ENDBRANCH  38  40
ENDBRANCH  37  38
ENDBRANCH  36  37
ENDBRANCH  35  36
ENDBRANCH  34  35
ENDBRANCH  33  34
ENDBRANCH   1  33
TORSDOF 20
ENDMDL
MODEL 3
REMARK VINA RESULT:     -11.9      4.577     10.119
REMARK SMILES CCOC(=O)c1cccc(Nc2c(-c3ccc(C(=O)OCCOCCOC(=O)c4ccc(-c5c6nc(c(-c7c(F)c(F)c(F)c(F)c7F)c7ccc([nH]7)c(-c7c(F)c(F)c(F)c(F)c7F)c7nc(c(-c8c(F)c(F)c(F)c(F)c8F)c8ccc5[nH]8)C=C7)C=C6)cc4)cc3)nc3cnccn23)c1
REMARK SMILES IDX 21 1 20 2 18 3 19 4 17 5 14 6 15 7 93 8 16 9 92 10 13 11
REMARK SMILES IDX 12 12 100 13 94 14 95 15 99 16 96 17 98 18 97 19 11 20 10 22
REMARK SMILES IDX 6 23 7 24 101 25 8 26 9 27 4 28 5 29 3 30 2 31 1 32 22 33
REMARK SMILES IDX 23 34 24 35 25 36 26 37 27 38 28 39 29 40 30 41 91 42 31 43
REMARK SMILES IDX 90 44 32 45 33 46 34 47 84 48 35 49 89 50 83 51 85 52 36 53
REMARK SMILES IDX 88 54 82 55 81 56 37 58 69 59 49 60 68 61 50 62 53 63 67 64
REMARK SMILES IDX 86 65 51 66 52 67 66 69 87 70 54 71 38 72 39 73 47 74 40 75
REMARK SMILES IDX 41 76 45 77 48 78 42 79 43 80 46 81 44 82 70 83 71 84 79 85
REMARK SMILES IDX 72 86 73 87 77 88 80 89 74 90 75 91 78 92 76 93 55 94 56 95
REMARK SMILES IDX 64 96 57 97 58 98 62 99 65 100 59 101 60 102 63 103 61 104
REMARK H PARENT 11 21 85 57 53 68
REMARK Flexibility Score: inf
ROOT
ATOM      1  C   UNL A   1      30.591  28.875  23.865  1.00  0.00     0.261 C 
ENDROOT
BRANCH   1   2
ATOM      2  O   UNL A   1      30.408  27.449  23.876  1.00  0.00    -0.460 OA
BRANCH   2   3
ATOM      3  C   UNL A   1      30.856  26.812  22.767  1.00  0.00     0.338 C 
ATOM      4  O   UNL A   1      31.027  27.303  21.662  1.00  0.00    -0.246 OA
BRANCH   3   5
ATOM      5  C   UNL A   1      31.274  25.431  23.097  1.00  0.00     0.060 A 
ATOM      6  C   UNL A   1      32.075  22.776  23.516  1.00  0.00     0.004 A 
ATOM      7  C   UNL A   1      32.658  23.537  22.495  1.00  0.00     0.011 A 
ATOM      8  C   UNL A   1      31.110  23.364  24.347  1.00  0.00     0.011 A 
ATOM      9  C   UNL A   1      32.255  24.853  22.283  1.00  0.00     0.016 A 
ATOM     10  C   UNL A   1      30.718  24.695  24.150  1.00  0.00     0.016 A 
BRANCH   6  11
ATOM     11  C   UNL A   1      32.376  21.360  23.621  1.00  0.00     0.114 A 
ATOM     12  C   UNL A   1      33.244  20.768  24.534  1.00  0.00     0.143 A 
ATOM     13  N   UNL A   1      33.304  19.446  24.132  1.00  0.00    -0.283 N 
ATOM     14  N   UNL A   1      31.922  20.457  22.686  1.00  0.00    -0.225 NA
ATOM     15  C   UNL A   1      32.529  19.339  23.006  1.00  0.00     0.157 A 
ATOM     16  C   UNL A   1      33.953  18.323  24.624  1.00  0.00     0.115 A 
ATOM     17  C   UNL A   1      32.473  18.074  22.326  1.00  0.00     0.158 A 
ATOM     18  C   UNL A   1      33.841  17.170  23.941  1.00  0.00     0.129 A 
ATOM     19  N   UNL A   1      33.110  17.024  22.772  1.00  0.00    -0.259 NA
BRANCH  12  20
ATOM     20  N   UNL A   1      33.888  21.270  25.626  1.00  0.00    -0.339 N 
ATOM     21  H   UNL A   1      33.414  21.213  26.487  1.00  0.00     0.168 HD
BRANCH  20  22
ATOM     22  C   UNL A   1      35.176  21.865  25.643  1.00  0.00     0.040 A 
ATOM     23  C   UNL A   1      37.594  21.582  25.497  1.00  0.00     0.062 A 
ATOM     24  C   UNL A   1      37.783  22.945  25.736  1.00  0.00     0.016 A 
ATOM     25  C   UNL A   1      36.298  21.048  25.423  1.00  0.00     0.041 A 
ATOM     26  C   UNL A   1      36.677  23.773  25.897  1.00  0.00     0.003 A 
ATOM     27  C   UNL A   1      35.387  23.235  25.857  1.00  0.00     0.026 A 
BRANCH  23  28
ATOM     28  C   UNL A   1      38.787  20.716  25.431  1.00  0.00     0.338 C 
ATOM     29  O   UNL A   1      38.752  19.574  25.000  1.00  0.00    -0.246 OA
BRANCH  28  30
ATOM     30  O   UNL A   1      39.863  21.361  25.939  1.00  0.00    -0.462 OA
BRANCH  30  31
ATOM     31  C   UNL A   1      40.680  20.580  26.827  1.00  0.00     0.230 C 
ATOM     32  C   UNL A   1      42.050  20.291  26.236  1.00  0.00     0.049 C 
ENDBRANCH  30  31
ENDBRANCH  28  30
ENDBRANCH  23  28
ENDBRANCH  20  22
ENDBRANCH  12  20
ENDBRANCH   6  11
ENDBRANCH   3   5
ENDBRANCH   2   3
ENDBRANCH   1   2
BRANCH   1  33
ATOM     33  C   UNL A   1      31.910  29.258  24.542  1.00  0.00     0.202 C 
BRANCH  33  34
ATOM     34  O   UNL A   1      31.777  29.958  25.780  1.00  0.00    -0.374 OA
BRANCH  34  35
ATOM     35  C   UNL A   1      31.010  31.165  25.746  1.00  0.00     0.202 C 
BRANCH  35  36
ATOM     36  C   UNL A   1      31.549  32.299  26.626  1.00  0.00     0.261 C 
BRANCH  36  37
ATOM     37  O   UNL A   1      32.819  31.944  27.207  1.00  0.00    -0.460 OA
BRANCH  37  38
ATOM     38  C   UNL A   1      33.578  32.982  27.625  1.00  0.00     0.338 C 
ATOM     39  O   UNL A   1      33.274  34.167  27.648  1.00  0.00    -0.246 OA
BRANCH  38  40
ATOM     40  C   UNL A   1      34.811  32.467  28.249  1.00  0.00     0.060 A 
ATOM     41  C   UNL A   1      34.775  31.178  28.797  1.00  0.00     0.016 A 
ATOM     42  C   UNL A   1      35.975  33.235  28.320  1.00  0.00     0.016 A 
ATOM     43  C   UNL A   1      35.901  30.659  29.436  1.00  0.00     0.010 A 
ATOM     44  C   UNL A   1      37.098  32.719  28.974  1.00  0.00     0.010 A 
ATOM     45  C   UNL A   1      37.061  31.435  29.549  1.00  0.00    -0.014 A 
BRANCH  45  46
ATOM     46  C   UNL A   1      38.215  30.941  30.336  1.00  0.00     0.031 A 
ATOM     47  C   UNL A   1      39.164  29.956  29.716  1.00  0.00     0.074 A 
ATOM     48  C   UNL A   1      38.407  31.364  31.598  1.00  0.00     0.049 A 
ATOM     49  N   UNL A   1      40.184  29.338  30.253  1.00  0.00    -0.248 NA
ATOM     50  C   UNL A   1      38.931  29.624  28.303  1.00  0.00     0.031 C 
ATOM     51  C   UNL A   1      37.578  32.346  32.293  1.00  0.00     0.029 A 
ATOM     52  N   UNL A   1      39.353  31.003  32.525  1.00  0.00    -0.354 N 
ATOM     53  C   UNL A   1      40.715  28.543  29.247  1.00  0.00     0.074 A 
ATOM     54  C   UNL A   1      39.890  28.738  28.073  1.00  0.00     0.031 C 
ATOM     55  C   UNL A   1      38.039  32.496  33.546  1.00  0.00     0.029 A 
ATOM     56  C   UNL A   1      39.171  31.593  33.751  1.00  0.00     0.049 A 
ATOM     57  H   UNL A   1      40.092  30.382  32.329  1.00  0.00     0.167 HD
ATOM     58  C   UNL A   1      41.796  27.730  29.297  1.00  0.00     0.037 A 
ATOM     59  C   UNL A   1      39.822  31.399  34.913  1.00  0.00     0.037 A 
ATOM     60  C   UNL A   1      42.613  27.536  30.466  1.00  0.00     0.049 A 
ATOM     61  C   UNL A   1      40.956  30.411  34.972  1.00  0.00     0.074 A 
ATOM     62  C   UNL A   1      43.757  26.769  30.604  1.00  0.00     0.029 A 
ATOM     63  N   UNL A   1      42.363  28.106  31.705  1.00  0.00    -0.354 N 
ATOM     64  N   UNL A   1      41.474  29.689  34.008  1.00  0.00    -0.248 NA
ATOM     65  C   UNL A   1      41.589  30.202  36.282  1.00  0.00     0.031 C 
ATOM     66  C   UNL A   1      44.167  26.832  31.940  1.00  0.00     0.029 A 
ATOM     67  C   UNL A   1      43.305  27.674  32.624  1.00  0.00     0.049 A 
ATOM     68  H   UNL A   1      41.624  28.727  31.903  1.00  0.00     0.167 HD
ATOM     69  C   UNL A   1      42.498  28.952  34.589  1.00  0.00     0.074 A 
ATOM     70  C   UNL A   1      42.541  29.326  35.988  1.00  0.00     0.031 C 
ATOM     71  C   UNL A   1      43.326  28.046  34.016  1.00  0.00     0.037 A 
BRANCH  58  72
ATOM     72  C   UNL A   1      42.148  26.965  28.057  1.00  0.00     0.064 A 
ATOM     73  C   UNL A   1      41.612  25.695  27.801  1.00  0.00     0.173 A 
ATOM     74  C   UNL A   1      42.998  27.527  27.093  1.00  0.00     0.173 A 
ATOM     75  F   UNL A   1      40.803  25.109  28.697  1.00  0.00    -0.203 F 
ATOM     76  C   UNL A   1      41.930  25.006  26.632  1.00  0.00     0.198 A 
ATOM     77  C   UNL A   1      43.295  26.847  25.916  1.00  0.00     0.198 A 
ATOM     78  F   UNL A   1      43.532  28.742  27.291  1.00  0.00    -0.203 F 
ATOM     79  F   UNL A   1      41.437  23.778  26.423  1.00  0.00    -0.200 F 
ATOM     80  C   UNL A   1      42.766  25.586  25.688  1.00  0.00     0.200 A 
ATOM     81  F   UNL A   1      44.095  27.412  25.001  1.00  0.00    -0.200 F 
ATOM     82  F   UNL A   1      43.066  24.926  24.562  1.00  0.00    -0.200 F 
ENDBRANCH  58  72
BRANCH  59  83
ATOM     83  C   UNL A   1      39.391  32.131  36.133  1.00  0.00     0.064 A 
ATOM     84  C   UNL A   1      38.382  31.624  36.961  1.00  0.00     0.173 A 
ATOM     85  C   UNL A   1      39.974  33.357  36.487  1.00  0.00     0.173 A 
ATOM     86  F   UNL A   1      37.775  30.470  36.648  1.00  0.00    -0.203 F 
ATOM     87  C   UNL A   1      37.965  32.321  38.093  1.00  0.00     0.198 A 
ATOM     88  C   UNL A   1      39.573  34.040  37.633  1.00  0.00     0.198 A 
ATOM     89  F   UNL A   1      40.941  33.887  35.723  1.00  0.00    -0.203 F 
ATOM     90  F   UNL A   1      36.969  31.834  38.848  1.00  0.00    -0.200 F 
ATOM     91  C   UNL A   1      38.565  33.525  38.432  1.00  0.00     0.200 A 
ATOM     92  F   UNL A   1      40.163  35.198  37.960  1.00  0.00    -0.200 F 
ATOM     93  F   UNL A   1      38.166  34.192  39.524  1.00  0.00    -0.200 F 
ENDBRANCH  59  83
BRANCH  71  94
ATOM     94  C   UNL A   1      44.351  27.394  34.896  1.00  0.00     0.064 A 
ATOM     95  C   UNL A   1      44.097  26.167  35.526  1.00  0.00     0.173 A 
ATOM     96  C   UNL A   1      45.617  27.972  35.070  1.00  0.00     0.173 A 
ATOM     97  F   UNL A   1      42.895  25.582  35.403  1.00  0.00    -0.203 F 
ATOM     98  C   UNL A   1      45.068  25.549  36.308  1.00  0.00     0.198 A 
ATOM     99  C   UNL A   1      46.596  27.340  35.833  1.00  0.00     0.198 A 
ATOM    100  F   UNL A   1      45.911  29.144  34.485  1.00  0.00    -0.203 F 
ATOM    101  F   UNL A   1      44.792  24.393  36.928  1.00  0.00    -0.200 F 
ATOM    102  C   UNL A   1      46.319  26.131  36.454  1.00  0.00     0.200 A 
ATOM    103  F   UNL A   1      47.807  27.899  35.964  1.00  0.00    -0.200 F 
ATOM    104  F   UNL A   1      47.257  25.530  37.199  1.00  0.00    -0.200 F 
ENDBRANCH  71  94
ENDBRANCH  45  46
ENDBRANCH  38  40
ENDBRANCH  37  38
ENDBRANCH  36  37
ENDBRANCH  35  36
ENDBRANCH  34  35
ENDBRANCH  33  34
ENDBRANCH   1  33
TORSDOF 20
ENDMDL
