MODEL 1
REMARK VINA RESULT:     -12.8      0.000      0.000
REMARK SMILES Cc1cc(=O)n2cc(-c3ccccc3)nc2n1[C@H](C)C(=O)OCCOCCOC(=O)c1ccc(-c2c3nc(c(-c4c(F)c(F)c(F)c(F)c4F)c4ccc([nH]4)c(-c4c(F)c(F)c(F)c(F)c4F)c4nc(c(-c5c(F)c(F)c(F)c(F)c5F)c5ccc2[nH]5)C=C4)C=C3)cc1
REMARK SMILES IDX 25 1 24 2 23 3 22 4 20 5 21 6 18 7 19 8 17 9 1 10 2 11 3 12
REMARK SMILES IDX 4 13 16 14 5 15 6 16 15 17 7 18 8 19 9 20 10 21 14 22 11 23
REMARK SMILES IDX 13 24 12 25 26 26 27 27 28 28 29 29 30 30 31 31 32 32 93 33
REMARK SMILES IDX 33 34 92 35 34 36 35 37 36 38 86 39 37 40 91 41 85 42 87 43
REMARK SMILES IDX 38 44 90 45 84 46 83 47 39 49 71 50 51 51 70 52 52 53 55 54
REMARK SMILES IDX 69 55 88 56 53 57 54 58 68 60 89 61 56 62 40 63 41 64 49 65
REMARK SMILES IDX 42 66 43 67 47 68 50 69 44 70 45 71 48 72 46 73 72 74 73 75
REMARK SMILES IDX 81 76 74 77 75 78 79 79 82 80 76 81 77 82 80 83 78 84 57 85
REMARK SMILES IDX 58 86 66 87 59 88 60 89 64 90 67 91 61 92 62 93 65 94 63 95
REMARK H PARENT 87 48 55 59
REMARK Flexibility Score: inf
ROOT
ATOM      1  O   UNL A   1      41.491  20.510  26.029  1.00  0.00    -0.374 OA
ENDROOT
BRANCH   1   2
ATOM      2  C   UNL A   1      40.074  20.617  26.141  1.00  0.00     0.202 C 
BRANCH   2   3
ATOM      3  C   UNL A   1      39.456  22.008  26.237  1.00  0.00     0.261 C 
BRANCH   3   4
ATOM      4  O   UNL A   1      38.293  22.141  25.412  1.00  0.00    -0.462 OA
BRANCH   4   5
ATOM      5  C   UNL A   1      37.503  23.214  25.688  1.00  0.00     0.329 C 
ATOM      6  O   UNL A   1      37.652  23.962  26.652  1.00  0.00    -0.250 OA
BRANCH   5   7
ATOM      7  C   UNL A   1      36.394  23.433  24.646  1.00  0.00     0.197 C 
ATOM      8  C   UNL A   1      36.607  22.822  23.264  1.00  0.00     0.044 C 
BRANCH   7   9
ATOM      9  N   UNL A   1      35.083  23.023  25.216  1.00  0.00    -0.301 N 
ATOM     10  C   UNL A   1      35.553  20.549  24.952  1.00  0.00     0.065 C 
ATOM     11  C   UNL A   1      34.622  21.696  25.270  1.00  0.00     0.024 A 
ATOM     12  C   UNL A   1      33.349  21.412  25.606  1.00  0.00     0.093 A 
ATOM     13  C   UNL A   1      32.396  22.498  25.935  1.00  0.00     0.259 A 
ATOM     14  C   UNL A   1      34.249  24.054  25.563  1.00  0.00     0.218 A 
ATOM     15  O   UNL A   1      31.228  22.323  26.230  1.00  0.00    -0.269 OA
ATOM     16  N   UNL A   1      32.940  23.777  25.893  1.00  0.00    -0.251 N 
ATOM     17  N   UNL A   1      34.484  25.348  25.582  1.00  0.00    -0.212 NA
ATOM     18  C   UNL A   1      32.321  24.985  26.129  1.00  0.00     0.127 A 
ATOM     19  C   UNL A   1      33.293  25.935  25.920  1.00  0.00     0.091 A 
BRANCH  19  20
ATOM     20  C   UNL A   1      33.100  27.365  25.993  1.00  0.00     0.002 A 
ATOM     21  C   UNL A   1      34.059  28.184  26.601  1.00  0.00     0.010 A 
ATOM     22  C   UNL A   1      31.947  27.945  25.449  1.00  0.00     0.010 A 
ATOM     23  C   UNL A   1      33.860  29.565  26.671  1.00  0.00     0.001 A 
ATOM     24  C   UNL A   1      31.747  29.325  25.525  1.00  0.00     0.001 A 
ATOM     25  C   UNL A   1      32.703  30.133  26.138  1.00  0.00     0.000 A 
ENDBRANCH  19  20
ENDBRANCH   7   9
ENDBRANCH   5   7
ENDBRANCH   4   5
ENDBRANCH   3   4
ENDBRANCH   2   3
ENDBRANCH   1   2
BRANCH   1  26
ATOM     26  C   UNL A   1      42.142  19.264  26.247  1.00  0.00     0.202 C 
BRANCH  26  27
ATOM     27  C   UNL A   1      43.415  18.956  25.467  1.00  0.00     0.261 C 
BRANCH  27  28
ATOM     28  O   UNL A   1      43.860  20.050  24.673  1.00  0.00    -0.460 OA
BRANCH  28  29
ATOM     29  C   UNL A   1      45.072  20.517  25.045  1.00  0.00     0.338 C 
ATOM     30  O   UNL A   1      45.998  19.867  25.504  1.00  0.00    -0.246 OA
BRANCH  29  31
ATOM     31  C   UNL A   1      45.077  21.981  25.016  1.00  0.00     0.060 A 
ATOM     32  C   UNL A   1      45.890  22.575  25.978  1.00  0.00     0.016 A 
ATOM     33  C   UNL A   1      44.047  22.683  24.371  1.00  0.00     0.016 A 
ATOM     34  C   UNL A   1      45.481  23.771  26.506  1.00  0.00     0.010 A 
ATOM     35  C   UNL A   1      43.652  23.896  24.887  1.00  0.00     0.010 A 
ATOM     36  C   UNL A   1      44.307  24.368  26.017  1.00  0.00    -0.014 A 
BRANCH  36  37
ATOM     37  C   UNL A   1      43.883  25.579  26.683  1.00  0.00     0.031 A 
ATOM     38  C   UNL A   1      44.824  26.679  26.419  1.00  0.00     0.074 A 
ATOM     39  C   UNL A   1      42.804  25.671  27.481  1.00  0.00     0.049 A 
ATOM     40  N   UNL A   1      45.741  27.104  27.218  1.00  0.00    -0.248 NA
ATOM     41  C   UNL A   1      44.922  27.198  25.050  1.00  0.00     0.031 C 
ATOM     42  C   UNL A   1      41.686  24.733  27.614  1.00  0.00     0.029 A 
ATOM     43  N   UNL A   1      42.457  26.688  28.322  1.00  0.00    -0.354 N 
ATOM     44  C   UNL A   1      46.390  28.117  26.526  1.00  0.00     0.074 A 
ATOM     45  C   UNL A   1      45.992  27.989  25.151  1.00  0.00     0.031 C 
ATOM     46  C   UNL A   1      40.683  25.329  28.303  1.00  0.00     0.029 A 
ATOM     47  C   UNL A   1      41.156  26.611  28.801  1.00  0.00     0.049 A 
ATOM     48  H   UNL A   1      43.076  27.412  28.569  1.00  0.00     0.167 HD
ATOM     49  C   UNL A   1      46.919  29.157  27.224  1.00  0.00     0.037 A 
ATOM     50  C   UNL A   1      40.523  27.567  29.523  1.00  0.00     0.037 A 
ATOM     51  C   UNL A   1      47.076  28.806  28.614  1.00  0.00     0.049 A 
ATOM     52  C   UNL A   1      41.570  28.366  30.204  1.00  0.00     0.074 A 
ATOM     53  C   UNL A   1      47.957  28.064  29.371  1.00  0.00     0.029 A 
ATOM     54  N   UNL A   1      45.924  28.934  29.343  1.00  0.00    -0.354 N 
ATOM     55  N   UNL A   1      42.341  27.887  31.141  1.00  0.00    -0.248 NA
ATOM     56  C   UNL A   1      42.018  29.621  29.605  1.00  0.00     0.031 C 
ATOM     57  C   UNL A   1      47.239  27.648  30.534  1.00  0.00     0.029 A 
ATOM     58  C   UNL A   1      45.952  28.177  30.481  1.00  0.00     0.049 A 
ATOM     59  H   UNL A   1      45.166  29.503  29.079  1.00  0.00     0.167 HD
ATOM     60  C   UNL A   1      43.547  28.532  30.953  1.00  0.00     0.074 A 
ATOM     61  C   UNL A   1      43.243  29.695  30.130  1.00  0.00     0.031 C 
ATOM     62  C   UNL A   1      44.726  27.891  31.192  1.00  0.00     0.037 A 
BRANCH  49  63
ATOM     63  C   UNL A   1      46.753  30.604  26.804  1.00  0.00     0.064 A 
ATOM     64  C   UNL A   1      47.870  31.462  26.880  1.00  0.00     0.173 A 
ATOM     65  C   UNL A   1      45.507  31.253  26.647  1.00  0.00     0.173 A 
ATOM     66  F   UNL A   1      49.104  30.963  27.055  1.00  0.00    -0.203 F 
ATOM     67  C   UNL A   1      47.737  32.853  26.872  1.00  0.00     0.198 A 
ATOM     68  C   UNL A   1      45.384  32.639  26.591  1.00  0.00     0.198 A 
ATOM     69  F   UNL A   1      44.344  30.594  26.660  1.00  0.00    -0.203 F 
ATOM     70  F   UNL A   1      48.814  33.626  27.067  1.00  0.00    -0.200 F 
ATOM     71  C   UNL A   1      46.493  33.441  26.733  1.00  0.00     0.200 A 
ATOM     72  F   UNL A   1      44.164  33.185  26.485  1.00  0.00    -0.200 F 
ATOM     73  F   UNL A   1      46.355  34.772  26.781  1.00  0.00    -0.200 F 
ENDBRANCH  49  63
BRANCH  50  74
ATOM     74  C   UNL A   1      39.133  28.066  29.375  1.00  0.00     0.064 A 
ATOM     75  C   UNL A   1      38.314  28.254  30.502  1.00  0.00     0.173 A 
ATOM     76  C   UNL A   1      38.701  28.672  28.180  1.00  0.00     0.173 A 
ATOM     77  F   UNL A   1      38.670  27.737  31.688  1.00  0.00    -0.203 F 
ATOM     78  C   UNL A   1      37.166  29.052  30.452  1.00  0.00     0.198 A 
ATOM     79  C   UNL A   1      37.553  29.465  28.131  1.00  0.00     0.198 A 
ATOM     80  F   UNL A   1      39.440  28.595  27.064  1.00  0.00    -0.203 F 
ATOM     81  F   UNL A   1      36.457  29.275  31.568  1.00  0.00    -0.200 F 
ATOM     82  C   UNL A   1      36.798  29.672  29.271  1.00  0.00     0.200 A 
ATOM     83  F   UNL A   1      37.226  30.090  26.990  1.00  0.00    -0.200 F 
ATOM     84  F   UNL A   1      35.745  30.502  29.240  1.00  0.00    -0.200 F 
ENDBRANCH  50  74
BRANCH  62  85
ATOM     85  C   UNL A   1      44.708  26.728  32.132  1.00  0.00     0.064 A 
ATOM     86  C   UNL A   1      44.708  26.832  33.532  1.00  0.00     0.173 A 
ATOM     87  C   UNL A   1      44.594  25.447  31.574  1.00  0.00     0.173 A 
ATOM     88  F   UNL A   1      44.751  28.028  34.135  1.00  0.00    -0.203 F 
ATOM     89  C   UNL A   1      44.618  25.694  34.334  1.00  0.00     0.198 A 
ATOM     90  C   UNL A   1      44.468  24.318  32.375  1.00  0.00     0.198 A 
ATOM     91  F   UNL A   1      44.559  25.297  30.240  1.00  0.00    -0.203 F 
ATOM     92  F   UNL A   1      44.630  25.809  35.671  1.00  0.00    -0.200 F 
ATOM     93  C   UNL A   1      44.486  24.441  33.755  1.00  0.00     0.200 A 
ATOM     94  F   UNL A   1      44.302  23.116  31.808  1.00  0.00    -0.200 F 
ATOM     95  F   UNL A   1      44.358  23.351  34.525  1.00  0.00    -0.200 F 
ENDBRANCH  62  85
ENDBRANCH  36  37
ENDBRANCH  29  31
ENDBRANCH  28  29
ENDBRANCH  27  28
ENDBRANCH  26  27
ENDBRANCH   1  26
TORSDOF 16
ENDMDL
MODEL 2
REMARK VINA RESULT:     -12.2      1.220      3.443
REMARK SMILES Cc1cc(=O)n2cc(-c3ccccc3)nc2n1[C@H](C)C(=O)OCCOCCOC(=O)c1ccc(-c2c3nc(c(-c4c(F)c(F)c(F)c(F)c4F)c4ccc([nH]4)c(-c4c(F)c(F)c(F)c(F)c4F)c4nc(c(-c5c(F)c(F)c(F)c(F)c5F)c5ccc2[nH]5)C=C4)C=C3)cc1
REMARK SMILES IDX 25 1 24 2 23 3 22 4 20 5 21 6 18 7 19 8 17 9 1 10 2 11 3 12
REMARK SMILES IDX 4 13 16 14 5 15 6 16 15 17 7 18 8 19 9 20 10 21 14 22 11 23
REMARK SMILES IDX 13 24 12 25 26 26 27 27 28 28 29 29 30 30 31 31 32 32 93 33
REMARK SMILES IDX 33 34 92 35 34 36 35 37 36 38 86 39 37 40 91 41 85 42 87 43
REMARK SMILES IDX 38 44 90 45 84 46 83 47 39 49 71 50 51 51 70 52 52 53 55 54
REMARK SMILES IDX 69 55 88 56 53 57 54 58 68 60 89 61 56 62 40 63 41 64 49 65
REMARK SMILES IDX 42 66 43 67 47 68 50 69 44 70 45 71 48 72 46 73 72 74 73 75
REMARK SMILES IDX 81 76 74 77 75 78 79 79 82 80 76 81 77 82 80 83 78 84 57 85
REMARK SMILES IDX 58 86 66 87 59 88 60 89 64 90 67 91 61 92 62 93 65 94 63 95
REMARK H PARENT 87 48 55 59
REMARK Flexibility Score: inf
ROOT
ATOM      1  O   UNL A   1      40.023  20.521  26.653  1.00  0.00    -0.374 OA
ENDROOT
BRANCH   1   2
ATOM      2  C   UNL A   1      39.946  21.804  26.038  1.00  0.00     0.202 C 
BRANCH   2   3
ATOM      3  C   UNL A   1      38.711  22.660  26.293  1.00  0.00     0.261 C 
BRANCH   3   4
ATOM      4  O   UNL A   1      37.603  22.269  25.475  1.00  0.00    -0.462 OA
BRANCH   4   5
ATOM      5  C   UNL A   1      36.446  22.950  25.697  1.00  0.00     0.329 C 
ATOM      6  O   UNL A   1      35.981  23.194  26.808  1.00  0.00    -0.250 OA
BRANCH   5   7
ATOM      7  C   UNL A   1      35.765  23.424  24.402  1.00  0.00     0.197 C 
ATOM      8  C   UNL A   1      36.158  22.715  23.109  1.00  0.00     0.044 C 
BRANCH   7   9
ATOM      9  N   UNL A   1      34.289  23.426  24.584  1.00  0.00    -0.301 N 
ATOM     10  C   UNL A   1      34.126  25.953  24.581  1.00  0.00     0.065 C 
ATOM     11  C   UNL A   1      33.516  24.585  24.780  1.00  0.00     0.024 A 
ATOM     12  C   UNL A   1      32.221  24.507  25.143  1.00  0.00     0.093 A 
ATOM     13  C   UNL A   1      31.573  23.191  25.343  1.00  0.00     0.259 A 
ATOM     14  C   UNL A   1      33.715  22.189  24.709  1.00  0.00     0.218 A 
ATOM     15  O   UNL A   1      30.414  23.039  25.688  1.00  0.00    -0.269 OA
ATOM     16  N   UNL A   1      32.395  22.096  25.096  1.00  0.00    -0.251 N 
ATOM     17  N   UNL A   1      34.255  20.998  24.567  1.00  0.00    -0.212 NA
ATOM     18  C   UNL A   1      32.100  20.755  25.205  1.00  0.00     0.127 A 
ATOM     19  C   UNL A   1      33.268  20.103  24.884  1.00  0.00     0.091 A 
BRANCH  19  20
ATOM     20  C   UNL A   1      33.467  18.672  24.914  1.00  0.00     0.002 A 
ATOM     21  C   UNL A   1      34.596  18.097  24.322  1.00  0.00     0.010 A 
ATOM     22  C   UNL A   1      32.525  17.848  25.544  1.00  0.00     0.010 A 
ATOM     23  C   UNL A   1      34.777  16.711  24.352  1.00  0.00     0.001 A 
ATOM     24  C   UNL A   1      32.704  16.462  25.567  1.00  0.00     0.001 A 
ATOM     25  C   UNL A   1      33.829  15.896  24.970  1.00  0.00     0.000 A 
ENDBRANCH  19  20
ENDBRANCH   7   9
ENDBRANCH   5   7
ENDBRANCH   4   5
ENDBRANCH   3   4
ENDBRANCH   2   3
ENDBRANCH   1   2
BRANCH   1  26
ATOM     26  C   UNL A   1      41.010  19.580  26.248  1.00  0.00     0.202 C 
BRANCH  26  27
ATOM     27  C   UNL A   1      42.479  19.978  26.332  1.00  0.00     0.261 C 
BRANCH  27  28
ATOM     28  O   UNL A   1      43.093  20.116  25.055  1.00  0.00    -0.460 OA
BRANCH  28  29
ATOM     29  C   UNL A   1      44.409  20.410  25.129  1.00  0.00     0.338 C 
ATOM     30  O   UNL A   1      45.327  19.623  25.301  1.00  0.00    -0.246 OA
BRANCH  29  31
ATOM     31  C   UNL A   1      44.599  21.861  25.178  1.00  0.00     0.060 A 
ATOM     32  C   UNL A   1      45.299  22.315  26.293  1.00  0.00     0.016 A 
ATOM     33  C   UNL A   1      43.792  22.710  24.405  1.00  0.00     0.016 A 
ATOM     34  C   UNL A   1      44.954  23.539  26.805  1.00  0.00     0.010 A 
ATOM     35  C   UNL A   1      43.465  23.948  24.908  1.00  0.00     0.010 A 
ATOM     36  C   UNL A   1      43.966  24.297  26.156  1.00  0.00    -0.014 A 
BRANCH  36  37
ATOM     37  C   UNL A   1      43.584  25.533  26.802  1.00  0.00     0.031 A 
ATOM     38  C   UNL A   1      44.555  26.599  26.510  1.00  0.00     0.074 A 
ATOM     39  C   UNL A   1      42.515  25.672  27.607  1.00  0.00     0.049 A 
ATOM     40  N   UNL A   1      45.492  27.011  27.293  1.00  0.00    -0.248 NA
ATOM     41  C   UNL A   1      44.656  27.088  25.130  1.00  0.00     0.031 C 
ATOM     42  C   UNL A   1      41.371  24.771  27.767  1.00  0.00     0.029 A 
ATOM     43  N   UNL A   1      42.207  26.714  28.431  1.00  0.00    -0.354 N 
ATOM     44  C   UNL A   1      46.165  27.990  26.576  1.00  0.00     0.074 A 
ATOM     45  C   UNL A   1      45.750  27.849  25.207  1.00  0.00     0.031 C 
ATOM     46  C   UNL A   1      40.392  25.410  28.454  1.00  0.00     0.029 A 
ATOM     47  C   UNL A   1      40.908  26.686  28.922  1.00  0.00     0.049 A 
ATOM     48  H   UNL A   1      42.850  27.424  28.660  1.00  0.00     0.167 HD
ATOM     49  C   UNL A   1      46.730  29.027  27.249  1.00  0.00     0.037 A 
ATOM     50  C   UNL A   1      40.311  27.674  29.632  1.00  0.00     0.037 A 
ATOM     51  C   UNL A   1      46.890  28.697  28.645  1.00  0.00     0.049 A 
ATOM     52  C   UNL A   1      41.387  28.454  30.288  1.00  0.00     0.074 A 
ATOM     53  C   UNL A   1      47.755  27.944  29.408  1.00  0.00     0.029 A 
ATOM     54  N   UNL A   1      45.748  28.874  29.381  1.00  0.00    -0.354 N 
ATOM     55  N   UNL A   1      42.152  27.969  31.228  1.00  0.00    -0.248 NA
ATOM     56  C   UNL A   1      41.867  29.683  29.662  1.00  0.00     0.031 C 
ATOM     57  C   UNL A   1      47.034  27.572  30.585  1.00  0.00     0.029 A 
ATOM     58  C   UNL A   1      45.764  28.138  30.533  1.00  0.00     0.049 A 
ATOM     59  H   UNL A   1      45.005  29.461  29.112  1.00  0.00     0.167 HD
ATOM     60  C   UNL A   1      43.375  28.574  31.018  1.00  0.00     0.074 A 
ATOM     61  C   UNL A   1      43.098  29.730  30.175  1.00  0.00     0.031 C 
ATOM     62  C   UNL A   1      44.536  27.902  31.259  1.00  0.00     0.037 A 
BRANCH  49  63
ATOM     63  C   UNL A   1      46.604  30.470  26.804  1.00  0.00     0.064 A 
ATOM     64  C   UNL A   1      47.751  31.291  26.840  1.00  0.00     0.173 A 
ATOM     65  C   UNL A   1      45.378  31.157  26.659  1.00  0.00     0.173 A 
ATOM     66  F   UNL A   1      48.970  30.754  27.000  1.00  0.00    -0.203 F 
ATOM     67  C   UNL A   1      47.663  32.686  26.806  1.00  0.00     0.198 A 
ATOM     68  C   UNL A   1      45.300  32.546  26.577  1.00  0.00     0.198 A 
ATOM     69  F   UNL A   1      44.194  30.539  26.707  1.00  0.00    -0.203 F 
ATOM     70  F   UNL A   1      48.770  33.426  26.963  1.00  0.00    -0.200 F 
ATOM     71  C   UNL A   1      46.438  33.313  26.679  1.00  0.00     0.200 A 
ATOM     72  F   UNL A   1      44.097  33.131  26.484  1.00  0.00    -0.200 F 
ATOM     73  F   UNL A   1      46.345  34.648  26.703  1.00  0.00    -0.200 F 
ENDBRANCH  49  63
BRANCH  50  74
ATOM     74  C   UNL A   1      38.935  28.211  29.485  1.00  0.00     0.064 A 
ATOM     75  C   UNL A   1      38.131  28.443  30.616  1.00  0.00     0.173 A 
ATOM     76  C   UNL A   1      38.512  28.811  28.284  1.00  0.00     0.173 A 
ATOM     77  F   UNL A   1      38.481  27.935  31.807  1.00  0.00    -0.203 F 
ATOM     78  C   UNL A   1      37.007  29.274  30.561  1.00  0.00     0.198 A 
ATOM     79  C   UNL A   1      37.387  29.637  28.230  1.00  0.00     0.198 A 
ATOM     80  F   UNL A   1      39.239  28.693  27.164  1.00  0.00    -0.203 F 
ATOM     81  F   UNL A   1      36.314  29.536  31.678  1.00  0.00    -0.200 F 
ATOM     82  C   UNL A   1      36.647  29.885  29.372  1.00  0.00     0.200 A 
ATOM     83  F   UNL A   1      37.070  30.252  27.082  1.00  0.00    -0.200 F 
ATOM     84  F   UNL A   1      35.620  30.745  29.335  1.00  0.00    -0.200 F 
ENDBRANCH  50  74
BRANCH  62  85
ATOM     85  C   UNL A   1      44.492  26.758  32.221  1.00  0.00     0.064 A 
ATOM     86  C   UNL A   1      44.321  25.413  31.856  1.00  0.00     0.173 A 
ATOM     87  C   UNL A   1      44.726  27.040  33.573  1.00  0.00     0.173 A 
ATOM     88  F   UNL A   1      44.156  25.063  30.572  1.00  0.00    -0.203 F 
ATOM     89  C   UNL A   1      44.364  24.400  32.814  1.00  0.00     0.198 A 
ATOM     90  C   UNL A   1      44.804  26.027  34.521  1.00  0.00     0.198 A 
ATOM     91  F   UNL A   1      44.925  28.308  33.969  1.00  0.00    -0.203 F 
ATOM     92  F   UNL A   1      44.189  23.121  32.450  1.00  0.00    -0.200 F 
ATOM     93  C   UNL A   1      44.617  24.708  34.142  1.00  0.00     0.200 A 
ATOM     94  F   UNL A   1      45.087  26.328  35.795  1.00  0.00    -0.200 F 
ATOM     95  F   UNL A   1      44.700  23.731  35.057  1.00  0.00    -0.200 F 
ENDBRANCH  62  85
ENDBRANCH  36  37
ENDBRANCH  29  31
ENDBRANCH  28  29
ENDBRANCH  27  28
ENDBRANCH  26  27
ENDBRANCH   1  26
TORSDOF 16
ENDMDL
MODEL 3
REMARK VINA RESULT:     -11.8      2.761      4.018
REMARK SMILES Cc1cc(=O)n2cc(-c3ccccc3)nc2n1[C@H](C)C(=O)OCCOCCOC(=O)c1ccc(-c2c3nc(c(-c4c(F)c(F)c(F)c(F)c4F)c4ccc([nH]4)c(-c4c(F)c(F)c(F)c(F)c4F)c4nc(c(-c5c(F)c(F)c(F)c(F)c5F)c5ccc2[nH]5)C=C4)C=C3)cc1
REMARK SMILES IDX 25 1 24 2 23 3 22 4 20 5 21 6 18 7 19 8 17 9 1 10 2 11 3 12
REMARK SMILES IDX 4 13 16 14 5 15 6 16 15 17 7 18 8 19 9 20 10 21 14 22 11 23
REMARK SMILES IDX 13 24 12 25 26 26 27 27 28 28 29 29 30 30 31 31 32 32 93 33
REMARK SMILES IDX 33 34 92 35 34 36 35 37 36 38 86 39 37 40 91 41 85 42 87 43
REMARK SMILES IDX 38 44 90 45 84 46 83 47 39 49 71 50 51 51 70 52 52 53 55 54
REMARK SMILES IDX 69 55 88 56 53 57 54 58 68 60 89 61 56 62 40 63 41 64 49 65
REMARK SMILES IDX 42 66 43 67 47 68 50 69 44 70 45 71 48 72 46 73 72 74 73 75
REMARK SMILES IDX 81 76 74 77 75 78 79 79 82 80 76 81 77 82 80 83 78 84 57 85
REMARK SMILES IDX 58 86 66 87 59 88 60 89 64 90 67 91 61 92 62 93 65 94 63 95
REMARK H PARENT 87 48 55 59
REMARK Flexibility Score: inf
ROOT
ATOM      1  O   UNL A   1      38.800  22.949  26.123  1.00  0.00    -0.374 OA
ENDROOT
BRANCH   1   2
ATOM      2  C   UNL A   1      37.414  23.208  25.914  1.00  0.00     0.202 C 
BRANCH   2   3
ATOM      3  C   UNL A   1      36.577  22.152  25.200  1.00  0.00     0.261 C 
BRANCH   3   4
ATOM      4  O   UNL A   1      35.284  22.645  24.833  1.00  0.00    -0.462 OA
BRANCH   4   5
ATOM      5  C   UNL A   1      35.196  23.174  23.582  1.00  0.00     0.329 C 
ATOM      6  O   UNL A   1      36.075  23.095  22.727  1.00  0.00    -0.250 OA
BRANCH   5   7
ATOM      7  C   UNL A   1      33.854  23.875  23.315  1.00  0.00     0.197 C 
ATOM      8  C   UNL A   1      33.186  23.610  21.968  1.00  0.00     0.044 C 
BRANCH   7   9
ATOM      9  N   UNL A   1      32.917  23.608  24.439  1.00  0.00    -0.301 N 
ATOM     10  C   UNL A   1      32.489  21.214  23.734  1.00  0.00     0.065 C 
ATOM     11  C   UNL A   1      32.185  22.418  24.596  1.00  0.00     0.024 A 
ATOM     12  C   UNL A   1      31.204  22.317  25.514  1.00  0.00     0.093 A 
ATOM     13  C   UNL A   1      30.872  23.464  26.390  1.00  0.00     0.259 A 
ATOM     14  C   UNL A   1      32.676  24.676  25.264  1.00  0.00     0.218 A 
ATOM     15  O   UNL A   1      29.989  23.456  27.229  1.00  0.00    -0.269 OA
ATOM     16  N   UNL A   1      31.664  24.590  26.195  1.00  0.00    -0.251 N 
ATOM     17  N   UNL A   1      33.244  25.862  25.283  1.00  0.00    -0.212 NA
ATOM     18  C   UNL A   1      31.599  25.809  26.832  1.00  0.00     0.127 A 
ATOM     19  C   UNL A   1      32.577  26.576  26.242  1.00  0.00     0.091 A 
BRANCH  19  20
ATOM     20  C   UNL A   1      32.852  27.963  26.541  1.00  0.00     0.002 A 
ATOM     21  C   UNL A   1      31.810  28.891  26.644  1.00  0.00     0.010 A 
ATOM     22  C   UNL A   1      34.173  28.388  26.734  1.00  0.00     0.010 A 
ATOM     23  C   UNL A   1      32.088  30.231  26.928  1.00  0.00     0.001 A 
ATOM     24  C   UNL A   1      34.449  29.729  27.012  1.00  0.00     0.001 A 
ATOM     25  C   UNL A   1      33.407  30.649  27.107  1.00  0.00     0.000 A 
ENDBRANCH  19  20
ENDBRANCH   7   9
ENDBRANCH   5   7
ENDBRANCH   4   5
ENDBRANCH   3   4
ENDBRANCH   2   3
ENDBRANCH   1   2
BRANCH   1  26
ATOM     26  C   UNL A   1      39.305  21.620  26.071  1.00  0.00     0.202 C 
BRANCH  26  27
ATOM     27  C   UNL A   1      40.719  21.352  26.572  1.00  0.00     0.261 C 
BRANCH  27  28
ATOM     28  O   UNL A   1      41.596  22.457  26.381  1.00  0.00    -0.460 OA
BRANCH  28  29
ATOM     29  C   UNL A   1      42.009  23.012  27.542  1.00  0.00     0.338 C 
ATOM     30  O   UNL A   1      42.065  22.469  28.634  1.00  0.00    -0.246 OA
BRANCH  29  31
ATOM     31  C   UNL A   1      42.204  24.453  27.369  1.00  0.00     0.060 A 
ATOM     32  C   UNL A   1      42.978  25.054  28.358  1.00  0.00     0.016 A 
ATOM     33  C   UNL A   1      41.347  25.191  26.537  1.00  0.00     0.016 A 
ATOM     34  C   UNL A   1      42.670  26.342  28.710  1.00  0.00     0.010 A 
ATOM     35  C   UNL A   1      41.056  26.493  26.879  1.00  0.00     0.010 A 
ATOM     36  C   UNL A   1      41.641  27.010  28.027  1.00  0.00    -0.014 A 
BRANCH  36  37
ATOM     37  C   UNL A   1      41.304  28.330  28.513  1.00  0.00     0.031 A 
ATOM     38  C   UNL A   1      42.347  29.303  28.152  1.00  0.00     0.074 A 
ATOM     39  C   UNL A   1      40.213  28.616  29.246  1.00  0.00     0.049 A 
ATOM     40  N   UNL A   1      43.274  29.751  28.929  1.00  0.00    -0.248 NA
ATOM     41  C   UNL A   1      42.535  29.627  26.733  1.00  0.00     0.031 C 
ATOM     42  C   UNL A   1      39.013  27.802  29.450  1.00  0.00     0.029 A 
ATOM     43  N   UNL A   1      39.932  29.760  29.934  1.00  0.00    -0.354 N 
ATOM     44  C   UNL A   1      44.032  30.605  28.141  1.00  0.00     0.074 A 
ATOM     45  C   UNL A   1      43.667  30.332  26.778  1.00  0.00     0.031 C 
ATOM     46  C   UNL A   1      38.045  28.565  30.013  1.00  0.00     0.029 A 
ATOM     47  C   UNL A   1      38.614  29.857  30.362  1.00  0.00     0.049 A 
ATOM     48  H   UNL A   1      40.605  30.456  30.113  1.00  0.00     0.167 HD
ATOM     49  C   UNL A   1      44.628  31.680  28.721  1.00  0.00     0.037 A 
ATOM     50  C   UNL A   1      38.046  30.950  30.928  1.00  0.00     0.037 A 
ATOM     51  C   UNL A   1      44.710  31.502  30.151  1.00  0.00     0.049 A 
ATOM     52  C   UNL A   1      39.138  31.741  31.545  1.00  0.00     0.074 A 
ATOM     53  C   UNL A   1      45.497  30.795  31.034  1.00  0.00     0.029 A 
ATOM     54  N   UNL A   1      43.550  31.822  30.808  1.00  0.00    -0.354 N 
ATOM     55  N   UNL A   1      39.833  31.325  32.568  1.00  0.00    -0.248 NA
ATOM     56  C   UNL A   1      39.715  32.863  30.810  1.00  0.00     0.031 C 
ATOM     57  C   UNL A   1      44.707  30.598  32.209  1.00  0.00     0.029 A 
ATOM     58  C   UNL A   1      43.475  31.221  32.033  1.00  0.00     0.049 A 
ATOM     59  H   UNL A   1      42.855  32.413  30.440  1.00  0.00     0.167 HD
ATOM     60  C   UNL A   1      41.097  31.836  32.352  1.00  0.00     0.074 A 
ATOM     61  C   UNL A   1      40.924  32.903  31.374  1.00  0.00     0.031 C 
ATOM     62  C   UNL A   1      42.206  31.135  32.721  1.00  0.00     0.037 A 
BRANCH  49  63
ATOM     63  C   UNL A   1      44.605  33.068  28.113  1.00  0.00     0.064 A 
ATOM     64  C   UNL A   1      45.815  33.619  27.643  1.00  0.00     0.173 A 
ATOM     65  C   UNL A   1      43.544  33.989  28.265  1.00  0.00     0.173 A 
ATOM     66  F   UNL A   1      46.901  32.848  27.483  1.00  0.00    -0.203 F 
ATOM     67  C   UNL A   1      45.964  34.991  27.413  1.00  0.00     0.198 A 
ATOM     68  C   UNL A   1      43.683  35.347  27.989  1.00  0.00     0.198 A 
ATOM     69  F   UNL A   1      42.364  33.651  28.794  1.00  0.00    -0.203 F 
ATOM     70  F   UNL A   1      47.165  35.484  27.081  1.00  0.00    -0.200 F 
ATOM     71  C   UNL A   1      44.899  35.855  27.592  1.00  0.00     0.200 A 
ATOM     72  F   UNL A   1      42.644  36.169  28.198  1.00  0.00    -0.200 F 
ATOM     73  F   UNL A   1      45.053  37.174  27.427  1.00  0.00    -0.200 F 
ENDBRANCH  49  63
BRANCH  50  74
ATOM     74  C   UNL A   1      36.711  31.539  30.657  1.00  0.00     0.064 A 
ATOM     75  C   UNL A   1      35.860  31.903  31.715  1.00  0.00     0.173 A 
ATOM     76  C   UNL A   1      36.389  32.057  29.388  1.00  0.00     0.173 A 
ATOM     77  F   UNL A   1      36.115  31.479  32.962  1.00  0.00    -0.203 F 
ATOM     78  C   UNL A   1      34.786  32.780  31.527  1.00  0.00     0.198 A 
ATOM     79  C   UNL A   1      35.315  32.930  29.202  1.00  0.00     0.198 A 
ATOM     80  F   UNL A   1      37.170  31.812  28.327  1.00  0.00    -0.203 F 
ATOM     81  F   UNL A   1      34.047  33.167  32.576  1.00  0.00    -0.200 F 
ATOM     82  C   UNL A   1      34.527  33.307  30.274  1.00  0.00     0.200 A 
ATOM     83  F   UNL A   1      35.095  33.463  27.991  1.00  0.00    -0.200 F 
ATOM     84  F   UNL A   1      33.550  34.210  30.107  1.00  0.00    -0.200 F 
ENDBRANCH  50  74
BRANCH  62  85
ATOM     85  C   UNL A   1      42.055  30.111  33.801  1.00  0.00     0.064 A 
ATOM     86  C   UNL A   1      41.699  28.770  33.586  1.00  0.00     0.173 A 
ATOM     87  C   UNL A   1      42.379  30.497  35.108  1.00  0.00     0.173 A 
ATOM     88  F   UNL A   1      41.438  28.315  32.352  1.00  0.00    -0.203 F 
ATOM     89  C   UNL A   1      41.651  27.864  34.646  1.00  0.00     0.198 A 
ATOM     90  C   UNL A   1      42.366  29.584  36.156  1.00  0.00     0.198 A 
ATOM     91  F   UNL A   1      42.755  31.762  35.361  1.00  0.00    -0.203 F 
ATOM     92  F   UNL A   1      41.298  26.589  34.425  1.00  0.00    -0.200 F 
ATOM     93  C   UNL A   1      41.995  28.270  35.926  1.00  0.00     0.200 A 
ATOM     94  F   UNL A   1      42.737  29.974  37.383  1.00  0.00    -0.200 F 
ATOM     95  F   UNL A   1      41.990  27.390  36.937  1.00  0.00    -0.200 F 
ENDBRANCH  62  85
ENDBRANCH  36  37
ENDBRANCH  29  31
ENDBRANCH  28  29
ENDBRANCH  27  28
ENDBRANCH  26  27
ENDBRANCH   1  26
TORSDOF 16
ENDMDL
