MODEL 1
REMARK VINA RESULT:     -11.4      0.000      0.000
REMARK SMILES Cc1cc(C)c2c(=O)n(CCCC(=O)OCCOCCOC(=O)c3ccc(-c4c5nc(c(-c6c(F)c(F)c(F)c(F)c6F)c6ccc([nH]6)c(-c6c(F)c(F)c(F)c(F)c6F)c6nc(c(-c7c(F)c(F)c(F)c(F)c7F)c7ccc4[nH]7)C=C6)C=C5)cc3)sc2n1
REMARK SMILES IDX 17 1 16 2 15 3 13 4 14 5 12 6 11 7 10 8 9 9 1 10 2 11 3 12
REMARK SMILES IDX 89 13 4 14 88 15 5 16 6 17 87 18 7 19 8 20 18 21 19 22 20 23
REMARK SMILES IDX 21 24 22 25 23 26 24 27 25 28 86 29 26 30 85 31 27 32 28 33
REMARK SMILES IDX 29 34 79 35 30 36 84 37 78 38 80 39 31 40 83 41 77 42 76 43
REMARK SMILES IDX 32 45 64 46 44 47 63 48 45 49 48 50 62 51 81 52 46 53 47 54
REMARK SMILES IDX 61 56 82 57 49 58 33 59 34 60 42 61 35 62 36 63 40 64 43 65
REMARK SMILES IDX 37 66 38 67 41 68 39 69 65 70 66 71 74 72 67 73 68 74 72 75
REMARK SMILES IDX 75 76 69 77 70 78 73 79 71 80 50 81 51 82 59 83 52 84 53 85
REMARK SMILES IDX 57 86 60 87 54 88 55 89 58 90 56 91
REMARK H PARENT 80 44 48 55
REMARK Flexibility Score: inf
ROOT
ATOM      1  C   UNL A   1      39.442  21.876  26.207  1.00  0.00     0.202 C 
ENDROOT
BRANCH   1   2
ATOM      2  C   UNL A   1      38.004  21.717  25.724  1.00  0.00     0.261 C 
BRANCH   2   3
ATOM      3  O   UNL A   1      37.686  22.745  24.774  1.00  0.00    -0.463 OA
BRANCH   3   4
ATOM      4  C   UNL A   1      36.709  22.466  23.879  1.00  0.00     0.305 C 
ATOM      5  O   UNL A   1      36.634  22.939  22.751  1.00  0.00    -0.252 OA
BRANCH   4   6
ATOM      6  C   UNL A   1      35.701  21.460  24.399  1.00  0.00     0.124 C 
BRANCH   6   7
ATOM      7  C   UNL A   1      34.282  21.915  24.769  1.00  0.00     0.035 C 
BRANCH   7   8
ATOM      8  C   UNL A   1      33.454  22.727  23.760  1.00  0.00     0.139 C 
BRANCH   8   9
ATOM      9  N   UNL A   1      33.218  24.111  24.118  1.00  0.00    -0.262 N 
ATOM     10  C   UNL A   1      33.317  29.323  27.205  1.00  0.00     0.067 C 
ATOM     11  C   UNL A   1      33.268  28.345  26.071  1.00  0.00     0.039 A 
ATOM     12  C   UNL A   1      33.627  28.725  24.769  1.00  0.00     0.027 A 
ATOM     13  N   UNL A   1      32.886  27.091  26.386  1.00  0.00    -0.241 NA
ATOM     14  C   UNL A   1      33.674  27.766  23.742  1.00  0.00    -0.033 A 
ATOM     15  C   UNL A   1      32.953  26.199  25.389  1.00  0.00     0.146 A 
ATOM     16  C   UNL A   1      34.006  28.149  22.335  1.00  0.00     0.045 C 
ATOM     17  C   UNL A   1      33.391  26.457  24.103  1.00  0.00     0.081 A 
ATOM     18  S   UNL A   1      32.483  24.518  25.606  1.00  0.00    -0.035 S 
ATOM     19  C   UNL A   1      33.562  25.203  23.332  1.00  0.00     0.270 A 
ATOM     20  O   UNL A   1      34.005  25.168  22.195  1.00  0.00    -0.268 OA
ENDBRANCH   8   9
ENDBRANCH   7   8
ENDBRANCH   6   7
ENDBRANCH   4   6
ENDBRANCH   3   4
ENDBRANCH   2   3
ENDBRANCH   1   2
BRANCH   1  21
ATOM     21  O   UNL A   1      40.273  20.717  26.145  1.00  0.00    -0.374 OA
BRANCH  21  22
ATOM     22  C   UNL A   1      41.533  20.716  26.809  1.00  0.00     0.202 C 
BRANCH  22  23
ATOM     23  C   UNL A   1      42.616  19.796  26.264  1.00  0.00     0.261 C 
BRANCH  23  24
ATOM     24  O   UNL A   1      43.103  20.214  24.994  1.00  0.00    -0.460 OA
BRANCH  24  25
ATOM     25  C   UNL A   1      44.414  20.553  25.009  1.00  0.00     0.338 C 
ATOM     26  O   UNL A   1      45.369  19.803  25.018  1.00  0.00    -0.246 OA
BRANCH  25  27
ATOM     27  C   UNL A   1      44.527  22.002  25.201  1.00  0.00     0.060 A 
ATOM     28  C   UNL A   1      45.323  22.405  26.273  1.00  0.00     0.016 A 
ATOM     29  C   UNL A   1      43.640  22.881  24.562  1.00  0.00     0.016 A 
ATOM     30  C   UNL A   1      45.046  23.615  26.861  1.00  0.00     0.010 A 
ATOM     31  C   UNL A   1      43.373  24.098  25.143  1.00  0.00     0.010 A 
ATOM     32  C   UNL A   1      44.007  24.401  26.340  1.00  0.00    -0.014 A 
BRANCH  32  33
ATOM     33  C   UNL A   1      43.694  25.626  27.039  1.00  0.00     0.031 A 
ATOM     34  C   UNL A   1      44.681  26.684  26.739  1.00  0.00     0.074 A 
ATOM     35  C   UNL A   1      42.621  25.766  27.839  1.00  0.00     0.049 A 
ATOM     36  N   UNL A   1      45.577  27.156  27.539  1.00  0.00    -0.248 NA
ATOM     37  C   UNL A   1      44.839  27.099  25.336  1.00  0.00     0.031 C 
ATOM     38  C   UNL A   1      41.485  24.859  28.012  1.00  0.00     0.029 A 
ATOM     39  N   UNL A   1      42.290  26.820  28.635  1.00  0.00    -0.354 N 
ATOM     40  C   UNL A   1      46.283  28.088  26.791  1.00  0.00     0.074 A 
ATOM     41  C   UNL A   1      45.925  27.869  25.415  1.00  0.00     0.031 C 
ATOM     42  C   UNL A   1      40.495  25.501  28.678  1.00  0.00     0.029 A 
ATOM     43  C   UNL A   1      40.979  26.803  29.098  1.00  0.00     0.049 A 
ATOM     44  H   UNL A   1      42.928  27.533  28.865  1.00  0.00     0.167 HD
ATOM     45  C   UNL A   1      46.867  29.149  27.407  1.00  0.00     0.037 A 
ATOM     46  C   UNL A   1      40.347  27.833  29.720  1.00  0.00     0.037 A 
ATOM     47  C   UNL A   1      47.078  28.872  28.808  1.00  0.00     0.049 A 
ATOM     48  C   UNL A   1      41.405  28.720  30.266  1.00  0.00     0.074 A 
ATOM     49  C   UNL A   1      47.821  27.950  29.518  1.00  0.00     0.029 A 
ATOM     50  N   UNL A   1      46.154  29.374  29.689  1.00  0.00    -0.354 N 
ATOM     51  N   UNL A   1      42.205  28.380  31.238  1.00  0.00    -0.248 NA
ATOM     52  C   UNL A   1      41.871  29.810  29.422  1.00  0.00     0.031 C 
ATOM     53  C   UNL A   1      47.027  27.627  30.659  1.00  0.00     0.029 A 
ATOM     54  C   UNL A   1      45.874  28.412  30.621  1.00  0.00     0.049 A 
ATOM     55  H   UNL A   1      45.761  30.276  29.657  1.00  0.00     0.167 HD
ATOM     56  C   UNL A   1      43.440  28.895  30.871  1.00  0.00     0.074 A 
ATOM     57  C   UNL A   1      43.155  29.835  29.789  1.00  0.00     0.031 C 
ATOM     58  C   UNL A   1      44.593  28.292  31.280  1.00  0.00     0.037 A 
BRANCH  45  59
ATOM     59  C   UNL A   1      46.798  30.557  26.862  1.00  0.00     0.064 A 
ATOM     60  C   UNL A   1      47.959  31.354  26.910  1.00  0.00     0.173 A 
ATOM     61  C   UNL A   1      45.596  31.254  26.600  1.00  0.00     0.173 A 
ATOM     62  F   UNL A   1      49.155  30.804  27.170  1.00  0.00    -0.203 F 
ATOM     63  C   UNL A   1      47.904  32.746  26.803  1.00  0.00     0.198 A 
ATOM     64  C   UNL A   1      45.553  32.637  26.441  1.00  0.00     0.198 A 
ATOM     65  F   UNL A   1      44.399  30.660  26.600  1.00  0.00    -0.203 F 
ATOM     66  F   UNL A   1      49.014  33.470  26.995  1.00  0.00    -0.200 F 
ATOM     67  C   UNL A   1      46.700  33.386  26.575  1.00  0.00     0.200 A 
ATOM     68  F   UNL A   1      44.371  33.238  26.244  1.00  0.00    -0.200 F 
ATOM     69  F   UNL A   1      46.634  34.723  26.539  1.00  0.00    -0.200 F 
ENDBRANCH  45  59
BRANCH  46  70
ATOM     70  C   UNL A   1      38.950  28.308  29.533  1.00  0.00     0.064 A 
ATOM     71  C   UNL A   1      38.127  28.570  30.644  1.00  0.00     0.173 A 
ATOM     72  C   UNL A   1      38.501  28.810  28.296  1.00  0.00     0.173 A 
ATOM     73  F   UNL A   1      38.498  28.166  31.868  1.00  0.00    -0.203 F 
ATOM     74  C   UNL A   1      36.954  29.325  30.531  1.00  0.00     0.198 A 
ATOM     75  C   UNL A   1      37.327  29.558  28.184  1.00  0.00     0.198 A 
ATOM     76  F   UNL A   1      39.241  28.674  27.188  1.00  0.00    -0.203 F 
ATOM     77  F   UNL A   1      36.237  29.617  31.627  1.00  0.00    -0.200 F 
ATOM     78  C   UNL A   1      36.563  29.831  29.304  1.00  0.00     0.200 A 
ATOM     79  F   UNL A   1      36.979  30.073  26.997  1.00  0.00    -0.200 F 
ATOM     80  F   UNL A   1      35.479  30.613  29.205  1.00  0.00    -0.200 F 
ENDBRANCH  46  70
BRANCH  58  81
ATOM     81  C   UNL A   1      44.499  27.255  32.366  1.00  0.00     0.064 A 
ATOM     82  C   UNL A   1      44.368  27.551  33.733  1.00  0.00     0.173 A 
ATOM     83  C   UNL A   1      44.358  25.917  31.975  1.00  0.00     0.173 A 
ATOM     84  F   UNL A   1      44.410  28.816  34.174  1.00  0.00    -0.203 F 
ATOM     85  C   UNL A   1      44.120  26.544  34.666  1.00  0.00     0.198 A 
ATOM     86  C   UNL A   1      44.074  24.920  32.903  1.00  0.00     0.198 A 
ATOM     87  F   UNL A   1      44.432  25.587  30.677  1.00  0.00    -0.203 F 
ATOM     88  F   UNL A   1      43.992  26.846  35.967  1.00  0.00    -0.200 F 
ATOM     89  C   UNL A   1      43.958  25.232  34.248  1.00  0.00     0.200 A 
ATOM     90  F   UNL A   1      43.874  23.662  32.486  1.00  0.00    -0.200 F 
ATOM     91  F   UNL A   1      43.663  24.273  35.136  1.00  0.00    -0.200 F 
ENDBRANCH  58  81
ENDBRANCH  32  33
ENDBRANCH  25  27
ENDBRANCH  24  25
ENDBRANCH  23  24
ENDBRANCH  22  23
ENDBRANCH  21  22
ENDBRANCH   1  21
TORSDOF 17
ENDMDL
MODEL 2
REMARK VINA RESULT:     -11.3      4.451      9.851
REMARK SMILES Cc1cc(C)c2c(=O)n(CCCC(=O)OCCOCCOC(=O)c3ccc(-c4c5nc(c(-c6c(F)c(F)c(F)c(F)c6F)c6ccc([nH]6)c(-c6c(F)c(F)c(F)c(F)c6F)c6nc(c(-c7c(F)c(F)c(F)c(F)c7F)c7ccc4[nH]7)C=C6)C=C5)cc3)sc2n1
REMARK SMILES IDX 17 1 16 2 15 3 13 4 14 5 12 6 11 7 10 8 9 9 1 10 2 11 3 12
REMARK SMILES IDX 89 13 4 14 88 15 5 16 6 17 87 18 7 19 8 20 18 21 19 22 20 23
REMARK SMILES IDX 21 24 22 25 23 26 24 27 25 28 86 29 26 30 85 31 27 32 28 33
REMARK SMILES IDX 29 34 79 35 30 36 84 37 78 38 80 39 31 40 83 41 77 42 76 43
REMARK SMILES IDX 32 45 64 46 44 47 63 48 45 49 48 50 62 51 81 52 46 53 47 54
REMARK SMILES IDX 61 56 82 57 49 58 33 59 34 60 42 61 35 62 36 63 40 64 43 65
REMARK SMILES IDX 37 66 38 67 41 68 39 69 65 70 66 71 74 72 67 73 68 74 72 75
REMARK SMILES IDX 75 76 69 77 70 78 73 79 71 80 50 81 51 82 59 83 52 84 53 85
REMARK SMILES IDX 57 86 60 87 54 88 55 89 58 90 56 91
REMARK H PARENT 80 44 48 55
REMARK Flexibility Score: inf
ROOT
ATOM      1  C   UNL A   1      35.024  33.185  28.044  1.00  0.00     0.202 C 
ENDROOT
BRANCH   1   2
ATOM      2  C   UNL A   1      34.196  31.955  28.404  1.00  0.00     0.261 C 
BRANCH   2   3
ATOM      3  O   UNL A   1      33.751  31.293  27.211  1.00  0.00    -0.463 OA
BRANCH   3   4
ATOM      4  C   UNL A   1      33.598  29.949  27.280  1.00  0.00     0.305 C 
ATOM      5  O   UNL A   1      34.475  29.158  27.606  1.00  0.00    -0.252 OA
BRANCH   4   6
ATOM      6  C   UNL A   1      32.191  29.497  26.940  1.00  0.00     0.124 C 
BRANCH   6   7
ATOM      7  C   UNL A   1      31.888  28.899  25.560  1.00  0.00     0.035 C 
BRANCH   7   8
ATOM      8  C   UNL A   1      31.239  27.509  25.456  1.00  0.00     0.139 C 
BRANCH   8   9
ATOM      9  N   UNL A   1      32.161  26.392  25.425  1.00  0.00    -0.262 N 
ATOM     10  C   UNL A   1      37.316  23.215  25.632  1.00  0.00     0.067 C 
ATOM     11  C   UNL A   1      35.868  23.581  25.750  1.00  0.00     0.039 A 
ATOM     12  C   UNL A   1      35.007  22.869  26.599  1.00  0.00     0.027 A 
ATOM     13  N   UNL A   1      35.462  24.638  25.019  1.00  0.00    -0.241 NA
ATOM     14  C   UNL A   1      33.678  23.296  26.774  1.00  0.00    -0.033 A 
ATOM     15  C   UNL A   1      34.196  25.026  25.217  1.00  0.00     0.146 A 
ATOM     16  C   UNL A   1      32.724  22.530  27.634  1.00  0.00     0.045 C 
ATOM     17  C   UNL A   1      33.305  24.452  26.106  1.00  0.00     0.081 A 
ATOM     18  S   UNL A   1      33.484  26.377  24.343  1.00  0.00    -0.035 S 
ATOM     19  C   UNL A   1      32.079  25.273  26.244  1.00  0.00     0.270 A 
ATOM     20  O   UNL A   1      31.177  25.008  27.023  1.00  0.00    -0.268 OA
ENDBRANCH   8   9
ENDBRANCH   7   8
ENDBRANCH   6   7
ENDBRANCH   4   6
ENDBRANCH   3   4
ENDBRANCH   2   3
ENDBRANCH   1   2
BRANCH   1  21
ATOM     21  O   UNL A   1      34.843  34.343  28.859  1.00  0.00    -0.374 OA
BRANCH  21  22
ATOM     22  C   UNL A   1      33.576  34.990  28.895  1.00  0.00     0.202 C 
BRANCH  22  23
ATOM     23  C   UNL A   1      33.151  35.638  30.205  1.00  0.00     0.261 C 
BRANCH  23  24
ATOM     24  O   UNL A   1      33.132  34.720  31.290  1.00  0.00    -0.460 OA
BRANCH  24  25
ATOM     25  C   UNL A   1      33.750  35.190  32.400  1.00  0.00     0.338 C 
ATOM     26  O   UNL A   1      33.581  36.265  32.938  1.00  0.00    -0.246 OA
BRANCH  25  27
ATOM     27  C   UNL A   1      34.823  34.262  32.774  1.00  0.00     0.060 A 
ATOM     28  C   UNL A   1      36.080  34.838  32.954  1.00  0.00     0.016 A 
ATOM     29  C   UNL A   1      34.653  32.876  32.634  1.00  0.00     0.016 A 
ATOM     30  C   UNL A   1      37.184  34.050  32.740  1.00  0.00     0.010 A 
ATOM     31  C   UNL A   1      35.759  32.086  32.434  1.00  0.00     0.010 A 
ATOM     32  C   UNL A   1      37.002  32.705  32.389  1.00  0.00    -0.014 A 
BRANCH  32  33
ATOM     33  C   UNL A   1      38.188  31.934  32.093  1.00  0.00     0.031 A 
ATOM     34  C   UNL A   1      38.992  31.695  33.308  1.00  0.00     0.074 A 
ATOM     35  C   UNL A   1      38.486  31.485  30.859  1.00  0.00     0.049 A 
ATOM     36  N   UNL A   1      40.132  32.225  33.599  1.00  0.00    -0.248 NA
ATOM     37  C   UNL A   1      38.359  30.968  34.420  1.00  0.00     0.031 C 
ATOM     38  C   UNL A   1      37.647  31.481  29.659  1.00  0.00     0.029 A 
ATOM     39  N   UNL A   1      39.619  30.860  30.438  1.00  0.00    -0.354 N 
ATOM     40  C   UNL A   1      40.460  31.728  34.853  1.00  0.00     0.074 A 
ATOM     41  C   UNL A   1      39.263  31.133  35.385  1.00  0.00     0.031 C 
ATOM     42  C   UNL A   1      38.212  30.685  28.719  1.00  0.00     0.029 A 
ATOM     43  C   UNL A   1      39.510  30.244  29.196  1.00  0.00     0.049 A 
ATOM     44  H   UNL A   1      40.448  30.846  30.968  1.00  0.00     0.167 HD
ATOM     45  C   UNL A   1      41.764  31.590  35.207  1.00  0.00     0.037 A 
ATOM     46  C   UNL A   1      40.413  29.383  28.658  1.00  0.00     0.037 A 
ATOM     47  C   UNL A   1      42.603  32.447  34.405  1.00  0.00     0.049 A 
ATOM     48  C   UNL A   1      41.706  29.629  29.347  1.00  0.00     0.074 A 
ATOM     49  C   UNL A   1      42.715  33.811  34.226  1.00  0.00     0.029 A 
ATOM     50  N   UNL A   1      43.244  31.871  33.337  1.00  0.00    -0.354 N 
ATOM     51  N   UNL A   1      42.397  30.727  29.220  1.00  0.00    -0.248 NA
ATOM     52  C   UNL A   1      41.995  28.839  30.534  1.00  0.00     0.031 C 
ATOM     53  C   UNL A   1      43.029  33.984  32.845  1.00  0.00     0.029 A 
ATOM     54  C   UNL A   1      43.157  32.720  32.268  1.00  0.00     0.049 A 
ATOM     55  H   UNL A   1      43.692  30.995  33.341  1.00  0.00     0.167 HD
ATOM     56  C   UNL A   1      42.877  30.989  30.495  1.00  0.00     0.074 A 
ATOM     57  C   UNL A   1      42.668  29.750  31.242  1.00  0.00     0.031 C 
ATOM     58  C   UNL A   1      43.123  32.270  30.895  1.00  0.00     0.037 A 
BRANCH  45  59
ATOM     59  C   UNL A   1      42.299  30.366  35.916  1.00  0.00     0.064 A 
ATOM     60  C   UNL A   1      43.254  30.544  36.936  1.00  0.00     0.173 A 
ATOM     61  C   UNL A   1      42.166  29.043  35.435  1.00  0.00     0.173 A 
ATOM     62  F   UNL A   1      43.479  31.761  37.457  1.00  0.00    -0.203 F 
ATOM     63  C   UNL A   1      44.076  29.501  37.368  1.00  0.00     0.198 A 
ATOM     64  C   UNL A   1      42.953  27.995  35.906  1.00  0.00     0.198 A 
ATOM     65  F   UNL A   1      41.364  28.720  34.417  1.00  0.00    -0.203 F 
ATOM     66  F   UNL A   1      45.063  29.751  38.238  1.00  0.00    -0.200 F 
ATOM     67  C   UNL A   1      43.929  28.229  36.847  1.00  0.00     0.200 A 
ATOM     68  F   UNL A   1      42.807  26.775  35.370  1.00  0.00    -0.200 F 
ATOM     69  F   UNL A   1      44.759  27.243  37.210  1.00  0.00    -0.200 F 
ENDBRANCH  45  59
BRANCH  46  70
ATOM     70  C   UNL A   1      40.158  28.126  27.905  1.00  0.00     0.064 A 
ATOM     71  C   UNL A   1      40.865  27.842  26.722  1.00  0.00     0.173 A 
ATOM     72  C   UNL A   1      39.459  27.049  28.483  1.00  0.00     0.173 A 
ATOM     73  F   UNL A   1      41.593  28.798  26.126  1.00  0.00    -0.203 F 
ATOM     74  C   UNL A   1      40.908  26.553  26.179  1.00  0.00     0.198 A 
ATOM     75  C   UNL A   1      39.497  25.764  27.937  1.00  0.00     0.198 A 
ATOM     76  F   UNL A   1      38.808  27.195  29.645  1.00  0.00    -0.203 F 
ATOM     77  F   UNL A   1      41.655  26.307  25.093  1.00  0.00    -0.200 F 
ATOM     78  C   UNL A   1      40.236  25.512  26.796  1.00  0.00     0.200 A 
ATOM     79  F   UNL A   1      38.872  24.758  28.564  1.00  0.00    -0.200 F 
ATOM     80  F   UNL A   1      40.332  24.263  26.318  1.00  0.00    -0.200 F 
ENDBRANCH  46  70
BRANCH  58  81
ATOM     81  C   UNL A   1      43.150  33.343  29.842  1.00  0.00     0.064 A 
ATOM     82  C   UNL A   1      42.042  34.132  29.487  1.00  0.00     0.173 A 
ATOM     83  C   UNL A   1      44.396  33.697  29.307  1.00  0.00     0.173 A 
ATOM     84  F   UNL A   1      40.834  33.906  30.020  1.00  0.00    -0.203 F 
ATOM     85  C   UNL A   1      42.181  35.218  28.623  1.00  0.00     0.198 A 
ATOM     86  C   UNL A   1      44.537  34.802  28.475  1.00  0.00     0.198 A 
ATOM     87  F   UNL A   1      45.492  33.002  29.648  1.00  0.00    -0.203 F 
ATOM     88  F   UNL A   1      41.112  35.963  28.300  1.00  0.00    -0.200 F 
ATOM     89  C   UNL A   1      43.430  35.560  28.130  1.00  0.00     0.200 A 
ATOM     90  F   UNL A   1      45.754  35.154  28.039  1.00  0.00    -0.200 F 
ATOM     91  F   UNL A   1      43.573  36.638  27.346  1.00  0.00    -0.200 F 
ENDBRANCH  58  81
ENDBRANCH  32  33
ENDBRANCH  25  27
ENDBRANCH  24  25
ENDBRANCH  23  24
ENDBRANCH  22  23
ENDBRANCH  21  22
ENDBRANCH   1  21
TORSDOF 17
ENDMDL
MODEL 3
REMARK VINA RESULT:     -11.0      2.107      3.026
REMARK SMILES Cc1cc(C)c2c(=O)n(CCCC(=O)OCCOCCOC(=O)c3ccc(-c4c5nc(c(-c6c(F)c(F)c(F)c(F)c6F)c6ccc([nH]6)c(-c6c(F)c(F)c(F)c(F)c6F)c6nc(c(-c7c(F)c(F)c(F)c(F)c7F)c7ccc4[nH]7)C=C6)C=C5)cc3)sc2n1
REMARK SMILES IDX 17 1 16 2 15 3 13 4 14 5 12 6 11 7 10 8 9 9 1 10 2 11 3 12
REMARK SMILES IDX 89 13 4 14 88 15 5 16 6 17 87 18 7 19 8 20 18 21 19 22 20 23
REMARK SMILES IDX 21 24 22 25 23 26 24 27 25 28 86 29 26 30 85 31 27 32 28 33
REMARK SMILES IDX 29 34 79 35 30 36 84 37 78 38 80 39 31 40 83 41 77 42 76 43
REMARK SMILES IDX 32 45 64 46 44 47 63 48 45 49 48 50 62 51 81 52 46 53 47 54
REMARK SMILES IDX 61 56 82 57 49 58 33 59 34 60 42 61 35 62 36 63 40 64 43 65
REMARK SMILES IDX 37 66 38 67 41 68 39 69 65 70 66 71 74 72 67 73 68 74 72 75
REMARK SMILES IDX 75 76 69 77 70 78 73 79 71 80 50 81 51 82 59 83 52 84 53 85
REMARK SMILES IDX 57 86 60 87 54 88 55 89 58 90 56 91
REMARK H PARENT 80 44 48 55
REMARK Flexibility Score: inf
ROOT
ATOM      1  C   UNL A   1      38.876  22.262  26.040  1.00  0.00     0.202 C 
ENDROOT
BRANCH   1   2
ATOM      2  C   UNL A   1      37.482  21.747  25.696  1.00  0.00     0.261 C 
BRANCH   2   3
ATOM      3  O   UNL A   1      37.314  21.692  24.272  1.00  0.00    -0.463 OA
BRANCH   3   4
ATOM      4  C   UNL A   1      36.441  22.573  23.727  1.00  0.00     0.305 C 
ATOM      5  O   UNL A   1      36.656  23.250  22.729  1.00  0.00    -0.252 OA
BRANCH   4   6
ATOM      6  C   UNL A   1      35.118  22.627  24.467  1.00  0.00     0.124 C 
BRANCH   6   7
ATOM      7  C   UNL A   1      33.842  22.097  23.798  1.00  0.00     0.035 C 
BRANCH   7   8
ATOM      8  C   UNL A   1      33.061  22.997  22.827  1.00  0.00     0.139 C 
BRANCH   8   9
ATOM      9  N   UNL A   1      32.718  24.310  23.333  1.00  0.00    -0.262 N 
ATOM     10  C   UNL A   1      31.818  28.911  27.171  1.00  0.00     0.067 C 
ATOM     11  C   UNL A   1      32.132  28.144  25.923  1.00  0.00     0.039 A 
ATOM     12  C   UNL A   1      32.880  28.721  24.885  1.00  0.00     0.027 A 
ATOM     13  N   UNL A   1      31.676  26.876  25.877  1.00  0.00    -0.241 NA
ATOM     14  C   UNL A   1      33.251  27.948  23.770  1.00  0.00    -0.033 A 
ATOM     15  C   UNL A   1      32.057  26.164  24.808  1.00  0.00     0.146 A 
ATOM     16  C   UNL A   1      34.006  28.547  22.627  1.00  0.00     0.045 C 
ATOM     17  C   UNL A   1      32.875  26.613  23.788  1.00  0.00     0.081 A 
ATOM     18  S   UNL A   1      31.551  24.496  24.568  1.00  0.00    -0.035 S 
ATOM     19  C   UNL A   1      33.285  25.501  22.899  1.00  0.00     0.270 A 
ATOM     20  O   UNL A   1      34.063  25.637  21.967  1.00  0.00    -0.268 OA
ENDBRANCH   8   9
ENDBRANCH   7   8
ENDBRANCH   6   7
ENDBRANCH   4   6
ENDBRANCH   3   4
ENDBRANCH   2   3
ENDBRANCH   1   2
BRANCH   1  21
ATOM     21  O   UNL A   1      39.685  21.427  26.869  1.00  0.00    -0.374 OA
BRANCH  21  22
ATOM     22  C   UNL A   1      40.636  20.551  26.273  1.00  0.00     0.202 C 
BRANCH  22  23
ATOM     23  C   UNL A   1      42.089  21.000  26.248  1.00  0.00     0.261 C 
BRANCH  23  24
ATOM     24  O   UNL A   1      42.299  22.133  25.415  1.00  0.00    -0.460 OA
BRANCH  24  25
ATOM     25  C   UNL A   1      43.186  23.019  25.928  1.00  0.00     0.338 C 
ATOM     26  O   UNL A   1      44.395  22.998  25.820  1.00  0.00    -0.246 OA
BRANCH  25  27
ATOM     27  C   UNL A   1      42.474  23.942  26.819  1.00  0.00     0.060 A 
ATOM     28  C   UNL A   1      41.588  24.817  26.191  1.00  0.00     0.016 A 
ATOM     29  C   UNL A   1      42.904  24.138  28.139  1.00  0.00     0.016 A 
ATOM     30  C   UNL A   1      41.333  26.020  26.802  1.00  0.00     0.010 A 
ATOM     31  C   UNL A   1      42.636  25.337  28.756  1.00  0.00     0.010 A 
ATOM     32  C   UNL A   1      41.940  26.299  28.035  1.00  0.00    -0.014 A 
BRANCH  32  33
ATOM     33  C   UNL A   1      41.711  27.608  28.602  1.00  0.00     0.031 A 
ATOM     34  C   UNL A   1      42.819  28.532  28.288  1.00  0.00     0.074 A 
ATOM     35  C   UNL A   1      40.607  27.924  29.305  1.00  0.00     0.049 A 
ATOM     36  N   UNL A   1      43.705  28.987  29.108  1.00  0.00    -0.248 NA
ATOM     37  C   UNL A   1      43.110  28.800  26.870  1.00  0.00     0.031 C 
ATOM     38  C   UNL A   1      39.375  27.151  29.471  1.00  0.00     0.029 A 
ATOM     39  N   UNL A   1      40.337  29.074  29.982  1.00  0.00    -0.354 N 
ATOM     40  C   UNL A   1      44.551  29.774  28.338  1.00  0.00     0.074 A 
ATOM     41  C   UNL A   1      44.262  29.464  26.963  1.00  0.00     0.031 C 
ATOM     42  C   UNL A   1      38.415  27.945  30.004  1.00  0.00     0.029 A 
ATOM     43  C   UNL A   1      39.004  29.227  30.347  1.00  0.00     0.049 A 
ATOM     44  H   UNL A   1      41.028  29.740  30.198  1.00  0.00     0.167 HD
ATOM     45  C   UNL A   1      45.199  30.825  28.904  1.00  0.00     0.037 A 
ATOM     46  C   UNL A   1      38.442  30.366  30.831  1.00  0.00     0.037 A 
ATOM     47  C   UNL A   1      45.289  30.659  30.334  1.00  0.00     0.049 A 
ATOM     48  C   UNL A   1      39.547  31.193  31.376  1.00  0.00     0.074 A 
ATOM     49  C   UNL A   1      45.885  29.738  31.174  1.00  0.00     0.029 A 
ATOM     50  N   UNL A   1      44.367  31.327  31.100  1.00  0.00    -0.354 N 
ATOM     51  N   UNL A   1      40.243  30.867  32.430  1.00  0.00    -0.248 NA
ATOM     52  C   UNL A   1      40.178  32.150  30.479  1.00  0.00     0.031 C 
ATOM     53  C   UNL A   1      44.989  29.600  32.276  1.00  0.00     0.029 A 
ATOM     54  C   UNL A   1      43.928  30.487  32.086  1.00  0.00     0.049 A 
ATOM     55  H   UNL A   1      44.071  32.256  30.962  1.00  0.00     0.167 HD
ATOM     56  C   UNL A   1      41.546  31.224  32.113  1.00  0.00     0.074 A 
ATOM     57  C   UNL A   1      41.430  32.084  30.937  1.00  0.00     0.031 C 
ATOM     58  C   UNL A   1      42.602  30.552  32.657  1.00  0.00     0.037 A 
BRANCH  45  59
ATOM     59  C   UNL A   1      45.312  32.177  28.237  1.00  0.00     0.064 A 
ATOM     60  C   UNL A   1      46.585  32.771  28.132  1.00  0.00     0.173 A 
ATOM     61  C   UNL A   1      44.220  33.041  27.995  1.00  0.00     0.173 A 
ATOM     62  F   UNL A   1      47.696  32.052  28.359  1.00  0.00    -0.203 F 
ATOM     63  C   UNL A   1      46.745  34.139  27.901  1.00  0.00     0.198 A 
ATOM     64  C   UNL A   1      44.386  34.395  27.713  1.00  0.00     0.198 A 
ATOM     65  F   UNL A   1      42.947  32.657  28.132  1.00  0.00    -0.203 F 
ATOM     66  F   UNL A   1      47.969  34.681  27.950  1.00  0.00    -0.200 F 
ATOM     67  C   UNL A   1      45.645  34.951  27.699  1.00  0.00     0.200 A 
ATOM     68  F   UNL A   1      43.302  35.167  27.543  1.00  0.00    -0.200 F 
ATOM     69  F   UNL A   1      45.791  36.273  27.544  1.00  0.00    -0.200 F 
ENDBRANCH  45  59
BRANCH  46  70
ATOM     70  C   UNL A   1      37.117  30.955  30.501  1.00  0.00     0.064 A 
ATOM     71  C   UNL A   1      36.223  31.327  31.523  1.00  0.00     0.173 A 
ATOM     72  C   UNL A   1      36.829  31.452  29.215  1.00  0.00     0.173 A 
ATOM     73  F   UNL A   1      36.442  30.934  32.786  1.00  0.00    -0.203 F 
ATOM     74  C   UNL A   1      35.138  32.178  31.281  1.00  0.00     0.198 A 
ATOM     75  C   UNL A   1      35.743  32.296  28.973  1.00  0.00     0.198 A 
ATOM     76  F   UNL A   1      37.652  31.213  28.185  1.00  0.00    -0.203 F 
ATOM     77  F   UNL A   1      34.354  32.569  32.296  1.00  0.00    -0.200 F 
ATOM     78  C   UNL A   1      34.908  32.674  30.009  1.00  0.00     0.200 A 
ATOM     79  F   UNL A   1      35.553  32.798  27.745  1.00  0.00    -0.200 F 
ATOM     80  F   UNL A   1      33.913  33.544  29.788  1.00  0.00    -0.200 F 
ENDBRANCH  46  70
BRANCH  58  81
ATOM     81  C   UNL A   1      42.331  29.634  33.816  1.00  0.00     0.064 A 
ATOM     82  C   UNL A   1      41.902  28.302  33.687  1.00  0.00     0.173 A 
ATOM     83  C   UNL A   1      42.695  30.077  35.094  1.00  0.00     0.173 A 
ATOM     84  F   UNL A   1      41.613  27.782  32.486  1.00  0.00    -0.203 F 
ATOM     85  C   UNL A   1      41.829  27.459  34.797  1.00  0.00     0.198 A 
ATOM     86  C   UNL A   1      42.657  29.224  36.193  1.00  0.00     0.198 A 
ATOM     87  F   UNL A   1      43.152  31.327  35.265  1.00  0.00    -0.203 F 
ATOM     88  F   UNL A   1      41.422  26.189  34.653  1.00  0.00    -0.200 F 
ATOM     89  C   UNL A   1      42.222  27.917  36.045  1.00  0.00     0.200 A 
ATOM     90  F   UNL A   1      43.081  29.659  37.387  1.00  0.00    -0.200 F 
ATOM     91  F   UNL A   1      42.207  27.091  37.101  1.00  0.00    -0.200 F 
ENDBRANCH  58  81
ENDBRANCH  32  33
ENDBRANCH  25  27
ENDBRANCH  24  25
ENDBRANCH  23  24
ENDBRANCH  22  23
ENDBRANCH  21  22
ENDBRANCH   1  21
TORSDOF 17
ENDMDL
