MODEL 1
REMARK VINA RESULT:     -12.0      0.000      0.000
REMARK SMILES C#Cc1cc(Cl)c2c(c1)C=C(C(=O)OCCOCCOC(=O)c1ccc(-c3c4nc(c(-c5c(F)c(F)c(F)c(F)c5F)c5ccc([nH]5)c(-c5c(F)c(F)c(F)c(F)c5F)c5nc(c(-c6c(F)c(F)c(F)c(F)c6F)c6ccc3[nH]6)C=C5)C=C4)cc1)[C@@H](C(F)(F)F)O2
REMARK SMILES IDX 18 1 17 2 16 3 15 4 14 5 12 6 13 7 11 8 3 9 4 10 9 11 5 12
REMARK SMILES IDX 8 13 6 14 7 15 10 16 91 17 86 18 2 19 1 20 87 21 88 22 89 23
REMARK SMILES IDX 90 24 19 25 20 26 21 27 22 28 23 29 24 30 85 31 25 32 84 33
REMARK SMILES IDX 26 34 27 35 28 36 78 37 29 38 83 39 77 40 79 41 30 42 82 43
REMARK SMILES IDX 76 44 75 45 31 47 63 48 43 49 62 50 44 51 47 52 61 53 80 54
REMARK SMILES IDX 45 55 46 56 60 58 81 59 48 60 32 61 33 62 41 63 34 64 35 65
REMARK SMILES IDX 39 66 42 67 36 68 37 69 40 70 38 71 64 72 65 73 73 74 66 75
REMARK SMILES IDX 67 76 71 77 74 78 68 79 69 80 72 81 70 82 49 83 50 84 58 85
REMARK SMILES IDX 51 86 52 87 56 88 59 89 53 90 54 91 57 92 55 93
REMARK H PARENT 79 46 47 57
REMARK Flexibility Score: inf
ROOT
ATOM      1  C   UNL A   1      41.569  20.951  26.063  1.00  0.00     0.202 C 
ENDROOT
BRANCH   1   2
ATOM      2  O   UNL A   1      40.424  21.254  26.855  1.00  0.00    -0.374 OA
BRANCH   2   3
ATOM      3  C   UNL A   1      39.517  22.257  26.413  1.00  0.00     0.202 C 
BRANCH   3   4
ATOM      4  C   UNL A   1      38.233  21.841  25.689  1.00  0.00     0.261 C 
BRANCH   4   5
ATOM      5  O   UNL A   1      37.416  22.962  25.331  1.00  0.00    -0.460 OA
BRANCH   5   6
ATOM      6  C   UNL A   1      36.660  22.758  24.226  1.00  0.00     0.338 C 
ATOM      7  O   UNL A   1      37.036  22.315  23.153  1.00  0.00    -0.246 OA
BRANCH   6   8
ATOM      8  C   UNL A   1      35.243  23.022  24.539  1.00  0.00     0.087 C 
ATOM      9  C   UNL A   1      32.060  26.123  26.352  1.00  0.00     0.027 A 
ATOM     10  C   UNL A   1      31.119  25.100  26.464  1.00  0.00     0.041 A 
ATOM     11  C   UNL A   1      33.298  25.867  25.763  1.00  0.00     0.029 A 
ATOM     12  C   UNL A   1      31.411  23.828  25.964  1.00  0.00     0.084 A 
ATOM     13  C   UNL A   1      33.606  24.581  25.303  1.00  0.00     0.020 A 
ATOM     14  Cl  UNL A   1      30.219  22.589  26.132  1.00  0.00    -0.080 Cl
ATOM     15  C   UNL A   1      32.657  23.559  25.379  1.00  0.00     0.146 A 
ATOM     16  C   UNL A   1      34.946  24.294  24.830  1.00  0.00     0.027 C 
ATOM     17  O   UNL A   1      32.888  22.299  24.896  1.00  0.00    -0.474 OA
ATOM     18  C   UNL A   1      34.243  21.902  24.552  1.00  0.00     0.316 C 
BRANCH   9  19
ATOM     19  C   UNL A   1      31.781  27.423  26.875  1.00  0.00    -0.070 C 
ATOM     20  C   UNL A   1      31.544  28.507  27.337  1.00  0.00     0.010 C 
ENDBRANCH   9  19
BRANCH  18  21
ATOM     21  C   UNL A   1      34.666  20.746  25.471  1.00  0.00     0.430 C 
ATOM     22  F   UNL A   1      35.162  21.207  26.644  1.00  0.00    -0.167 F 
ATOM     23  F   UNL A   1      33.621  19.944  25.782  1.00  0.00    -0.167 F 
ATOM     24  F   UNL A   1      35.617  19.972  24.901  1.00  0.00    -0.167 F 
ENDBRANCH  18  21
ENDBRANCH   6   8
ENDBRANCH   5   6
ENDBRANCH   4   5
ENDBRANCH   3   4
ENDBRANCH   2   3
ENDBRANCH   1   2
BRANCH   1  25
ATOM     25  C   UNL A   1      42.749  21.932  26.008  1.00  0.00     0.261 C 
BRANCH  25  26
ATOM     26  O   UNL A   1      42.556  23.034  25.107  1.00  0.00    -0.460 OA
BRANCH  26  27
ATOM     27  C   UNL A   1      43.395  24.079  25.322  1.00  0.00     0.338 C 
ATOM     28  O   UNL A   1      44.463  24.299  24.779  1.00  0.00    -0.246 OA
BRANCH  27  29
ATOM     29  C   UNL A   1      42.744  25.063  26.202  1.00  0.00     0.060 A 
ATOM     30  C   UNL A   1      43.379  26.297  26.398  1.00  0.00     0.016 A 
ATOM     31  C   UNL A   1      41.582  24.738  26.900  1.00  0.00     0.016 A 
ATOM     32  C   UNL A   1      42.868  27.202  27.323  1.00  0.00     0.010 A 
ATOM     33  C   UNL A   1      41.079  25.642  27.839  1.00  0.00     0.010 A 
ATOM     34  C   UNL A   1      41.738  26.862  28.078  1.00  0.00    -0.014 A 
BRANCH  34  35
ATOM     35  C   UNL A   1      41.336  27.722  29.217  1.00  0.00     0.031 A 
ATOM     36  C   UNL A   1      42.117  27.644  30.499  1.00  0.00     0.074 A 
ATOM     37  C   UNL A   1      40.314  28.587  29.094  1.00  0.00     0.049 A 
ATOM     38  N   UNL A   1      41.913  28.265  31.632  1.00  0.00    -0.248 NA
ATOM     39  C   UNL A   1      43.284  26.746  30.507  1.00  0.00     0.031 C 
ATOM     40  C   UNL A   1      39.520  28.787  27.883  1.00  0.00     0.029 A 
ATOM     41  N   UNL A   1      39.768  29.458  30.003  1.00  0.00    -0.354 N 
ATOM     42  C   UNL A   1      42.921  27.832  32.485  1.00  0.00     0.074 A 
ATOM     43  C   UNL A   1      43.712  26.866  31.756  1.00  0.00     0.031 C 
ATOM     44  C   UNL A   1      38.587  29.723  28.124  1.00  0.00     0.029 A 
ATOM     45  C   UNL A   1      38.690  30.156  29.517  1.00  0.00     0.049 A 
ATOM     46  H   UNL A   1      40.117  29.573  30.916  1.00  0.00     0.167 HD
ATOM     47  C   UNL A   1      43.170  28.224  33.757  1.00  0.00     0.037 A 
ATOM     48  C   UNL A   1      37.868  31.028  30.133  1.00  0.00     0.037 A 
ATOM     49  C   UNL A   1      42.384  29.194  34.472  1.00  0.00     0.049 A 
ATOM     50  C   UNL A   1      38.115  31.372  31.581  1.00  0.00     0.074 A 
ATOM     51  C   UNL A   1      42.565  29.663  35.761  1.00  0.00     0.029 A 
ATOM     52  N   UNL A   1      41.270  29.844  33.962  1.00  0.00    -0.354 N 
ATOM     53  N   UNL A   1      39.079  30.975  32.375  1.00  0.00    -0.248 NA
ATOM     54  C   UNL A   1      37.157  32.288  32.219  1.00  0.00     0.031 C 
ATOM     55  C   UNL A   1      41.525  30.546  36.054  1.00  0.00     0.029 A 
ATOM     56  C   UNL A   1      40.735  30.685  34.923  1.00  0.00     0.049 A 
ATOM     57  H   UNL A   1      40.913  29.725  33.052  1.00  0.00     0.167 HD
ATOM     58  C   UNL A   1      38.864  31.614  33.589  1.00  0.00     0.074 A 
ATOM     59  C   UNL A   1      37.689  32.441  33.423  1.00  0.00     0.031 C 
ATOM     60  C   UNL A   1      39.574  31.519  34.741  1.00  0.00     0.037 A 
BRANCH  47  61
ATOM     61  C   UNL A   1      44.337  27.609  34.472  1.00  0.00     0.064 A 
ATOM     62  C   UNL A   1      45.595  28.230  34.490  1.00  0.00     0.173 A 
ATOM     63  C   UNL A   1      44.168  26.445  35.237  1.00  0.00     0.173 A 
ATOM     64  F   UNL A   1      45.813  29.338  33.766  1.00  0.00    -0.203 F 
ATOM     65  C   UNL A   1      46.640  27.707  35.247  1.00  0.00     0.198 A 
ATOM     66  C   UNL A   1      45.206  25.943  36.017  1.00  0.00     0.198 A 
ATOM     67  F   UNL A   1      42.984  25.814  35.257  1.00  0.00    -0.203 F 
ATOM     68  F   UNL A   1      47.840  28.304  35.233  1.00  0.00    -0.200 F 
ATOM     69  C   UNL A   1      46.440  26.573  36.021  1.00  0.00     0.200 A 
ATOM     70  F   UNL A   1      45.005  24.858  36.780  1.00  0.00    -0.200 F 
ATOM     71  F   UNL A   1      47.438  26.090  36.775  1.00  0.00    -0.200 F 
ENDBRANCH  47  61
BRANCH  48  72
ATOM     72  C   UNL A   1      36.733  31.637  29.388  1.00  0.00     0.064 A 
ATOM     73  C   UNL A   1      36.743  32.994  29.041  1.00  0.00     0.173 A 
ATOM     74  C   UNL A   1      35.609  30.881  29.020  1.00  0.00     0.173 A 
ATOM     75  F   UNL A   1      37.782  33.767  29.390  1.00  0.00    -0.203 F 
ATOM     76  C   UNL A   1      35.668  33.577  28.372  1.00  0.00     0.198 A 
ATOM     77  C   UNL A   1      34.550  31.455  28.320  1.00  0.00     0.198 A 
ATOM     78  F   UNL A   1      35.544  29.577  29.330  1.00  0.00    -0.203 F 
ATOM     79  F   UNL A   1      35.683  34.888  28.100  1.00  0.00    -0.200 F 
ATOM     80  C   UNL A   1      34.577  32.805  28.004  1.00  0.00     0.200 A 
ATOM     81  F   UNL A   1      33.505  30.701  27.953  1.00  0.00    -0.200 F 
ATOM     82  F   UNL A   1      33.546  33.363  27.355  1.00  0.00    -0.200 F 
ENDBRANCH  48  72
BRANCH  60  83
ATOM     83  C   UNL A   1      39.131  32.348  35.913  1.00  0.00     0.064 A 
ATOM     84  C   UNL A   1      38.287  31.827  36.906  1.00  0.00     0.173 A 
ATOM     85  C   UNL A   1      39.626  33.650  36.092  1.00  0.00     0.173 A 
ATOM     86  F   UNL A   1      37.778  30.593  36.779  1.00  0.00    -0.203 F 
ATOM     87  C   UNL A   1      37.943  32.584  38.023  1.00  0.00     0.198 A 
ATOM     88  C   UNL A   1      39.311  34.389  37.228  1.00  0.00     0.198 A 
ATOM     89  F   UNL A   1      40.447  34.193  35.180  1.00  0.00    -0.203 F 
ATOM     90  F   UNL A   1      37.103  32.080  38.937  1.00  0.00    -0.200 F 
ATOM     91  C   UNL A   1      38.465  33.859  38.190  1.00  0.00     0.200 A 
ATOM     92  F   UNL A   1      39.837  35.610  37.399  1.00  0.00    -0.200 F 
ATOM     93  F   UNL A   1      38.152  34.575  39.278  1.00  0.00    -0.200 F 
ENDBRANCH  60  83
ENDBRANCH  34  35
ENDBRANCH  27  29
ENDBRANCH  26  27
ENDBRANCH  25  26
ENDBRANCH   1  25
TORSDOF 16
ENDMDL
MODEL 2
REMARK VINA RESULT:     -12.0      3.831      8.535
REMARK SMILES C#Cc1cc(Cl)c2c(c1)C=C(C(=O)OCCOCCOC(=O)c1ccc(-c3c4nc(c(-c5c(F)c(F)c(F)c(F)c5F)c5ccc([nH]5)c(-c5c(F)c(F)c(F)c(F)c5F)c5nc(c(-c6c(F)c(F)c(F)c(F)c6F)c6ccc3[nH]6)C=C5)C=C4)cc1)[C@@H](C(F)(F)F)O2
REMARK SMILES IDX 18 1 17 2 16 3 15 4 14 5 12 6 13 7 11 8 3 9 4 10 9 11 5 12
REMARK SMILES IDX 8 13 6 14 7 15 10 16 91 17 86 18 2 19 1 20 87 21 88 22 89 23
REMARK SMILES IDX 90 24 19 25 20 26 21 27 22 28 23 29 24 30 85 31 25 32 84 33
REMARK SMILES IDX 26 34 27 35 28 36 78 37 29 38 83 39 77 40 79 41 30 42 82 43
REMARK SMILES IDX 76 44 75 45 31 47 63 48 43 49 62 50 44 51 47 52 61 53 80 54
REMARK SMILES IDX 45 55 46 56 60 58 81 59 48 60 32 61 33 62 41 63 34 64 35 65
REMARK SMILES IDX 39 66 42 67 36 68 37 69 40 70 38 71 64 72 65 73 73 74 66 75
REMARK SMILES IDX 67 76 71 77 74 78 68 79 69 80 72 81 70 82 49 83 50 84 58 85
REMARK SMILES IDX 51 86 52 87 56 88 59 89 53 90 54 91 57 92 55 93
REMARK H PARENT 79 46 47 57
REMARK Flexibility Score: inf
ROOT
ATOM      1  C   UNL A   1      33.419  31.788  27.732  1.00  0.00     0.202 C 
ENDROOT
BRANCH   1   2
ATOM      2  O   UNL A   1      33.484  30.701  26.814  1.00  0.00    -0.374 OA
BRANCH   2   3
ATOM      3  C   UNL A   1      34.027  29.458  27.243  1.00  0.00     0.202 C 
BRANCH   3   4
ATOM      4  C   UNL A   1      34.333  28.374  26.205  1.00  0.00     0.261 C 
BRANCH   4   5
ATOM      5  O   UNL A   1      33.760  28.663  24.924  1.00  0.00    -0.460 OA
BRANCH   5   6
ATOM      6  C   UNL A   1      33.371  27.563  24.237  1.00  0.00     0.338 C 
ATOM      7  O   UNL A   1      34.030  26.557  24.032  1.00  0.00    -0.246 OA
BRANCH   6   8
ATOM      8  C   UNL A   1      31.949  27.685  23.867  1.00  0.00     0.087 C 
ATOM      9  C   UNL A   1      28.562  30.430  21.858  1.00  0.00     0.027 A 
ATOM     10  C   UNL A   1      27.570  29.644  22.443  1.00  0.00     0.041 A 
ATOM     11  C   UNL A   1      29.904  30.079  22.004  1.00  0.00     0.029 A 
ATOM     12  C   UNL A   1      27.923  28.495  23.155  1.00  0.00     0.084 A 
ATOM     13  C   UNL A   1      30.258  28.952  22.756  1.00  0.00     0.020 A 
ATOM     14  Cl  UNL A   1      26.661  27.556  23.871  1.00  0.00    -0.080 Cl
ATOM     15  C   UNL A   1      29.270  28.140  23.317  1.00  0.00     0.146 A 
ATOM     16  C   UNL A   1      31.657  28.683  23.024  1.00  0.00     0.027 C 
ATOM     17  O   UNL A   1      29.561  26.998  24.015  1.00  0.00    -0.474 OA
ATOM     18  C   UNL A   1      30.926  26.752  24.448  1.00  0.00     0.316 C 
BRANCH   9  19
ATOM     19  C   UNL A   1      28.217  31.618  21.142  1.00  0.00    -0.070 C 
ATOM     20  C   UNL A   1      27.914  32.603  20.524  1.00  0.00     0.010 C 
ENDBRANCH   9  19
BRANCH  18  21
ATOM     21  C   UNL A   1      30.959  26.727  25.984  1.00  0.00     0.430 C 
ATOM     22  F   UNL A   1      31.033  27.979  26.495  1.00  0.00    -0.167 F 
ATOM     23  F   UNL A   1      29.841  26.166  26.501  1.00  0.00    -0.167 F 
ATOM     24  F   UNL A   1      32.017  26.030  26.454  1.00  0.00    -0.167 F 
ENDBRANCH  18  21
ENDBRANCH   6   8
ENDBRANCH   5   6
ENDBRANCH   4   5
ENDBRANCH   3   4
ENDBRANCH   2   3
ENDBRANCH   1   2
BRANCH   1  25
ATOM     25  C   UNL A   1      32.896  33.156  27.270  1.00  0.00     0.261 C 
BRANCH  25  26
ATOM     26  O   UNL A   1      32.231  33.909  28.298  1.00  0.00    -0.460 OA
BRANCH  26  27
ATOM     27  C   UNL A   1      32.939  34.974  28.752  1.00  0.00     0.338 C 
ATOM     28  O   UNL A   1      32.633  36.151  28.691  1.00  0.00    -0.246 OA
BRANCH  27  29
ATOM     29  C   UNL A   1      34.099  34.503  29.527  1.00  0.00     0.060 A 
ATOM     30  C   UNL A   1      35.366  34.577  28.932  1.00  0.00     0.016 A 
ATOM     31  C   UNL A   1      33.928  33.906  30.775  1.00  0.00     0.016 A 
ATOM     32  C   UNL A   1      36.468  34.023  29.575  1.00  0.00     0.010 A 
ATOM     33  C   UNL A   1      35.034  33.337  31.411  1.00  0.00     0.010 A 
ATOM     34  C   UNL A   1      36.301  33.364  30.800  1.00  0.00    -0.014 A 
BRANCH  34  35
ATOM     35  C   UNL A   1      37.424  32.579  31.365  1.00  0.00     0.031 A 
ATOM     36  C   UNL A   1      37.932  32.919  32.738  1.00  0.00     0.074 A 
ATOM     37  C   UNL A   1      37.956  31.552  30.678  1.00  0.00     0.049 A 
ATOM     38  N   UNL A   1      38.930  32.399  33.405  1.00  0.00    -0.248 NA
ATOM     39  C   UNL A   1      37.221  33.989  33.459  1.00  0.00     0.031 C 
ATOM     40  C   UNL A   1      37.509  31.097  29.363  1.00  0.00     0.029 A 
ATOM     41  N   UNL A   1      38.990  30.707  30.994  1.00  0.00    -0.354 N 
ATOM     42  C   UNL A   1      38.968  33.077  34.616  1.00  0.00     0.074 A 
ATOM     43  C   UNL A   1      37.921  34.074  34.580  1.00  0.00     0.031 C 
ATOM     44  C   UNL A   1      38.266  30.054  28.982  1.00  0.00     0.029 A 
ATOM     45  C   UNL A   1      39.277  29.797  30.007  1.00  0.00     0.049 A 
ATOM     46  H   UNL A   1      39.479  30.749  31.847  1.00  0.00     0.167 HD
ATOM     47  C   UNL A   1      39.793  32.871  35.669  1.00  0.00     0.037 A 
ATOM     48  C   UNL A   1      40.257  28.875  29.932  1.00  0.00     0.037 A 
ATOM     49  C   UNL A   1      40.826  31.870  35.701  1.00  0.00     0.049 A 
ATOM     50  C   UNL A   1      41.222  28.733  31.082  1.00  0.00     0.074 A 
ATOM     51  C   UNL A   1      41.707  31.578  36.728  1.00  0.00     0.029 A 
ATOM     52  N   UNL A   1      41.118  30.997  34.663  1.00  0.00    -0.354 N 
ATOM     53  N   UNL A   1      41.241  29.364  32.231  1.00  0.00    -0.248 NA
ATOM     54  C   UNL A   1      42.304  27.749  30.926  1.00  0.00     0.031 C 
ATOM     55  C   UNL A   1      42.572  30.576  36.288  1.00  0.00     0.029 A 
ATOM     56  C   UNL A   1      42.187  30.190  35.014  1.00  0.00     0.049 A 
ATOM     57  H   UNL A   1      40.637  30.958  33.805  1.00  0.00     0.167 HD
ATOM     58  C   UNL A   1      42.309  28.834  32.943  1.00  0.00     0.074 A 
ATOM     59  C   UNL A   1      42.903  27.815  32.106  1.00  0.00     0.031 C 
ATOM     60  C   UNL A   1      42.760  29.166  34.178  1.00  0.00     0.037 A 
BRANCH  47  61
ATOM     61  C   UNL A   1      39.627  33.739  36.882  1.00  0.00     0.064 A 
ATOM     62  C   UNL A   1      40.200  35.017  36.952  1.00  0.00     0.173 A 
ATOM     63  C   UNL A   1      38.797  33.332  37.938  1.00  0.00     0.173 A 
ATOM     64  F   UNL A   1      41.012  35.449  35.975  1.00  0.00    -0.203 F 
ATOM     65  C   UNL A   1      39.949  35.855  38.036  1.00  0.00     0.198 A 
ATOM     66  C   UNL A   1      38.523  34.184  39.004  1.00  0.00     0.198 A 
ATOM     67  F   UNL A   1      38.221  32.121  37.918  1.00  0.00    -0.203 F 
ATOM     68  F   UNL A   1      40.525  37.064  38.093  1.00  0.00    -0.200 F 
ATOM     69  C   UNL A   1      39.099  35.444  39.052  1.00  0.00     0.200 A 
ATOM     70  F   UNL A   1      37.685  33.793  39.975  1.00  0.00    -0.200 F 
ATOM     71  F   UNL A   1      38.832  36.265  40.077  1.00  0.00    -0.200 F 
ENDBRANCH  47  61
BRANCH  48  72
ATOM     72  C   UNL A   1      40.381  28.015  28.724  1.00  0.00     0.064 A 
ATOM     73  C   UNL A   1      39.752  26.764  28.662  1.00  0.00     0.173 A 
ATOM     74  C   UNL A   1      41.139  28.416  27.613  1.00  0.00     0.173 A 
ATOM     75  F   UNL A   1      39.036  26.322  29.706  1.00  0.00    -0.203 F 
ATOM     76  C   UNL A   1      39.892  25.940  27.546  1.00  0.00     0.198 A 
ATOM     77  C   UNL A   1      41.249  27.608  26.483  1.00  0.00     0.198 A 
ATOM     78  F   UNL A   1      41.765  29.602  27.619  1.00  0.00    -0.203 F 
ATOM     79  F   UNL A   1      39.323  24.727  27.538  1.00  0.00    -0.200 F 
ATOM     80  C   UNL A   1      40.632  26.366  26.454  1.00  0.00     0.200 A 
ATOM     81  F   UNL A   1      41.952  28.032  25.425  1.00  0.00    -0.200 F 
ATOM     82  F   UNL A   1      40.760  25.578  25.379  1.00  0.00    -0.200 F 
ENDBRANCH  48  72
BRANCH  60  83
ATOM     83  C   UNL A   1      43.935  28.407  34.727  1.00  0.00     0.064 A 
ATOM     84  C   UNL A   1      43.773  27.192  35.410  1.00  0.00     0.173 A 
ATOM     85  C   UNL A   1      45.245  28.854  34.491  1.00  0.00     0.173 A 
ATOM     86  F   UNL A   1      42.543  26.723  35.670  1.00  0.00    -0.203 F 
ATOM     87  C   UNL A   1      44.875  26.464  35.849  1.00  0.00     0.198 A 
ATOM     88  C   UNL A   1      46.345  28.106  34.898  1.00  0.00     0.198 A 
ATOM     89  F   UNL A   1      45.459  30.004  33.832  1.00  0.00    -0.203 F 
ATOM     90  F   UNL A   1      44.694  25.327  36.535  1.00  0.00    -0.200 F 
ATOM     91  C   UNL A   1      46.160  26.914  35.583  1.00  0.00     0.200 A 
ATOM     92  F   UNL A   1      47.585  28.531  34.618  1.00  0.00    -0.200 F 
ATOM     93  F   UNL A   1      47.219  26.200  35.986  1.00  0.00    -0.200 F 
ENDBRANCH  60  83
ENDBRANCH  34  35
ENDBRANCH  27  29
ENDBRANCH  26  27
ENDBRANCH  25  26
ENDBRANCH   1  25
TORSDOF 16
ENDMDL
MODEL 3
REMARK VINA RESULT:     -12.0      3.240      8.500
REMARK SMILES C#Cc1cc(Cl)c2c(c1)C=C(C(=O)OCCOCCOC(=O)c1ccc(-c3c4nc(c(-c5c(F)c(F)c(F)c(F)c5F)c5ccc([nH]5)c(-c5c(F)c(F)c(F)c(F)c5F)c5nc(c(-c6c(F)c(F)c(F)c(F)c6F)c6ccc3[nH]6)C=C5)C=C4)cc1)[C@@H](C(F)(F)F)O2
REMARK SMILES IDX 18 1 17 2 16 3 15 4 14 5 12 6 13 7 11 8 3 9 4 10 9 11 5 12
REMARK SMILES IDX 8 13 6 14 7 15 10 16 91 17 86 18 2 19 1 20 87 21 88 22 89 23
REMARK SMILES IDX 90 24 19 25 20 26 21 27 22 28 23 29 24 30 85 31 25 32 84 33
REMARK SMILES IDX 26 34 27 35 28 36 78 37 29 38 83 39 77 40 79 41 30 42 82 43
REMARK SMILES IDX 76 44 75 45 31 47 63 48 43 49 62 50 44 51 47 52 61 53 80 54
REMARK SMILES IDX 45 55 46 56 60 58 81 59 48 60 32 61 33 62 41 63 34 64 35 65
REMARK SMILES IDX 39 66 42 67 36 68 37 69 40 70 38 71 64 72 65 73 73 74 66 75
REMARK SMILES IDX 67 76 71 77 74 78 68 79 69 80 72 81 70 82 49 83 50 84 58 85
REMARK SMILES IDX 51 86 52 87 56 88 59 89 53 90 54 91 57 92 55 93
REMARK H PARENT 79 46 47 57
REMARK Flexibility Score: inf
ROOT
ATOM      1  C   UNL A   1      31.290  31.735  26.506  1.00  0.00     0.202 C 
ENDROOT
BRANCH   1   2
ATOM      2  O   UNL A   1      32.138  30.641  26.167  1.00  0.00    -0.374 OA
BRANCH   2   3
ATOM      3  C   UNL A   1      32.389  29.629  27.134  1.00  0.00     0.202 C 
BRANCH   3   4
ATOM      4  C   UNL A   1      31.787  28.235  26.934  1.00  0.00     0.261 C 
BRANCH   4   5
ATOM      5  O   UNL A   1      31.381  28.001  25.581  1.00  0.00    -0.460 OA
BRANCH   5   6
ATOM      6  C   UNL A   1      32.377  27.552  24.780  1.00  0.00     0.338 C 
ATOM      7  O   UNL A   1      33.094  28.224  24.057  1.00  0.00    -0.246 OA
BRANCH   6   8
ATOM      8  C   UNL A   1      32.580  26.109  25.002  1.00  0.00     0.087 C 
ATOM      9  C   UNL A   1      35.760  22.540  25.437  1.00  0.00     0.027 A 
ATOM     10  C   UNL A   1      34.747  21.605  25.232  1.00  0.00     0.041 A 
ATOM     11  C   UNL A   1      35.449  23.897  25.513  1.00  0.00     0.029 A 
ATOM     12  C   UNL A   1      33.420  22.029  25.126  1.00  0.00     0.084 A 
ATOM     13  C   UNL A   1      34.124  24.324  25.362  1.00  0.00     0.020 A 
ATOM     14  Cl  UNL A   1      32.198  20.836  24.864  1.00  0.00    -0.080 Cl
ATOM     15  C   UNL A   1      33.098  23.392  25.191  1.00  0.00     0.146 A 
ATOM     16  C   UNL A   1      33.834  25.743  25.294  1.00  0.00     0.027 C 
ATOM     17  O   UNL A   1      31.781  23.753  25.092  1.00  0.00    -0.474 OA
ATOM     18  C   UNL A   1      31.436  25.147  24.866  1.00  0.00     0.316 C 
BRANCH   9  19
ATOM     19  C   UNL A   1      37.124  22.122  25.528  1.00  0.00    -0.070 C 
ATOM     20  C   UNL A   1      38.278  21.794  25.604  1.00  0.00     0.010 C 
ENDBRANCH   9  19
BRANCH  18  21
ATOM     21  C   UNL A   1      30.727  25.264  23.508  1.00  0.00     0.430 C 
ATOM     22  F   UNL A   1      29.735  26.186  23.549  1.00  0.00    -0.167 F 
ATOM     23  F   UNL A   1      31.577  25.656  22.530  1.00  0.00    -0.167 F 
ATOM     24  F   UNL A   1      30.179  24.090  23.124  1.00  0.00    -0.167 F 
ENDBRANCH  18  21
ENDBRANCH   6   8
ENDBRANCH   5   6
ENDBRANCH   4   5
ENDBRANCH   3   4
ENDBRANCH   2   3
ENDBRANCH   1   2
BRANCH   1  25
ATOM     25  C   UNL A   1      31.891  33.125  26.765  1.00  0.00     0.261 C 
BRANCH  25  26
ATOM     26  O   UNL A   1      32.558  33.250  28.032  1.00  0.00    -0.460 OA
BRANCH  26  27
ATOM     27  C   UNL A   1      33.666  34.032  28.000  1.00  0.00     0.338 C 
ATOM     28  O   UNL A   1      33.721  35.240  27.851  1.00  0.00    -0.246 OA
BRANCH  27  29
ATOM     29  C   UNL A   1      34.846  33.232  28.367  1.00  0.00     0.060 A 
ATOM     30  C   UNL A   1      34.640  31.932  28.849  1.00  0.00     0.016 A 
ATOM     31  C   UNL A   1      36.124  33.788  28.334  1.00  0.00     0.016 A 
ATOM     32  C   UNL A   1      35.714  31.191  29.331  1.00  0.00     0.010 A 
ATOM     33  C   UNL A   1      37.199  33.048  28.833  1.00  0.00     0.010 A 
ATOM     34  C   UNL A   1      36.994  31.761  29.363  1.00  0.00    -0.014 A 
BRANCH  34  35
ATOM     35  C   UNL A   1      38.085  31.064  30.085  1.00  0.00     0.031 A 
ATOM     36  C   UNL A   1      38.318  31.383  31.536  1.00  0.00     0.074 A 
ATOM     37  C   UNL A   1      38.830  30.133  29.466  1.00  0.00     0.049 A 
ATOM     38  N   UNL A   1      39.241  30.932  32.346  1.00  0.00    -0.248 NA
ATOM     39  C   UNL A   1      37.386  32.338  32.160  1.00  0.00     0.031 C 
ATOM     40  C   UNL A   1      38.660  29.703  28.079  1.00  0.00     0.029 A 
ATOM     41  N   UNL A   1      39.882  29.380  29.925  1.00  0.00    -0.354 N 
ATOM     42  C   UNL A   1      39.004  31.548  33.567  1.00  0.00     0.074 A 
ATOM     43  C   UNL A   1      37.877  32.436  33.387  1.00  0.00     0.031 C 
ATOM     44  C   UNL A   1      39.577  28.762  27.798  1.00  0.00     0.029 A 
ATOM     45  C   UNL A   1      40.425  28.555  28.971  1.00  0.00     0.049 A 
ATOM     46  H   UNL A   1      40.215  29.427  30.850  1.00  0.00     0.167 HD
ATOM     47  C   UNL A   1      39.660  31.372  34.738  1.00  0.00     0.037 A 
ATOM     48  C   UNL A   1      41.497  27.741  29.034  1.00  0.00     0.037 A 
ATOM     49  C   UNL A   1      40.774  30.479  34.913  1.00  0.00     0.049 A 
ATOM     50  C   UNL A   1      42.267  27.638  30.327  1.00  0.00     0.074 A 
ATOM     51  C   UNL A   1      41.498  30.224  36.065  1.00  0.00     0.029 A 
ATOM     52  N   UNL A   1      41.327  29.694  33.911  1.00  0.00    -0.354 N 
ATOM     53  N   UNL A   1      42.026  28.207  31.483  1.00  0.00    -0.248 NA
ATOM     54  C   UNL A   1      43.459  26.776  30.325  1.00  0.00     0.031 C 
ATOM     55  C   UNL A   1      42.527  29.337  35.746  1.00  0.00     0.029 A 
ATOM     56  C   UNL A   1      42.403  28.981  34.412  1.00  0.00     0.049 A 
ATOM     57  H   UNL A   1      41.002  29.651  32.982  1.00  0.00     0.167 HD
ATOM     58  C   UNL A   1      43.012  27.751  32.348  1.00  0.00     0.074 A 
ATOM     59  C   UNL A   1      43.843  26.840  31.591  1.00  0.00     0.031 C 
ATOM     60  C   UNL A   1      43.213  28.063  33.653  1.00  0.00     0.037 A 
BRANCH  47  61
ATOM     61  C   UNL A   1      39.202  32.156  35.933  1.00  0.00     0.064 A 
ATOM     62  C   UNL A   1      38.259  31.637  36.832  1.00  0.00     0.173 A 
ATOM     63  C   UNL A   1      39.793  33.391  36.241  1.00  0.00     0.173 A 
ATOM     64  F   UNL A   1      37.655  30.466  36.578  1.00  0.00    -0.203 F 
ATOM     65  C   UNL A   1      37.924  32.327  37.995  1.00  0.00     0.198 A 
ATOM     66  C   UNL A   1      39.479  34.062  37.419  1.00  0.00     0.198 A 
ATOM     67  F   UNL A   1      40.705  33.929  35.417  1.00  0.00    -0.203 F 
ATOM     68  F   UNL A   1      37.003  31.823  38.829  1.00  0.00    -0.200 F 
ATOM     69  C   UNL A   1      38.545  33.530  38.294  1.00  0.00     0.200 A 
ATOM     70  F   UNL A   1      40.096  35.215  37.717  1.00  0.00    -0.200 F 
ATOM     71  F   UNL A   1      38.246  34.176  39.430  1.00  0.00    -0.200 F 
ENDBRANCH  47  61
BRANCH  48  72
ATOM     72  C   UNL A   1      41.911  26.960  27.837  1.00  0.00     0.064 A 
ATOM     73  C   UNL A   1      41.394  25.680  27.596  1.00  0.00     0.173 A 
ATOM     74  C   UNL A   1      42.842  27.468  26.916  1.00  0.00     0.173 A 
ATOM     75  F   UNL A   1      40.521  25.138  28.457  1.00  0.00    -0.203 F 
ATOM     76  C   UNL A   1      41.804  24.931  26.494  1.00  0.00     0.198 A 
ATOM     77  C   UNL A   1      43.223  26.734  25.796  1.00  0.00     0.198 A 
ATOM     78  F   UNL A   1      43.372  28.687  27.099  1.00  0.00    -0.203 F 
ATOM     79  F   UNL A   1      41.332  23.690  26.319  1.00  0.00    -0.200 F 
ATOM     80  C   UNL A   1      42.711  25.462  25.590  1.00  0.00     0.200 A 
ATOM     81  F   UNL A   1      44.088  27.258  24.917  1.00  0.00    -0.200 F 
ATOM     82  F   UNL A   1      43.099  24.746  24.527  1.00  0.00    -0.200 F 
ENDBRANCH  48  72
BRANCH  60  83
ATOM     83  C   UNL A   1      44.355  27.398  34.369  1.00  0.00     0.064 A 
ATOM     84  C   UNL A   1      44.213  26.139  34.971  1.00  0.00     0.173 A 
ATOM     85  C   UNL A   1      45.630  27.987  34.376  1.00  0.00     0.173 A 
ATOM     86  F   UNL A   1      43.015  25.536  35.000  1.00  0.00    -0.203 F 
ATOM     87  C   UNL A   1      45.299  25.503  35.568  1.00  0.00     0.198 A 
ATOM     88  C   UNL A   1      46.721  27.332  34.940  1.00  0.00     0.198 A 
ATOM     89  F   UNL A   1      45.826  29.184  33.804  1.00  0.00    -0.203 F 
ATOM     90  F   UNL A   1      45.129  24.319  36.172  1.00  0.00    -0.200 F 
ATOM     91  C   UNL A   1      46.554  26.094  35.541  1.00  0.00     0.200 A 
ATOM     92  F   UNL A   1      47.937  27.893  34.891  1.00  0.00    -0.200 F 
ATOM     93  F   UNL A   1      47.601  25.469  36.095  1.00  0.00    -0.200 F 
ENDBRANCH  60  83
ENDBRANCH  34  35
ENDBRANCH  27  29
ENDBRANCH  26  27
ENDBRANCH  25  26
ENDBRANCH   1  25
TORSDOF 16
ENDMDL
