MODEL 1
REMARK VINA RESULT:     -11.4      0.000      0.000
REMARK SMILES CC(C)[C@@H](NS(=O)(=O)c1ccc(Cl)c([N+](=O)[O-])c1)C(=O)OCCOCCOC(=O)c1ccc(-c2c3nc(c(-c4c(F)c(F)c(F)c(F)c4F)c4ccc([nH]4)c(-c4c(F)c(F)c(F)c(F)c4F)c4nc(c(-c5c(F)c(F)c(F)c(F)c5F)c5ccc2[nH]5)C=C4)C=C3)cc1
REMARK SMILES IDX 23 1 22 2 21 3 19 4 20 5 4 6 2 7 1 8 3 9 5 10 6 12 7 13 8 14
REMARK SMILES IDX 9 15 10 16 18 17 11 18 14 19 12 20 13 21 15 22 16 23 17 24
REMARK SMILES IDX 24 25 25 26 26 27 27 28 28 29 29 30 30 31 31 32 92 33 32 34
REMARK SMILES IDX 91 35 33 36 34 37 35 38 85 39 36 40 90 41 84 42 86 43 37 44
REMARK SMILES IDX 89 45 83 46 82 47 38 49 70 50 50 51 69 52 51 53 54 54 68 55
REMARK SMILES IDX 87 56 52 57 53 58 67 60 88 61 55 62 39 63 40 64 48 65 41 66
REMARK SMILES IDX 42 67 46 68 49 69 43 70 44 71 47 72 45 73 71 74 72 75 80 76
REMARK SMILES IDX 73 77 74 78 78 79 81 80 75 81 76 82 79 83 77 84 56 85 57 86
REMARK SMILES IDX 65 87 58 88 59 89 63 90 66 91 60 92 61 93 64 94 62 95
REMARK H PARENT 5 11 86 48 54 59
REMARK Flexibility Score: inf
ROOT
ATOM      1  C   UNL A   1      32.475  29.165  24.478  1.00  0.00     0.202 C 
ENDROOT
BRANCH   1   2
ATOM      2  C   UNL A   1      32.274  27.646  24.429  1.00  0.00     0.261 C 
BRANCH   2   3
ATOM      3  O   UNL A   1      32.908  26.810  25.399  1.00  0.00    -0.462 OA
BRANCH   3   4
ATOM      4  C   UNL A   1      32.107  26.359  26.406  1.00  0.00     0.324 C 
ATOM      5  O   UNL A   1      31.619  27.054  27.285  1.00  0.00    -0.250 OA
BRANCH   4   6
ATOM      6  C   UNL A   1      31.996  24.846  26.416  1.00  0.00     0.182 C 
BRANCH   6   7
ATOM      7  C   UNL A   1      30.623  24.336  25.905  1.00  0.00     0.012 C 
ATOM      8  C   UNL A   1      30.619  24.226  24.375  1.00  0.00     0.009 C 
ATOM      9  C   UNL A   1      30.262  22.951  26.473  1.00  0.00     0.009 C 
ENDBRANCH   6   7
BRANCH   6  10
ATOM     10  N   UNL A   1      33.137  24.324  25.590  1.00  0.00    -0.197 NA
ATOM     11  H   UNL A   1      33.823  25.075  25.517  1.00  0.00     0.142 HD
BRANCH  10  12
ATOM     12  S   UNL A   1      33.960  22.940  26.134  1.00  0.00     0.241 S 
ATOM     13  O   UNL A   1      35.375  23.121  25.916  1.00  0.00    -0.207 OA
ATOM     14  O   UNL A   1      33.428  22.707  27.460  1.00  0.00    -0.207 OA
BRANCH  12  15
ATOM     15  C   UNL A   1      33.404  21.570  25.123  1.00  0.00     0.089 A 
ATOM     16  C   UNL A   1      32.903  21.803  23.840  1.00  0.00     0.024 A 
ATOM     17  C   UNL A   1      33.634  20.250  25.525  1.00  0.00     0.109 A 
ATOM     18  C   UNL A   1      32.453  20.748  23.035  1.00  0.00     0.029 A 
ATOM     19  C   UNL A   1      33.267  19.194  24.664  1.00  0.00     0.289 A 
ATOM     20  C   UNL A   1      32.631  19.428  23.442  1.00  0.00     0.118 A 
ATOM     21  Cl  UNL A   1      32.101  18.193  22.361  1.00  0.00    -0.077 Cl
BRANCH  19  22
ATOM     22  N   UNL A   1      33.667  17.850  25.037  1.00  0.00     0.064 N 
ATOM     23  O   UNL A   1      32.877  17.216  25.748  1.00  0.00    -0.258 OA
ATOM     24  O   UNL A   1      34.736  17.420  24.588  1.00  0.00    -0.258 OA
ENDBRANCH  19  22
ENDBRANCH  12  15
ENDBRANCH  10  12
ENDBRANCH   6  10
ENDBRANCH   4   6
ENDBRANCH   3   4
ENDBRANCH   2   3
ENDBRANCH   1   2
BRANCH   1  25
ATOM     25  O   UNL A   1      32.422  29.840  25.722  1.00  0.00    -0.374 OA
BRANCH  25  26
ATOM     26  C   UNL A   1      31.412  30.836  25.906  1.00  0.00     0.202 C 
BRANCH  26  27
ATOM     27  C   UNL A   1      31.784  31.993  26.827  1.00  0.00     0.261 C 
BRANCH  27  28
ATOM     28  O   UNL A   1      32.921  31.623  27.632  1.00  0.00    -0.460 OA
BRANCH  28  29
ATOM     29  C   UNL A   1      33.723  32.664  27.948  1.00  0.00     0.338 C 
ATOM     30  O   UNL A   1      33.381  33.778  28.310  1.00  0.00    -0.246 OA
BRANCH  29  31
ATOM     31  C   UNL A   1      35.130  32.228  27.997  1.00  0.00     0.060 A 
ATOM     32  C   UNL A   1      35.362  30.849  27.929  1.00  0.00     0.016 A 
ATOM     33  C   UNL A   1      36.177  33.119  28.248  1.00  0.00     0.016 A 
ATOM     34  C   UNL A   1      36.616  30.343  28.241  1.00  0.00     0.010 A 
ATOM     35  C   UNL A   1      37.440  32.607  28.567  1.00  0.00     0.010 A 
ATOM     36  C   UNL A   1      37.636  31.217  28.642  1.00  0.00    -0.014 A 
BRANCH  36  37
ATOM     37  C   UNL A   1      38.773  30.639  29.400  1.00  0.00     0.031 A 
ATOM     38  C   UNL A   1      38.929  31.022  30.849  1.00  0.00     0.074 A 
ATOM     39  C   UNL A   1      39.569  29.703  28.855  1.00  0.00     0.049 A 
ATOM     40  N   UNL A   1      39.764  30.565  31.747  1.00  0.00    -0.248 NA
ATOM     41  C   UNL A   1      38.009  32.054  31.358  1.00  0.00     0.031 C 
ATOM     42  C   UNL A   1      39.490  29.221  27.480  1.00  0.00     0.029 A 
ATOM     43  N   UNL A   1      40.591  28.977  29.412  1.00  0.00    -0.354 N 
ATOM     44  C   UNL A   1      39.467  31.249  32.920  1.00  0.00     0.074 A 
ATOM     45  C   UNL A   1      38.402  32.178  32.616  1.00  0.00     0.031 C 
ATOM     46  C   UNL A   1      40.425  28.272  27.297  1.00  0.00     0.029 A 
ATOM     47  C   UNL A   1      41.171  28.089  28.542  1.00  0.00     0.049 A 
ATOM     48  H   UNL A   1      40.882  29.083  30.347  1.00  0.00     0.167 HD
ATOM     49  C   UNL A   1      40.019  31.104  34.147  1.00  0.00     0.037 A 
ATOM     50  C   UNL A   1      42.188  27.226  28.734  1.00  0.00     0.037 A 
ATOM     51  C   UNL A   1      41.072  30.176  34.456  1.00  0.00     0.049 A 
ATOM     52  C   UNL A   1      42.808  27.108  30.102  1.00  0.00     0.074 A 
ATOM     53  C   UNL A   1      41.700  29.952  35.668  1.00  0.00     0.029 A 
ATOM     54  N   UNL A   1      41.649  29.311  33.539  1.00  0.00    -0.354 N 
ATOM     55  N   UNL A   1      42.503  27.740  31.210  1.00  0.00    -0.248 NA
ATOM     56  C   UNL A   1      43.906  26.142  30.250  1.00  0.00     0.031 C 
ATOM     57  C   UNL A   1      42.685  28.978  35.476  1.00  0.00     0.029 A 
ATOM     58  C   UNL A   1      42.638  28.563  34.155  1.00  0.00     0.049 A 
ATOM     59  H   UNL A   1      41.395  29.241  32.591  1.00  0.00     0.167 HD
ATOM     60  C   UNL A   1      43.345  27.227  32.189  1.00  0.00     0.074 A 
ATOM     61  C   UNL A   1      44.166  26.222  31.547  1.00  0.00     0.031 C 
ATOM     62  C   UNL A   1      43.432  27.557  33.501  1.00  0.00     0.037 A 
BRANCH  49  63
ATOM     63  C   UNL A   1      39.507  31.989  35.244  1.00  0.00     0.064 A 
ATOM     64  C   UNL A   1      38.573  31.528  36.184  1.00  0.00     0.173 A 
ATOM     65  C   UNL A   1      39.975  33.304  35.371  1.00  0.00     0.173 A 
ATOM     66  F   UNL A   1      38.080  30.283  36.092  1.00  0.00    -0.203 F 
ATOM     67  C   UNL A   1      38.113  32.360  37.203  1.00  0.00     0.198 A 
ATOM     68  C   UNL A   1      39.531  34.125  36.404  1.00  0.00     0.198 A 
ATOM     69  F   UNL A   1      40.866  33.793  34.495  1.00  0.00    -0.203 F 
ATOM     70  F   UNL A   1      37.191  31.913  38.066  1.00  0.00    -0.200 F 
ATOM     71  C   UNL A   1      38.597  33.654  37.315  1.00  0.00     0.200 A 
ATOM     72  F   UNL A   1      40.004  35.374  36.516  1.00  0.00    -0.200 F 
ATOM     73  F   UNL A   1      38.159  34.452  38.299  1.00  0.00    -0.200 F 
ENDBRANCH  49  63
BRANCH  50  74
ATOM     74  C   UNL A   1      42.681  26.396  27.605  1.00  0.00     0.064 A 
ATOM     75  C   UNL A   1      43.696  26.853  26.753  1.00  0.00     0.173 A 
ATOM     76  C   UNL A   1      42.122  25.137  27.340  1.00  0.00     0.173 A 
ATOM     77  F   UNL A   1      44.244  28.060  26.953  1.00  0.00    -0.203 F 
ATOM     78  C   UNL A   1      44.117  26.092  25.665  1.00  0.00     0.198 A 
ATOM     79  C   UNL A   1      42.562  24.367  26.266  1.00  0.00     0.198 A 
ATOM     80  F   UNL A   1      41.147  24.656  28.125  1.00  0.00    -0.203 F 
ATOM     81  F   UNL A   1      45.052  26.575  24.836  1.00  0.00    -0.200 F 
ATOM     82  C   UNL A   1      43.552  24.849  25.424  1.00  0.00     0.200 A 
ATOM     83  F   UNL A   1      42.020  23.161  26.044  1.00  0.00    -0.200 F 
ATOM     84  F   UNL A   1      43.955  24.119  24.374  1.00  0.00    -0.200 F 
ENDBRANCH  50  74
BRANCH  62  85
ATOM     85  C   UNL A   1      44.420  26.796  34.336  1.00  0.00     0.064 A 
ATOM     86  C   UNL A   1      44.073  25.599  34.979  1.00  0.00     0.173 A 
ATOM     87  C   UNL A   1      45.740  27.255  34.465  1.00  0.00     0.173 A 
ATOM     88  F   UNL A   1      42.820  25.126  34.893  1.00  0.00    -0.203 F 
ATOM     89  C   UNL A   1      45.003  24.906  35.748  1.00  0.00     0.198 A 
ATOM     90  C   UNL A   1      46.674  26.544  35.213  1.00  0.00     0.198 A 
ATOM     91  F   UNL A   1      46.123  28.389  33.861  1.00  0.00    -0.203 F 
ATOM     92  F   UNL A   1      44.636  23.791  36.394  1.00  0.00    -0.200 F 
ATOM     93  C   UNL A   1      46.303  25.376  35.861  1.00  0.00     0.200 A 
ATOM     94  F   UNL A   1      47.933  26.993  35.310  1.00  0.00    -0.200 F 
ATOM     95  F   UNL A   1      47.197  24.706  36.600  1.00  0.00    -0.200 F 
ENDBRANCH  62  85
ENDBRANCH  36  37
ENDBRANCH  29  31
ENDBRANCH  28  29
ENDBRANCH  27  28
ENDBRANCH  26  27
ENDBRANCH  25  26
ENDBRANCH   1  25
TORSDOF 19
ENDMDL
MODEL 2
REMARK VINA RESULT:     -11.4      4.457      7.700
REMARK SMILES CC(C)[C@@H](NS(=O)(=O)c1ccc(Cl)c([N+](=O)[O-])c1)C(=O)OCCOCCOC(=O)c1ccc(-c2c3nc(c(-c4c(F)c(F)c(F)c(F)c4F)c4ccc([nH]4)c(-c4c(F)c(F)c(F)c(F)c4F)c4nc(c(-c5c(F)c(F)c(F)c(F)c5F)c5ccc2[nH]5)C=C4)C=C3)cc1
REMARK SMILES IDX 23 1 22 2 21 3 19 4 20 5 4 6 2 7 1 8 3 9 5 10 6 12 7 13 8 14
REMARK SMILES IDX 9 15 10 16 18 17 11 18 14 19 12 20 13 21 15 22 16 23 17 24
REMARK SMILES IDX 24 25 25 26 26 27 27 28 28 29 29 30 30 31 31 32 92 33 32 34
REMARK SMILES IDX 91 35 33 36 34 37 35 38 85 39 36 40 90 41 84 42 86 43 37 44
REMARK SMILES IDX 89 45 83 46 82 47 38 49 70 50 50 51 69 52 51 53 54 54 68 55
REMARK SMILES IDX 87 56 52 57 53 58 67 60 88 61 55 62 39 63 40 64 48 65 41 66
REMARK SMILES IDX 42 67 46 68 49 69 43 70 44 71 47 72 45 73 71 74 72 75 80 76
REMARK SMILES IDX 73 77 74 78 78 79 81 80 75 81 76 82 79 83 77 84 56 85 57 86
REMARK SMILES IDX 65 87 58 88 59 89 63 90 66 91 60 92 61 93 64 94 62 95
REMARK H PARENT 5 11 86 48 54 59
REMARK Flexibility Score: inf
ROOT
ATOM      1  C   UNL A   1      34.157  22.228  26.796  1.00  0.00     0.202 C 
ENDROOT
BRANCH   1   2
ATOM      2  C   UNL A   1      33.751  23.357  25.842  1.00  0.00     0.261 C 
BRANCH   2   3
ATOM      3  O   UNL A   1      33.697  24.705  26.313  1.00  0.00    -0.462 OA
BRANCH   3   4
ATOM      4  C   UNL A   1      32.457  25.269  26.357  1.00  0.00     0.324 C 
ATOM      5  O   UNL A   1      31.457  24.740  26.820  1.00  0.00    -0.250 OA
BRANCH   4   6
ATOM      6  C   UNL A   1      32.404  26.596  25.623  1.00  0.00     0.182 C 
BRANCH   6   7
ATOM      7  C   UNL A   1      32.802  27.799  26.517  1.00  0.00     0.012 C 
ATOM      8  C   UNL A   1      33.060  29.048  25.662  1.00  0.00     0.009 C 
ATOM      9  C   UNL A   1      31.712  28.155  27.545  1.00  0.00     0.009 C 
ENDBRANCH   6   7
BRANCH   6  10
ATOM     10  N   UNL A   1      33.298  26.461  24.423  1.00  0.00    -0.197 NA
ATOM     11  H   UNL A   1      33.928  25.679  24.603  1.00  0.00     0.142 HD
BRANCH  10  12
ATOM     12  S   UNL A   1      32.578  26.189  22.907  1.00  0.00     0.241 S 
ATOM     13  O   UNL A   1      33.304  26.930  21.905  1.00  0.00    -0.207 OA
ATOM     14  O   UNL A   1      32.446  24.750  22.828  1.00  0.00    -0.207 OA
BRANCH  12  15
ATOM     15  C   UNL A   1      30.913  26.842  22.996  1.00  0.00     0.089 A 
ATOM     16  C   UNL A   1      29.929  26.160  23.717  1.00  0.00     0.024 A 
ATOM     17  C   UNL A   1      30.624  28.121  22.509  1.00  0.00     0.109 A 
ATOM     18  C   UNL A   1      28.618  26.648  23.791  1.00  0.00     0.029 A 
ATOM     19  C   UNL A   1      29.324  28.644  22.675  1.00  0.00     0.289 A 
ATOM     20  C   UNL A   1      28.301  27.899  23.268  1.00  0.00     0.118 A 
ATOM     21  Cl  UNL A   1      26.676  28.444  23.458  1.00  0.00    -0.077 Cl
BRANCH  19  22
ATOM     22  N   UNL A   1      29.103  30.030  22.307  1.00  0.00     0.064 N 
ATOM     23  O   UNL A   1      28.735  30.241  21.144  1.00  0.00    -0.258 OA
ATOM     24  O   UNL A   1      29.252  30.892  23.182  1.00  0.00    -0.258 OA
ENDBRANCH  19  22
ENDBRANCH  12  15
ENDBRANCH  10  12
ENDBRANCH   6  10
ENDBRANCH   4   6
ENDBRANCH   3   4
ENDBRANCH   2   3
ENDBRANCH   1   2
BRANCH   1  25
ATOM     25  O   UNL A   1      35.187  21.331  26.423  1.00  0.00    -0.374 OA
BRANCH  25  26
ATOM     26  C   UNL A   1      35.956  21.633  25.256  1.00  0.00     0.202 C 
BRANCH  26  27
ATOM     27  C   UNL A   1      37.200  20.778  25.043  1.00  0.00     0.261 C 
BRANCH  27  28
ATOM     28  O   UNL A   1      38.370  21.620  25.044  1.00  0.00    -0.460 OA
BRANCH  28  29
ATOM     29  C   UNL A   1      39.271  21.294  25.997  1.00  0.00     0.338 C 
ATOM     30  O   UNL A   1      39.842  20.226  26.141  1.00  0.00    -0.246 OA
BRANCH  29  31
ATOM     31  C   UNL A   1      39.653  22.490  26.769  1.00  0.00     0.060 A 
ATOM     32  C   UNL A   1      38.960  23.671  26.480  1.00  0.00     0.016 A 
ATOM     33  C   UNL A   1      40.747  22.497  27.638  1.00  0.00     0.016 A 
ATOM     34  C   UNL A   1      39.435  24.886  26.954  1.00  0.00     0.010 A 
ATOM     35  C   UNL A   1      41.229  23.723  28.111  1.00  0.00     0.010 A 
ATOM     36  C   UNL A   1      40.619  24.922  27.703  1.00  0.00    -0.014 A 
BRANCH  36  37
ATOM     37  C   UNL A   1      41.336  26.219  27.786  1.00  0.00     0.031 A 
ATOM     38  C   UNL A   1      40.664  27.356  28.512  1.00  0.00     0.074 A 
ATOM     39  C   UNL A   1      42.598  26.346  27.344  1.00  0.00     0.049 A 
ATOM     40  N   UNL A   1      41.130  28.540  28.819  1.00  0.00    -0.248 NA
ATOM     41  C   UNL A   1      39.281  27.123  28.963  1.00  0.00     0.031 C 
ATOM     42  C   UNL A   1      43.366  25.306  26.665  1.00  0.00     0.029 A 
ATOM     43  N   UNL A   1      43.462  27.409  27.424  1.00  0.00    -0.354 N 
ATOM     44  C   UNL A   1      40.103  29.185  29.498  1.00  0.00     0.074 A 
ATOM     45  C   UNL A   1      38.976  28.280  29.529  1.00  0.00     0.031 C 
ATOM     46  C   UNL A   1      44.593  25.782  26.391  1.00  0.00     0.029 A 
ATOM     47  C   UNL A   1      44.691  27.161  26.868  1.00  0.00     0.049 A 
ATOM     48  H   UNL A   1      43.221  28.270  27.839  1.00  0.00     0.167 HD
ATOM     49  C   UNL A   1      40.103  30.415  30.063  1.00  0.00     0.037 A 
ATOM     50  C   UNL A   1      45.771  27.959  26.763  1.00  0.00     0.037 A 
ATOM     51  C   UNL A   1      41.224  31.314  30.043  1.00  0.00     0.049 A 
ATOM     52  C   UNL A   1      45.733  29.338  27.371  1.00  0.00     0.074 A 
ATOM     53  C   UNL A   1      41.325  32.582  30.586  1.00  0.00     0.029 A 
ATOM     54  N   UNL A   1      42.444  31.033  29.447  1.00  0.00    -0.354 N 
ATOM     55  N   UNL A   1      44.767  29.927  28.033  1.00  0.00    -0.248 NA
ATOM     56  C   UNL A   1      46.947  30.155  27.231  1.00  0.00     0.031 C 
ATOM     57  C   UNL A   1      42.596  33.085  30.286  1.00  0.00     0.029 A 
ATOM     58  C   UNL A   1      43.300  32.111  29.596  1.00  0.00     0.049 A 
ATOM     59  H   UNL A   1      42.668  30.193  28.987  1.00  0.00     0.167 HD
ATOM     60  C   UNL A   1      45.265  31.167  28.415  1.00  0.00     0.074 A 
ATOM     61  C   UNL A   1      46.625  31.240  27.921  1.00  0.00     0.031 C 
ATOM     62  C   UNL A   1      44.654  32.157  29.111  1.00  0.00     0.037 A 
BRANCH  49  63
ATOM     63  C   UNL A   1      38.840  30.867  30.733  1.00  0.00     0.064 A 
ATOM     64  C   UNL A   1      38.657  30.740  32.117  1.00  0.00     0.173 A 
ATOM     65  C   UNL A   1      37.813  31.458  29.984  1.00  0.00     0.173 A 
ATOM     66  F   UNL A   1      39.603  30.162  32.874  1.00  0.00    -0.203 F 
ATOM     67  C   UNL A   1      37.481  31.174  32.726  1.00  0.00     0.198 A 
ATOM     68  C   UNL A   1      36.649  31.912  30.599  1.00  0.00     0.198 A 
ATOM     69  F   UNL A   1      37.939  31.600  28.656  1.00  0.00    -0.203 F 
ATOM     70  F   UNL A   1      37.309  31.007  34.045  1.00  0.00    -0.200 F 
ATOM     71  C   UNL A   1      36.482  31.764  31.967  1.00  0.00     0.200 A 
ATOM     72  F   UNL A   1      35.687  32.489  29.865  1.00  0.00    -0.200 F 
ATOM     73  F   UNL A   1      35.353  32.187  32.555  1.00  0.00    -0.200 F 
ENDBRANCH  49  63
BRANCH  50  74
ATOM     74  C   UNL A   1      46.986  27.475  26.059  1.00  0.00     0.064 A 
ATOM     75  C   UNL A   1      48.034  26.858  26.756  1.00  0.00     0.173 A 
ATOM     76  C   UNL A   1      47.134  27.648  24.675  1.00  0.00     0.173 A 
ATOM     77  F   UNL A   1      47.949  26.691  28.084  1.00  0.00    -0.203 F 
ATOM     78  C   UNL A   1      49.194  26.454  26.099  1.00  0.00     0.198 A 
ATOM     79  C   UNL A   1      48.283  27.220  24.016  1.00  0.00     0.198 A 
ATOM     80  F   UNL A   1      46.159  28.234  23.964  1.00  0.00    -0.203 F 
ATOM     81  F   UNL A   1      50.202  25.913  26.796  1.00  0.00    -0.200 F 
ATOM     82  C   UNL A   1      49.317  26.632  24.729  1.00  0.00     0.200 A 
ATOM     83  F   UNL A   1      48.392  27.386  22.690  1.00  0.00    -0.200 F 
ATOM     84  F   UNL A   1      50.434  26.247  24.098  1.00  0.00    -0.200 F 
ENDBRANCH  50  74
BRANCH  62  85
ATOM     85  C   UNL A   1      45.463  33.383  29.415  1.00  0.00     0.064 A 
ATOM     86  C   UNL A   1      46.250  33.479  30.571  1.00  0.00     0.173 A 
ATOM     87  C   UNL A   1      45.476  34.463  28.518  1.00  0.00     0.173 A 
ATOM     88  F   UNL A   1      46.262  32.477  31.463  1.00  0.00    -0.203 F 
ATOM     89  C   UNL A   1      46.996  34.624  30.835  1.00  0.00     0.198 A 
ATOM     90  C   UNL A   1      46.244  35.595  28.772  1.00  0.00     0.198 A 
ATOM     91  F   UNL A   1      44.748  34.415  27.392  1.00  0.00    -0.203 F 
ATOM     92  F   UNL A   1      47.701  34.714  31.971  1.00  0.00    -0.200 F 
ATOM     93  C   UNL A   1      46.996  35.679  29.935  1.00  0.00     0.200 A 
ATOM     94  F   UNL A   1      46.254  36.607  27.894  1.00  0.00    -0.200 F 
ATOM     95  F   UNL A   1      47.716  36.779  30.190  1.00  0.00    -0.200 F 
ENDBRANCH  62  85
ENDBRANCH  36  37
ENDBRANCH  29  31
ENDBRANCH  28  29
ENDBRANCH  27  28
ENDBRANCH  26  27
ENDBRANCH  25  26
ENDBRANCH   1  25
TORSDOF 19
ENDMDL
MODEL 3
REMARK VINA RESULT:     -11.3      1.114      2.421
REMARK SMILES CC(C)[C@@H](NS(=O)(=O)c1ccc(Cl)c([N+](=O)[O-])c1)C(=O)OCCOCCOC(=O)c1ccc(-c2c3nc(c(-c4c(F)c(F)c(F)c(F)c4F)c4ccc([nH]4)c(-c4c(F)c(F)c(F)c(F)c4F)c4nc(c(-c5c(F)c(F)c(F)c(F)c5F)c5ccc2[nH]5)C=C4)C=C3)cc1
REMARK SMILES IDX 23 1 22 2 21 3 19 4 20 5 4 6 2 7 1 8 3 9 5 10 6 12 7 13 8 14
REMARK SMILES IDX 9 15 10 16 18 17 11 18 14 19 12 20 13 21 15 22 16 23 17 24
REMARK SMILES IDX 24 25 25 26 26 27 27 28 28 29 29 30 30 31 31 32 92 33 32 34
REMARK SMILES IDX 91 35 33 36 34 37 35 38 85 39 36 40 90 41 84 42 86 43 37 44
REMARK SMILES IDX 89 45 83 46 82 47 38 49 70 50 50 51 69 52 51 53 54 54 68 55
REMARK SMILES IDX 87 56 52 57 53 58 67 60 88 61 55 62 39 63 40 64 48 65 41 66
REMARK SMILES IDX 42 67 46 68 49 69 43 70 44 71 47 72 45 73 71 74 72 75 80 76
REMARK SMILES IDX 73 77 74 78 78 79 81 80 75 81 76 82 79 83 77 84 56 85 57 86
REMARK SMILES IDX 65 87 58 88 59 89 63 90 66 91 60 92 61 93 64 94 62 95
REMARK H PARENT 5 11 86 48 54 59
REMARK Flexibility Score: inf
ROOT
ATOM      1  C   UNL A   1      31.690  29.685  24.977  1.00  0.00     0.202 C 
ENDROOT
BRANCH   1   2
ATOM      2  C   UNL A   1      32.158  28.226  24.995  1.00  0.00     0.261 C 
BRANCH   2   3
ATOM      3  O   UNL A   1      31.198  27.167  24.980  1.00  0.00    -0.462 OA
BRANCH   3   4
ATOM      4  C   UNL A   1      30.934  26.624  23.758  1.00  0.00     0.324 C 
ATOM      5  O   UNL A   1      30.224  27.127  22.900  1.00  0.00    -0.250 OA
BRANCH   4   6
ATOM      6  C   UNL A   1      31.506  25.226  23.616  1.00  0.00     0.182 C 
BRANCH   6   7
ATOM      7  C   UNL A   1      32.443  25.075  22.390  1.00  0.00     0.012 C 
ATOM      8  C   UNL A   1      33.646  26.021  22.507  1.00  0.00     0.009 C 
ATOM      9  C   UNL A   1      32.988  23.643  22.238  1.00  0.00     0.009 C 
ENDBRANCH   6   7
BRANCH   6  10
ATOM     10  N   UNL A   1      32.207  24.914  24.908  1.00  0.00    -0.197 NA
ATOM     11  H   UNL A   1      32.133  25.742  25.498  1.00  0.00     0.142 HD
BRANCH  10  12
ATOM     12  S   UNL A   1      31.660  23.591  25.824  1.00  0.00     0.241 S 
ATOM     13  O   UNL A   1      31.801  23.902  27.226  1.00  0.00    -0.207 OA
ATOM     14  O   UNL A   1      30.370  23.270  25.252  1.00  0.00    -0.207 OA
BRANCH  12  15
ATOM     15  C   UNL A   1      32.736  22.211  25.442  1.00  0.00     0.089 A 
ATOM     16  C   UNL A   1      34.111  22.308  25.672  1.00  0.00     0.024 A 
ATOM     17  C   UNL A   1      32.200  20.968  25.089  1.00  0.00     0.109 A 
ATOM     18  C   UNL A   1      34.972  21.244  25.372  1.00  0.00     0.029 A 
ATOM     19  C   UNL A   1      33.069  19.876  24.884  1.00  0.00     0.289 A 
ATOM     20  C   UNL A   1      34.457  20.014  24.972  1.00  0.00     0.118 A 
ATOM     21  Cl  UNL A   1      35.588  18.744  24.681  1.00  0.00    -0.077 Cl
BRANCH  19  22
ATOM     22  N   UNL A   1      32.474  18.568  24.681  1.00  0.00     0.064 N 
ATOM     23  O   UNL A   1      32.321  17.868  25.689  1.00  0.00    -0.258 OA
ATOM     24  O   UNL A   1      32.124  18.264  23.533  1.00  0.00    -0.258 OA
ENDBRANCH  19  22
ENDBRANCH  12  15
ENDBRANCH  10  12
ENDBRANCH   6  10
ENDBRANCH   4   6
ENDBRANCH   3   4
ENDBRANCH   2   3
ENDBRANCH   1   2
BRANCH   1  25
ATOM     25  O   UNL A   1      31.687  30.436  26.178  1.00  0.00    -0.374 OA
BRANCH  25  26
ATOM     26  C   UNL A   1      31.072  31.727  26.166  1.00  0.00     0.202 C 
BRANCH  26  27
ATOM     27  C   UNL A   1      31.849  32.837  26.866  1.00  0.00     0.261 C 
BRANCH  27  28
ATOM     28  O   UNL A   1      32.900  32.259  27.667  1.00  0.00    -0.460 OA
BRANCH  28  29
ATOM     29  C   UNL A   1      33.776  33.168  28.148  1.00  0.00     0.338 C 
ATOM     30  O   UNL A   1      33.518  34.240  28.670  1.00  0.00    -0.246 OA
BRANCH  29  31
ATOM     31  C   UNL A   1      35.140  32.611  28.150  1.00  0.00     0.060 A 
ATOM     32  C   UNL A   1      35.248  31.215  28.184  1.00  0.00     0.016 A 
ATOM     33  C   UNL A   1      36.274  33.419  28.263  1.00  0.00     0.016 A 
ATOM     34  C   UNL A   1      36.472  30.623  28.463  1.00  0.00     0.010 A 
ATOM     35  C   UNL A   1      37.507  32.821  28.549  1.00  0.00     0.010 A 
ATOM     36  C   UNL A   1      37.587  31.428  28.728  1.00  0.00    -0.014 A 
BRANCH  36  37
ATOM     37  C   UNL A   1      38.718  30.810  29.463  1.00  0.00     0.031 A 
ATOM     38  C   UNL A   1      38.895  31.160  30.918  1.00  0.00     0.074 A 
ATOM     39  C   UNL A   1      39.487  29.867  28.893  1.00  0.00     0.049 A 
ATOM     40  N   UNL A   1      39.728  30.667  31.799  1.00  0.00    -0.248 NA
ATOM     41  C   UNL A   1      38.004  32.202  31.457  1.00  0.00     0.031 C 
ATOM     42  C   UNL A   1      39.385  29.415  27.509  1.00  0.00     0.029 A 
ATOM     43  N   UNL A   1      40.498  29.107  29.425  1.00  0.00    -0.354 N 
ATOM     44  C   UNL A   1      39.458  31.333  32.988  1.00  0.00     0.074 A 
ATOM     45  C   UNL A   1      38.411  32.291  32.713  1.00  0.00     0.031 C 
ATOM     46  C   UNL A   1      40.296  28.450  27.298  1.00  0.00     0.029 A 
ATOM     47  C   UNL A   1      41.050  28.224  28.532  1.00  0.00     0.049 A 
ATOM     48  H   UNL A   1      40.799  29.188  30.359  1.00  0.00     0.167 HD
ATOM     49  C   UNL A   1      40.018  31.151  34.207  1.00  0.00     0.037 A 
ATOM     50  C   UNL A   1      42.048  27.335  28.696  1.00  0.00     0.037 A 
ATOM     51  C   UNL A   1      41.052  30.193  34.487  1.00  0.00     0.049 A 
ATOM     52  C   UNL A   1      42.678  27.176  30.056  1.00  0.00     0.074 A 
ATOM     53  C   UNL A   1      41.686  29.931  35.688  1.00  0.00     0.029 A 
ATOM     54  N   UNL A   1      41.601  29.335  33.547  1.00  0.00    -0.354 N 
ATOM     55  N   UNL A   1      42.398  27.792  31.179  1.00  0.00    -0.248 NA
ATOM     56  C   UNL A   1      43.755  26.182  30.174  1.00  0.00     0.031 C 
ATOM     57  C   UNL A   1      42.647  28.939  35.467  1.00  0.00     0.029 A 
ATOM     58  C   UNL A   1      42.579  28.552  34.138  1.00  0.00     0.049 A 
ATOM     59  H   UNL A   1      41.336  29.289  32.601  1.00  0.00     0.167 HD
ATOM     60  C   UNL A   1      43.237  27.240  32.139  1.00  0.00     0.074 A 
ATOM     61  C   UNL A   1      44.029  26.230  31.469  1.00  0.00     0.031 C 
ATOM     62  C   UNL A   1      43.344  27.542  33.457  1.00  0.00     0.037 A 
BRANCH  49  63
ATOM     63  C   UNL A   1      39.536  32.025  35.326  1.00  0.00     0.064 A 
ATOM     64  C   UNL A   1      40.006  33.336  35.490  1.00  0.00     0.173 A 
ATOM     65  C   UNL A   1      38.573  31.553  36.229  1.00  0.00     0.173 A 
ATOM     66  F   UNL A   1      40.942  33.826  34.662  1.00  0.00    -0.203 F 
ATOM     67  C   UNL A   1      39.541  34.138  36.530  1.00  0.00     0.198 A 
ATOM     68  C   UNL A   1      38.093  32.365  37.253  1.00  0.00     0.198 A 
ATOM     69  F   UNL A   1      38.094  30.304  36.117  1.00  0.00    -0.203 F 
ATOM     70  F   UNL A   1      40.032  35.374  36.692  1.00  0.00    -0.200 F 
ATOM     71  C   UNL A   1      38.581  33.654  37.405  1.00  0.00     0.200 A 
ATOM     72  F   UNL A   1      37.160  31.898  38.096  1.00  0.00    -0.200 F 
ATOM     73  F   UNL A   1      38.130  34.428  38.402  1.00  0.00    -0.200 F 
ENDBRANCH  49  63
BRANCH  50  74
ATOM     74  C   UNL A   1      42.512  26.517  27.546  1.00  0.00     0.064 A 
ATOM     75  C   UNL A   1      41.941  25.269  27.263  1.00  0.00     0.173 A 
ATOM     76  C   UNL A   1      43.559  26.959  26.725  1.00  0.00     0.173 A 
ATOM     77  F   UNL A   1      40.952  24.794  28.035  1.00  0.00    -0.203 F 
ATOM     78  C   UNL A   1      42.416  24.484  26.215  1.00  0.00     0.198 A 
ATOM     79  C   UNL A   1      44.015  26.184  25.662  1.00  0.00     0.198 A 
ATOM     80  F   UNL A   1      44.139  28.147  26.956  1.00  0.00    -0.203 F 
ATOM     81  F   UNL A   1      41.887  23.272  25.997  1.00  0.00    -0.200 F 
ATOM     82  C   UNL A   1      43.450  24.943  25.414  1.00  0.00     0.200 A 
ATOM     83  F   UNL A   1      45.009  26.637  24.884  1.00  0.00    -0.200 F 
ATOM     84  F   UNL A   1      43.910  24.185  24.408  1.00  0.00    -0.200 F 
ENDBRANCH  50  74
BRANCH  62  85
ATOM     85  C   UNL A   1      44.321  26.742  34.267  1.00  0.00     0.064 A 
ATOM     86  C   UNL A   1      45.639  27.176  34.469  1.00  0.00     0.173 A 
ATOM     87  C   UNL A   1      43.923  25.542  34.876  1.00  0.00     0.173 A 
ATOM     88  F   UNL A   1      46.070  28.312  33.899  1.00  0.00    -0.203 F 
ATOM     89  C   UNL A   1      46.532  26.422  35.224  1.00  0.00     0.198 A 
ATOM     90  C   UNL A   1      44.810  24.804  35.653  1.00  0.00     0.198 A 
ATOM     91  F   UNL A   1      42.669  25.090  34.721  1.00  0.00    -0.203 F 
ATOM     92  F   UNL A   1      47.801  26.830  35.362  1.00  0.00    -0.200 F 
ATOM     93  C   UNL A   1      46.117  25.240  35.819  1.00  0.00     0.200 A 
ATOM     94  F   UNL A   1      44.403  23.669  36.237  1.00  0.00    -0.200 F 
ATOM     95  F   UNL A   1      46.977  24.516  36.547  1.00  0.00    -0.200 F 
ENDBRANCH  62  85
ENDBRANCH  36  37
ENDBRANCH  29  31
ENDBRANCH  28  29
ENDBRANCH  27  28
ENDBRANCH  26  27
ENDBRANCH  25  26
ENDBRANCH   1  25
TORSDOF 19
ENDMDL
