MODEL 1
REMARK VINA RESULT:     -10.0      0.000      0.000
REMARK SMILES NS(=O)(=O)c1ccc(-n2nc(C(=O)NCCCCCCCCCCC(=O)OCCOCCOC(=O)c3ccc(-c4c5nc(c(-c6c(F)c(F)c(F)c(F)c6F)c6ccc([nH]6)c(-c6c(F)c(F)c(F)c(F)c6F)c6nc(c(-c7c(F)c(F)c(F)c(F)c7F)c7ccc4[nH]7)C=C6)C=C5)cc3)cc2-c2ccccc2)cc1
REMARK SMILES IDX 23 1 22 2 21 3 20 4 19 5 18 6 17 7 16 8 15 9 14 10 12 11
REMARK SMILES IDX 13 12 11 14 9 15 10 16 100 17 99 18 8 19 5 20 6 21 108 22
REMARK SMILES IDX 7 23 107 24 2 25 3 26 4 27 1 28 101 31 102 32 106 33 103 34
REMARK SMILES IDX 105 35 104 36 24 37 25 38 26 39 27 40 28 41 29 42 30 43
REMARK SMILES IDX 31 44 32 45 33 46 34 47 35 48 36 49 37 50 98 51 38 52 97 53
REMARK SMILES IDX 39 54 40 55 41 56 91 57 42 58 96 59 90 60 92 61 43 62 95 63
REMARK SMILES IDX 89 64 88 65 44 67 76 68 56 69 75 70 57 71 60 72 74 73 93 74
REMARK SMILES IDX 58 75 59 76 73 78 94 79 61 80 45 81 46 82 54 83 47 84 48 85
REMARK SMILES IDX 52 86 55 87 49 88 50 89 53 90 51 91 77 92 78 93 86 94 79 95
REMARK SMILES IDX 80 96 84 97 87 98 81 99 82 100 85 101 83 102 62 103 63 104
REMARK SMILES IDX 71 105 64 106 65 107 69 108 72 109 66 110 67 111 70 112
REMARK SMILES IDX 68 113
REMARK H PARENT 14 13 1 29 1 30 92 66 60 77
REMARK Flexibility Score: inf
ROOT
ATOM      1  C   UNL A   1      36.111  32.067  28.039  1.00  0.00     0.012 C 
ENDROOT
BRANCH   1   2
ATOM      2  C   UNL A   1      35.913  30.565  27.831  1.00  0.00     0.001 C 
BRANCH   2   3
ATOM      3  C   UNL A   1      36.265  29.735  29.062  1.00  0.00     0.000 C 
BRANCH   3   4
ATOM      4  C   UNL A   1      37.772  29.711  29.319  1.00  0.00     0.000 C 
BRANCH   4   5
ATOM      5  C   UNL A   1      38.291  28.303  29.630  1.00  0.00     0.000 C 
BRANCH   5   6
ATOM      6  C   UNL A   1      39.033  27.676  28.444  1.00  0.00     0.000 C 
BRANCH   6   7
ATOM      7  C   UNL A   1      39.614  26.293  28.767  1.00  0.00     0.002 C 
BRANCH   7   8
ATOM      8  C   UNL A   1      39.988  25.497  27.511  1.00  0.00     0.021 C 
BRANCH   8   9
ATOM      9  C   UNL A   1      38.969  24.393  27.243  1.00  0.00     0.116 C 
BRANCH   9  10
ATOM     10  N   UNL A   1      39.659  23.205  26.802  1.00  0.00    -0.351 N 
ATOM     11  C   UNL A   1      39.213  22.055  26.198  1.00  0.00     0.271 C 
ATOM     12  O   UNL A   1      40.062  21.177  26.027  1.00  0.00    -0.267 OA
ATOM     13  H   UNL A   1      40.631  23.222  26.963  1.00  0.00     0.163 HD
BRANCH  11  14
ATOM     14  C   UNL A   1      37.821  21.929  25.723  1.00  0.00     0.151 A 
ATOM     15  N   UNL A   1      35.750  22.475  25.588  1.00  0.00    -0.232 N 
ATOM     16  N   UNL A   1      36.976  22.970  25.850  1.00  0.00    -0.162 NA
ATOM     17  C   UNL A   1      35.796  21.166  25.148  1.00  0.00     0.075 A 
ATOM     18  C   UNL A   1      37.137  20.856  25.103  1.00  0.00     0.065 A 
BRANCH  15  19
ATOM     19  C   UNL A   1      34.612  23.292  25.744  1.00  0.00     0.065 A 
ATOM     20  C   UNL A   1      32.262  24.746  25.900  1.00  0.00     0.082 A 
ATOM     21  C   UNL A   1      32.575  23.834  26.913  1.00  0.00     0.024 A 
ATOM     22  C   UNL A   1      33.134  24.962  24.828  1.00  0.00     0.024 A 
ATOM     23  C   UNL A   1      33.747  23.091  26.826  1.00  0.00     0.030 A 
ATOM     24  C   UNL A   1      34.335  24.257  24.766  1.00  0.00     0.030 A 
BRANCH  20  25
ATOM     25  S   UNL A   1      30.709  25.584  25.932  1.00  0.00     0.238 S 
ATOM     26  O   UNL A   1      29.755  24.777  26.657  1.00  0.00    -0.207 OA
ATOM     27  O   UNL A   1      30.450  26.122  24.620  1.00  0.00    -0.207 OA
BRANCH  25  28
ATOM     28  N   UNL A   1      31.006  26.905  26.932  1.00  0.00    -0.225 NA
ATOM     29  H   UNL A   1      31.167  26.580  27.886  1.00  0.00     0.137 HD
ATOM     30  H   UNL A   1      30.199  27.529  26.920  1.00  0.00     0.137 HD
ENDBRANCH  25  28
ENDBRANCH  20  25
ENDBRANCH  15  19
BRANCH  17  31
ATOM     31  C   UNL A   1      34.672  20.361  24.694  1.00  0.00     0.000 A 
ATOM     32  C   UNL A   1      34.767  18.966  24.658  1.00  0.00     0.010 A 
ATOM     33  C   UNL A   1      33.477  20.982  24.310  1.00  0.00     0.010 A 
ATOM     34  C   UNL A   1      33.683  18.201  24.229  1.00  0.00     0.001 A 
ATOM     35  C   UNL A   1      32.395  20.215  23.877  1.00  0.00     0.001 A 
ATOM     36  C   UNL A   1      32.499  18.826  23.836  1.00  0.00     0.000 A 
ENDBRANCH  17  31
ENDBRANCH  11  14
ENDBRANCH   9  10
ENDBRANCH   8   9
ENDBRANCH   7   8
ENDBRANCH   6   7
ENDBRANCH   5   6
ENDBRANCH   4   5
ENDBRANCH   3   4
ENDBRANCH   2   3
ENDBRANCH   1   2
BRANCH   1  37
ATOM     37  C   UNL A   1      34.838  32.925  28.020  1.00  0.00     0.123 C 
BRANCH  37  38
ATOM     38  C   UNL A   1      34.223  33.322  29.349  1.00  0.00     0.305 C 
ATOM     39  O   UNL A   1      33.324  34.148  29.438  1.00  0.00    -0.252 OA
BRANCH  38  40
ATOM     40  O   UNL A   1      34.793  32.684  30.396  1.00  0.00    -0.463 OA
BRANCH  40  41
ATOM     41  C   UNL A   1      34.574  33.229  31.707  1.00  0.00     0.261 C 
BRANCH  41  42
ATOM     42  C   UNL A   1      35.572  34.354  31.977  1.00  0.00     0.202 C 
BRANCH  42  43
ATOM     43  O   UNL A   1      36.875  34.202  31.408  1.00  0.00    -0.374 OA
BRANCH  43  44
ATOM     44  C   UNL A   1      38.011  34.619  32.159  1.00  0.00     0.202 C 
BRANCH  44  45
ATOM     45  C   UNL A   1      38.866  33.527  32.787  1.00  0.00     0.261 C 
BRANCH  45  46
ATOM     46  O   UNL A   1      38.239  32.255  32.685  1.00  0.00    -0.460 OA
BRANCH  46  47
ATOM     47  C   UNL A   1      37.845  31.722  33.860  1.00  0.00     0.338 C 
ATOM     48  O   UNL A   1      37.102  32.224  34.693  1.00  0.00    -0.246 OA
BRANCH  47  49
ATOM     49  C   UNL A   1      38.590  30.479  34.072  1.00  0.00     0.060 A 
ATOM     50  C   UNL A   1      39.722  30.584  34.879  1.00  0.00     0.016 A 
ATOM     51  C   UNL A   1      38.372  29.379  33.229  1.00  0.00     0.016 A 
ATOM     52  C   UNL A   1      40.773  29.742  34.610  1.00  0.00     0.010 A 
ATOM     53  C   UNL A   1      39.420  28.536  32.963  1.00  0.00     0.010 A 
ATOM     54  C   UNL A   1      40.635  28.812  33.574  1.00  0.00    -0.014 A 
BRANCH  54  55
ATOM     55  C   UNL A   1      41.809  28.076  33.176  1.00  0.00     0.031 A 
ATOM     56  C   UNL A   1      42.294  27.186  34.246  1.00  0.00     0.074 A 
ATOM     57  C   UNL A   1      42.340  28.182  31.946  1.00  0.00     0.049 A 
ATOM     58  N   UNL A   1      43.374  27.319  34.938  1.00  0.00    -0.248 NA
ATOM     59  C   UNL A   1      41.371  26.156  34.749  1.00  0.00     0.031 C 
ATOM     60  C   UNL A   1      41.799  28.851  30.761  1.00  0.00     0.029 A 
ATOM     61  N   UNL A   1      43.481  27.611  31.480  1.00  0.00    -0.354 N 
ATOM     62  C   UNL A   1      43.362  26.270  35.846  1.00  0.00     0.074 A 
ATOM     63  C   UNL A   1      42.033  25.718  35.819  1.00  0.00     0.031 C 
ATOM     64  C   UNL A   1      42.492  28.450  29.668  1.00  0.00     0.029 A 
ATOM     65  C   UNL A   1      43.593  27.605  30.095  1.00  0.00     0.049 A 
ATOM     66  H   UNL A   1      44.170  27.234  32.073  1.00  0.00     0.167 HD
ATOM     67  C   UNL A   1      44.524  25.782  36.351  1.00  0.00     0.037 A 
ATOM     68  C   UNL A   1      44.478  26.846  29.398  1.00  0.00     0.037 A 
ATOM     69  C   UNL A   1      45.600  26.727  36.187  1.00  0.00     0.049 A 
ATOM     70  C   UNL A   1      45.575  26.480  30.339  1.00  0.00     0.074 A 
ATOM     71  C   UNL A   1      45.830  28.010  36.648  1.00  0.00     0.029 A 
ATOM     72  N   UNL A   1      46.458  26.552  35.128  1.00  0.00    -0.354 N 
ATOM     73  N   UNL A   1      46.420  27.349  30.826  1.00  0.00    -0.248 NA
ATOM     74  C   UNL A   1      45.412  25.263  31.125  1.00  0.00     0.031 C 
ATOM     75  C   UNL A   1      46.447  28.692  35.558  1.00  0.00     0.029 A 
ATOM     76  C   UNL A   1      46.625  27.773  34.523  1.00  0.00     0.049 A 
ATOM     77  H   UNL A   1      46.875  25.704  34.853  1.00  0.00     0.167 HD
ATOM     78  C   UNL A   1      46.559  26.998  32.162  1.00  0.00     0.074 A 
ATOM     79  C   UNL A   1      45.959  25.670  32.274  1.00  0.00     0.031 C 
ATOM     80  C   UNL A   1      46.867  27.933  33.110  1.00  0.00     0.037 A 
BRANCH  67  81
ATOM     81  C   UNL A   1      44.761  24.320  36.624  1.00  0.00     0.064 A 
ATOM     82  C   UNL A   1      45.268  23.939  37.880  1.00  0.00     0.173 A 
ATOM     83  C   UNL A   1      44.801  23.323  35.622  1.00  0.00     0.173 A 
ATOM     84  F   UNL A   1      45.290  24.810  38.900  1.00  0.00    -0.203 F 
ATOM     85  C   UNL A   1      45.852  22.688  38.089  1.00  0.00     0.198 A 
ATOM     86  C   UNL A   1      45.333  22.058  35.850  1.00  0.00     0.198 A 
ATOM     87  F   UNL A   1      44.440  23.559  34.356  1.00  0.00    -0.203 F 
ATOM     88  F   UNL A   1      46.442  22.419  39.260  1.00  0.00    -0.200 F 
ATOM     89  C   UNL A   1      45.891  21.751  37.071  1.00  0.00     0.200 A 
ATOM     90  F   UNL A   1      45.377  21.173  34.843  1.00  0.00    -0.200 F 
ATOM     91  F   UNL A   1      46.511  20.578  37.248  1.00  0.00    -0.200 F 
ENDBRANCH  67  81
BRANCH  68  92
ATOM     92  C   UNL A   1      44.228  26.100  28.138  1.00  0.00     0.064 A 
ATOM     93  C   UNL A   1      44.954  26.390  26.970  1.00  0.00     0.173 A 
ATOM     94  C   UNL A   1      43.480  24.905  28.122  1.00  0.00     0.173 A 
ATOM     95  F   UNL A   1      45.729  27.483  26.913  1.00  0.00    -0.203 F 
ATOM     96  C   UNL A   1      44.957  25.524  25.870  1.00  0.00     0.198 A 
ATOM     97  C   UNL A   1      43.478  24.046  27.021  1.00  0.00     0.198 A 
ATOM     98  F   UNL A   1      42.811  24.492  29.207  1.00  0.00    -0.203 F 
ATOM     99  F   UNL A   1      45.716  25.803  24.800  1.00  0.00    -0.200 F 
ATOM    100  C   UNL A   1      44.228  24.347  25.902  1.00  0.00     0.200 A 
ATOM    101  F   UNL A   1      42.794  22.894  27.083  1.00  0.00    -0.200 F 
ATOM    102  F   UNL A   1      44.280  23.485  24.877  1.00  0.00    -0.200 F 
ENDBRANCH  68  92
BRANCH  80 103
ATOM    103  C   UNL A   1      47.277  29.300  32.638  1.00  0.00     0.064 A 
ATOM    104  C   UNL A   1      46.373  30.344  32.366  1.00  0.00     0.173 A 
ATOM    105  C   UNL A   1      48.643  29.609  32.596  1.00  0.00     0.173 A 
ATOM    106  F   UNL A   1      45.052  30.162  32.494  1.00  0.00    -0.203 F 
ATOM    107  C   UNL A   1      46.820  31.617  32.015  1.00  0.00     0.198 A 
ATOM    108  C   UNL A   1      49.087  30.890  32.285  1.00  0.00     0.198 A 
ATOM    109  F   UNL A   1      49.551  28.671  32.907  1.00  0.00    -0.203 F 
ATOM    110  F   UNL A   1      45.936  32.589  31.743  1.00  0.00    -0.200 F 
ATOM    111  C   UNL A   1      48.176  31.890  31.980  1.00  0.00     0.200 A 
ATOM    112  F   UNL A   1      50.398  31.163  32.306  1.00  0.00    -0.200 F 
ATOM    113  F   UNL A   1      48.608  33.123  31.681  1.00  0.00    -0.200 F 
ENDBRANCH  80 103
ENDBRANCH  54  55
ENDBRANCH  47  49
ENDBRANCH  46  47
ENDBRANCH  45  46
ENDBRANCH  44  45
ENDBRANCH  43  44
ENDBRANCH  42  43
ENDBRANCH  41  42
ENDBRANCH  40  41
ENDBRANCH  38  40
ENDBRANCH  37  38
ENDBRANCH   1  37
TORSDOF 29
ENDMDL
MODEL 2
REMARK VINA RESULT:      -9.3      1.315      2.260
REMARK SMILES NS(=O)(=O)c1ccc(-n2nc(C(=O)NCCCCCCCCCCC(=O)OCCOCCOC(=O)c3ccc(-c4c5nc(c(-c6c(F)c(F)c(F)c(F)c6F)c6ccc([nH]6)c(-c6c(F)c(F)c(F)c(F)c6F)c6nc(c(-c7c(F)c(F)c(F)c(F)c7F)c7ccc4[nH]7)C=C6)C=C5)cc3)cc2-c2ccccc2)cc1
REMARK SMILES IDX 23 1 22 2 21 3 20 4 19 5 18 6 17 7 16 8 15 9 14 10 12 11
REMARK SMILES IDX 13 12 11 14 9 15 10 16 100 17 99 18 8 19 5 20 6 21 108 22
REMARK SMILES IDX 7 23 107 24 2 25 3 26 4 27 1 28 101 31 102 32 106 33 103 34
REMARK SMILES IDX 105 35 104 36 24 37 25 38 26 39 27 40 28 41 29 42 30 43
REMARK SMILES IDX 31 44 32 45 33 46 34 47 35 48 36 49 37 50 98 51 38 52 97 53
REMARK SMILES IDX 39 54 40 55 41 56 91 57 42 58 96 59 90 60 92 61 43 62 95 63
REMARK SMILES IDX 89 64 88 65 44 67 76 68 56 69 75 70 57 71 60 72 74 73 93 74
REMARK SMILES IDX 58 75 59 76 73 78 94 79 61 80 45 81 46 82 54 83 47 84 48 85
REMARK SMILES IDX 52 86 55 87 49 88 50 89 53 90 51 91 77 92 78 93 86 94 79 95
REMARK SMILES IDX 80 96 84 97 87 98 81 99 82 100 85 101 83 102 62 103 63 104
REMARK SMILES IDX 71 105 64 106 65 107 69 108 72 109 66 110 67 111 70 112
REMARK SMILES IDX 68 113
REMARK H PARENT 14 13 1 29 1 30 92 66 60 77
REMARK Flexibility Score: inf
ROOT
ATOM      1  C   UNL A   1      35.741  31.931  27.839  1.00  0.00     0.012 C 
ENDROOT
BRANCH   1   2
ATOM      2  C   UNL A   1      36.070  30.439  27.913  1.00  0.00     0.001 C 
BRANCH   2   3
ATOM      3  C   UNL A   1      36.742  30.034  29.222  1.00  0.00     0.000 C 
BRANCH   3   4
ATOM      4  C   UNL A   1      38.265  29.996  29.091  1.00  0.00     0.000 C 
BRANCH   4   5
ATOM      5  C   UNL A   1      38.850  28.628  29.458  1.00  0.00     0.000 C 
BRANCH   5   6
ATOM      6  C   UNL A   1      39.166  27.775  28.224  1.00  0.00     0.000 C 
BRANCH   6   7
ATOM      7  C   UNL A   1      39.497  26.318  28.574  1.00  0.00     0.002 C 
BRANCH   7   8
ATOM      8  C   UNL A   1      39.785  25.460  27.337  1.00  0.00     0.021 C 
BRANCH   8   9
ATOM      9  C   UNL A   1      38.969  24.171  27.366  1.00  0.00     0.116 C 
BRANCH   9  10
ATOM     10  N   UNL A   1      39.779  23.083  26.878  1.00  0.00    -0.351 N 
ATOM     11  C   UNL A   1      39.466  21.958  26.156  1.00  0.00     0.271 C 
ATOM     12  O   UNL A   1      40.394  21.165  25.972  1.00  0.00    -0.267 OA
ATOM     13  H   UNL A   1      40.735  23.161  27.106  1.00  0.00     0.163 HD
BRANCH  11  14
ATOM     14  C   UNL A   1      38.121  21.765  25.580  1.00  0.00     0.151 A 
ATOM     15  N   UNL A   1      36.214  22.400  24.828  1.00  0.00    -0.232 N 
ATOM     16  N   UNL A   1      37.487  22.806  25.007  1.00  0.00    -0.162 NA
ATOM     17  C   UNL A   1      36.042  21.064  25.137  1.00  0.00     0.075 A 
ATOM     18  C   UNL A   1      37.296  20.619  25.490  1.00  0.00     0.065 A 
BRANCH  15  19
ATOM     19  C   UNL A   1      35.247  23.304  24.343  1.00  0.00     0.065 A 
ATOM     20  C   UNL A   1      33.531  25.219  23.320  1.00  0.00     0.082 A 
ATOM     21  C   UNL A   1      33.828  24.085  22.557  1.00  0.00     0.024 A 
ATOM     22  C   UNL A   1      34.056  25.383  24.606  1.00  0.00     0.024 A 
ATOM     23  C   UNL A   1      34.704  23.131  23.064  1.00  0.00     0.030 A 
ATOM     24  C   UNL A   1      34.893  24.402  25.137  1.00  0.00     0.030 A 
BRANCH  20  25
ATOM     25  S   UNL A   1      32.536  26.500  22.624  1.00  0.00     0.238 S 
ATOM     26  O   UNL A   1      32.392  27.561  23.594  1.00  0.00    -0.207 OA
ATOM     27  O   UNL A   1      31.417  25.895  21.946  1.00  0.00    -0.207 OA
BRANCH  25  28
ATOM     28  N   UNL A   1      33.523  27.144  21.423  1.00  0.00    -0.225 NA
ATOM     29  H   UNL A   1      34.114  26.407  21.036  1.00  0.00     0.137 HD
ATOM     30  H   UNL A   1      34.112  27.875  21.822  1.00  0.00     0.137 HD
ENDBRANCH  25  28
ENDBRANCH  20  25
ENDBRANCH  15  19
BRANCH  17  31
ATOM     31  C   UNL A   1      34.824  20.283  24.973  1.00  0.00     0.000 A 
ATOM     32  C   UNL A   1      34.875  18.993  24.437  1.00  0.00     0.010 A 
ATOM     33  C   UNL A   1      33.592  20.817  25.373  1.00  0.00     0.010 A 
ATOM     34  C   UNL A   1      33.705  18.248  24.290  1.00  0.00     0.001 A 
ATOM     35  C   UNL A   1      32.423  20.072  25.220  1.00  0.00     0.001 A 
ATOM     36  C   UNL A   1      32.480  18.789  24.679  1.00  0.00     0.000 A 
ENDBRANCH  17  31
ENDBRANCH  11  14
ENDBRANCH   9  10
ENDBRANCH   8   9
ENDBRANCH   7   8
ENDBRANCH   6   7
ENDBRANCH   5   6
ENDBRANCH   4   5
ENDBRANCH   3   4
ENDBRANCH   2   3
ENDBRANCH   1   2
BRANCH   1  37
ATOM     37  C   UNL A   1      34.256  32.302  27.964  1.00  0.00     0.123 C 
BRANCH  37  38
ATOM     38  C   UNL A   1      33.866  33.359  28.980  1.00  0.00     0.305 C 
ATOM     39  O   UNL A   1      33.383  34.436  28.656  1.00  0.00    -0.252 OA
BRANCH  38  40
ATOM     40  O   UNL A   1      34.132  32.982  30.250  1.00  0.00    -0.463 OA
BRANCH  40  41
ATOM     41  C   UNL A   1      34.678  33.970  31.138  1.00  0.00     0.261 C 
BRANCH  41  42
ATOM     42  C   UNL A   1      36.024  34.460  30.606  1.00  0.00     0.202 C 
BRANCH  42  43
ATOM     43  O   UNL A   1      37.064  33.485  30.504  1.00  0.00    -0.374 OA
BRANCH  43  44
ATOM     44  C   UNL A   1      38.265  33.674  31.246  1.00  0.00     0.202 C 
BRANCH  44  45
ATOM     45  C   UNL A   1      38.911  32.432  31.848  1.00  0.00     0.261 C 
BRANCH  45  46
ATOM     46  O   UNL A   1      37.932  31.528  32.344  1.00  0.00    -0.460 OA
BRANCH  46  47
ATOM     47  C   UNL A   1      37.974  31.325  33.677  1.00  0.00     0.338 C 
ATOM     48  O   UNL A   1      37.539  32.058  34.555  1.00  0.00    -0.246 OA
BRANCH  47  49
ATOM     49  C   UNL A   1      38.786  30.134  33.934  1.00  0.00     0.060 A 
ATOM     50  C   UNL A   1      39.875  30.318  34.784  1.00  0.00     0.016 A 
ATOM     51  C   UNL A   1      38.672  29.014  33.096  1.00  0.00     0.016 A 
ATOM     52  C   UNL A   1      40.987  29.542  34.568  1.00  0.00     0.010 A 
ATOM     53  C   UNL A   1      39.781  28.237  32.883  1.00  0.00     0.010 A 
ATOM     54  C   UNL A   1      40.951  28.594  33.539  1.00  0.00    -0.014 A 
BRANCH  54  55
ATOM     55  C   UNL A   1      42.184  27.930  33.198  1.00  0.00     0.031 A 
ATOM     56  C   UNL A   1      42.829  27.323  34.374  1.00  0.00     0.074 A 
ATOM     57  C   UNL A   1      42.632  27.855  31.932  1.00  0.00     0.049 A 
ATOM     58  N   UNL A   1      43.920  27.706  34.946  1.00  0.00    -0.248 NA
ATOM     59  C   UNL A   1      42.068  26.313  35.127  1.00  0.00     0.031 C 
ATOM     60  C   UNL A   1      41.952  28.220  30.688  1.00  0.00     0.029 A 
ATOM     61  N   UNL A   1      43.808  27.336  31.496  1.00  0.00    -0.354 N 
ATOM     62  C   UNL A   1      44.084  26.856  36.032  1.00  0.00     0.074 A 
ATOM     63  C   UNL A   1      42.834  26.166  36.207  1.00  0.00     0.031 C 
ATOM     64  C   UNL A   1      42.630  27.695  29.640  1.00  0.00     0.029 A 
ATOM     65  C   UNL A   1      43.848  27.075  30.132  1.00  0.00     0.049 A 
ATOM     66  H   UNL A   1      44.569  27.159  32.096  1.00  0.00     0.167 HD
ATOM     67  C   UNL A   1      45.323  26.606  36.530  1.00  0.00     0.037 A 
ATOM     68  C   UNL A   1      44.782  26.299  29.523  1.00  0.00     0.037 A 
ATOM     69  C   UNL A   1      46.263  27.616  36.113  1.00  0.00     0.049 A 
ATOM     70  C   UNL A   1      45.964  26.245  30.431  1.00  0.00     0.074 A 
ATOM     71  C   UNL A   1      46.358  28.981  36.310  1.00  0.00     0.029 A 
ATOM     72  N   UNL A   1      47.080  27.335  35.045  1.00  0.00    -0.354 N 
ATOM     73  N   UNL A   1      46.719  27.279  30.684  1.00  0.00    -0.248 NA
ATOM     74  C   UNL A   1      45.992  25.192  31.439  1.00  0.00     0.031 C 
ATOM     75  C   UNL A   1      46.829  29.503  35.070  1.00  0.00     0.029 A 
ATOM     76  C   UNL A   1      47.064  28.428  34.213  1.00  0.00     0.049 A 
ATOM     77  H   UNL A   1      47.584  26.502  34.901  1.00  0.00     0.167 HD
ATOM     78  C   UNL A   1      46.970  27.211  32.048  1.00  0.00     0.074 A 
ATOM     79  C   UNL A   1      46.545  25.871  32.448  1.00  0.00     0.031 C 
ATOM     80  C   UNL A   1      47.210  28.339  32.781  1.00  0.00     0.037 A 
BRANCH  67  81
ATOM     81  C   UNL A   1      45.752  25.259  37.050  1.00  0.00     0.064 A 
ATOM     82  C   UNL A   1      45.644  24.141  36.203  1.00  0.00     0.173 A 
ATOM     83  C   UNL A   1      45.973  24.970  38.415  1.00  0.00     0.173 A 
ATOM     84  F   UNL A   1      45.422  24.299  34.889  1.00  0.00    -0.203 F 
ATOM     85  C   UNL A   1      45.664  22.837  36.700  1.00  0.00     0.198 A 
ATOM     86  C   UNL A   1      46.049  23.668  38.900  1.00  0.00     0.198 A 
ATOM     87  F   UNL A   1      46.008  25.920  39.356  1.00  0.00    -0.203 F 
ATOM     88  F   UNL A   1      45.422  21.809  35.876  1.00  0.00    -0.200 F 
ATOM     89  C   UNL A   1      45.859  22.602  38.049  1.00  0.00     0.200 A 
ATOM     90  F   UNL A   1      46.220  23.465  40.214  1.00  0.00    -0.200 F 
ATOM     91  F   UNL A   1      45.811  21.356  38.538  1.00  0.00    -0.200 F 
ENDBRANCH  67  81
BRANCH  68  92
ATOM     92  C   UNL A   1      44.560  25.301  28.445  1.00  0.00     0.064 A 
ATOM     93  C   UNL A   1      43.838  24.121  28.690  1.00  0.00     0.173 A 
ATOM     94  C   UNL A   1      44.801  25.611  27.091  1.00  0.00     0.173 A 
ATOM     95  F   UNL A   1      43.524  23.772  29.946  1.00  0.00    -0.203 F 
ATOM     96  C   UNL A   1      43.361  23.319  27.646  1.00  0.00     0.198 A 
ATOM     97  C   UNL A   1      44.331  24.806  26.051  1.00  0.00     0.198 A 
ATOM     98  F   UNL A   1      45.413  26.750  26.739  1.00  0.00    -0.203 F 
ATOM     99  F   UNL A   1      42.620  22.235  27.919  1.00  0.00    -0.200 F 
ATOM    100  C   UNL A   1      43.598  23.669  26.328  1.00  0.00     0.200 A 
ATOM    101  F   UNL A   1      44.540  25.179  24.780  1.00  0.00    -0.200 F 
ATOM    102  F   UNL A   1      43.089  22.939  25.326  1.00  0.00    -0.200 F 
ENDBRANCH  68  92
BRANCH  80 103
ATOM    103  C   UNL A   1      47.424  29.626  32.035  1.00  0.00     0.064 A 
ATOM    104  C   UNL A   1      48.669  30.050  31.534  1.00  0.00     0.173 A 
ATOM    105  C   UNL A   1      46.302  30.391  31.691  1.00  0.00     0.173 A 
ATOM    106  F   UNL A   1      49.773  29.316  31.723  1.00  0.00    -0.203 F 
ATOM    107  C   UNL A   1      48.788  31.214  30.776  1.00  0.00     0.198 A 
ATOM    108  C   UNL A   1      46.416  31.531  30.900  1.00  0.00     0.198 A 
ATOM    109  F   UNL A   1      45.079  30.004  32.087  1.00  0.00    -0.203 F 
ATOM    110  F   UNL A   1      49.989  31.605  30.326  1.00  0.00    -0.200 F 
ATOM    111  C   UNL A   1      47.660  31.949  30.454  1.00  0.00     0.200 A 
ATOM    112  F   UNL A   1      45.315  32.208  30.547  1.00  0.00    -0.200 F 
ATOM    113  F   UNL A   1      47.765  33.047  29.693  1.00  0.00    -0.200 F 
ENDBRANCH  80 103
ENDBRANCH  54  55
ENDBRANCH  47  49
ENDBRANCH  46  47
ENDBRANCH  45  46
ENDBRANCH  44  45
ENDBRANCH  43  44
ENDBRANCH  42  43
ENDBRANCH  41  42
ENDBRANCH  40  41
ENDBRANCH  38  40
ENDBRANCH  37  38
ENDBRANCH   1  37
TORSDOF 29
ENDMDL
MODEL 3
REMARK VINA RESULT:      -8.5      5.224     10.490
REMARK SMILES NS(=O)(=O)c1ccc(-n2nc(C(=O)NCCCCCCCCCCC(=O)OCCOCCOC(=O)c3ccc(-c4c5nc(c(-c6c(F)c(F)c(F)c(F)c6F)c6ccc([nH]6)c(-c6c(F)c(F)c(F)c(F)c6F)c6nc(c(-c7c(F)c(F)c(F)c(F)c7F)c7ccc4[nH]7)C=C6)C=C5)cc3)cc2-c2ccccc2)cc1
REMARK SMILES IDX 23 1 22 2 21 3 20 4 19 5 18 6 17 7 16 8 15 9 14 10 12 11
REMARK SMILES IDX 13 12 11 14 9 15 10 16 100 17 99 18 8 19 5 20 6 21 108 22
REMARK SMILES IDX 7 23 107 24 2 25 3 26 4 27 1 28 101 31 102 32 106 33 103 34
REMARK SMILES IDX 105 35 104 36 24 37 25 38 26 39 27 40 28 41 29 42 30 43
REMARK SMILES IDX 31 44 32 45 33 46 34 47 35 48 36 49 37 50 98 51 38 52 97 53
REMARK SMILES IDX 39 54 40 55 41 56 91 57 42 58 96 59 90 60 92 61 43 62 95 63
REMARK SMILES IDX 89 64 88 65 44 67 76 68 56 69 75 70 57 71 60 72 74 73 93 74
REMARK SMILES IDX 58 75 59 76 73 78 94 79 61 80 45 81 46 82 54 83 47 84 48 85
REMARK SMILES IDX 52 86 55 87 49 88 50 89 53 90 51 91 77 92 78 93 86 94 79 95
REMARK SMILES IDX 80 96 84 97 87 98 81 99 82 100 85 101 83 102 62 103 63 104
REMARK SMILES IDX 71 105 64 106 65 107 69 108 72 109 66 110 67 111 70 112
REMARK SMILES IDX 68 113
REMARK H PARENT 14 13 1 29 1 30 92 66 60 77
REMARK Flexibility Score: inf
ROOT
ATOM      1  C   UNL A   1      42.024  27.765  34.217  1.00  0.00     0.012 C 
ENDROOT
BRANCH   1   2
ATOM      2  C   UNL A   1      43.443  28.166  33.810  1.00  0.00     0.001 C 
BRANCH   2   3
ATOM      3  C   UNL A   1      43.480  29.130  32.627  1.00  0.00     0.000 C 
BRANCH   3   4
ATOM      4  C   UNL A   1      43.171  30.566  33.054  1.00  0.00     0.000 C 
BRANCH   4   5
ATOM      5  C   UNL A   1      43.669  30.877  34.469  1.00  0.00     0.000 C 
BRANCH   5   6
ATOM      6  C   UNL A   1      43.142  32.217  34.996  1.00  0.00     0.000 C 
BRANCH   6   7
ATOM      7  C   UNL A   1      43.551  33.406  34.116  1.00  0.00     0.002 C 
BRANCH   7   8
ATOM      8  C   UNL A   1      43.378  34.755  34.823  1.00  0.00     0.021 C 
BRANCH   8   9
ATOM      9  C   UNL A   1      41.912  35.182  34.830  1.00  0.00     0.116 C 
BRANCH   9  10
ATOM     10  N   UNL A   1      41.260  34.627  35.990  1.00  0.00    -0.351 N 
ATOM     11  C   UNL A   1      40.043  34.011  36.153  1.00  0.00     0.271 C 
ATOM     12  O   UNL A   1      39.739  33.726  37.314  1.00  0.00    -0.267 OA
ATOM     13  H   UNL A   1      41.784  34.705  36.820  1.00  0.00     0.163 HD
BRANCH  11  14
ATOM     14  C   UNL A   1      39.204  33.653  34.993  1.00  0.00     0.151 A 
ATOM     15  N   UNL A   1      37.438  33.704  33.775  1.00  0.00    -0.232 N 
ATOM     16  N   UNL A   1      38.138  34.415  34.680  1.00  0.00    -0.162 NA
ATOM     17  C   UNL A   1      38.102  32.558  33.381  1.00  0.00     0.075 A 
ATOM     18  C   UNL A   1      39.300  32.593  34.060  1.00  0.00     0.065 A 
BRANCH  15  19
ATOM     19  C   UNL A   1      36.190  34.177  33.318  1.00  0.00     0.065 A 
ATOM     20  C   UNL A   1      33.702  35.183  32.647  1.00  0.00     0.082 A 
ATOM     21  C   UNL A   1      34.846  35.936  32.364  1.00  0.00     0.024 A 
ATOM     22  C   UNL A   1      33.796  33.914  33.229  1.00  0.00     0.024 A 
ATOM     23  C   UNL A   1      36.096  35.437  32.717  1.00  0.00     0.030 A 
ATOM     24  C   UNL A   1      35.051  33.391  33.535  1.00  0.00     0.030 A 
BRANCH  20  25
ATOM     25  S   UNL A   1      32.108  35.873  32.332  1.00  0.00     0.238 S 
ATOM     26  O   UNL A   1      31.098  34.897  32.676  1.00  0.00    -0.207 OA
ATOM     27  O   UNL A   1      32.144  36.555  31.064  1.00  0.00    -0.207 OA
BRANCH  25  28
ATOM     28  N   UNL A   1      31.968  37.070  33.508  1.00  0.00    -0.225 NA
ATOM     29  H   UNL A   1      31.589  36.664  34.364  1.00  0.00     0.137 HD
ATOM     30  H   UNL A   1      31.341  37.803  33.174  1.00  0.00     0.137 HD
ENDBRANCH  25  28
ENDBRANCH  20  25
ENDBRANCH  15  19
BRANCH  17  31
ATOM     31  C   UNL A   1      37.676  31.614  32.357  1.00  0.00     0.000 A 
ATOM     32  C   UNL A   1      37.887  31.892  31.003  1.00  0.00     0.010 A 
ATOM     33  C   UNL A   1      37.069  30.408  32.728  1.00  0.00     0.010 A 
ATOM     34  C   UNL A   1      37.483  30.980  30.029  1.00  0.00     0.001 A 
ATOM     35  C   UNL A   1      36.661  29.498  31.752  1.00  0.00     0.001 A 
ATOM     36  C   UNL A   1      36.868  29.785  30.404  1.00  0.00     0.000 A 
ENDBRANCH  17  31
ENDBRANCH  11  14
ENDBRANCH   9  10
ENDBRANCH   8   9
ENDBRANCH   7   8
ENDBRANCH   6   7
ENDBRANCH   5   6
ENDBRANCH   4   5
ENDBRANCH   3   4
ENDBRANCH   2   3
ENDBRANCH   1   2
BRANCH   1  37
ATOM     37  C   UNL A   1      41.912  26.621  35.235  1.00  0.00     0.123 C 
BRANCH  37  38
ATOM     38  C   UNL A   1      41.772  26.981  36.703  1.00  0.00     0.305 C 
ATOM     39  O   UNL A   1      40.690  27.228  37.219  1.00  0.00    -0.252 OA
BRANCH  38  40
ATOM     40  O   UNL A   1      42.961  27.017  37.345  1.00  0.00    -0.463 OA
BRANCH  40  41
ATOM     41  C   UNL A   1      43.347  25.857  38.099  1.00  0.00     0.261 C 
BRANCH  41  42
ATOM     42  C   UNL A   1      44.857  25.868  38.334  1.00  0.00     0.202 C 
BRANCH  42  43
ATOM     43  O   UNL A   1      45.360  24.933  39.291  1.00  0.00    -0.374 OA
BRANCH  43  44
ATOM     44  C   UNL A   1      46.005  23.750  38.829  1.00  0.00     0.202 C 
BRANCH  44  45
ATOM     45  C   UNL A   1      45.430  23.088  37.583  1.00  0.00     0.261 C 
BRANCH  45  46
ATOM     46  O   UNL A   1      46.449  22.804  36.632  1.00  0.00    -0.460 OA
BRANCH  46  47
ATOM     47  C   UNL A   1      47.025  23.891  36.079  1.00  0.00     0.338 C 
ATOM     48  O   UNL A   1      48.014  24.493  36.477  1.00  0.00    -0.246 OA
BRANCH  47  49
ATOM     49  C   UNL A   1      46.172  24.357  34.984  1.00  0.00     0.060 A 
ATOM     50  C   UNL A   1      45.652  23.361  34.159  1.00  0.00     0.016 A 
ATOM     51  C   UNL A   1      46.195  25.707  34.603  1.00  0.00     0.016 A 
ATOM     52  C   UNL A   1      45.441  23.676  32.840  1.00  0.00     0.010 A 
ATOM     53  C   UNL A   1      45.980  26.023  33.287  1.00  0.00     0.010 A 
ATOM     54  C   UNL A   1      45.724  24.978  32.410  1.00  0.00    -0.014 A 
BRANCH  54  55
ATOM     55  C   UNL A   1      45.686  25.237  30.992  1.00  0.00     0.031 A 
ATOM     56  C   UNL A   1      46.713  26.210  30.580  1.00  0.00     0.074 A 
ATOM     57  C   UNL A   1      44.831  24.605  30.170  1.00  0.00     0.049 A 
ATOM     58  N   UNL A   1      46.519  27.418  30.174  1.00  0.00    -0.248 NA
ATOM     59  C   UNL A   1      48.120  25.876  30.853  1.00  0.00     0.031 C 
ATOM     60  C   UNL A   1      43.949  23.470  30.449  1.00  0.00     0.029 A 
ATOM     61  N   UNL A   1      44.642  24.819  28.842  1.00  0.00    -0.354 N 
ATOM     62  C   UNL A   1      47.786  27.941  29.957  1.00  0.00     0.074 A 
ATOM     63  C   UNL A   1      48.717  27.034  30.573  1.00  0.00     0.031 C 
ATOM     64  C   UNL A   1      43.503  22.955  29.278  1.00  0.00     0.029 A 
ATOM     65  C   UNL A   1      43.963  23.798  28.189  1.00  0.00     0.049 A 
ATOM     66  H   UNL A   1      44.960  25.630  28.382  1.00  0.00     0.167 HD
ATOM     67  C   UNL A   1      47.974  28.945  29.061  1.00  0.00     0.037 A 
ATOM     68  C   UNL A   1      43.914  23.646  26.840  1.00  0.00     0.037 A 
ATOM     69  C   UNL A   1      46.734  29.620  28.771  1.00  0.00     0.049 A 
ATOM     70  C   UNL A   1      44.230  24.974  26.239  1.00  0.00     0.074 A 
ATOM     71  C   UNL A   1      45.832  30.342  29.530  1.00  0.00     0.029 A 
ATOM     72  N   UNL A   1      46.060  29.269  27.626  1.00  0.00    -0.354 N 
ATOM     73  N   UNL A   1      43.441  26.010  26.337  1.00  0.00    -0.248 NA
ATOM     74  C   UNL A   1      45.632  25.282  25.983  1.00  0.00     0.031 C 
ATOM     75  C   UNL A   1      44.548  29.972  29.034  1.00  0.00     0.029 A 
ATOM     76  C   UNL A   1      44.737  29.107  27.956  1.00  0.00     0.049 A 
ATOM     77  H   UNL A   1      46.455  29.155  26.731  1.00  0.00     0.167 HD
ATOM     78  C   UNL A   1      44.289  27.080  26.588  1.00  0.00     0.074 A 
ATOM     79  C   UNL A   1      45.632  26.580  26.301  1.00  0.00     0.031 C 
ATOM     80  C   UNL A   1      43.863  28.169  27.294  1.00  0.00     0.037 A 
BRANCH  67  81
ATOM     81  C   UNL A   1      49.183  29.045  28.169  1.00  0.00     0.064 A 
ATOM     82  C   UNL A   1      49.468  27.982  27.292  1.00  0.00     0.173 A 
ATOM     83  C   UNL A   1      50.224  29.983  28.348  1.00  0.00     0.173 A 
ATOM     84  F   UNL A   1      48.555  27.027  27.058  1.00  0.00    -0.203 F 
ATOM     85  C   UNL A   1      50.729  27.822  26.715  1.00  0.00     0.198 A 
ATOM     86  C   UNL A   1      51.462  29.851  27.726  1.00  0.00     0.198 A 
ATOM     87  F   UNL A   1      50.139  30.998  29.215  1.00  0.00    -0.203 F 
ATOM     88  F   UNL A   1      50.996  26.723  25.998  1.00  0.00    -0.200 F 
ATOM     89  C   UNL A   1      51.727  28.753  26.939  1.00  0.00     0.200 A 
ATOM     90  F   UNL A   1      52.420  30.757  27.972  1.00  0.00    -0.200 F 
ATOM     91  F   UNL A   1      52.957  28.567  26.442  1.00  0.00    -0.200 F 
ENDBRANCH  67  81
BRANCH  68  92
ATOM     92  C   UNL A   1      44.022  22.379  26.072  1.00  0.00     0.064 A 
ATOM     93  C   UNL A   1      45.276  21.852  25.719  1.00  0.00     0.173 A 
ATOM     94  C   UNL A   1      42.920  21.514  25.916  1.00  0.00     0.173 A 
ATOM     95  F   UNL A   1      46.385  22.590  25.877  1.00  0.00    -0.203 F 
ATOM     96  C   UNL A   1      45.421  20.535  25.268  1.00  0.00     0.198 A 
ATOM     97  C   UNL A   1      43.065  20.203  25.459  1.00  0.00     0.198 A 
ATOM     98  F   UNL A   1      41.689  21.885  26.294  1.00  0.00    -0.203 F 
ATOM     99  F   UNL A   1      46.642  20.049  25.003  1.00  0.00    -0.200 F 
ATOM    100  C   UNL A   1      44.317  19.708  25.150  1.00  0.00     0.200 A 
ATOM    101  F   UNL A   1      41.990  19.404  25.385  1.00  0.00    -0.200 F 
ATOM    102  F   UNL A   1      44.461  18.428  24.780  1.00  0.00    -0.200 F 
ENDBRANCH  68  92
BRANCH  80 103
ATOM    103  C   UNL A   1      42.393  28.281  27.591  1.00  0.00     0.064 A 
ATOM    104  C   UNL A   1      41.455  28.864  26.718  1.00  0.00     0.173 A 
ATOM    105  C   UNL A   1      41.895  27.649  28.737  1.00  0.00     0.173 A 
ATOM    106  F   UNL A   1      41.837  29.389  25.547  1.00  0.00    -0.203 F 
ATOM    107  C   UNL A   1      40.092  28.861  27.012  1.00  0.00     0.198 A 
ATOM    108  C   UNL A   1      40.531  27.612  29.009  1.00  0.00     0.198 A 
ATOM    109  F   UNL A   1      42.735  27.023  29.576  1.00  0.00    -0.203 F 
ATOM    110  F   UNL A   1      39.221  29.439  26.172  1.00  0.00    -0.200 F 
ATOM    111  C   UNL A   1      39.631  28.229  28.154  1.00  0.00     0.200 A 
ATOM    112  F   UNL A   1      40.086  26.953  30.088  1.00  0.00    -0.200 F 
ATOM    113  F   UNL A   1      38.318  28.190  28.420  1.00  0.00    -0.200 F 
ENDBRANCH  80 103
ENDBRANCH  54  55
ENDBRANCH  47  49
ENDBRANCH  46  47
ENDBRANCH  45  46
ENDBRANCH  44  45
ENDBRANCH  43  44
ENDBRANCH  42  43
ENDBRANCH  41  42
ENDBRANCH  40  41
ENDBRANCH  38  40
ENDBRANCH  37  38
ENDBRANCH   1  37
TORSDOF 29
ENDMDL
