MODEL 1
REMARK VINA RESULT:     -11.3      0.000      0.000
REMARK SMILES CCc1cc(OC(F)(F)F)cc2c1O[C@@H](C(F)(F)F)C(C(=O)OCCOCCOC(=O)c1ccc(-c3c4nc(c(-c5c(F)c(F)c(F)c(F)c5F)c5ccc([nH]5)c(-c5c(F)c(F)c(F)c(F)c5F)c5nc(c(-c6c(F)c(F)c(F)c(F)c6F)c6ccc3[nH]6)C=C5)C=C4)cc1)=C2
REMARK SMILES IDX 26 1 25 2 24 3 23 4 21 5 22 6 20 7 3 8 4 9 13 10 5 11 12 12
REMARK SMILES IDX 14 13 11 14 95 15 15 16 2 17 1 18 6 19 7 20 8 21 9 22 10 23
REMARK SMILES IDX 16 24 17 25 18 26 19 27 27 28 28 29 29 30 30 31 31 32 32 33
REMARK SMILES IDX 33 34 94 35 34 36 93 37 35 38 36 39 37 40 87 41 38 42 92 43
REMARK SMILES IDX 86 44 88 45 39 46 91 47 85 48 84 49 40 51 72 52 52 53 71 54
REMARK SMILES IDX 53 55 56 56 70 57 89 58 54 59 55 60 69 62 90 63 57 64 41 65
REMARK SMILES IDX 42 66 50 67 43 68 44 69 48 70 51 71 45 72 46 73 49 74 47 75
REMARK SMILES IDX 73 76 74 77 82 78 75 79 76 80 80 81 83 82 77 83 78 84 81 85
REMARK SMILES IDX 79 86 58 87 59 88 67 89 60 90 61 91 65 92 68 93 62 94 63 95
REMARK SMILES IDX 66 96 64 97
REMARK H PARENT 88 50 56 61
REMARK Flexibility Score: inf
ROOT
ATOM      1  O   UNL A   1      32.127  30.671  26.266  1.00  0.00    -0.374 OA
ENDROOT
BRANCH   1   2
ATOM      2  C   UNL A   1      32.162  29.641  27.249  1.00  0.00     0.202 C 
BRANCH   2   3
ATOM      3  C   UNL A   1      32.994  28.399  26.921  1.00  0.00     0.261 C 
BRANCH   3   4
ATOM      4  O   UNL A   1      32.222  27.417  26.213  1.00  0.00    -0.460 OA
BRANCH   4   5
ATOM      5  C   UNL A   1      32.607  27.211  24.932  1.00  0.00     0.338 C 
ATOM      6  O   UNL A   1      32.717  28.062  24.061  1.00  0.00    -0.246 OA
BRANCH   5   7
ATOM      7  C   UNL A   1      32.993  25.810  24.719  1.00  0.00     0.087 C 
ATOM      8  C   UNL A   1      33.356  21.653  24.916  1.00  0.00    -0.002 A 
ATOM      9  C   UNL A   1      34.586  21.097  25.305  1.00  0.00     0.054 A 
ATOM     10  C   UNL A   1      33.260  23.052  24.835  1.00  0.00     0.131 A 
ATOM     11  C   UNL A   1      35.673  21.912  25.643  1.00  0.00     0.130 A 
ATOM     12  C   UNL A   1      34.335  23.884  25.185  1.00  0.00     0.021 A 
ATOM     13  O   UNL A   1      32.041  23.573  24.474  1.00  0.00    -0.475 OA
ATOM     14  C   UNL A   1      35.544  23.305  25.573  1.00  0.00     0.058 A 
ATOM     15  C   UNL A   1      34.121  25.330  25.267  1.00  0.00     0.027 C 
ATOM     16  C   UNL A   1      32.088  24.908  23.914  1.00  0.00     0.316 C 
BRANCH   8  17
ATOM     17  C   UNL A   1      32.153  20.804  24.550  1.00  0.00     0.036 C 
ATOM     18  C   UNL A   1      32.418  19.336  24.246  1.00  0.00     0.009 C 
ENDBRANCH   8  17
BRANCH  11  19
ATOM     19  O   UNL A   1      36.901  21.479  26.060  1.00  0.00    -0.406 OA
BRANCH  19  20
ATOM     20  C   UNL A   1      37.869  21.187  25.063  1.00  0.00     0.573 C 
ATOM     21  F   UNL A   1      38.125  19.863  25.001  1.00  0.00    -0.132 F 
ATOM     22  F   UNL A   1      37.463  21.626  23.853  1.00  0.00    -0.132 F 
ATOM     23  F   UNL A   1      39.018  21.823  25.377  1.00  0.00    -0.132 F 
ENDBRANCH  19  20
ENDBRANCH  11  19
BRANCH  16  24
ATOM     24  C   UNL A   1      30.646  25.365  23.637  1.00  0.00     0.430 C 
ATOM     25  F   UNL A   1      30.613  26.341  22.699  1.00  0.00    -0.167 F 
ATOM     26  F   UNL A   1      29.923  24.334  23.124  1.00  0.00    -0.167 F 
ATOM     27  F   UNL A   1      29.998  25.791  24.739  1.00  0.00    -0.167 F 
ENDBRANCH  16  24
ENDBRANCH   5   7
ENDBRANCH   4   5
ENDBRANCH   3   4
ENDBRANCH   2   3
ENDBRANCH   1   2
BRANCH   1  28
ATOM     28  C   UNL A   1      31.185  31.730  26.435  1.00  0.00     0.202 C 
BRANCH  28  29
ATOM     29  C   UNL A   1      31.744  33.123  26.750  1.00  0.00     0.261 C 
BRANCH  29  30
ATOM     30  O   UNL A   1      33.022  33.066  27.408  1.00  0.00    -0.460 OA
BRANCH  30  31
ATOM     31  C   UNL A   1      33.249  34.057  28.302  1.00  0.00     0.338 C 
ATOM     32  O   UNL A   1      32.564  35.052  28.501  1.00  0.00    -0.246 OA
BRANCH  31  33
ATOM     33  C   UNL A   1      34.380  33.695  29.170  1.00  0.00     0.060 A 
ATOM     34  C   UNL A   1      35.652  34.174  28.828  1.00  0.00     0.016 A 
ATOM     35  C   UNL A   1      34.211  32.837  30.258  1.00  0.00     0.016 A 
ATOM     36  C   UNL A   1      36.771  33.767  29.553  1.00  0.00     0.010 A 
ATOM     37  C   UNL A   1      35.334  32.419  30.976  1.00  0.00     0.010 A 
ATOM     38  C   UNL A   1      36.620  32.858  30.609  1.00  0.00    -0.014 A 
BRANCH  38  39
ATOM     39  C   UNL A   1      37.813  32.251  31.242  1.00  0.00     0.031 A 
ATOM     40  C   UNL A   1      38.558  31.174  30.503  1.00  0.00     0.074 A 
ATOM     41  C   UNL A   1      38.223  32.649  32.459  1.00  0.00     0.049 A 
ATOM     42  N   UNL A   1      39.557  30.430  30.903  1.00  0.00    -0.248 NA
ATOM     43  C   UNL A   1      38.109  30.897  29.130  1.00  0.00     0.031 C 
ATOM     44  C   UNL A   1      37.612  33.714  33.249  1.00  0.00     0.029 A 
ATOM     45  N   UNL A   1      39.244  32.183  33.250  1.00  0.00    -0.354 N 
ATOM     46  C   UNL A   1      39.848  29.589  29.837  1.00  0.00     0.074 A 
ATOM     47  C   UNL A   1      38.906  29.897  28.782  1.00  0.00     0.031 C 
ATOM     48  C   UNL A   1      38.257  33.810  34.424  1.00  0.00     0.029 A 
ATOM     49  C   UNL A   1      39.300  32.786  34.482  1.00  0.00     0.049 A 
ATOM     50  H   UNL A   1      39.876  31.485  32.962  1.00  0.00     0.167 HD
ATOM     51  C   UNL A   1      40.818  28.649  29.747  1.00  0.00     0.037 A 
ATOM     52  C   UNL A   1      40.083  32.516  35.545  1.00  0.00     0.037 A 
ATOM     53  C   UNL A   1      41.753  28.349  30.799  1.00  0.00     0.049 A 
ATOM     54  C   UNL A   1      41.102  31.411  35.447  1.00  0.00     0.074 A 
ATOM     55  C   UNL A   1      42.784  27.426  30.800  1.00  0.00     0.029 A 
ATOM     56  N   UNL A   1      41.765  28.966  32.041  1.00  0.00    -0.354 N 
ATOM     57  N   UNL A   1      41.385  30.630  34.432  1.00  0.00    -0.248 NA
ATOM     58  C   UNL A   1      41.914  31.149  36.646  1.00  0.00     0.031 C 
ATOM     59  C   UNL A   1      43.387  27.449  32.062  1.00  0.00     0.029 A 
ATOM     60  C   UNL A   1      42.770  28.425  32.827  1.00  0.00     0.049 A 
ATOM     61  H   UNL A   1      41.151  29.682  32.323  1.00  0.00     0.167 HD
ATOM     62  C   UNL A   1      42.422  29.810  34.857  1.00  0.00     0.074 A 
ATOM     63  C   UNL A   1      42.725  30.192  36.220  1.00  0.00     0.031 C 
ATOM     64  C   UNL A   1      43.068  28.830  34.178  1.00  0.00     0.037 A 
BRANCH  51  65
ATOM     65  C   UNL A   1      40.900  27.856  28.476  1.00  0.00     0.064 A 
ATOM     66  C   UNL A   1      41.705  28.264  27.402  1.00  0.00     0.173 A 
ATOM     67  C   UNL A   1      40.192  26.652  28.346  1.00  0.00     0.173 A 
ATOM     68  F   UNL A   1      42.391  29.415  27.472  1.00  0.00    -0.203 F 
ATOM     69  C   UNL A   1      41.779  27.506  26.235  1.00  0.00     0.198 A 
ATOM     70  C   UNL A   1      40.291  25.884  27.189  1.00  0.00     0.198 A 
ATOM     71  F   UNL A   1      39.410  26.215  29.344  1.00  0.00    -0.203 F 
ATOM     72  F   UNL A   1      42.519  27.938  25.204  1.00  0.00    -0.200 F 
ATOM     73  C   UNL A   1      41.078  26.314  26.133  1.00  0.00     0.200 A 
ATOM     74  F   UNL A   1      39.621  24.726  27.095  1.00  0.00    -0.200 F 
ATOM     75  F   UNL A   1      41.156  25.584  25.012  1.00  0.00    -0.200 F 
ENDBRANCH  51  65
BRANCH  52  76
ATOM     76  C   UNL A   1      39.922  33.291  36.803  1.00  0.00     0.064 A 
ATOM     77  C   UNL A   1      38.956  32.933  37.753  1.00  0.00     0.173 A 
ATOM     78  C   UNL A   1      40.717  34.415  37.072  1.00  0.00     0.173 A 
ATOM     79  F   UNL A   1      38.154  31.883  37.529  1.00  0.00    -0.203 F 
ATOM     80  C   UNL A   1      38.778  33.682  38.915  1.00  0.00     0.198 A 
ATOM     81  C   UNL A   1      40.558  35.145  38.248  1.00  0.00     0.198 A 
ATOM     82  F   UNL A   1      41.656  34.800  36.195  1.00  0.00    -0.203 F 
ATOM     83  F   UNL A   1      37.815  33.346  39.784  1.00  0.00    -0.200 F 
ATOM     84  C   UNL A   1      39.583  34.783  39.165  1.00  0.00     0.200 A 
ATOM     85  F   UNL A   1      41.346  36.201  38.490  1.00  0.00    -0.200 F 
ATOM     86  F   UNL A   1      39.413  35.501  40.283  1.00  0.00    -0.200 F 
ENDBRANCH  52  76
BRANCH  64  87
ATOM     87  C   UNL A   1      44.198  28.130  34.876  1.00  0.00     0.064 A 
ATOM     88  C   UNL A   1      44.003  26.934  35.578  1.00  0.00     0.173 A 
ATOM     89  C   UNL A   1      45.504  28.637  34.788  1.00  0.00     0.173 A 
ATOM     90  F   UNL A   1      42.771  26.417  35.703  1.00  0.00    -0.203 F 
ATOM     91  C   UNL A   1      45.073  26.278  36.184  1.00  0.00     0.198 A 
ATOM     92  C   UNL A   1      46.574  27.965  35.369  1.00  0.00     0.198 A 
ATOM     93  F   UNL A   1      45.744  29.776  34.121  1.00  0.00    -0.203 F 
ATOM     94  F   UNL A   1      44.858  25.156  36.884  1.00  0.00    -0.200 F 
ATOM     95  C   UNL A   1      46.357  26.789  36.072  1.00  0.00     0.200 A 
ATOM     96  F   UNL A   1      47.816  28.452  35.247  1.00  0.00    -0.200 F 
ATOM     97  F   UNL A   1      47.387  26.150  36.644  1.00  0.00    -0.200 F 
ENDBRANCH  64  87
ENDBRANCH  38  39
ENDBRANCH  31  33
ENDBRANCH  30  31
ENDBRANCH  29  30
ENDBRANCH  28  29
ENDBRANCH   1  28
TORSDOF 18
ENDMDL
MODEL 2
REMARK VINA RESULT:     -11.1      5.097      9.803
REMARK SMILES CCc1cc(OC(F)(F)F)cc2c1O[C@@H](C(F)(F)F)C(C(=O)OCCOCCOC(=O)c1ccc(-c3c4nc(c(-c5c(F)c(F)c(F)c(F)c5F)c5ccc([nH]5)c(-c5c(F)c(F)c(F)c(F)c5F)c5nc(c(-c6c(F)c(F)c(F)c(F)c6F)c6ccc3[nH]6)C=C5)C=C4)cc1)=C2
REMARK SMILES IDX 26 1 25 2 24 3 23 4 21 5 22 6 20 7 3 8 4 9 13 10 5 11 12 12
REMARK SMILES IDX 14 13 11 14 95 15 15 16 2 17 1 18 6 19 7 20 8 21 9 22 10 23
REMARK SMILES IDX 16 24 17 25 18 26 19 27 27 28 28 29 29 30 30 31 31 32 32 33
REMARK SMILES IDX 33 34 94 35 34 36 93 37 35 38 36 39 37 40 87 41 38 42 92 43
REMARK SMILES IDX 86 44 88 45 39 46 91 47 85 48 84 49 40 51 72 52 52 53 71 54
REMARK SMILES IDX 53 55 56 56 70 57 89 58 54 59 55 60 69 62 90 63 57 64 41 65
REMARK SMILES IDX 42 66 50 67 43 68 44 69 48 70 51 71 45 72 46 73 49 74 47 75
REMARK SMILES IDX 73 76 74 77 82 78 75 79 76 80 80 81 83 82 77 83 78 84 81 85
REMARK SMILES IDX 79 86 58 87 59 88 67 89 60 90 61 91 65 92 68 93 62 94 63 95
REMARK SMILES IDX 66 96 64 97
REMARK H PARENT 88 50 56 61
REMARK Flexibility Score: inf
ROOT
ATOM      1  O   UNL A   1      38.469  21.965  25.301  1.00  0.00    -0.374 OA
ENDROOT
BRANCH   1   2
ATOM      2  C   UNL A   1      37.407  21.291  24.631  1.00  0.00     0.202 C 
BRANCH   2   3
ATOM      3  C   UNL A   1      36.342  22.167  23.966  1.00  0.00     0.261 C 
BRANCH   3   4
ATOM      4  O   UNL A   1      35.968  23.271  24.804  1.00  0.00    -0.460 OA
BRANCH   4   5
ATOM      5  C   UNL A   1      34.884  23.047  25.584  1.00  0.00     0.338 C 
ATOM      6  O   UNL A   1      34.721  22.108  26.348  1.00  0.00    -0.246 OA
BRANCH   5   7
ATOM      7  C   UNL A   1      33.928  24.158  25.484  1.00  0.00     0.087 C 
ATOM      8  C   UNL A   1      31.441  27.228  24.128  1.00  0.00    -0.002 A 
ATOM      9  C   UNL A   1      31.703  28.545  24.539  1.00  0.00     0.054 A 
ATOM     10  C   UNL A   1      32.275  26.207  24.611  1.00  0.00     0.131 A 
ATOM     11  C   UNL A   1      32.788  28.840  25.373  1.00  0.00     0.130 A 
ATOM     12  C   UNL A   1      33.376  26.486  25.436  1.00  0.00     0.021 A 
ATOM     13  O   UNL A   1      32.013  24.930  24.178  1.00  0.00    -0.475 OA
ATOM     14  C   UNL A   1      33.616  27.805  25.825  1.00  0.00     0.058 A 
ATOM     15  C   UNL A   1      34.321  25.414  25.752  1.00  0.00     0.027 C 
ATOM     16  C   UNL A   1      32.513  23.877  25.037  1.00  0.00     0.316 C 
BRANCH   8  17
ATOM     17  C   UNL A   1      30.281  26.870  23.218  1.00  0.00     0.036 C 
ATOM     18  C   UNL A   1      28.918  26.705  23.879  1.00  0.00     0.009 C 
ENDBRANCH   8  17
BRANCH  11  19
ATOM     19  O   UNL A   1      33.149  30.084  25.810  1.00  0.00    -0.406 OA
BRANCH  19  20
ATOM     20  C   UNL A   1      32.831  30.429  27.150  1.00  0.00     0.573 C 
ATOM     21  F   UNL A   1      31.647  29.902  27.524  1.00  0.00    -0.132 F 
ATOM     22  F   UNL A   1      33.798  30.016  27.996  1.00  0.00    -0.132 F 
ATOM     23  F   UNL A   1      32.741  31.774  27.240  1.00  0.00    -0.132 F 
ENDBRANCH  19  20
ENDBRANCH  11  19
BRANCH  16  24
ATOM     24  C   UNL A   1      32.203  22.525  24.373  1.00  0.00     0.430 C 
ATOM     25  F   UNL A   1      31.950  21.571  25.300  1.00  0.00    -0.167 F 
ATOM     26  F   UNL A   1      31.070  22.624  23.626  1.00  0.00    -0.167 F 
ATOM     27  F   UNL A   1      33.180  22.095  23.552  1.00  0.00    -0.167 F 
ENDBRANCH  16  24
ENDBRANCH   5   7
ENDBRANCH   4   5
ENDBRANCH   3   4
ENDBRANCH   2   3
ENDBRANCH   1   2
BRANCH   1  28
ATOM     28  C   UNL A   1      39.280  21.211  26.201  1.00  0.00     0.202 C 
BRANCH  28  29
ATOM     29  C   UNL A   1      39.717  19.812  25.750  1.00  0.00     0.261 C 
BRANCH  29  30
ATOM     30  O   UNL A   1      40.703  19.236  26.626  1.00  0.00    -0.460 OA
BRANCH  30  31
ATOM     31  C   UNL A   1      41.968  19.245  26.146  1.00  0.00     0.338 C 
ATOM     32  O   UNL A   1      42.533  18.359  25.517  1.00  0.00    -0.246 OA
BRANCH  31  33
ATOM     33  C   UNL A   1      42.559  20.580  26.326  1.00  0.00     0.060 A 
ATOM     34  C   UNL A   1      42.640  21.094  27.628  1.00  0.00     0.016 A 
ATOM     35  C   UNL A   1      42.957  21.349  25.232  1.00  0.00     0.016 A 
ATOM     36  C   UNL A   1      43.087  22.397  27.839  1.00  0.00     0.010 A 
ATOM     37  C   UNL A   1      43.392  22.660  25.442  1.00  0.00     0.010 A 
ATOM     38  C   UNL A   1      43.431  23.199  26.742  1.00  0.00    -0.014 A 
BRANCH  38  39
ATOM     39  C   UNL A   1      43.695  24.643  26.932  1.00  0.00     0.031 A 
ATOM     40  C   UNL A   1      45.090  25.159  26.716  1.00  0.00     0.074 A 
ATOM     41  C   UNL A   1      42.709  25.481  27.298  1.00  0.00     0.049 A 
ATOM     42  N   UNL A   1      45.576  26.355  26.927  1.00  0.00    -0.248 NA
ATOM     43  C   UNL A   1      46.070  24.192  26.197  1.00  0.00     0.031 C 
ATOM     44  C   UNL A   1      41.311  25.105  27.490  1.00  0.00     0.029 A 
ATOM     45  N   UNL A   1      42.744  26.821  27.592  1.00  0.00    -0.354 N 
ATOM     46  C   UNL A   1      46.919  26.282  26.579  1.00  0.00     0.074 A 
ATOM     47  C   UNL A   1      47.177  24.919  26.165  1.00  0.00     0.031 C 
ATOM     48  C   UNL A   1      40.621  26.187  27.891  1.00  0.00     0.029 A 
ATOM     49  C   UNL A   1      41.539  27.318  28.020  1.00  0.00     0.049 A 
ATOM     50  H   UNL A   1      43.555  27.372  27.504  1.00  0.00     0.167 HD
ATOM     51  C   UNL A   1      47.849  27.266  26.598  1.00  0.00     0.037 A 
ATOM     52  C   UNL A   1      41.223  28.540  28.493  1.00  0.00     0.037 A 
ATOM     53  C   UNL A   1      47.584  28.620  27.007  1.00  0.00     0.049 A 
ATOM     54  C   UNL A   1      42.294  29.596  28.579  1.00  0.00     0.074 A 
ATOM     55  C   UNL A   1      48.454  29.695  27.047  1.00  0.00     0.029 A 
ATOM     56  N   UNL A   1      46.355  29.082  27.455  1.00  0.00    -0.354 N 
ATOM     57  N   UNL A   1      43.557  29.526  28.233  1.00  0.00    -0.248 NA
ATOM     58  C   UNL A   1      41.895  30.903  29.123  1.00  0.00     0.031 C 
ATOM     59  C   UNL A   1      47.763  30.795  27.566  1.00  0.00     0.029 A 
ATOM     60  C   UNL A   1      46.450  30.421  27.797  1.00  0.00     0.049 A 
ATOM     61  H   UNL A   1      45.537  28.538  27.519  1.00  0.00     0.167 HD
ATOM     62  C   UNL A   1      44.093  30.782  28.486  1.00  0.00     0.074 A 
ATOM     63  C   UNL A   1      43.017  31.598  29.008  1.00  0.00     0.031 C 
ATOM     64  C   UNL A   1      45.363  31.222  28.301  1.00  0.00     0.037 A 
BRANCH  51  65
ATOM     65  C   UNL A   1      49.246  26.908  26.189  1.00  0.00     0.064 A 
ATOM     66  C   UNL A   1      50.191  26.442  27.116  1.00  0.00     0.173 A 
ATOM     67  C   UNL A   1      49.636  26.997  24.844  1.00  0.00     0.173 A 
ATOM     68  F   UNL A   1      49.872  26.353  28.416  1.00  0.00    -0.203 F 
ATOM     69  C   UNL A   1      51.480  26.102  26.714  1.00  0.00     0.198 A 
ATOM     70  C   UNL A   1      50.917  26.628  24.442  1.00  0.00     0.198 A 
ATOM     71  F   UNL A   1      48.771  27.433  23.916  1.00  0.00    -0.203 F 
ATOM     72  F   UNL A   1      52.380  25.702  27.624  1.00  0.00    -0.200 F 
ATOM     73  C   UNL A   1      51.839  26.188  25.377  1.00  0.00     0.200 A 
ATOM     74  F   UNL A   1      51.259  26.701  23.148  1.00  0.00    -0.200 F 
ATOM     75  F   UNL A   1      53.078  25.852  24.993  1.00  0.00    -0.200 F 
ENDBRANCH  51  65
BRANCH  52  76
ATOM     76  C   UNL A   1      39.836  28.828  28.942  1.00  0.00     0.064 A 
ATOM     77  C   UNL A   1      39.439  28.581  30.263  1.00  0.00     0.173 A 
ATOM     78  C   UNL A   1      38.875  29.337  28.056  1.00  0.00     0.173 A 
ATOM     79  F   UNL A   1      40.314  28.071  31.140  1.00  0.00    -0.203 F 
ATOM     80  C   UNL A   1      38.128  28.815  30.676  1.00  0.00     0.198 A 
ATOM     81  C   UNL A   1      37.573  29.598  28.477  1.00  0.00     0.198 A 
ATOM     82  F   UNL A   1      39.203  29.590  26.780  1.00  0.00    -0.203 F 
ATOM     83  F   UNL A   1      37.762  28.526  31.932  1.00  0.00    -0.200 F 
ATOM     84  C   UNL A   1      37.198  29.329  29.785  1.00  0.00     0.200 A 
ATOM     85  F   UNL A   1      36.681  30.105  27.615  1.00  0.00    -0.200 F 
ATOM     86  F   UNL A   1      35.938  29.555  30.183  1.00  0.00    -0.200 F 
ENDBRANCH  52  76
BRANCH  64  87
ATOM     87  C   UNL A   1      45.653  32.660  28.617  1.00  0.00     0.064 A 
ATOM     88  C   UNL A   1      46.138  33.056  29.870  1.00  0.00     0.173 A 
ATOM     89  C   UNL A   1      45.497  33.646  27.629  1.00  0.00     0.173 A 
ATOM     90  F   UNL A   1      46.290  32.154  30.852  1.00  0.00    -0.203 F 
ATOM     91  C   UNL A   1      46.440  34.391  30.131  1.00  0.00     0.198 A 
ATOM     92  C   UNL A   1      45.828  34.974  27.884  1.00  0.00     0.198 A 
ATOM     93  F   UNL A   1      45.043  33.317  26.411  1.00  0.00    -0.203 F 
ATOM     94  F   UNL A   1      46.866  34.754  31.349  1.00  0.00    -0.200 F 
ATOM     95  C   UNL A   1      46.294  35.346  29.136  1.00  0.00     0.200 A 
ATOM     96  F   UNL A   1      45.700  35.892  26.916  1.00  0.00    -0.200 F 
ATOM     97  F   UNL A   1      46.597  36.627  29.384  1.00  0.00    -0.200 F 
ENDBRANCH  64  87
ENDBRANCH  38  39
ENDBRANCH  31  33
ENDBRANCH  30  31
ENDBRANCH  29  30
ENDBRANCH  28  29
ENDBRANCH   1  28
TORSDOF 18
ENDMDL
MODEL 3
REMARK VINA RESULT:     -11.0      5.013     10.880
REMARK SMILES CCc1cc(OC(F)(F)F)cc2c1O[C@@H](C(F)(F)F)C(C(=O)OCCOCCOC(=O)c1ccc(-c3c4nc(c(-c5c(F)c(F)c(F)c(F)c5F)c5ccc([nH]5)c(-c5c(F)c(F)c(F)c(F)c5F)c5nc(c(-c6c(F)c(F)c(F)c(F)c6F)c6ccc3[nH]6)C=C5)C=C4)cc1)=C2
REMARK SMILES IDX 26 1 25 2 24 3 23 4 21 5 22 6 20 7 3 8 4 9 13 10 5 11 12 12
REMARK SMILES IDX 14 13 11 14 95 15 15 16 2 17 1 18 6 19 7 20 8 21 9 22 10 23
REMARK SMILES IDX 16 24 17 25 18 26 19 27 27 28 28 29 29 30 30 31 31 32 32 33
REMARK SMILES IDX 33 34 94 35 34 36 93 37 35 38 36 39 37 40 87 41 38 42 92 43
REMARK SMILES IDX 86 44 88 45 39 46 91 47 85 48 84 49 40 51 72 52 52 53 71 54
REMARK SMILES IDX 53 55 56 56 70 57 89 58 54 59 55 60 69 62 90 63 57 64 41 65
REMARK SMILES IDX 42 66 50 67 43 68 44 69 48 70 51 71 45 72 46 73 49 74 47 75
REMARK SMILES IDX 73 76 74 77 82 78 75 79 76 80 80 81 83 82 77 83 78 84 81 85
REMARK SMILES IDX 79 86 58 87 59 88 67 89 60 90 61 91 65 92 68 93 62 94 63 95
REMARK SMILES IDX 66 96 64 97
REMARK H PARENT 88 50 56 61
REMARK Flexibility Score: inf
ROOT
ATOM      1  O   UNL A   1      37.775  19.935  24.589  1.00  0.00    -0.374 OA
ENDROOT
BRANCH   1   2
ATOM      2  C   UNL A   1      37.225  21.156  25.077  1.00  0.00     0.202 C 
BRANCH   2   3
ATOM      3  C   UNL A   1      35.704  21.309  25.002  1.00  0.00     0.261 C 
BRANCH   3   4
ATOM      4  O   UNL A   1      35.294  22.656  25.281  1.00  0.00    -0.460 OA
BRANCH   4   5
ATOM      5  C   UNL A   1      34.151  22.762  25.999  1.00  0.00     0.338 C 
ATOM      6  O   UNL A   1      33.762  21.991  26.864  1.00  0.00    -0.246 OA
BRANCH   5   7
ATOM      7  C   UNL A   1      33.448  24.013  25.684  1.00  0.00     0.087 C 
ATOM      8  C   UNL A   1      31.973  27.453  23.828  1.00  0.00    -0.002 A 
ATOM      9  C   UNL A   1      32.299  28.707  24.368  1.00  0.00     0.054 A 
ATOM     10  C   UNL A   1      32.460  26.307  24.479  1.00  0.00     0.131 A 
ATOM     11  C   UNL A   1      33.119  28.818  25.497  1.00  0.00     0.130 A 
ATOM     12  C   UNL A   1      33.297  26.400  25.602  1.00  0.00     0.021 A 
ATOM     13  O   UNL A   1      32.147  25.092  23.920  1.00  0.00    -0.475 OA
ATOM     14  C   UNL A   1      33.609  27.660  26.114  1.00  0.00     0.058 A 
ATOM     15  C   UNL A   1      33.931  25.187  26.122  1.00  0.00     0.027 C 
ATOM     16  C   UNL A   1      32.203  23.967  24.830  1.00  0.00     0.316 C 
BRANCH   8  17
ATOM     17  C   UNL A   1      31.093  27.292  22.603  1.00  0.00     0.036 C 
ATOM     18  C   UNL A   1      29.970  28.305  22.428  1.00  0.00     0.009 C 
ENDBRANCH   8  17
BRANCH  11  19
ATOM     19  O   UNL A   1      33.521  29.984  26.085  1.00  0.00    -0.406 OA
BRANCH  19  20
ATOM     20  C   UNL A   1      32.617  30.615  26.980  1.00  0.00     0.573 C 
ATOM     21  F   UNL A   1      31.852  29.709  27.625  1.00  0.00    -0.132 F 
ATOM     22  F   UNL A   1      33.280  31.371  27.882  1.00  0.00    -0.132 F 
ATOM     23  F   UNL A   1      31.801  31.426  26.272  1.00  0.00    -0.132 F 
ENDBRANCH  19  20
ENDBRANCH  11  19
BRANCH  16  24
ATOM     24  C   UNL A   1      31.901  22.687  24.033  1.00  0.00     0.430 C 
ATOM     25  F   UNL A   1      31.441  21.703  24.842  1.00  0.00    -0.167 F 
ATOM     26  F   UNL A   1      30.907  22.923  23.135  1.00  0.00    -0.167 F 
ATOM     27  F   UNL A   1      32.959  22.227  23.338  1.00  0.00    -0.167 F 
ENDBRANCH  16  24
ENDBRANCH   5   7
ENDBRANCH   4   5
ENDBRANCH   3   4
ENDBRANCH   2   3
ENDBRANCH   1   2
BRANCH   1  28
ATOM     28  C   UNL A   1      38.647  19.201  25.448  1.00  0.00     0.202 C 
BRANCH  28  29
ATOM     29  C   UNL A   1      40.016  19.819  25.754  1.00  0.00     0.261 C 
BRANCH  29  30
ATOM     30  O   UNL A   1      41.100  18.907  25.498  1.00  0.00    -0.460 OA
BRANCH  30  31
ATOM     31  C   UNL A   1      42.193  19.088  26.275  1.00  0.00     0.338 C 
ATOM     32  O   UNL A   1      43.029  18.251  26.591  1.00  0.00    -0.246 OA
BRANCH  31  33
ATOM     33  C   UNL A   1      42.364  20.519  26.570  1.00  0.00     0.060 A 
ATOM     34  C   UNL A   1      42.615  21.386  25.497  1.00  0.00     0.016 A 
ATOM     35  C   UNL A   1      42.357  20.994  27.882  1.00  0.00     0.016 A 
ATOM     36  C   UNL A   1      42.895  22.730  25.735  1.00  0.00     0.010 A 
ATOM     37  C   UNL A   1      42.652  22.338  28.121  1.00  0.00     0.010 A 
ATOM     38  C   UNL A   1      42.951  23.204  27.052  1.00  0.00    -0.014 A 
BRANCH  38  39
ATOM     39  C   UNL A   1      43.460  24.567  27.330  1.00  0.00     0.031 A 
ATOM     40  C   UNL A   1      42.507  25.603  27.858  1.00  0.00     0.074 A 
ATOM     41  C   UNL A   1      44.749  24.879  27.108  1.00  0.00     0.049 A 
ATOM     42  N   UNL A   1      42.701  26.879  28.070  1.00  0.00    -0.248 NA
ATOM     43  C   UNL A   1      41.152  25.135  28.185  1.00  0.00     0.031 C 
ATOM     44  C   UNL A   1      45.774  23.948  26.644  1.00  0.00     0.029 A 
ATOM     45  N   UNL A   1      45.408  26.077  27.229  1.00  0.00    -0.354 N 
ATOM     46  C   UNL A   1      41.490  27.368  28.543  1.00  0.00     0.074 A 
ATOM     47  C   UNL A   1      40.562  26.259  28.565  1.00  0.00     0.031 C 
ATOM     48  C   UNL A   1      46.932  24.614  26.498  1.00  0.00     0.029 A 
ATOM     49  C   UNL A   1      46.717  26.024  26.822  1.00  0.00     0.049 A 
ATOM     50  H   UNL A   1      44.983  26.895  27.574  1.00  0.00     0.167 HD
ATOM     51  C   UNL A   1      41.185  28.630  28.929  1.00  0.00     0.037 A 
ATOM     52  C   UNL A   1      47.626  27.010  26.694  1.00  0.00     0.037 A 
ATOM     53  C   UNL A   1      42.114  29.729  28.907  1.00  0.00     0.049 A 
ATOM     54  C   UNL A   1      47.239  28.420  27.055  1.00  0.00     0.074 A 
ATOM     55  C   UNL A   1      41.907  31.042  29.292  1.00  0.00     0.029 A 
ATOM     56  N   UNL A   1      43.427  29.642  28.467  1.00  0.00    -0.354 N 
ATOM     57  N   UNL A   1      46.099  28.875  27.517  1.00  0.00    -0.248 NA
ATOM     58  C   UNL A   1      48.267  29.458  26.875  1.00  0.00     0.031 C 
ATOM     59  C   UNL A   1      43.081  31.759  29.039  1.00  0.00     0.029 A 
ATOM     60  C   UNL A   1      44.035  30.884  28.549  1.00  0.00     0.049 A 
ATOM     61  H   UNL A   1      43.861  28.819  28.146  1.00  0.00     0.167 HD
ATOM     62  C   UNL A   1      46.281  30.238  27.713  1.00  0.00     0.074 A 
ATOM     63  C   UNL A   1      47.644  30.537  27.326  1.00  0.00     0.031 C 
ATOM     64  C   UNL A   1      45.399  31.159  28.174  1.00  0.00     0.037 A 
BRANCH  51  65
ATOM     65  C   UNL A   1      39.781  28.897  29.383  1.00  0.00     0.064 A 
ATOM     66  C   UNL A   1      38.780  29.304  28.488  1.00  0.00     0.173 A 
ATOM     67  C   UNL A   1      39.422  28.707  30.726  1.00  0.00     0.173 A 
ATOM     68  F   UNL A   1      39.075  29.514  27.196  1.00  0.00    -0.203 F 
ATOM     69  C   UNL A   1      37.478  29.533  28.927  1.00  0.00     0.198 A 
ATOM     70  C   UNL A   1      38.113  28.909  31.154  1.00  0.00     0.198 A 
ATOM     71  F   UNL A   1      40.339  28.314  31.622  1.00  0.00    -0.203 F 
ATOM     72  F   UNL A   1      36.548  29.965  28.062  1.00  0.00    -0.200 F 
ATOM     73  C   UNL A   1      37.144  29.328  30.257  1.00  0.00     0.200 A 
ATOM     74  F   UNL A   1      37.789  28.699  32.438  1.00  0.00    -0.200 F 
ATOM     75  F   UNL A   1      35.889  29.542  30.674  1.00  0.00    -0.200 F 
ENDBRANCH  51  65
BRANCH  52  76
ATOM     76  C   UNL A   1      48.988  26.704  26.183  1.00  0.00     0.064 A 
ATOM     77  C   UNL A   1      49.310  26.888  24.831  1.00  0.00     0.173 A 
ATOM     78  C   UNL A   1      49.989  26.206  27.030  1.00  0.00     0.173 A 
ATOM     79  F   UNL A   1      48.380  27.338  23.977  1.00  0.00    -0.203 F 
ATOM     80  C   UNL A   1      50.575  26.566  24.343  1.00  0.00     0.198 A 
ATOM     81  C   UNL A   1      51.262  25.912  26.547  1.00  0.00     0.198 A 
ATOM     82  F   UNL A   1      49.732  26.011  28.332  1.00  0.00    -0.203 F 
ATOM     83  F   UNL A   1      50.842  26.706  23.037  1.00  0.00    -0.200 F 
ATOM     84  C   UNL A   1      51.552  26.084  25.201  1.00  0.00     0.200 A 
ATOM     85  F   UNL A   1      52.205  25.457  27.382  1.00  0.00    -0.200 F 
ATOM     86  F   UNL A   1      52.768  25.777  24.731  1.00  0.00    -0.200 F 
ENDBRANCH  52  76
BRANCH  64  87
ATOM     87  C   UNL A   1      45.889  32.570  28.333  1.00  0.00     0.064 A 
ATOM     88  C   UNL A   1      46.501  33.008  29.515  1.00  0.00     0.173 A 
ATOM     89  C   UNL A   1      45.794  33.476  27.265  1.00  0.00     0.173 A 
ATOM     90  F   UNL A   1      46.602  32.185  30.569  1.00  0.00    -0.203 F 
ATOM     91  C   UNL A   1      46.987  34.309  29.628  1.00  0.00     0.198 A 
ATOM     92  C   UNL A   1      46.306  34.765  27.371  1.00  0.00     0.198 A 
ATOM     93  F   UNL A   1      45.222  33.102  26.111  1.00  0.00    -0.203 F 
ATOM     94  F   UNL A   1      47.534  34.720  30.780  1.00  0.00    -0.200 F 
ATOM     95  C   UNL A   1      46.897  35.182  28.555  1.00  0.00     0.200 A 
ATOM     96  F   UNL A   1      46.231  35.602  26.328  1.00  0.00    -0.200 F 
ATOM     97  F   UNL A   1      47.375  36.430  28.661  1.00  0.00    -0.200 F 
ENDBRANCH  64  87
ENDBRANCH  38  39
ENDBRANCH  31  33
ENDBRANCH  30  31
ENDBRANCH  29  30
ENDBRANCH  28  29
ENDBRANCH   1  28
TORSDOF 18
ENDMDL
