MODEL 1
REMARK VINA RESULT:     -11.0      0.000      0.000
REMARK SMILES O=C(OCCOCCOC(=O)c1ccc(COc2cccc(Cl)c2Cl)o1)c1ccc(-c2c3nc(c(-c4c(F)c(F)c(F)c(F)c4F)c4ccc([nH]4)c(-c4c(F)c(F)c(F)c(F)c4F)c4nc(c(-c5c(F)c(F)c(F)c(F)c5F)c5ccc2[nH]5)C=C4)C=C3)cc1
REMARK SMILES IDX 7 1 6 2 5 3 4 4 3 5 2 6 1 7 27 8 28 9 89 10 29 11 88 12
REMARK SMILES IDX 30 13 31 14 32 15 82 16 33 17 87 18 81 19 83 20 34 21 86 22
REMARK SMILES IDX 80 23 79 24 35 26 67 27 47 28 66 29 48 30 51 31 65 32 84 33
REMARK SMILES IDX 49 34 50 35 64 37 85 38 52 39 36 40 37 41 45 42 38 43 39 44
REMARK SMILES IDX 43 45 46 46 40 47 41 48 44 49 42 50 68 51 69 52 77 53 70 54
REMARK SMILES IDX 71 55 75 56 78 57 72 58 73 59 76 60 74 61 53 62 54 63 62 64
REMARK SMILES IDX 55 65 56 66 60 67 63 68 57 69 58 70 61 71 59 72 8 73 9 74
REMARK SMILES IDX 10 75 11 76 12 77 13 78 26 79 14 80 15 81 16 82 17 83 18 84
REMARK SMILES IDX 19 85 24 86 20 87 22 88 25 89 21 90 23 91
REMARK H PARENT 83 25 51 36
REMARK Flexibility Score: inf
ROOT
ATOM      1  C   UNL A   1      33.148  20.902  24.654  1.00  0.00     0.202 C 
ENDROOT
BRANCH   1   2
ATOM      2  O   UNL A   1      34.307  20.986  25.495  1.00  0.00    -0.374 OA
BRANCH   2   3
ATOM      3  C   UNL A   1      35.498  21.429  24.837  1.00  0.00     0.202 C 
BRANCH   3   4
ATOM      4  C   UNL A   1      36.705  20.552  25.179  1.00  0.00     0.261 C 
BRANCH   4   5
ATOM      5  O   UNL A   1      37.902  21.353  25.207  1.00  0.00    -0.460 OA
BRANCH   5   6
ATOM      6  C   UNL A   1      38.900  21.338  26.121  1.00  0.00     0.338 C 
ATOM      7  O   UNL A   1      39.361  20.254  26.476  1.00  0.00    -0.246 OA
BRANCH   6   8
ATOM      8  C   UNL A   1      39.553  22.572  26.649  1.00  0.00     0.060 A 
ATOM      9  C   UNL A   1      40.626  22.599  27.542  1.00  0.00     0.016 A 
ATOM     10  C   UNL A   1      39.118  23.792  26.101  1.00  0.00     0.016 A 
ATOM     11  C   UNL A   1      41.196  23.814  27.944  1.00  0.00     0.010 A 
ATOM     12  C   UNL A   1      39.718  25.005  26.461  1.00  0.00     0.010 A 
ATOM     13  C   UNL A   1      40.751  25.027  27.403  1.00  0.00    -0.014 A 
BRANCH  13  14
ATOM     14  C   UNL A   1      41.376  26.306  27.818  1.00  0.00     0.031 A 
ATOM     15  C   UNL A   1      42.794  26.617  27.436  1.00  0.00     0.074 A 
ATOM     16  C   UNL A   1      40.663  27.206  28.520  1.00  0.00     0.049 A 
ATOM     17  N   UNL A   1      43.497  27.696  27.675  1.00  0.00    -0.248 NA
ATOM     18  C   UNL A   1      43.518  25.579  26.688  1.00  0.00     0.031 C 
ATOM     19  C   UNL A   1      39.279  27.031  28.959  1.00  0.00     0.029 A 
ATOM     20  N   UNL A   1      41.003  28.458  28.969  1.00  0.00    -0.354 N 
ATOM     21  C   UNL A   1      44.742  27.468  27.107  1.00  0.00     0.074 A 
ATOM     22  C   UNL A   1      44.710  26.141  26.532  1.00  0.00     0.031 C 
ATOM     23  C   UNL A   1      38.874  28.152  29.579  1.00  0.00     0.029 A 
ATOM     24  C   UNL A   1      39.972  29.115  29.591  1.00  0.00     0.049 A 
ATOM     25  H   UNL A   1      41.900  28.847  28.854  1.00  0.00     0.167 HD
ATOM     26  C   UNL A   1      45.813  28.295  27.057  1.00  0.00     0.037 A 
ATOM     27  C   UNL A   1      39.914  30.360  30.097  1.00  0.00     0.037 A 
ATOM     28  C   UNL A   1      45.862  29.620  27.611  1.00  0.00     0.049 A 
ATOM     29  C   UNL A   1      41.116  31.255  30.034  1.00  0.00     0.074 A 
ATOM     30  C   UNL A   1      46.914  30.519  27.616  1.00  0.00     0.029 A 
ATOM     31  N   UNL A   1      44.803  30.239  28.254  1.00  0.00    -0.354 N 
ATOM     32  N   UNL A   1      42.289  31.024  29.501  1.00  0.00    -0.248 NA
ATOM     33  C   UNL A   1      40.985  32.584  30.650  1.00  0.00     0.031 C 
ATOM     34  C   UNL A   1      46.491  31.687  28.261  1.00  0.00     0.029 A 
ATOM     35  C   UNL A   1      45.175  31.511  28.657  1.00  0.00     0.049 A 
ATOM     36  H   UNL A   1      43.917  29.835  28.403  1.00  0.00     0.167 HD
ATOM     37  C   UNL A   1      43.033  32.175  29.709  1.00  0.00     0.074 A 
ATOM     38  C   UNL A   1      42.180  33.109  30.413  1.00  0.00     0.031 C 
ATOM     39  C   UNL A   1      44.314  32.430  29.349  1.00  0.00     0.037 A 
BRANCH  26  40
ATOM     40  C   UNL A   1      47.025  27.780  26.353  1.00  0.00     0.064 A 
ATOM     41  C   UNL A   1      47.117  27.825  24.955  1.00  0.00     0.173 A 
ATOM     42  C   UNL A   1      48.100  27.245  27.075  1.00  0.00     0.173 A 
ATOM     43  F   UNL A   1      46.102  28.314  24.228  1.00  0.00    -0.203 F 
ATOM     44  C   UNL A   1      48.245  27.342  24.301  1.00  0.00     0.198 A 
ATOM     45  C   UNL A   1      49.230  26.767  26.417  1.00  0.00     0.198 A 
ATOM     46  F   UNL A   1      48.047  27.174  28.413  1.00  0.00    -0.203 F 
ATOM     47  F   UNL A   1      48.306  27.373  22.962  1.00  0.00    -0.200 F 
ATOM     48  C   UNL A   1      49.300  26.815  25.032  1.00  0.00     0.200 A 
ATOM     49  F   UNL A   1      50.246  26.250  27.122  1.00  0.00    -0.200 F 
ATOM     50  F   UNL A   1      50.383  26.342  24.399  1.00  0.00    -0.200 F 
ENDBRANCH  26  40
BRANCH  27  51
ATOM     51  C   UNL A   1      38.641  30.853  30.668  1.00  0.00     0.064 A 
ATOM     52  C   UNL A   1      38.417  30.799  32.050  1.00  0.00     0.173 A 
ATOM     53  C   UNL A   1      37.640  31.397  29.854  1.00  0.00     0.173 A 
ATOM     54  F   UNL A   1      39.345  30.265  32.858  1.00  0.00    -0.203 F 
ATOM     55  C   UNL A   1      37.231  31.274  32.601  1.00  0.00     0.198 A 
ATOM     56  C   UNL A   1      36.457  31.878  30.407  1.00  0.00     0.198 A 
ATOM     57  F   UNL A   1      37.815  31.459  28.526  1.00  0.00    -0.203 F 
ATOM     58  F   UNL A   1      37.033  31.201  33.924  1.00  0.00    -0.200 F 
ATOM     59  C   UNL A   1      36.254  31.817  31.779  1.00  0.00     0.200 A 
ATOM     60  F   UNL A   1      35.512  32.399  29.613  1.00  0.00    -0.200 F 
ATOM     61  F   UNL A   1      35.111  32.275  32.309  1.00  0.00    -0.200 F 
ENDBRANCH  27  51
BRANCH  39  62
ATOM     62  C   UNL A   1      44.866  33.771  29.708  1.00  0.00     0.064 A 
ATOM     63  C   UNL A   1      44.722  34.861  28.839  1.00  0.00     0.173 A 
ATOM     64  C   UNL A   1      45.506  33.977  30.936  1.00  0.00     0.173 A 
ATOM     65  F   UNL A   1      44.127  34.701  27.647  1.00  0.00    -0.203 F 
ATOM     66  C   UNL A   1      45.207  36.118  29.189  1.00  0.00     0.198 A 
ATOM     67  C   UNL A   1      45.986  35.236  31.285  1.00  0.00     0.198 A 
ATOM     68  F   UNL A   1      45.669  32.959  31.794  1.00  0.00    -0.203 F 
ATOM     69  F   UNL A   1      45.072  37.146  28.340  1.00  0.00    -0.200 F 
ATOM     70  C   UNL A   1      45.835  36.304  30.412  1.00  0.00     0.200 A 
ATOM     71  F   UNL A   1      46.598  35.417  32.464  1.00  0.00    -0.200 F 
ATOM     72  F   UNL A   1      46.303  37.515  30.746  1.00  0.00    -0.200 F 
ENDBRANCH  39  62
ENDBRANCH  13  14
ENDBRANCH   6   8
ENDBRANCH   5   6
ENDBRANCH   4   5
ENDBRANCH   3   4
ENDBRANCH   2   3
ENDBRANCH   1   2
BRANCH   1  73
ATOM     73  C   UNL A   1      31.933  21.503  25.368  1.00  0.00     0.261 C 
BRANCH  73  74
ATOM     74  O   UNL A   1      32.392  22.315  26.461  1.00  0.00    -0.457 OA
BRANCH  74  75
ATOM     75  C   UNL A   1      31.751  23.516  26.584  1.00  0.00     0.374 C 
ATOM     76  O   UNL A   1      30.743  23.712  27.252  1.00  0.00    -0.242 OA
BRANCH  75  77
ATOM     77  C   UNL A   1      32.525  24.522  25.901  1.00  0.00     0.211 A 
ATOM     78  C   UNL A   1      33.885  24.721  25.751  1.00  0.00     0.058 A 
ATOM     79  O   UNL A   1      31.853  25.569  25.337  1.00  0.00    -0.450 OA
ATOM     80  C   UNL A   1      34.045  25.944  25.054  1.00  0.00     0.050 A 
ATOM     81  C   UNL A   1      32.775  26.436  24.831  1.00  0.00     0.142 A 
BRANCH  81  82
ATOM     82  C   UNL A   1      32.277  27.691  24.196  1.00  0.00     0.304 C 
BRANCH  82  83
ATOM     83  O   UNL A   1      31.560  27.394  22.986  1.00  0.00    -0.484 OA
BRANCH  83  84
ATOM     84  C   UNL A   1      30.441  28.175  22.833  1.00  0.00     0.140 A 
ATOM     85  C   UNL A   1      30.617  29.398  22.179  1.00  0.00     0.048 A 
ATOM     86  C   UNL A   1      29.163  27.753  23.224  1.00  0.00     0.101 A 
ATOM     87  C   UNL A   1      29.529  30.241  21.969  1.00  0.00     0.005 A 
ATOM     88  C   UNL A   1      28.073  28.612  23.017  1.00  0.00     0.063 A 
ATOM     89  Cl  UNL A   1      28.944  26.181  23.921  1.00  0.00    -0.079 Cl
ATOM     90  C   UNL A   1      28.260  29.855  22.397  1.00  0.00     0.022 A 
ATOM     91  Cl  UNL A   1      26.465  28.203  23.502  1.00  0.00    -0.083 Cl
ENDBRANCH  83  84
ENDBRANCH  82  83
ENDBRANCH  81  82
ENDBRANCH  75  77
ENDBRANCH  74  75
ENDBRANCH  73  74
ENDBRANCH   1  73
TORSDOF 17
ENDMDL
MODEL 2
REMARK VINA RESULT:     -10.9      4.267      9.707
REMARK SMILES O=C(OCCOCCOC(=O)c1ccc(COc2cccc(Cl)c2Cl)o1)c1ccc(-c2c3nc(c(-c4c(F)c(F)c(F)c(F)c4F)c4ccc([nH]4)c(-c4c(F)c(F)c(F)c(F)c4F)c4nc(c(-c5c(F)c(F)c(F)c(F)c5F)c5ccc2[nH]5)C=C4)C=C3)cc1
REMARK SMILES IDX 7 1 6 2 5 3 4 4 3 5 2 6 1 7 27 8 28 9 89 10 29 11 88 12
REMARK SMILES IDX 30 13 31 14 32 15 82 16 33 17 87 18 81 19 83 20 34 21 86 22
REMARK SMILES IDX 80 23 79 24 35 26 67 27 47 28 66 29 48 30 51 31 65 32 84 33
REMARK SMILES IDX 49 34 50 35 64 37 85 38 52 39 36 40 37 41 45 42 38 43 39 44
REMARK SMILES IDX 43 45 46 46 40 47 41 48 44 49 42 50 68 51 69 52 77 53 70 54
REMARK SMILES IDX 71 55 75 56 78 57 72 58 73 59 76 60 74 61 53 62 54 63 62 64
REMARK SMILES IDX 55 65 56 66 60 67 63 68 57 69 58 70 61 71 59 72 8 73 9 74
REMARK SMILES IDX 10 75 11 76 12 77 13 78 26 79 14 80 15 81 16 82 17 83 18 84
REMARK SMILES IDX 19 85 24 86 20 87 22 88 25 89 21 90 23 91
REMARK H PARENT 83 25 51 36
REMARK Flexibility Score: inf
ROOT
ATOM      1  C   UNL A   1      33.407  27.633  25.392  1.00  0.00     0.202 C 
ENDROOT
BRANCH   1   2
ATOM      2  O   UNL A   1      32.259  28.284  25.952  1.00  0.00    -0.374 OA
BRANCH   2   3
ATOM      3  C   UNL A   1      31.564  29.158  25.056  1.00  0.00     0.202 C 
BRANCH   3   4
ATOM      4  C   UNL A   1      31.521  30.598  25.574  1.00  0.00     0.261 C 
BRANCH   4   5
ATOM      5  O   UNL A   1      32.177  30.681  26.854  1.00  0.00    -0.460 OA
BRANCH   5   6
ATOM      6  C   UNL A   1      33.161  31.526  27.238  1.00  0.00     0.338 C 
ATOM      7  O   UNL A   1      33.000  32.735  27.074  1.00  0.00    -0.246 OA
BRANCH   6   8
ATOM      8  C   UNL A   1      34.394  31.085  27.954  1.00  0.00     0.060 A 
ATOM      9  C   UNL A   1      34.664  29.779  28.367  1.00  0.00     0.016 A 
ATOM     10  C   UNL A   1      35.404  32.051  28.111  1.00  0.00     0.016 A 
ATOM     11  C   UNL A   1      35.876  29.460  28.995  1.00  0.00     0.010 A 
ATOM     12  C   UNL A   1      36.635  31.726  28.692  1.00  0.00     0.010 A 
ATOM     13  C   UNL A   1      36.873  30.429  29.159  1.00  0.00    -0.014 A 
BRANCH  13  14
ATOM     14  C   UNL A   1      38.160  30.076  29.805  1.00  0.00     0.031 A 
ATOM     15  C   UNL A   1      38.497  30.605  31.168  1.00  0.00     0.074 A 
ATOM     16  C   UNL A   1      39.023  29.254  29.179  1.00  0.00     0.049 A 
ATOM     17  N   UNL A   1      39.554  30.377  31.907  1.00  0.00    -0.248 NA
ATOM     18  C   UNL A   1      37.518  31.514  31.783  1.00  0.00     0.031 C 
ATOM     19  C   UNL A   1      38.823  28.670  27.853  1.00  0.00     0.029 A 
ATOM     20  N   UNL A   1      40.233  28.752  29.588  1.00  0.00    -0.354 N 
ATOM     21  C   UNL A   1      39.368  31.108  33.070  1.00  0.00     0.074 A 
ATOM     22  C   UNL A   1      38.109  31.808  32.933  1.00  0.00     0.031 C 
ATOM     23  C   UNL A   1      39.856  27.856  27.574  1.00  0.00     0.029 A 
ATOM     24  C   UNL A   1      40.792  27.874  28.695  1.00  0.00     0.049 A 
ATOM     25  H   UNL A   1      40.659  28.999  30.440  1.00  0.00     0.167 HD
ATOM     26  C   UNL A   1      40.166  31.181  34.161  1.00  0.00     0.037 A 
ATOM     27  C   UNL A   1      41.923  27.150  28.779  1.00  0.00     0.037 A 
ATOM     28  C   UNL A   1      41.413  30.485  34.322  1.00  0.00     0.049 A 
ATOM     29  C   UNL A   1      42.794  27.252  29.996  1.00  0.00     0.074 A 
ATOM     30  C   UNL A   1      42.291  30.516  35.391  1.00  0.00     0.029 A 
ATOM     31  N   UNL A   1      41.955  29.624  33.383  1.00  0.00    -0.354 N 
ATOM     32  N   UNL A   1      42.609  27.955  31.085  1.00  0.00    -0.248 NA
ATOM     33  C   UNL A   1      44.035  26.464  29.991  1.00  0.00     0.031 C 
ATOM     34  C   UNL A   1      43.366  29.668  35.100  1.00  0.00     0.029 A 
ATOM     35  C   UNL A   1      43.154  29.111  33.850  1.00  0.00     0.049 A 
ATOM     36  H   UNL A   1      41.548  29.406  32.513  1.00  0.00     0.167 HD
ATOM     37  C   UNL A   1      43.701  27.689  31.897  1.00  0.00     0.074 A 
ATOM     38  C   UNL A   1      44.546  26.758  31.180  1.00  0.00     0.031 C 
ATOM     39  C   UNL A   1      43.978  28.182  33.128  1.00  0.00     0.037 A 
BRANCH  26  40
ATOM     40  C   UNL A   1      39.690  32.045  35.283  1.00  0.00     0.064 A 
ATOM     41  C   UNL A   1      38.790  31.551  36.236  1.00  0.00     0.173 A 
ATOM     42  C   UNL A   1      40.139  33.366  35.410  1.00  0.00     0.173 A 
ATOM     43  F   UNL A   1      38.323  30.298  36.139  1.00  0.00    -0.203 F 
ATOM     44  C   UNL A   1      38.345  32.358  37.279  1.00  0.00     0.198 A 
ATOM     45  C   UNL A   1      39.697  34.168  36.458  1.00  0.00     0.198 A 
ATOM     46  F   UNL A   1      40.994  33.879  34.514  1.00  0.00    -0.203 F 
ATOM     47  F   UNL A   1      37.466  31.876  38.169  1.00  0.00    -0.200 F 
ATOM     48  C   UNL A   1      38.800  33.664  37.389  1.00  0.00     0.200 A 
ATOM     49  F   UNL A   1      40.130  35.433  36.561  1.00  0.00    -0.200 F 
ATOM     50  F   UNL A   1      38.364  34.443  38.390  1.00  0.00    -0.200 F 
ENDBRANCH  26  40
BRANCH  27  51
ATOM     51  C   UNL A   1      42.271  26.217  27.684  1.00  0.00     0.064 A 
ATOM     52  C   UNL A   1      43.232  26.573  26.729  1.00  0.00     0.173 A 
ATOM     53  C   UNL A   1      41.668  24.958  27.583  1.00  0.00     0.173 A 
ATOM     54  F   UNL A   1      43.815  27.781  26.784  1.00  0.00    -0.203 F 
ATOM     55  C   UNL A   1      43.579  25.699  25.705  1.00  0.00     0.198 A 
ATOM     56  C   UNL A   1      42.022  24.081  26.561  1.00  0.00     0.198 A 
ATOM     57  F   UNL A   1      40.740  24.583  28.474  1.00  0.00    -0.203 F 
ATOM     58  F   UNL A   1      44.492  26.065  24.794  1.00  0.00    -0.200 F 
ATOM     59  C   UNL A   1      42.977  24.451  25.624  1.00  0.00     0.200 A 
ATOM     60  F   UNL A   1      41.438  22.877  26.482  1.00  0.00    -0.200 F 
ATOM     61  F   UNL A   1      43.311  23.608  24.637  1.00  0.00    -0.200 F 
ENDBRANCH  27  51
BRANCH  39  62
ATOM     62  C   UNL A   1      45.242  27.719  33.775  1.00  0.00     0.064 A 
ATOM     63  C   UNL A   1      46.437  28.433  33.608  1.00  0.00     0.173 A 
ATOM     64  C   UNL A   1      45.254  26.582  34.593  1.00  0.00     0.173 A 
ATOM     65  F   UNL A   1      46.470  29.519  32.821  1.00  0.00    -0.203 F 
ATOM     66  C   UNL A   1      47.606  28.019  34.239  1.00  0.00     0.198 A 
ATOM     67  C   UNL A   1      46.425  26.174  35.227  1.00  0.00     0.198 A 
ATOM     68  F   UNL A   1      44.134  25.867  34.775  1.00  0.00    -0.203 F 
ATOM     69  F   UNL A   1      48.742  28.707  34.057  1.00  0.00    -0.200 F 
ATOM     70  C   UNL A   1      47.598  26.893  35.049  1.00  0.00     0.200 A 
ATOM     71  F   UNL A   1      46.419  25.083  36.005  1.00  0.00    -0.200 F 
ATOM     72  F   UNL A   1      48.726  26.495  35.655  1.00  0.00    -0.200 F 
ENDBRANCH  39  62
ENDBRANCH  13  14
ENDBRANCH   6   8
ENDBRANCH   5   6
ENDBRANCH   4   5
ENDBRANCH   3   4
ENDBRANCH   2   3
ENDBRANCH   1   2
BRANCH   1  73
ATOM     73  C   UNL A   1      33.284  27.568  23.866  1.00  0.00     0.261 C 
BRANCH  73  74
ATOM     74  O   UNL A   1      33.974  26.400  23.394  1.00  0.00    -0.457 OA
BRANCH  74  75
ATOM     75  C   UNL A   1      33.361  25.762  22.352  1.00  0.00     0.374 C 
ATOM     76  O   UNL A   1      33.448  26.090  21.175  1.00  0.00    -0.242 OA
BRANCH  75  77
ATOM     77  C   UNL A   1      32.705  24.582  22.857  1.00  0.00     0.211 A 
ATOM     78  C   UNL A   1      31.407  24.326  23.256  1.00  0.00     0.058 A 
ATOM     79  O   UNL A   1      33.474  23.478  23.095  1.00  0.00    -0.450 OA
ATOM     80  C   UNL A   1      31.386  22.999  23.752  1.00  0.00     0.050 A 
ATOM     81  C   UNL A   1      32.676  22.521  23.647  1.00  0.00     0.142 A 
BRANCH  81  82
ATOM     82  C   UNL A   1      33.308  21.227  24.038  1.00  0.00     0.304 C 
BRANCH  82  83
ATOM     83  O   UNL A   1      33.842  21.309  25.370  1.00  0.00    -0.484 OA
BRANCH  83  84
ATOM     84  C   UNL A   1      35.209  21.433  25.380  1.00  0.00     0.140 A 
ATOM     85  C   UNL A   1      35.941  20.319  24.957  1.00  0.00     0.048 A 
ATOM     86  C   UNL A   1      35.860  22.631  25.707  1.00  0.00     0.101 A 
ATOM     87  C   UNL A   1      37.332  20.369  24.922  1.00  0.00     0.005 A 
ATOM     88  C   UNL A   1      37.262  22.670  25.677  1.00  0.00     0.063 A 
ATOM     89  Cl  UNL A   1      34.932  24.040  26.109  1.00  0.00    -0.079 Cl
ATOM     90  C   UNL A   1      37.993  21.539  25.292  1.00  0.00     0.022 A 
ATOM     91  Cl  UNL A   1      38.159  24.086  26.105  1.00  0.00    -0.083 Cl
ENDBRANCH  83  84
ENDBRANCH  82  83
ENDBRANCH  81  82
ENDBRANCH  75  77
ENDBRANCH  74  75
ENDBRANCH  73  74
ENDBRANCH   1  73
TORSDOF 17
ENDMDL
MODEL 3
REMARK VINA RESULT:     -10.9      4.626     10.141
REMARK SMILES O=C(OCCOCCOC(=O)c1ccc(COc2cccc(Cl)c2Cl)o1)c1ccc(-c2c3nc(c(-c4c(F)c(F)c(F)c(F)c4F)c4ccc([nH]4)c(-c4c(F)c(F)c(F)c(F)c4F)c4nc(c(-c5c(F)c(F)c(F)c(F)c5F)c5ccc2[nH]5)C=C4)C=C3)cc1
REMARK SMILES IDX 7 1 6 2 5 3 4 4 3 5 2 6 1 7 27 8 28 9 89 10 29 11 88 12
REMARK SMILES IDX 30 13 31 14 32 15 82 16 33 17 87 18 81 19 83 20 34 21 86 22
REMARK SMILES IDX 80 23 79 24 35 26 67 27 47 28 66 29 48 30 51 31 65 32 84 33
REMARK SMILES IDX 49 34 50 35 64 37 85 38 52 39 36 40 37 41 45 42 38 43 39 44
REMARK SMILES IDX 43 45 46 46 40 47 41 48 44 49 42 50 68 51 69 52 77 53 70 54
REMARK SMILES IDX 71 55 75 56 78 57 72 58 73 59 76 60 74 61 53 62 54 63 62 64
REMARK SMILES IDX 55 65 56 66 60 67 63 68 57 69 58 70 61 71 59 72 8 73 9 74
REMARK SMILES IDX 10 75 11 76 12 77 13 78 26 79 14 80 15 81 16 82 17 83 18 84
REMARK SMILES IDX 19 85 24 86 20 87 22 88 25 89 21 90 23 91
REMARK H PARENT 83 25 51 36
REMARK Flexibility Score: inf
ROOT
ATOM      1  C   UNL A   1      31.983  29.794  25.833  1.00  0.00     0.202 C 
ENDROOT
BRANCH   1   2
ATOM      2  O   UNL A   1      31.411  30.615  26.860  1.00  0.00    -0.374 OA
BRANCH   2   3
ATOM      3  C   UNL A   1      31.236  31.991  26.505  1.00  0.00     0.202 C 
BRANCH   3   4
ATOM      4  C   UNL A   1      32.496  32.819  26.773  1.00  0.00     0.261 C 
BRANCH   4   5
ATOM      5  O   UNL A   1      32.179  33.932  27.631  1.00  0.00    -0.460 OA
BRANCH   5   6
ATOM      6  C   UNL A   1      32.982  34.557  28.523  1.00  0.00     0.338 C 
ATOM      7  O   UNL A   1      32.706  35.708  28.863  1.00  0.00    -0.246 OA
BRANCH   6   8
ATOM      8  C   UNL A   1      34.130  33.892  29.208  1.00  0.00     0.060 A 
ATOM      9  C   UNL A   1      34.028  32.818  30.094  1.00  0.00     0.016 A 
ATOM     10  C   UNL A   1      35.415  34.315  28.825  1.00  0.00     0.016 A 
ATOM     11  C   UNL A   1      35.175  32.235  30.651  1.00  0.00     0.010 A 
ATOM     12  C   UNL A   1      36.564  33.703  29.339  1.00  0.00     0.010 A 
ATOM     13  C   UNL A   1      36.453  32.669  30.274  1.00  0.00    -0.014 A 
BRANCH  13  14
ATOM     14  C   UNL A   1      37.660  32.031  30.852  1.00  0.00     0.031 A 
ATOM     15  C   UNL A   1      38.104  32.367  32.246  1.00  0.00     0.074 A 
ATOM     16  C   UNL A   1      38.349  31.124  30.135  1.00  0.00     0.049 A 
ATOM     17  N   UNL A   1      39.110  31.885  32.932  1.00  0.00    -0.248 NA
ATOM     18  C   UNL A   1      37.316  33.381  32.962  1.00  0.00     0.031 C 
ATOM     19  C   UNL A   1      38.029  30.706  28.770  1.00  0.00     0.029 A 
ATOM     20  N   UNL A   1      39.450  30.375  30.466  1.00  0.00    -0.354 N 
ATOM     21  C   UNL A   1      39.074  32.532  34.158  1.00  0.00     0.074 A 
ATOM     22  C   UNL A   1      37.965  33.460  34.116  1.00  0.00     0.031 C 
ATOM     23  C   UNL A   1      38.891  29.745  28.395  1.00  0.00     0.029 A 
ATOM     24  C   UNL A   1      39.827  29.492  29.487  1.00  0.00     0.049 A 
ATOM     25  H   UNL A   1      39.924  30.463  31.324  1.00  0.00     0.167 HD
ATOM     26  C   UNL A   1      39.885  32.362  35.229  1.00  0.00     0.037 A 
ATOM     27  C   UNL A   1      40.806  28.569  29.478  1.00  0.00     0.037 A 
ATOM     28  C   UNL A   1      40.984  31.438  35.295  1.00  0.00     0.049 A 
ATOM     29  C   UNL A   1      41.695  28.402  30.675  1.00  0.00     0.074 A 
ATOM     30  C   UNL A   1      41.865  31.213  36.339  1.00  0.00     0.029 A 
ATOM     31  N   UNL A   1      41.347  30.578  34.273  1.00  0.00    -0.354 N 
ATOM     32  N   UNL A   1      41.655  29.028  31.824  1.00  0.00    -0.248 NA
ATOM     33  C   UNL A   1      42.769  27.404  30.569  1.00  0.00     0.031 C 
ATOM     34  C   UNL A   1      42.762  30.212  35.948  1.00  0.00     0.029 A 
ATOM     35  C   UNL A   1      42.436  29.816  34.661  1.00  0.00     0.049 A 
ATOM     36  H   UNL A   1      40.897  30.517  33.399  1.00  0.00     0.167 HD
ATOM     37  C   UNL A   1      42.689  28.496  32.581  1.00  0.00     0.074 A 
ATOM     38  C   UNL A   1      43.339  27.493  31.764  1.00  0.00     0.031 C 
ATOM     39  C   UNL A   1      43.066  28.819  33.840  1.00  0.00     0.037 A 
BRANCH  26  40
ATOM     40  C   UNL A   1      39.590  33.195  36.433  1.00  0.00     0.064 A 
ATOM     41  C   UNL A   1      40.210  34.439  36.613  1.00  0.00     0.173 A 
ATOM     42  C   UNL A   1      38.683  32.754  37.405  1.00  0.00     0.173 A 
ATOM     43  F   UNL A   1      41.097  34.888  35.713  1.00  0.00    -0.203 F 
ATOM     44  C   UNL A   1      39.937  35.213  37.736  1.00  0.00     0.198 A 
ATOM     45  C   UNL A   1      38.408  33.534  38.525  1.00  0.00     0.198 A 
ATOM     46  F   UNL A   1      38.076  31.566  37.275  1.00  0.00    -0.203 F 
ATOM     47  F   UNL A   1      40.556  36.390  37.903  1.00  0.00    -0.200 F 
ATOM     48  C   UNL A   1      39.036  34.761  38.689  1.00  0.00     0.200 A 
ATOM     49  F   UNL A   1      37.544  33.094  39.450  1.00  0.00    -0.200 F 
ATOM     50  F   UNL A   1      38.781  35.504  39.776  1.00  0.00    -0.200 F 
ENDBRANCH  26  40
BRANCH  27  51
ATOM     51  C   UNL A   1      40.963  27.688  28.299  1.00  0.00     0.064 A 
ATOM     52  C   UNL A   1      41.817  28.055  27.251  1.00  0.00     0.173 A 
ATOM     53  C   UNL A   1      40.283  26.469  28.206  1.00  0.00     0.173 A 
ATOM     54  F   UNL A   1      42.469  29.227  27.297  1.00  0.00    -0.203 F 
ATOM     55  C   UNL A   1      41.986  27.228  26.145  1.00  0.00     0.198 A 
ATOM     56  C   UNL A   1      40.457  25.639  27.102  1.00  0.00     0.198 A 
ATOM     57  F   UNL A   1      39.452  26.087  29.186  1.00  0.00    -0.203 F 
ATOM     58  F   UNL A   1      42.798  27.604  25.147  1.00  0.00    -0.200 F 
ATOM     59  C   UNL A   1      41.309  26.019  26.073  1.00  0.00     0.200 A 
ATOM     60  F   UNL A   1      39.801  24.473  27.032  1.00  0.00    -0.200 F 
ATOM     61  F   UNL A   1      41.470  25.222  25.008  1.00  0.00    -0.200 F 
ENDBRANCH  27  51
BRANCH  39  62
ATOM     62  C   UNL A   1      44.231  28.077  34.411  1.00  0.00     0.064 A 
ATOM     63  C   UNL A   1      45.534  28.576  34.278  1.00  0.00     0.173 A 
ATOM     64  C   UNL A   1      44.042  26.886  35.123  1.00  0.00     0.173 A 
ATOM     65  F   UNL A   1      45.757  29.707  33.591  1.00  0.00    -0.203 F 
ATOM     66  C   UNL A   1      46.614  27.902  34.839  1.00  0.00     0.198 A 
ATOM     67  C   UNL A   1      45.125  26.217  35.687  1.00  0.00     0.198 A 
ATOM     68  F   UNL A   1      42.812  26.372  35.268  1.00  0.00    -0.203 F 
ATOM     69  F   UNL A   1      47.854  28.387  34.690  1.00  0.00    -0.200 F 
ATOM     70  C   UNL A   1      46.408  26.725  35.545  1.00  0.00     0.200 A 
ATOM     71  F   UNL A   1      44.927  25.077  36.365  1.00  0.00    -0.200 F 
ATOM     72  F   UNL A   1      47.450  26.076  36.083  1.00  0.00    -0.200 F 
ENDBRANCH  39  62
ENDBRANCH  13  14
ENDBRANCH   6   8
ENDBRANCH   5   6
ENDBRANCH   4   5
ENDBRANCH   3   4
ENDBRANCH   2   3
ENDBRANCH   1   2
BRANCH   1  73
ATOM     73  C   UNL A   1      31.007  29.659  24.660  1.00  0.00     0.261 C 
BRANCH  73  74
ATOM     74  O   UNL A   1      31.637  28.900  23.616  1.00  0.00    -0.457 OA
BRANCH  74  75
ATOM     75  C   UNL A   1      30.769  28.319  22.735  1.00  0.00     0.374 C 
ATOM     76  O   UNL A   1      30.093  28.921  21.910  1.00  0.00    -0.242 OA
BRANCH  75  77
ATOM     77  C   UNL A   1      30.878  26.886  22.859  1.00  0.00     0.211 A 
ATOM     78  C   UNL A   1      30.171  25.949  23.589  1.00  0.00     0.058 A 
ATOM     79  O   UNL A   1      31.917  26.269  22.223  1.00  0.00    -0.450 OA
ATOM     80  C   UNL A   1      30.808  24.702  23.378  1.00  0.00     0.050 A 
ATOM     81  C   UNL A   1      31.881  24.946  22.545  1.00  0.00     0.142 A 
BRANCH  81  82
ATOM     82  C   UNL A   1      32.953  24.064  21.998  1.00  0.00     0.304 C 
BRANCH  82  83
ATOM     83  O   UNL A   1      32.970  22.803  22.688  1.00  0.00    -0.484 OA
BRANCH  83  84
ATOM     84  C   UNL A   1      33.895  22.773  23.702  1.00  0.00     0.140 A 
ATOM     85  C   UNL A   1      35.162  23.286  23.408  1.00  0.00     0.048 A 
ATOM     86  C   UNL A   1      33.585  22.338  24.999  1.00  0.00     0.101 A 
ATOM     87  C   UNL A   1      36.152  23.307  24.388  1.00  0.00     0.005 A 
ATOM     88  C   UNL A   1      34.590  22.354  25.977  1.00  0.00     0.063 A 
ATOM     89  Cl  UNL A   1      31.974  21.821  25.378  1.00  0.00    -0.079 Cl
ATOM     90  C   UNL A   1      35.871  22.831  25.667  1.00  0.00     0.022 A 
ATOM     91  Cl  UNL A   1      34.321  21.798  27.592  1.00  0.00    -0.083 Cl
ENDBRANCH  83  84
ENDBRANCH  82  83
ENDBRANCH  81  82
ENDBRANCH  75  77
ENDBRANCH  74  75
ENDBRANCH  73  74
ENDBRANCH   1  73
TORSDOF 17
ENDMDL
