MODEL 1
REMARK VINA RESULT:      -9.4      0.000      0.000
REMARK SMILES CCC(CC)(C[C@H](O)COC)C(=O)OCCOCCOC(=O)c1ccc(-c2c3nc(c(-c4c(F)c(F)c(F)c(F)c4F)c4ccc([nH]4)c(-c4c(F)c(F)c(F)c(F)c4F)c4nc(c(-c5c(F)c(F)c(F)c(F)c5F)c5ccc2[nH]5)C=C4)C=C3)cc1
REMARK SMILES IDX 16 1 15 2 14 3 12 4 13 5 3 6 2 7 1 8 4 9 5 10 6 11 7 12 9 13
REMARK SMILES IDX 10 14 11 15 8 16 17 18 18 19 19 20 20 21 21 22 22 23 23 24
REMARK SMILES IDX 24 25 85 26 25 27 84 28 26 29 27 30 28 31 78 32 29 33 83 34
REMARK SMILES IDX 77 35 79 36 30 37 82 38 76 39 75 40 31 42 63 43 43 44 62 45
REMARK SMILES IDX 44 46 47 47 61 48 80 49 45 50 46 51 60 53 81 54 48 55 32 56
REMARK SMILES IDX 33 57 41 58 34 59 35 60 39 61 42 62 36 63 37 64 40 65 38 66
REMARK SMILES IDX 64 67 65 68 73 69 66 70 67 71 71 72 74 73 68 74 69 75 72 76
REMARK SMILES IDX 70 77 49 78 50 79 58 80 51 81 52 82 56 83 59 84 53 85 54 86
REMARK SMILES IDX 57 87 55 88
REMARK H PARENT 8 17 79 41 47 52
REMARK Flexibility Score: inf
ROOT
ATOM      1  C   UNL A   1      32.076  27.349  25.348  1.00  0.00     0.202 C 
ENDROOT
BRANCH   1   2
ATOM      2  C   UNL A   1      31.296  26.033  25.430  1.00  0.00     0.261 C 
BRANCH   2   3
ATOM      3  O   UNL A   1      31.648  25.045  24.448  1.00  0.00    -0.463 OA
BRANCH   3   4
ATOM      4  C   UNL A   1      31.867  23.791  24.939  1.00  0.00     0.312 C 
ATOM      5  O   UNL A   1      31.159  23.283  25.799  1.00  0.00    -0.252 OA
BRANCH   4   6
ATOM      6  C   UNL A   1      33.159  23.128  24.395  1.00  0.00     0.070 C 
BRANCH   6   7
ATOM      7  C   UNL A   1      34.342  24.130  24.560  1.00  0.00     0.015 C 
ATOM      8  C   UNL A   1      35.760  23.620  24.293  1.00  0.00     0.005 C 
ENDBRANCH   6   7
BRANCH   6   9
ATOM      9  C   UNL A   1      32.831  22.862  22.888  1.00  0.00     0.015 C 
ATOM     10  C   UNL A   1      33.116  24.018  21.934  1.00  0.00     0.005 C 
ENDBRANCH   6   9
BRANCH   6  11
ATOM     11  C   UNL A   1      33.456  21.743  25.088  1.00  0.00     0.053 C 
BRANCH  11  12
ATOM     12  C   UNL A   1      32.865  20.426  24.555  1.00  0.00     0.141 C 
BRANCH  12  13
ATOM     13  C   UNL A   1      33.745  19.178  24.728  1.00  0.00     0.191 C 
BRANCH  13  14
ATOM     14  O   UNL A   1      33.234  18.125  23.893  1.00  0.00    -0.382 OA
ATOM     15  C   UNL A   1      34.125  17.014  23.820  1.00  0.00     0.195 C 
ENDBRANCH  13  14
ENDBRANCH  12  13
BRANCH  12  16
ATOM     16  O   UNL A   1      31.649  20.212  25.303  1.00  0.00    -0.391 OA
ATOM     17  H   UNL A   1      31.012  20.912  25.092  1.00  0.00     0.211 HD
ENDBRANCH  12  16
ENDBRANCH  11  12
ENDBRANCH   6  11
ENDBRANCH   4   6
ENDBRANCH   3   4
ENDBRANCH   2   3
ENDBRANCH   1   2
BRANCH   1  18
ATOM     18  O   UNL A   1      31.530  28.474  26.027  1.00  0.00    -0.374 OA
BRANCH  18  19
ATOM     19  C   UNL A   1      31.640  29.746  25.388  1.00  0.00     0.202 C 
BRANCH  19  20
ATOM     20  C   UNL A   1      31.817  30.942  26.329  1.00  0.00     0.261 C 
BRANCH  20  21
ATOM     21  O   UNL A   1      32.840  30.663  27.302  1.00  0.00    -0.460 OA
BRANCH  21  22
ATOM     22  C   UNL A   1      33.648  31.719  27.552  1.00  0.00     0.338 C 
ATOM     23  O   UNL A   1      33.326  32.890  27.655  1.00  0.00    -0.246 OA
BRANCH  22  24
ATOM     24  C   UNL A   1      34.997  31.237  27.883  1.00  0.00     0.060 A 
ATOM     25  C   UNL A   1      35.168  29.861  28.078  1.00  0.00     0.016 A 
ATOM     26  C   UNL A   1      36.040  32.130  28.131  1.00  0.00     0.016 A 
ATOM     27  C   UNL A   1      36.373  29.375  28.584  1.00  0.00     0.010 A 
ATOM     28  C   UNL A   1      37.245  31.642  28.644  1.00  0.00     0.010 A 
ATOM     29  C   UNL A   1      37.399  30.269  28.914  1.00  0.00    -0.014 A 
BRANCH  29  30
ATOM     30  C   UNL A   1      38.562  29.794  29.702  1.00  0.00     0.031 A 
ATOM     31  C   UNL A   1      38.767  30.337  31.089  1.00  0.00     0.074 A 
ATOM     32  C   UNL A   1      39.419  28.895  29.190  1.00  0.00     0.049 A 
ATOM     33  N   UNL A   1      39.735  30.109  31.937  1.00  0.00    -0.248 NA
ATOM     34  C   UNL A   1      37.740  31.269  31.581  1.00  0.00     0.031 C 
ATOM     35  C   UNL A   1      39.307  28.285  27.868  1.00  0.00     0.029 A 
ATOM     36  N   UNL A   1      40.564  28.355  29.719  1.00  0.00    -0.354 N 
ATOM     37  C   UNL A   1      39.444  30.879  33.056  1.00  0.00     0.074 A 
ATOM     38  C   UNL A   1      38.219  31.595  32.772  1.00  0.00     0.031 C 
ATOM     39  C   UNL A   1      40.360  27.474  27.675  1.00  0.00     0.029 A 
ATOM     40  C   UNL A   1      41.230  27.529  28.850  1.00  0.00     0.049 A 
ATOM     41  H   UNL A   1      40.877  28.542  30.634  1.00  0.00     0.167 HD
ATOM     42  C   UNL A   1      40.136  30.977  34.217  1.00  0.00     0.037 A 
ATOM     43  C   UNL A   1      42.421  26.911  28.979  1.00  0.00     0.037 A 
ATOM     44  C   UNL A   1      41.351  30.260  34.493  1.00  0.00     0.049 A 
ATOM     45  C   UNL A   1      43.191  27.054  30.264  1.00  0.00     0.074 A 
ATOM     46  C   UNL A   1      42.110  30.255  35.649  1.00  0.00     0.029 A 
ATOM     47  N   UNL A   1      41.993  29.425  33.589  1.00  0.00    -0.354 N 
ATOM     48  N   UNL A   1      42.886  27.749  31.334  1.00  0.00    -0.248 NA
ATOM     49  C   UNL A   1      44.462  26.325  30.364  1.00  0.00     0.031 C 
ATOM     50  C   UNL A   1      43.236  29.454  35.429  1.00  0.00     0.029 A 
ATOM     51  C   UNL A   1      43.153  28.921  34.151  1.00  0.00     0.049 A 
ATOM     52  H   UNL A   1      41.671  29.220  32.681  1.00  0.00     0.167 HD
ATOM     53  C   UNL A   1      43.915  27.527  32.240  1.00  0.00     0.074 A 
ATOM     54  C   UNL A   1      44.849  26.627  31.597  1.00  0.00     0.031 C 
ATOM     55  C   UNL A   1      44.069  28.023  33.492  1.00  0.00     0.037 A 
BRANCH  42  56
ATOM     56  C   UNL A   1      39.607  31.922  35.255  1.00  0.00     0.064 A 
ATOM     57  C   UNL A   1      39.989  33.272  35.293  1.00  0.00     0.173 A 
ATOM     58  C   UNL A   1      38.700  31.470  36.227  1.00  0.00     0.173 A 
ATOM     59  F   UNL A   1      40.863  33.750  34.394  1.00  0.00    -0.203 F 
ATOM     60  C   UNL A   1      39.512  34.123  36.286  1.00  0.00     0.198 A 
ATOM     61  C   UNL A   1      38.205  32.332  37.201  1.00  0.00     0.198 A 
ATOM     62  F   UNL A   1      38.298  30.190  36.233  1.00  0.00    -0.203 F 
ATOM     63  F   UNL A   1      39.933  35.395  36.334  1.00  0.00    -0.200 F 
ATOM     64  C   UNL A   1      38.618  33.655  37.236  1.00  0.00     0.200 A 
ATOM     65  F   UNL A   1      37.334  31.879  38.114  1.00  0.00    -0.200 F 
ATOM     66  F   UNL A   1      38.163  34.475  38.194  1.00  0.00    -0.200 F 
ENDBRANCH  42  56
BRANCH  43  67
ATOM     67  C   UNL A   1      42.950  26.114  27.843  1.00  0.00     0.064 A 
ATOM     68  C   UNL A   1      42.584  24.774  27.661  1.00  0.00     0.173 A 
ATOM     69  C   UNL A   1      43.800  26.696  26.890  1.00  0.00     0.173 A 
ATOM     70  F   UNL A   1      41.792  24.170  28.557  1.00  0.00    -0.203 F 
ATOM     71  C   UNL A   1      43.046  24.047  26.566  1.00  0.00     0.198 A 
ATOM     72  C   UNL A   1      44.242  25.974  25.783  1.00  0.00     0.198 A 
ATOM     73  F   UNL A   1      44.177  27.976  27.020  1.00  0.00    -0.203 F 
ATOM     74  F   UNL A   1      42.698  22.760  26.424  1.00  0.00    -0.200 F 
ATOM     75  C   UNL A   1      43.867  24.649  25.623  1.00  0.00     0.200 A 
ATOM     76  F   UNL A   1      45.023  26.565  24.869  1.00  0.00    -0.200 F 
ATOM     77  F   UNL A   1      44.294  23.954  24.561  1.00  0.00    -0.200 F 
ENDBRANCH  43  67
BRANCH  55  78
ATOM     78  C   UNL A   1      45.280  27.589  34.264  1.00  0.00     0.064 A 
ATOM     79  C   UNL A   1      46.479  28.315  34.213  1.00  0.00     0.173 A 
ATOM     80  C   UNL A   1      45.215  26.478  35.117  1.00  0.00     0.173 A 
ATOM     81  F   UNL A   1      46.591  29.377  33.402  1.00  0.00    -0.203 F 
ATOM     82  C   UNL A   1      47.574  27.936  34.984  1.00  0.00     0.198 A 
ATOM     83  C   UNL A   1      46.306  26.116  35.903  1.00  0.00     0.198 A 
ATOM     84  F   UNL A   1      44.088  25.757  35.204  1.00  0.00    -0.203 F 
ATOM     85  F   UNL A   1      48.720  28.626  34.903  1.00  0.00    -0.200 F 
ATOM     86  C   UNL A   1      47.484  26.843  35.835  1.00  0.00     0.200 A 
ATOM     87  F   UNL A   1      46.213  25.067  36.733  1.00  0.00    -0.200 F 
ATOM     88  F   UNL A   1      48.535  26.488  36.586  1.00  0.00    -0.200 F 
ENDBRANCH  55  78
ENDBRANCH  29  30
ENDBRANCH  22  24
ENDBRANCH  21  22
ENDBRANCH  20  21
ENDBRANCH  19  20
ENDBRANCH  18  19
ENDBRANCH   1  18
TORSDOF 21
ENDMDL
MODEL 2
REMARK VINA RESULT:      -9.3      0.940      7.715
REMARK SMILES CCC(CC)(C[C@H](O)COC)C(=O)OCCOCCOC(=O)c1ccc(-c2c3nc(c(-c4c(F)c(F)c(F)c(F)c4F)c4ccc([nH]4)c(-c4c(F)c(F)c(F)c(F)c4F)c4nc(c(-c5c(F)c(F)c(F)c(F)c5F)c5ccc2[nH]5)C=C4)C=C3)cc1
REMARK SMILES IDX 16 1 15 2 14 3 12 4 13 5 3 6 2 7 1 8 4 9 5 10 6 11 7 12 9 13
REMARK SMILES IDX 10 14 11 15 8 16 17 18 18 19 19 20 20 21 21 22 22 23 23 24
REMARK SMILES IDX 24 25 85 26 25 27 84 28 26 29 27 30 28 31 78 32 29 33 83 34
REMARK SMILES IDX 77 35 79 36 30 37 82 38 76 39 75 40 31 42 63 43 43 44 62 45
REMARK SMILES IDX 44 46 47 47 61 48 80 49 45 50 46 51 60 53 81 54 48 55 32 56
REMARK SMILES IDX 33 57 41 58 34 59 35 60 39 61 42 62 36 63 37 64 40 65 38 66
REMARK SMILES IDX 64 67 65 68 73 69 66 70 67 71 71 72 74 73 68 74 69 75 72 76
REMARK SMILES IDX 70 77 49 78 50 79 58 80 51 81 52 82 56 83 59 84 53 85 54 86
REMARK SMILES IDX 57 87 55 88
REMARK H PARENT 8 17 79 41 47 52
REMARK Flexibility Score: inf
ROOT
ATOM      1  C   UNL A   1      31.590  27.580  25.691  1.00  0.00     0.202 C 
ENDROOT
BRANCH   1   2
ATOM      2  C   UNL A   1      30.779  26.336  26.069  1.00  0.00     0.261 C 
BRANCH   2   3
ATOM      3  O   UNL A   1      30.827  25.257  25.121  1.00  0.00    -0.463 OA
BRANCH   3   4
ATOM      4  C   UNL A   1      31.399  24.106  25.580  1.00  0.00     0.312 C 
ATOM      5  O   UNL A   1      31.122  23.618  26.669  1.00  0.00    -0.252 OA
BRANCH   4   6
ATOM      6  C   UNL A   1      32.510  23.552  24.652  1.00  0.00     0.070 C 
BRANCH   6   7
ATOM      7  C   UNL A   1      33.146  24.741  23.870  1.00  0.00     0.015 C 
ATOM      8  C   UNL A   1      34.272  25.528  24.546  1.00  0.00     0.005 C 
ENDBRANCH   6   7
BRANCH   6   9
ATOM      9  C   UNL A   1      31.743  22.576  23.699  1.00  0.00     0.015 C 
ATOM     10  C   UNL A   1      32.510  22.116  22.463  1.00  0.00     0.005 C 
ENDBRANCH   6   9
BRANCH   6  11
ATOM     11  C   UNL A   1      33.590  22.721  25.446  1.00  0.00     0.053 C 
BRANCH  11  12
ATOM     12  C   UNL A   1      33.375  21.239  25.799  1.00  0.00     0.141 C 
BRANCH  12  13
ATOM     13  C   UNL A   1      34.498  20.279  25.376  1.00  0.00     0.191 C 
BRANCH  13  14
ATOM     14  O   UNL A   1      35.477  21.007  24.616  1.00  0.00    -0.382 OA
ATOM     15  C   UNL A   1      36.807  20.750  25.061  1.00  0.00     0.195 C 
ENDBRANCH  13  14
ENDBRANCH  12  13
BRANCH  12  16
ATOM     16  O   UNL A   1      33.275  21.191  27.238  1.00  0.00    -0.391 OA
ATOM     17  H   UNL A   1      32.340  21.192  27.497  1.00  0.00     0.211 HD
ENDBRANCH  12  16
ENDBRANCH  11  12
ENDBRANCH   6  11
ENDBRANCH   4   6
ENDBRANCH   3   4
ENDBRANCH   2   3
ENDBRANCH   1   2
BRANCH   1  18
ATOM     18  O   UNL A   1      31.205  28.814  26.284  1.00  0.00    -0.374 OA
BRANCH  18  19
ATOM     19  C   UNL A   1      31.461  30.009  25.544  1.00  0.00     0.202 C 
BRANCH  19  20
ATOM     20  C   UNL A   1      31.778  31.249  26.386  1.00  0.00     0.261 C 
BRANCH  20  21
ATOM     21  O   UNL A   1      32.819  30.954  27.336  1.00  0.00    -0.460 OA
BRANCH  21  22
ATOM     22  C   UNL A   1      33.612  32.015  27.612  1.00  0.00     0.338 C 
ATOM     23  O   UNL A   1      33.281  33.183  27.704  1.00  0.00    -0.246 OA
BRANCH  22  24
ATOM     24  C   UNL A   1      34.953  31.539  27.986  1.00  0.00     0.060 A 
ATOM     25  C   UNL A   1      35.096  30.188  28.322  1.00  0.00     0.016 A 
ATOM     26  C   UNL A   1      36.016  32.430  28.135  1.00  0.00     0.016 A 
ATOM     27  C   UNL A   1      36.294  29.731  28.870  1.00  0.00     0.010 A 
ATOM     28  C   UNL A   1      37.214  31.972  28.691  1.00  0.00     0.010 A 
ATOM     29  C   UNL A   1      37.340  30.632  29.101  1.00  0.00    -0.014 A 
BRANCH  29  30
ATOM     30  C   UNL A   1      38.498  30.216  29.929  1.00  0.00     0.031 A 
ATOM     31  C   UNL A   1      39.467  29.213  29.367  1.00  0.00     0.074 A 
ATOM     32  C   UNL A   1      38.682  30.723  31.160  1.00  0.00     0.049 A 
ATOM     33  N   UNL A   1      40.515  28.665  29.925  1.00  0.00    -0.248 NA
ATOM     34  C   UNL A   1      39.212  28.765  27.989  1.00  0.00     0.031 C 
ATOM     35  C   UNL A   1      37.821  31.716  31.796  1.00  0.00     0.029 A 
ATOM     36  N   UNL A   1      39.647  30.456  32.098  1.00  0.00    -0.354 N 
ATOM     37  C   UNL A   1      41.037  27.798  28.974  1.00  0.00     0.074 A 
ATOM     38  C   UNL A   1      40.179  27.877  27.811  1.00  0.00     0.031 C 
ATOM     39  C   UNL A   1      38.279  31.954  33.037  1.00  0.00     0.029 A 
ATOM     40  C   UNL A   1      39.448  31.112  33.286  1.00  0.00     0.049 A 
ATOM     41  H   UNL A   1      40.407  29.852  31.935  1.00  0.00     0.167 HD
ATOM     42  C   UNL A   1      42.134  27.008  29.063  1.00  0.00     0.037 A 
ATOM     43  C   UNL A   1      40.120  31.020  34.452  1.00  0.00     0.037 A 
ATOM     44  C   UNL A   1      42.983  26.937  30.221  1.00  0.00     0.049 A 
ATOM     45  C   UNL A   1      41.319  30.115  34.543  1.00  0.00     0.074 A 
ATOM     46  C   UNL A   1      44.140  26.201  30.403  1.00  0.00     0.029 A 
ATOM     47  N   UNL A   1      42.755  27.623  31.406  1.00  0.00    -0.354 N 
ATOM     48  N   UNL A   1      41.832  29.331  33.624  1.00  0.00    -0.248 NA
ATOM     49  C   UNL A   1      42.037  30.087  35.824  1.00  0.00     0.031 C 
ATOM     50  C   UNL A   1      44.586  26.407  31.713  1.00  0.00     0.029 A 
ATOM     51  C   UNL A   1      43.733  27.307  32.332  1.00  0.00     0.049 A 
ATOM     52  H   UNL A   1      42.006  28.244  31.564  1.00  0.00     0.167 HD
ATOM     53  C   UNL A   1      42.939  28.731  34.208  1.00  0.00     0.074 A 
ATOM     54  C   UNL A   1      43.030  29.248  35.558  1.00  0.00     0.031 C 
ATOM     55  C   UNL A   1      43.805  27.836  33.672  1.00  0.00     0.037 A 
BRANCH  42  56
ATOM     56  C   UNL A   1      42.450  26.134  27.884  1.00  0.00     0.064 A 
ATOM     57  C   UNL A   1      41.879  24.861  27.731  1.00  0.00     0.173 A 
ATOM     58  C   UNL A   1      43.337  26.579  26.891  1.00  0.00     0.173 A 
ATOM     59  F   UNL A   1      41.035  24.385  28.659  1.00  0.00    -0.203 F 
ATOM     60  C   UNL A   1      42.212  24.054  26.647  1.00  0.00     0.198 A 
ATOM     61  C   UNL A   1      43.646  25.779  25.796  1.00  0.00     0.198 A 
ATOM     62  F   UNL A   1      43.907  27.790  26.987  1.00  0.00    -0.203 F 
ATOM     63  F   UNL A   1      41.697  22.820  26.550  1.00  0.00    -0.200 F 
ATOM     64  C   UNL A   1      43.092  24.513  25.679  1.00  0.00     0.200 A 
ATOM     65  F   UNL A   1      44.490  26.229  24.857  1.00  0.00    -0.200 F 
ATOM     66  F   UNL A   1      43.415  23.732  24.639  1.00  0.00    -0.200 F 
ENDBRANCH  42  56
BRANCH  43  67
ATOM     67  C   UNL A   1      39.650  31.805  35.621  1.00  0.00     0.064 A 
ATOM     68  C   UNL A   1      40.164  33.078  35.897  1.00  0.00     0.173 A 
ATOM     69  C   UNL A   1      38.642  31.310  36.462  1.00  0.00     0.173 A 
ATOM     70  F   UNL A   1      41.144  33.583  35.135  1.00  0.00    -0.203 F 
ATOM     71  C   UNL A   1      39.684  33.829  36.969  1.00  0.00     0.198 A 
ATOM     72  C   UNL A   1      38.147  32.071  37.519  1.00  0.00     0.198 A 
ATOM     73  F   UNL A   1      38.117  30.096  36.238  1.00  0.00    -0.203 F 
ATOM     74  F   UNL A   1      40.206  35.037  37.224  1.00  0.00    -0.200 F 
ATOM     75  C   UNL A   1      38.670  33.329  37.773  1.00  0.00     0.200 A 
ATOM     76  F   UNL A   1      37.158  31.590  38.283  1.00  0.00    -0.200 F 
ATOM     77  F   UNL A   1      38.197  34.061  38.790  1.00  0.00    -0.200 F 
ENDBRANCH  43  67
BRANCH  55  78
ATOM     78  C   UNL A   1      44.940  27.370  34.534  1.00  0.00     0.064 A 
ATOM     79  C   UNL A   1      44.837  26.210  35.315  1.00  0.00     0.173 A 
ATOM     80  C   UNL A   1      46.166  28.051  34.521  1.00  0.00     0.173 A 
ATOM     81  F   UNL A   1      43.681  25.532  35.369  1.00  0.00    -0.203 F 
ATOM     82  C   UNL A   1      45.921  25.754  36.061  1.00  0.00     0.198 A 
ATOM     83  C   UNL A   1      47.254  27.580  35.250  1.00  0.00     0.198 A 
ATOM     84  F   UNL A   1      46.314  29.162  33.784  1.00  0.00    -0.203 F 
ATOM     85  F   UNL A   1      45.796  24.658  36.823  1.00  0.00    -0.200 F 
ATOM     86  C   UNL A   1      47.130  26.434  36.021  1.00  0.00     0.200 A 
ATOM     87  F   UNL A   1      48.424  28.231  35.201  1.00  0.00    -0.200 F 
ATOM     88  F   UNL A   1      48.176  25.986  36.729  1.00  0.00    -0.200 F 
ENDBRANCH  55  78
ENDBRANCH  29  30
ENDBRANCH  22  24
ENDBRANCH  21  22
ENDBRANCH  20  21
ENDBRANCH  19  20
ENDBRANCH  18  19
ENDBRANCH   1  18
TORSDOF 21
ENDMDL
MODEL 3
REMARK VINA RESULT:      -9.2      4.249      9.870
REMARK SMILES CCC(CC)(C[C@H](O)COC)C(=O)OCCOCCOC(=O)c1ccc(-c2c3nc(c(-c4c(F)c(F)c(F)c(F)c4F)c4ccc([nH]4)c(-c4c(F)c(F)c(F)c(F)c4F)c4nc(c(-c5c(F)c(F)c(F)c(F)c5F)c5ccc2[nH]5)C=C4)C=C3)cc1
REMARK SMILES IDX 16 1 15 2 14 3 12 4 13 5 3 6 2 7 1 8 4 9 5 10 6 11 7 12 9 13
REMARK SMILES IDX 10 14 11 15 8 16 17 18 18 19 19 20 20 21 21 22 22 23 23 24
REMARK SMILES IDX 24 25 85 26 25 27 84 28 26 29 27 30 28 31 78 32 29 33 83 34
REMARK SMILES IDX 77 35 79 36 30 37 82 38 76 39 75 40 31 42 63 43 43 44 62 45
REMARK SMILES IDX 44 46 47 47 61 48 80 49 45 50 46 51 60 53 81 54 48 55 32 56
REMARK SMILES IDX 33 57 41 58 34 59 35 60 39 61 42 62 36 63 37 64 40 65 38 66
REMARK SMILES IDX 64 67 65 68 73 69 66 70 67 71 71 72 74 73 68 74 69 75 72 76
REMARK SMILES IDX 70 77 49 78 50 79 58 80 51 81 52 82 56 83 59 84 53 85 54 86
REMARK SMILES IDX 57 87 55 88
REMARK H PARENT 8 17 79 41 47 52
REMARK Flexibility Score: inf
ROOT
ATOM      1  C   UNL A   1      34.570  20.015  24.834  1.00  0.00     0.202 C 
ENDROOT
BRANCH   1   2
ATOM      2  C   UNL A   1      33.311  20.313  25.655  1.00  0.00     0.261 C 
BRANCH   2   3
ATOM      3  O   UNL A   1      33.221  21.646  26.185  1.00  0.00    -0.463 OA
BRANCH   3   4
ATOM      4  C   UNL A   1      32.610  22.553  25.369  1.00  0.00     0.312 C 
ATOM      5  O   UNL A   1      31.496  22.372  24.894  1.00  0.00    -0.252 OA
BRANCH   4   6
ATOM      6  C   UNL A   1      33.506  23.767  25.010  1.00  0.00     0.070 C 
BRANCH   6   7
ATOM      7  C   UNL A   1      34.094  23.548  23.583  1.00  0.00     0.015 C 
ATOM      8  C   UNL A   1      33.231  23.939  22.381  1.00  0.00     0.005 C 
ENDBRANCH   6   7
BRANCH   6   9
ATOM      9  C   UNL A   1      34.622  23.739  26.107  1.00  0.00     0.015 C 
ATOM     10  C   UNL A   1      36.058  23.727  25.592  1.00  0.00     0.005 C 
ENDBRANCH   6   9
BRANCH   6  11
ATOM     11  C   UNL A   1      32.731  25.135  25.127  1.00  0.00     0.053 C 
BRANCH  11  12
ATOM     12  C   UNL A   1      33.465  26.487  25.118  1.00  0.00     0.141 C 
BRANCH  12  13
ATOM     13  C   UNL A   1      32.795  27.610  24.312  1.00  0.00     0.191 C 
BRANCH  13  14
ATOM     14  O   UNL A   1      33.761  28.186  23.417  1.00  0.00    -0.382 OA
ATOM     15  C   UNL A   1      33.654  27.659  22.096  1.00  0.00     0.195 C 
ENDBRANCH  13  14
ENDBRANCH  12  13
BRANCH  12  16
ATOM     16  O   UNL A   1      33.521  26.910  26.497  1.00  0.00    -0.391 OA
ATOM     17  H   UNL A   1      33.833  27.828  26.542  1.00  0.00     0.211 HD
ENDBRANCH  12  16
ENDBRANCH  11  12
ENDBRANCH   6  11
ENDBRANCH   4   6
ENDBRANCH   3   4
ENDBRANCH   2   3
ENDBRANCH   1   2
BRANCH   1  18
ATOM     18  O   UNL A   1      35.826  20.293  25.441  1.00  0.00    -0.374 OA
BRANCH  18  19
ATOM     19  C   UNL A   1      36.989  20.219  24.615  1.00  0.00     0.202 C 
BRANCH  19  20
ATOM     20  C   UNL A   1      38.299  19.915  25.348  1.00  0.00     0.261 C 
BRANCH  20  21
ATOM     21  O   UNL A   1      39.066  21.121  25.519  1.00  0.00    -0.460 OA
BRANCH  21  22
ATOM     22  C   UNL A   1      39.993  21.035  26.501  1.00  0.00     0.338 C 
ATOM     23  O   UNL A   1      40.663  20.064  26.804  1.00  0.00    -0.246 OA
BRANCH  22  24
ATOM     24  C   UNL A   1      40.235  22.372  27.065  1.00  0.00     0.060 A 
ATOM     25  C   UNL A   1      39.527  23.449  26.517  1.00  0.00     0.016 A 
ATOM     26  C   UNL A   1      41.233  22.581  28.016  1.00  0.00     0.016 A 
ATOM     27  C   UNL A   1      39.861  24.753  26.876  1.00  0.00     0.010 A 
ATOM     28  C   UNL A   1      41.570  23.890  28.370  1.00  0.00     0.010 A 
ATOM     29  C   UNL A   1      40.916  24.981  27.768  1.00  0.00    -0.014 A 
BRANCH  29  30
ATOM     30  C   UNL A   1      41.452  26.353  27.937  1.00  0.00     0.031 A 
ATOM     31  C   UNL A   1      42.826  26.663  27.413  1.00  0.00     0.074 A 
ATOM     32  C   UNL A   1      40.726  27.305  28.546  1.00  0.00     0.049 A 
ATOM     33  N   UNL A   1      43.518  27.770  27.493  1.00  0.00    -0.248 NA
ATOM     34  C   UNL A   1      43.515  25.571  26.707  1.00  0.00     0.031 C 
ATOM     35  C   UNL A   1      39.376  27.125  29.073  1.00  0.00     0.029 A 
ATOM     36  N   UNL A   1      41.035  28.609  28.841  1.00  0.00    -0.354 N 
ATOM     37  C   UNL A   1      44.727  27.504  26.863  1.00  0.00     0.074 A 
ATOM     38  C   UNL A   1      44.683  26.127  26.422  1.00  0.00     0.031 C 
ATOM     39  C   UNL A   1      38.981  28.270  29.654  1.00  0.00     0.029 A 
ATOM     40  C   UNL A   1      40.062  29.252  29.561  1.00  0.00     0.049 A 
ATOM     41  H   UNL A   1      41.875  29.042  28.561  1.00  0.00     0.167 HD
ATOM     42  C   UNL A   1      45.778  28.337  26.668  1.00  0.00     0.037 A 
ATOM     43  C   UNL A   1      40.055  30.484  30.107  1.00  0.00     0.037 A 
ATOM     44  C   UNL A   1      45.813  29.705  27.107  1.00  0.00     0.049 A 
ATOM     45  C   UNL A   1      41.244  31.385  29.907  1.00  0.00     0.074 A 
ATOM     46  C   UNL A   1      46.810  30.647  26.926  1.00  0.00     0.029 A 
ATOM     47  N   UNL A   1      44.803  30.326  27.828  1.00  0.00    -0.354 N 
ATOM     48  N   UNL A   1      42.365  31.142  29.271  1.00  0.00    -0.248 NA
ATOM     49  C   UNL A   1      41.165  32.732  30.489  1.00  0.00     0.031 C 
ATOM     50  C   UNL A   1      46.423  31.823  27.579  1.00  0.00     0.029 A 
ATOM     51  C   UNL A   1      45.164  31.629  28.125  1.00  0.00     0.049 A 
ATOM     52  H   UNL A   1      43.953  29.901  28.091  1.00  0.00     0.167 HD
ATOM     53  C   UNL A   1      43.117  32.306  29.361  1.00  0.00     0.074 A 
ATOM     54  C   UNL A   1      42.320  33.260  30.105  1.00  0.00     0.031 C 
ATOM     55  C   UNL A   1      44.353  32.562  28.867  1.00  0.00     0.037 A 
BRANCH  42  56
ATOM     56  C   UNL A   1      46.986  27.770  25.980  1.00  0.00     0.064 A 
ATOM     57  C   UNL A   1      48.075  27.256  26.700  1.00  0.00     0.173 A 
ATOM     58  C   UNL A   1      47.052  27.740  24.578  1.00  0.00     0.173 A 
ATOM     59  F   UNL A   1      48.066  27.273  28.041  1.00  0.00    -0.203 F 
ATOM     60  C   UNL A   1      49.200  26.766  26.042  1.00  0.00     0.198 A 
ATOM     61  C   UNL A   1      48.168  27.225  23.925  1.00  0.00     0.198 A 
ATOM     62  F   UNL A   1      46.036  28.215  23.843  1.00  0.00    -0.203 F 
ATOM     63  F   UNL A   1      50.251  26.330  26.750  1.00  0.00    -0.200 F 
ATOM     64  C   UNL A   1      49.245  26.747  24.656  1.00  0.00     0.200 A 
ATOM     65  F   UNL A   1      48.205  27.199  22.586  1.00  0.00    -0.200 F 
ATOM     66  F   UNL A   1      50.331  26.279  24.025  1.00  0.00    -0.200 F 
ENDBRANCH  42  56
BRANCH  43  67
ATOM     67  C   UNL A   1      38.881  30.916  30.907  1.00  0.00     0.064 A 
ATOM     68  C   UNL A   1      37.757  31.489  30.297  1.00  0.00     0.173 A 
ATOM     69  C   UNL A   1      38.844  30.720  32.296  1.00  0.00     0.173 A 
ATOM     70  F   UNL A   1      37.756  31.717  28.976  1.00  0.00    -0.203 F 
ATOM     71  C   UNL A   1      36.639  31.849  31.048  1.00  0.00     0.198 A 
ATOM     72  C   UNL A   1      37.716  31.058  33.041  1.00  0.00     0.198 A 
ATOM     73  F   UNL A   1      39.894  30.174  32.924  1.00  0.00    -0.203 F 
ATOM     74  F   UNL A   1      35.584  32.414  30.445  1.00  0.00    -0.200 F 
ATOM     75  C   UNL A   1      36.615  31.624  32.416  1.00  0.00     0.200 A 
ATOM     76  F   UNL A   1      37.693  30.826  34.360  1.00  0.00    -0.200 F 
ATOM     77  F   UNL A   1      35.532  31.952  33.133  1.00  0.00    -0.200 F 
ENDBRANCH  43  67
BRANCH  55  78
ATOM     78  C   UNL A   1      44.918  33.932  29.095  1.00  0.00     0.064 A 
ATOM     79  C   UNL A   1      44.665  34.986  28.204  1.00  0.00     0.173 A 
ATOM     80  C   UNL A   1      45.660  34.210  30.252  1.00  0.00     0.173 A 
ATOM     81  F   UNL A   1      43.971  34.765  27.078  1.00  0.00    -0.203 F 
ATOM     82  C   UNL A   1      45.143  36.267  28.462  1.00  0.00     0.198 A 
ATOM     83  C   UNL A   1      46.118  35.497  30.517  1.00  0.00     0.198 A 
ATOM     84  F   UNL A   1      45.923  33.236  31.136  1.00  0.00    -0.203 F 
ATOM     85  F   UNL A   1      44.914  37.256  27.586  1.00  0.00    -0.200 F 
ATOM     86  C   UNL A   1      45.861  36.524  29.621  1.00  0.00     0.200 A 
ATOM     87  F   UNL A   1      46.801  35.746  31.643  1.00  0.00    -0.200 F 
ATOM     88  F   UNL A   1      46.310  37.761  29.873  1.00  0.00    -0.200 F 
ENDBRANCH  55  78
ENDBRANCH  29  30
ENDBRANCH  22  24
ENDBRANCH  21  22
ENDBRANCH  20  21
ENDBRANCH  19  20
ENDBRANCH  18  19
ENDBRANCH   1  18
TORSDOF 21
ENDMDL
