MODEL 1
REMARK VINA RESULT:     -11.4      0.000      0.000
REMARK SMILES C[C@H](NC(=O)c1ccc(C(C)(C)C)cc1)C(=O)N[C@@H](C(=O)OCCOCCOC(=O)c1ccc(-c2c3nc(c(-c4c(F)c(F)c(F)c(F)c4F)c4ccc([nH]4)c(-c4c(F)c(F)c(F)c(F)c4F)c4nc(c(-c5c(F)c(F)c(F)c(F)c5F)c5ccc2[nH]5)C=C4)C=C3)cc1)[C@H](C)O
REMARK SMILES IDX 23 1 22 2 20 3 21 4 19 5 18 6 16 7 17 8 2 10 1 11 3 12 4 13
REMARK SMILES IDX 5 15 6 16 7 17 15 18 8 19 14 20 9 21 10 22 11 23 12 24 13 25
REMARK SMILES IDX 94 26 95 27 96 28 24 30 25 31 26 32 27 33 28 34 29 35 30 36
REMARK SMILES IDX 31 37 32 38 93 39 33 40 92 41 34 42 35 43 36 44 86 45 37 46
REMARK SMILES IDX 91 47 85 48 87 49 38 50 90 51 84 52 83 53 39 55 71 56 51 57
REMARK SMILES IDX 70 58 52 59 55 60 69 61 88 62 53 63 54 64 68 66 89 67 56 68
REMARK SMILES IDX 40 69 41 70 49 71 42 72 43 73 47 74 50 75 44 76 45 77 48 78
REMARK SMILES IDX 46 79 72 80 73 81 81 82 74 83 75 84 79 85 82 86 76 87 77 88
REMARK SMILES IDX 80 89 78 90 57 91 58 92 66 93 59 94 60 95 64 96 67 97 61 98
REMARK SMILES IDX 62 99 65 100 63 101
REMARK H PARENT 18 9 3 14 96 29 87 54 55 65
REMARK Flexibility Score: inf
ROOT
ATOM      1  C   UNL A   1      36.451  23.035  24.015  1.00  0.00     0.261 C 
ENDROOT
BRANCH   1   2
ATOM      2  O   UNL A   1      35.152  23.435  24.491  1.00  0.00    -0.462 OA
BRANCH   2   3
ATOM      3  C   UNL A   1      34.099  22.725  24.011  1.00  0.00     0.331 C 
ATOM      4  O   UNL A   1      33.776  22.681  22.828  1.00  0.00    -0.250 OA
BRANCH   3   5
ATOM      5  C   UNL A   1      33.240  22.097  25.120  1.00  0.00     0.221 C 
BRANCH   5   6
ATOM      6  N   UNL A   1      32.755  22.909  26.246  1.00  0.00    -0.339 N 
ATOM      7  C   UNL A   1      31.777  23.849  26.307  1.00  0.00     0.243 C 
ATOM      8  O   UNL A   1      31.006  23.800  27.271  1.00  0.00    -0.273 OA
ATOM      9  H   UNL A   1      33.218  22.742  27.100  1.00  0.00     0.164 HD
BRANCH   7  10
ATOM     10  C   UNL A   1      31.577  24.881  25.191  1.00  0.00     0.168 C 
ATOM     11  C   UNL A   1      30.662  24.308  24.108  1.00  0.00     0.041 C 
BRANCH  10  12
ATOM     12  N   UNL A   1      32.830  25.404  24.635  1.00  0.00    -0.341 N 
ATOM     13  C   UNL A   1      32.983  26.439  23.726  1.00  0.00     0.251 C 
ATOM     14  H   UNL A   1      33.658  24.970  24.942  1.00  0.00     0.164 HD
ATOM     15  O   UNL A   1      34.017  26.520  23.067  1.00  0.00    -0.269 OA
BRANCH  13  16
ATOM     16  C   UNL A   1      31.933  27.477  23.558  1.00  0.00     0.039 A 
ATOM     17  C   UNL A   1      31.808  28.545  24.440  1.00  0.00     0.014 A 
ATOM     18  C   UNL A   1      30.957  27.320  22.583  1.00  0.00     0.014 A 
ATOM     19  C   UNL A   1      30.780  29.498  24.259  1.00  0.00     0.005 A 
ATOM     20  C   UNL A   1      29.969  28.287  22.369  1.00  0.00     0.005 A 
ATOM     21  C   UNL A   1      29.853  29.410  23.196  1.00  0.00    -0.043 A 
BRANCH  21  22
ATOM     22  C   UNL A   1      28.720  30.430  22.951  1.00  0.00    -0.013 C 
ATOM     23  C   UNL A   1      28.794  31.032  21.530  1.00  0.00     0.016 C 
ATOM     24  C   UNL A   1      27.321  29.803  23.113  1.00  0.00     0.016 C 
ATOM     25  C   UNL A   1      28.813  31.617  23.943  1.00  0.00     0.016 C 
ENDBRANCH  21  22
ENDBRANCH  13  16
ENDBRANCH  10  12
ENDBRANCH   7  10
ENDBRANCH   5   6
BRANCH   5  26
ATOM     26  C   UNL A   1      34.004  20.896  25.741  1.00  0.00     0.145 C 
ATOM     27  C   UNL A   1      33.995  19.708  24.785  1.00  0.00     0.041 C 
BRANCH  26  28
ATOM     28  O   UNL A   1      33.369  20.508  26.980  1.00  0.00    -0.391 OA
ATOM     29  H   UNL A   1      32.433  20.315  26.818  1.00  0.00     0.211 HD
ENDBRANCH  26  28
ENDBRANCH   5  26
ENDBRANCH   3   5
ENDBRANCH   2   3
ENDBRANCH   1   2
BRANCH   1  30
ATOM     30  C   UNL A   1      37.406  22.784  25.179  1.00  0.00     0.202 C 
BRANCH  30  31
ATOM     31  O   UNL A   1      37.880  21.443  25.292  1.00  0.00    -0.374 OA
BRANCH  31  32
ATOM     32  C   UNL A   1      39.227  21.281  25.735  1.00  0.00     0.202 C 
BRANCH  32  33
ATOM     33  C   UNL A   1      39.653  19.839  26.052  1.00  0.00     0.261 C 
BRANCH  33  34
ATOM     34  O   UNL A   1      40.789  19.408  25.282  1.00  0.00    -0.460 OA
BRANCH  34  35
ATOM     35  C   UNL A   1      41.939  19.182  25.962  1.00  0.00     0.338 C 
ATOM     36  O   UNL A   1      42.476  18.100  26.162  1.00  0.00    -0.246 OA
BRANCH  35  37
ATOM     37  C   UNL A   1      42.543  20.475  26.356  1.00  0.00     0.060 A 
ATOM     38  C   UNL A   1      42.501  20.914  27.680  1.00  0.00     0.016 A 
ATOM     39  C   UNL A   1      43.127  21.285  25.392  1.00  0.00     0.016 A 
ATOM     40  C   UNL A   1      43.008  22.180  28.015  1.00  0.00     0.010 A 
ATOM     41  C   UNL A   1      43.652  22.532  25.719  1.00  0.00     0.010 A 
ATOM     42  C   UNL A   1      43.563  23.014  27.029  1.00  0.00    -0.014 A 
BRANCH  42  43
ATOM     43  C   UNL A   1      43.986  24.414  27.304  1.00  0.00     0.031 A 
ATOM     44  C   UNL A   1      42.956  25.439  27.713  1.00  0.00     0.074 A 
ATOM     45  C   UNL A   1      45.261  24.798  27.104  1.00  0.00     0.049 A 
ATOM     46  N   UNL A   1      43.093  26.727  27.916  1.00  0.00    -0.248 NA
ATOM     47  C   UNL A   1      41.575  24.957  27.874  1.00  0.00     0.031 C 
ATOM     48  C   UNL A   1      46.341  23.933  26.636  1.00  0.00     0.029 A 
ATOM     49  N   UNL A   1      45.855  26.028  27.251  1.00  0.00    -0.354 N 
ATOM     50  C   UNL A   1      41.821  27.205  28.208  1.00  0.00     0.074 A 
ATOM     51  C   UNL A   1      40.914  26.084  28.090  1.00  0.00     0.031 C 
ATOM     52  C   UNL A   1      47.471  24.653  26.552  1.00  0.00     0.029 A 
ATOM     53  C   UNL A   1      47.190  26.037  26.929  1.00  0.00     0.049 A 
ATOM     54  H   UNL A   1      45.370  26.828  27.559  1.00  0.00     0.167 HD
ATOM     55  C   UNL A   1      41.441  28.455  28.569  1.00  0.00     0.037 A 
ATOM     56  C   UNL A   1      48.081  27.049  26.931  1.00  0.00     0.037 A 
ATOM     57  C   UNL A   1      42.347  29.564  28.719  1.00  0.00     0.049 A 
ATOM     58  C   UNL A   1      47.641  28.430  27.348  1.00  0.00     0.074 A 
ATOM     59  C   UNL A   1      42.074  30.847  29.160  1.00  0.00     0.029 A 
ATOM     60  N   UNL A   1      43.701  29.522  28.423  1.00  0.00    -0.354 N 
ATOM     61  N   UNL A   1      46.454  28.848  27.716  1.00  0.00    -0.248 NA
ATOM     62  C   UNL A   1      48.671  29.480  27.358  1.00  0.00     0.031 C 
ATOM     63  C   UNL A   1      43.252  31.596  29.081  1.00  0.00     0.029 A 
ATOM     64  C   UNL A   1      44.272  30.764  28.651  1.00  0.00     0.049 A 
ATOM     65  H   UNL A   1      44.186  28.728  28.101  1.00  0.00     0.167 HD
ATOM     66  C   UNL A   1      46.602  30.193  28.033  1.00  0.00     0.074 A 
ATOM     67  C   UNL A   1      47.996  30.520  27.826  1.00  0.00     0.031 C 
ATOM     68  C   UNL A   1      45.666  31.076  28.460  1.00  0.00     0.037 A 
BRANCH  55  69
ATOM     69  C   UNL A   1      39.981  28.692  28.846  1.00  0.00     0.064 A 
ATOM     70  C   UNL A   1      39.431  28.493  30.123  1.00  0.00     0.173 A 
ATOM     71  C   UNL A   1      39.131  29.170  27.837  1.00  0.00     0.173 A 
ATOM     72  F   UNL A   1      40.198  28.035  31.124  1.00  0.00    -0.203 F 
ATOM     73  C   UNL A   1      38.080  28.725  30.367  1.00  0.00     0.198 A 
ATOM     74  C   UNL A   1      37.788  29.437  28.095  1.00  0.00     0.198 A 
ATOM     75  F   UNL A   1      39.603  29.392  26.601  1.00  0.00    -0.203 F 
ATOM     76  F   UNL A   1      37.568  28.472  31.580  1.00  0.00    -0.200 F 
ATOM     77  C   UNL A   1      37.262  29.205  29.357  1.00  0.00     0.200 A 
ATOM     78  F   UNL A   1      37.003  29.920  27.122  1.00  0.00    -0.200 F 
ATOM     79  F   UNL A   1      35.964  29.436  29.597  1.00  0.00    -0.200 F 
ENDBRANCH  55  69
BRANCH  56  80
ATOM     80  C   UNL A   1      49.497  26.790  26.554  1.00  0.00     0.064 A 
ATOM     81  C   UNL A   1      49.929  26.961  25.231  1.00  0.00     0.173 A 
ATOM     82  C   UNL A   1      50.439  26.355  27.497  1.00  0.00     0.173 A 
ATOM     83  F   UNL A   1      49.058  27.351  24.287  1.00  0.00    -0.203 F 
ATOM     84  C   UNL A   1      51.242  26.682  24.860  1.00  0.00     0.198 A 
ATOM     85  C   UNL A   1      51.761  26.108  27.131  1.00  0.00     0.198 A 
ATOM     86  F   UNL A   1      50.078  26.177  28.775  1.00  0.00    -0.203 F 
ATOM     87  F   UNL A   1      51.614  26.798  23.577  1.00  0.00    -0.200 F 
ATOM     88  C   UNL A   1      52.159  26.261  25.811  1.00  0.00     0.200 A 
ATOM     89  F   UNL A   1      52.648  25.713  28.055  1.00  0.00    -0.200 F 
ATOM     90  F   UNL A   1      53.422  25.993  25.455  1.00  0.00    -0.200 F 
ENDBRANCH  56  80
BRANCH  68  91
ATOM     91  C   UNL A   1      46.116  32.473  28.782  1.00  0.00     0.064 A 
ATOM     92  C   UNL A   1      46.595  32.823  30.053  1.00  0.00     0.173 A 
ATOM     93  C   UNL A   1      46.125  33.461  27.784  1.00  0.00     0.173 A 
ATOM     94  F   UNL A   1      46.597  31.921  31.046  1.00  0.00    -0.203 F 
ATOM     95  C   UNL A   1      47.046  34.114  30.317  1.00  0.00     0.198 A 
ATOM     96  C   UNL A   1      46.607  34.740  28.043  1.00  0.00     0.198 A 
ATOM     97  F   UNL A   1      45.686  33.178  26.549  1.00  0.00    -0.203 F 
ATOM     98  F   UNL A   1      47.460  34.437  31.552  1.00  0.00    -0.200 F 
ATOM     99  C   UNL A   1      47.062  35.068  29.312  1.00  0.00     0.200 A 
ATOM    100  F   UNL A   1      46.638  35.655  27.064  1.00  0.00    -0.200 F 
ATOM    101  F   UNL A   1      47.511  36.304  29.565  1.00  0.00    -0.200 F 
ENDBRANCH  68  91
ENDBRANCH  42  43
ENDBRANCH  35  37
ENDBRANCH  34  35
ENDBRANCH  33  34
ENDBRANCH  32  33
ENDBRANCH  31  32
ENDBRANCH  30  31
ENDBRANCH   1  30
TORSDOF 21
ENDMDL
MODEL 2
REMARK VINA RESULT:     -11.2      0.982      7.177
REMARK SMILES C[C@H](NC(=O)c1ccc(C(C)(C)C)cc1)C(=O)N[C@@H](C(=O)OCCOCCOC(=O)c1ccc(-c2c3nc(c(-c4c(F)c(F)c(F)c(F)c4F)c4ccc([nH]4)c(-c4c(F)c(F)c(F)c(F)c4F)c4nc(c(-c5c(F)c(F)c(F)c(F)c5F)c5ccc2[nH]5)C=C4)C=C3)cc1)[C@H](C)O
REMARK SMILES IDX 23 1 22 2 20 3 21 4 19 5 18 6 16 7 17 8 2 10 1 11 3 12 4 13
REMARK SMILES IDX 5 15 6 16 7 17 15 18 8 19 14 20 9 21 10 22 11 23 12 24 13 25
REMARK SMILES IDX 94 26 95 27 96 28 24 30 25 31 26 32 27 33 28 34 29 35 30 36
REMARK SMILES IDX 31 37 32 38 93 39 33 40 92 41 34 42 35 43 36 44 86 45 37 46
REMARK SMILES IDX 91 47 85 48 87 49 38 50 90 51 84 52 83 53 39 55 71 56 51 57
REMARK SMILES IDX 70 58 52 59 55 60 69 61 88 62 53 63 54 64 68 66 89 67 56 68
REMARK SMILES IDX 40 69 41 70 49 71 42 72 43 73 47 74 50 75 44 76 45 77 48 78
REMARK SMILES IDX 46 79 72 80 73 81 81 82 74 83 75 84 79 85 82 86 76 87 77 88
REMARK SMILES IDX 80 89 78 90 57 91 58 92 66 93 59 94 60 95 64 96 67 97 61 98
REMARK SMILES IDX 62 99 65 100 63 101
REMARK H PARENT 18 9 3 14 96 29 87 54 55 65
REMARK Flexibility Score: inf
ROOT
ATOM      1  C   UNL A   1      36.016  22.919  23.986  1.00  0.00     0.261 C 
ENDROOT
BRANCH   1   2
ATOM      2  O   UNL A   1      34.805  22.796  24.755  1.00  0.00    -0.462 OA
BRANCH   2   3
ATOM      3  C   UNL A   1      33.749  22.233  24.114  1.00  0.00     0.331 C 
ATOM      4  O   UNL A   1      33.558  22.302  22.903  1.00  0.00    -0.250 OA
BRANCH   3   5
ATOM      5  C   UNL A   1      32.715  21.624  25.074  1.00  0.00     0.221 C 
BRANCH   5   6
ATOM      6  N   UNL A   1      32.224  22.386  26.232  1.00  0.00    -0.339 N 
ATOM      7  C   UNL A   1      31.331  23.406  26.311  1.00  0.00     0.243 C 
ATOM      8  O   UNL A   1      30.493  23.353  27.216  1.00  0.00    -0.273 OA
ATOM      9  H   UNL A   1      32.609  22.110  27.096  1.00  0.00     0.164 HD
BRANCH   7  10
ATOM     10  C   UNL A   1      31.303  24.538  25.276  1.00  0.00     0.168 C 
ATOM     11  C   UNL A   1      30.638  24.050  23.988  1.00  0.00     0.041 C 
BRANCH  10  12
ATOM     12  N   UNL A   1      32.615  25.145  25.025  1.00  0.00    -0.341 N 
ATOM     13  C   UNL A   1      32.900  26.234  24.216  1.00  0.00     0.251 C 
ATOM     14  H   UNL A   1      33.381  24.732  25.483  1.00  0.00     0.164 HD
ATOM     15  O   UNL A   1      34.044  26.395  23.797  1.00  0.00    -0.269 OA
BRANCH  13  16
ATOM     16  C   UNL A   1      31.853  27.231  23.871  1.00  0.00     0.039 A 
ATOM     17  C   UNL A   1      31.136  27.162  22.682  1.00  0.00     0.014 A 
ATOM     18  C   UNL A   1      31.668  28.345  24.680  1.00  0.00     0.014 A 
ATOM     19  C   UNL A   1      30.166  28.145  22.381  1.00  0.00     0.005 A 
ATOM     20  C   UNL A   1      30.674  29.291  24.412  1.00  0.00     0.005 A 
ATOM     21  C   UNL A   1      29.887  29.218  23.257  1.00  0.00    -0.043 A 
BRANCH  21  22
ATOM     22  C   UNL A   1      28.831  30.310  22.977  1.00  0.00    -0.013 C 
ATOM     23  C   UNL A   1      29.108  31.592  23.794  1.00  0.00     0.016 C 
ATOM     24  C   UNL A   1      28.784  30.713  21.490  1.00  0.00     0.016 C 
ATOM     25  C   UNL A   1      27.413  29.828  23.372  1.00  0.00     0.016 C 
ENDBRANCH  21  22
ENDBRANCH  13  16
ENDBRANCH  10  12
ENDBRANCH   7  10
ENDBRANCH   5   6
BRANCH   5  26
ATOM     26  C   UNL A   1      33.262  20.282  25.631  1.00  0.00     0.145 C 
ATOM     27  C   UNL A   1      34.131  19.588  24.587  1.00  0.00     0.041 C 
BRANCH  26  28
ATOM     28  O   UNL A   1      32.157  19.416  25.976  1.00  0.00    -0.391 OA
ATOM     29  H   UNL A   1      31.601  19.851  26.641  1.00  0.00     0.211 HD
ENDBRANCH  26  28
ENDBRANCH   5  26
ENDBRANCH   3   5
ENDBRANCH   2   3
ENDBRANCH   1   2
BRANCH   1  30
ATOM     30  C   UNL A   1      36.939  21.727  24.226  1.00  0.00     0.202 C 
BRANCH  30  31
ATOM     31  O   UNL A   1      37.369  21.559  25.576  1.00  0.00    -0.374 OA
BRANCH  31  32
ATOM     32  C   UNL A   1      38.770  21.373  25.778  1.00  0.00     0.202 C 
BRANCH  32  33
ATOM     33  C   UNL A   1      39.295  19.952  25.523  1.00  0.00     0.261 C 
BRANCH  33  34
ATOM     34  O   UNL A   1      40.280  19.538  26.486  1.00  0.00    -0.460 OA
BRANCH  34  35
ATOM     35  C   UNL A   1      41.579  19.620  26.107  1.00  0.00     0.338 C 
ATOM     36  O   UNL A   1      42.230  18.768  25.517  1.00  0.00    -0.246 OA
BRANCH  35  37
ATOM     37  C   UNL A   1      42.099  20.972  26.416  1.00  0.00     0.060 A 
ATOM     38  C   UNL A   1      42.326  21.370  27.734  1.00  0.00     0.016 A 
ATOM     39  C   UNL A   1      42.329  21.874  25.386  1.00  0.00     0.016 A 
ATOM     40  C   UNL A   1      42.742  22.684  28.006  1.00  0.00     0.010 A 
ATOM     41  C   UNL A   1      42.762  23.171  25.646  1.00  0.00     0.010 A 
ATOM     42  C   UNL A   1      42.935  23.606  26.963  1.00  0.00    -0.014 A 
BRANCH  42  43
ATOM     43  C   UNL A   1      43.240  25.042  27.205  1.00  0.00     0.031 A 
ATOM     44  C   UNL A   1      44.618  25.576  26.896  1.00  0.00     0.074 A 
ATOM     45  C   UNL A   1      42.331  25.849  27.782  1.00  0.00     0.049 A 
ATOM     46  N   UNL A   1      45.121  26.768  27.110  1.00  0.00    -0.248 NA
ATOM     47  C   UNL A   1      45.574  24.627  26.303  1.00  0.00     0.031 C 
ATOM     48  C   UNL A   1      40.991  25.448  28.205  1.00  0.00     0.029 A 
ATOM     49  N   UNL A   1      42.410  27.176  28.133  1.00  0.00    -0.354 N 
ATOM     50  C   UNL A   1      46.447  26.702  26.698  1.00  0.00     0.074 A 
ATOM     51  C   UNL A   1      46.691  25.338  26.284  1.00  0.00     0.031 C 
ATOM     52  C   UNL A   1      40.366  26.509  28.740  1.00  0.00     0.029 A 
ATOM     53  C   UNL A   1      41.270  27.658  28.729  1.00  0.00     0.049 A 
ATOM     54  H   UNL A   1      43.209  27.729  27.972  1.00  0.00     0.167 HD
ATOM     55  C   UNL A   1      47.372  27.692  26.641  1.00  0.00     0.037 A 
ATOM     56  C   UNL A   1      40.992  28.884  29.216  1.00  0.00     0.037 A 
ATOM     57  C   UNL A   1      47.121  29.057  27.022  1.00  0.00     0.049 A 
ATOM     58  C   UNL A   1      42.031  29.974  29.131  1.00  0.00     0.074 A 
ATOM     59  C   UNL A   1      47.965  30.150  26.923  1.00  0.00     0.029 A 
ATOM     60  N   UNL A   1      45.937  29.515  27.582  1.00  0.00    -0.354 N 
ATOM     61  N   UNL A   1      43.250  29.925  28.650  1.00  0.00    -0.248 NA
ATOM     62  C   UNL A   1      41.650  31.295  29.653  1.00  0.00     0.031 C 
ATOM     63  C   UNL A   1      47.312  31.257  27.473  1.00  0.00     0.029 A 
ATOM     64  C   UNL A   1      46.039  30.870  27.855  1.00  0.00     0.049 A 
ATOM     65  H   UNL A   1      45.143  28.961  27.758  1.00  0.00     0.167 HD
ATOM     66  C   UNL A   1      43.764  31.209  28.776  1.00  0.00     0.074 A 
ATOM     67  C   UNL A   1      42.724  32.020  29.370  1.00  0.00     0.031 C 
ATOM     68  C   UNL A   1      44.990  31.674  28.430  1.00  0.00     0.037 A 
BRANCH  55  69
ATOM     69  C   UNL A   1      48.744  27.341  26.132  1.00  0.00     0.064 A 
ATOM     70  C   UNL A   1      49.051  27.368  24.762  1.00  0.00     0.173 A 
ATOM     71  C   UNL A   1      49.777  27.019  27.026  1.00  0.00     0.173 A 
ATOM     72  F   UNL A   1      48.100  27.666  23.863  1.00  0.00    -0.203 F 
ATOM     73  C   UNL A   1      50.326  27.050  24.305  1.00  0.00     0.198 A 
ATOM     74  C   UNL A   1      51.062  26.738  26.567  1.00  0.00     0.198 A 
ATOM     75  F   UNL A   1      49.547  26.991  28.347  1.00  0.00    -0.203 F 
ATOM     76  F   UNL A   1      50.578  27.028  22.988  1.00  0.00    -0.200 F 
ATOM     77  C   UNL A   1      51.333  26.744  25.207  1.00  0.00     0.200 A 
ATOM     78  F   UNL A   1      52.039  26.462  27.442  1.00  0.00    -0.200 F 
ATOM     79  F   UNL A   1      52.563  26.447  24.766  1.00  0.00    -0.200 F 
ENDBRANCH  55  69
BRANCH  56  80
ATOM     80  C   UNL A   1      39.653  29.162  29.802  1.00  0.00     0.064 A 
ATOM     81  C   UNL A   1      38.598  29.611  28.996  1.00  0.00     0.173 A 
ATOM     82  C   UNL A   1      39.405  29.002  31.172  1.00  0.00     0.173 A 
ATOM     83  F   UNL A   1      38.794  29.805  27.682  1.00  0.00    -0.203 F 
ATOM     84  C   UNL A   1      37.352  29.914  29.541  1.00  0.00     0.198 A 
ATOM     85  C   UNL A   1      38.148  29.274  31.712  1.00  0.00     0.198 A 
ATOM     86  F   UNL A   1      40.379  28.575  31.987  1.00  0.00    -0.203 F 
ATOM     87  F   UNL A   1      36.378  30.395  28.756  1.00  0.00    -0.200 F 
ATOM     88  C   UNL A   1      37.126  29.738  30.898  1.00  0.00     0.200 A 
ATOM     89  F   UNL A   1      37.929  29.092  33.021  1.00  0.00    -0.200 F 
ATOM     90  F   UNL A   1      35.928  30.030  31.423  1.00  0.00    -0.200 F 
ENDBRANCH  56  80
BRANCH  68  91
ATOM     91  C   UNL A   1      45.268  33.136  28.634  1.00  0.00     0.064 A 
ATOM     92  C   UNL A   1      44.863  34.105  27.704  1.00  0.00     0.173 A 
ATOM     93  C   UNL A   1      45.896  33.580  29.809  1.00  0.00     0.173 A 
ATOM     94  F   UNL A   1      44.269  33.735  26.558  1.00  0.00    -0.203 F 
ATOM     95  C   UNL A   1      45.094  35.459  27.933  1.00  0.00     0.198 A 
ATOM     96  C   UNL A   1      46.095  34.936  30.050  1.00  0.00     0.198 A 
ATOM     97  F   UNL A   1      46.295  32.697  30.736  1.00  0.00    -0.203 F 
ATOM     98  F   UNL A   1      44.735  36.363  27.010  1.00  0.00    -0.200 F 
ATOM     99  C   UNL A   1      45.699  35.875  29.109  1.00  0.00     0.200 A 
ATOM    100  F   UNL A   1      46.665  35.336  31.196  1.00  0.00    -0.200 F 
ATOM    101  F   UNL A   1      45.906  37.179  29.334  1.00  0.00    -0.200 F 
ENDBRANCH  68  91
ENDBRANCH  42  43
ENDBRANCH  35  37
ENDBRANCH  34  35
ENDBRANCH  33  34
ENDBRANCH  32  33
ENDBRANCH  31  32
ENDBRANCH  30  31
ENDBRANCH   1  30
TORSDOF 21
ENDMDL
MODEL 3
REMARK VINA RESULT:     -11.0      3.322      9.216
REMARK SMILES C[C@H](NC(=O)c1ccc(C(C)(C)C)cc1)C(=O)N[C@@H](C(=O)OCCOCCOC(=O)c1ccc(-c2c3nc(c(-c4c(F)c(F)c(F)c(F)c4F)c4ccc([nH]4)c(-c4c(F)c(F)c(F)c(F)c4F)c4nc(c(-c5c(F)c(F)c(F)c(F)c5F)c5ccc2[nH]5)C=C4)C=C3)cc1)[C@H](C)O
REMARK SMILES IDX 23 1 22 2 20 3 21 4 19 5 18 6 16 7 17 8 2 10 1 11 3 12 4 13
REMARK SMILES IDX 5 15 6 16 7 17 15 18 8 19 14 20 9 21 10 22 11 23 12 24 13 25
REMARK SMILES IDX 94 26 95 27 96 28 24 30 25 31 26 32 27 33 28 34 29 35 30 36
REMARK SMILES IDX 31 37 32 38 93 39 33 40 92 41 34 42 35 43 36 44 86 45 37 46
REMARK SMILES IDX 91 47 85 48 87 49 38 50 90 51 84 52 83 53 39 55 71 56 51 57
REMARK SMILES IDX 70 58 52 59 55 60 69 61 88 62 53 63 54 64 68 66 89 67 56 68
REMARK SMILES IDX 40 69 41 70 49 71 42 72 43 73 47 74 50 75 44 76 45 77 48 78
REMARK SMILES IDX 46 79 72 80 73 81 81 82 74 83 75 84 79 85 82 86 76 87 77 88
REMARK SMILES IDX 80 89 78 90 57 91 58 92 66 93 59 94 60 95 64 96 67 97 61 98
REMARK SMILES IDX 62 99 65 100 63 101
REMARK H PARENT 18 9 3 14 96 29 87 54 55 65
REMARK Flexibility Score: inf
ROOT
ATOM      1  C   UNL A   1      34.528  31.246  27.832  1.00  0.00     0.261 C 
ENDROOT
BRANCH   1   2
ATOM      2  O   UNL A   1      33.595  30.221  27.442  1.00  0.00    -0.462 OA
BRANCH   2   3
ATOM      3  C   UNL A   1      34.139  29.041  27.052  1.00  0.00     0.331 C 
ATOM      4  O   UNL A   1      35.313  28.729  27.225  1.00  0.00    -0.250 OA
BRANCH   3   5
ATOM      5  C   UNL A   1      33.174  28.178  26.222  1.00  0.00     0.221 C 
BRANCH   5   6
ATOM      6  N   UNL A   1      32.382  28.771  25.134  1.00  0.00    -0.339 N 
ATOM      7  C   UNL A   1      32.150  28.340  23.868  1.00  0.00     0.243 C 
ATOM      8  O   UNL A   1      30.990  28.418  23.450  1.00  0.00    -0.273 OA
ATOM      9  H   UNL A   1      31.948  29.625  25.364  1.00  0.00     0.164 HD
BRANCH   7  10
ATOM     10  C   UNL A   1      33.254  27.707  23.014  1.00  0.00     0.168 C 
ATOM     11  C   UNL A   1      34.360  28.729  22.749  1.00  0.00     0.041 C 
BRANCH  10  12
ATOM     12  N   UNL A   1      32.766  27.088  21.775  1.00  0.00    -0.341 N 
ATOM     13  C   UNL A   1      32.905  25.767  21.380  1.00  0.00     0.251 C 
ATOM     14  H   UNL A   1      32.284  27.680  21.153  1.00  0.00     0.164 HD
ATOM     15  O   UNL A   1      32.799  25.476  20.190  1.00  0.00    -0.269 OA
BRANCH  13  16
ATOM     16  C   UNL A   1      33.146  24.688  22.372  1.00  0.00     0.039 A 
ATOM     17  C   UNL A   1      34.430  24.262  22.696  1.00  0.00     0.014 A 
ATOM     18  C   UNL A   1      32.074  23.982  22.899  1.00  0.00     0.014 A 
ATOM     19  C   UNL A   1      34.616  23.215  23.627  1.00  0.00     0.005 A 
ATOM     20  C   UNL A   1      32.252  22.981  23.860  1.00  0.00     0.005 A 
ATOM     21  C   UNL A   1      33.529  22.570  24.258  1.00  0.00    -0.043 A 
BRANCH  21  22
ATOM     22  C   UNL A   1      33.682  21.430  25.289  1.00  0.00    -0.013 C 
ATOM     23  C   UNL A   1      35.107  20.834  25.271  1.00  0.00     0.016 C 
ATOM     24  C   UNL A   1      33.397  21.899  26.730  1.00  0.00     0.016 C 
ATOM     25  C   UNL A   1      32.708  20.265  24.981  1.00  0.00     0.016 C 
ENDBRANCH  21  22
ENDBRANCH  13  16
ENDBRANCH  10  12
ENDBRANCH   7  10
ENDBRANCH   5   6
BRANCH   5  26
ATOM     26  C   UNL A   1      32.163  27.481  27.173  1.00  0.00     0.145 C 
ATOM     27  C   UNL A   1      31.457  26.338  26.451  1.00  0.00     0.041 C 
BRANCH  26  28
ATOM     28  O   UNL A   1      31.177  28.440  27.616  1.00  0.00    -0.391 OA
ATOM     29  H   UNL A   1      30.347  27.981  27.816  1.00  0.00     0.211 HD
ENDBRANCH  26  28
ENDBRANCH   5  26
ENDBRANCH   3   5
ENDBRANCH   2   3
ENDBRANCH   1   2
BRANCH   1  30
ATOM     30  C   UNL A   1      33.821  32.586  28.020  1.00  0.00     0.202 C 
BRANCH  30  31
ATOM     31  O   UNL A   1      34.648  33.641  28.508  1.00  0.00    -0.374 OA
BRANCH  31  32
ATOM     32  C   UNL A   1      34.308  34.176  29.787  1.00  0.00     0.202 C 
BRANCH  32  33
ATOM     33  C   UNL A   1      34.546  33.239  30.981  1.00  0.00     0.261 C 
BRANCH  33  34
ATOM     34  O   UNL A   1      35.611  33.685  31.840  1.00  0.00    -0.460 OA
BRANCH  34  35
ATOM     35  C   UNL A   1      36.143  32.768  32.683  1.00  0.00     0.338 C 
ATOM     36  O   UNL A   1      35.755  32.490  33.810  1.00  0.00    -0.246 OA
BRANCH  35  37
ATOM     37  C   UNL A   1      37.232  32.038  31.994  1.00  0.00     0.060 A 
ATOM     38  C   UNL A   1      38.016  31.107  32.677  1.00  0.00     0.016 A 
ATOM     39  C   UNL A   1      37.507  32.306  30.660  1.00  0.00     0.016 A 
ATOM     40  C   UNL A   1      39.095  30.487  32.025  1.00  0.00     0.010 A 
ATOM     41  C   UNL A   1      38.560  31.680  30.000  1.00  0.00     0.010 A 
ATOM     42  C   UNL A   1      39.394  30.792  30.686  1.00  0.00    -0.014 A 
BRANCH  42  43
ATOM     43  C   UNL A   1      40.603  30.270  29.993  1.00  0.00     0.031 A 
ATOM     44  C   UNL A   1      41.763  31.196  29.716  1.00  0.00     0.074 A 
ATOM     45  C   UNL A   1      40.638  29.007  29.530  1.00  0.00     0.049 A 
ATOM     46  N   UNL A   1      42.872  30.972  29.053  1.00  0.00    -0.248 NA
ATOM     47  C   UNL A   1      41.640  32.574  30.217  1.00  0.00     0.031 C 
ATOM     48  C   UNL A   1      39.560  28.029  29.657  1.00  0.00     0.029 A 
ATOM     49  N   UNL A   1      41.617  28.338  28.835  1.00  0.00    -0.354 N 
ATOM     50  C   UNL A   1      43.561  32.179  29.043  1.00  0.00     0.074 A 
ATOM     51  C   UNL A   1      42.718  33.150  29.707  1.00  0.00     0.031 C 
ATOM     52  C   UNL A   1      39.942  26.879  29.078  1.00  0.00     0.029 A 
ATOM     53  C   UNL A   1      41.279  27.047  28.510  1.00  0.00     0.049 A 
ATOM     54  H   UNL A   1      42.481  28.746  28.594  1.00  0.00     0.167 HD
ATOM     55  C   UNL A   1      44.795  32.453  28.553  1.00  0.00     0.037 A 
ATOM     56  C   UNL A   1      41.967  26.111  27.827  1.00  0.00     0.037 A 
ATOM     57  C   UNL A   1      45.649  31.481  27.921  1.00  0.00     0.049 A 
ATOM     58  C   UNL A   1      43.343  26.432  27.301  1.00  0.00     0.074 A 
ATOM     59  C   UNL A   1      46.947  31.638  27.467  1.00  0.00     0.029 A 
ATOM     60  N   UNL A   1      45.285  30.170  27.649  1.00  0.00    -0.354 N 
ATOM     61  N   UNL A   1      44.025  27.549  27.383  1.00  0.00    -0.248 NA
ATOM     62  C   UNL A   1      44.050  25.354  26.592  1.00  0.00     0.031 C 
ATOM     63  C   UNL A   1      47.349  30.439  26.872  1.00  0.00     0.029 A 
ATOM     64  C   UNL A   1      46.327  29.515  27.011  1.00  0.00     0.049 A 
ATOM     65  H   UNL A   1      44.417  29.765  27.876  1.00  0.00     0.167 HD
ATOM     66  C   UNL A   1      45.248  27.299  26.772  1.00  0.00     0.074 A 
ATOM     67  C   UNL A   1      45.221  25.921  26.333  1.00  0.00     0.031 C 
ATOM     68  C   UNL A   1      46.298  28.136  26.593  1.00  0.00     0.037 A 
BRANCH  55  69
ATOM     69  C   UNL A   1      45.309  33.860  28.693  1.00  0.00     0.064 A 
ATOM     70  C   UNL A   1      45.078  34.831  27.705  1.00  0.00     0.173 A 
ATOM     71  C   UNL A   1      46.000  34.257  29.849  1.00  0.00     0.173 A 
ATOM     72  F   UNL A   1      44.425  34.507  26.579  1.00  0.00    -0.203 F 
ATOM     73  C   UNL A   1      45.552  36.132  27.852  1.00  0.00     0.198 A 
ATOM     74  C   UNL A   1      46.439  35.569  30.008  1.00  0.00     0.198 A 
ATOM     75  F   UNL A   1      46.238  33.376  30.832  1.00  0.00    -0.203 F 
ATOM     76  F   UNL A   1      45.368  37.025  26.869  1.00  0.00    -0.200 F 
ATOM     77  C   UNL A   1      46.224  36.503  29.006  1.00  0.00     0.200 A 
ATOM     78  F   UNL A   1      47.072  35.930  31.134  1.00  0.00    -0.200 F 
ATOM     79  F   UNL A   1      46.671  37.757  29.149  1.00  0.00    -0.200 F 
ENDBRANCH  55  69
BRANCH  56  80
ATOM     80  C   UNL A   1      41.379  24.759  27.625  1.00  0.00     0.064 A 
ATOM     81  C   UNL A   1      41.894  23.645  28.303  1.00  0.00     0.173 A 
ATOM     82  C   UNL A   1      40.307  24.549  26.745  1.00  0.00     0.173 A 
ATOM     83  F   UNL A   1      42.936  23.791  29.136  1.00  0.00    -0.203 F 
ATOM     84  C   UNL A   1      41.377  22.369  28.090  1.00  0.00     0.198 A 
ATOM     85  C   UNL A   1      39.770  23.276  26.558  1.00  0.00     0.198 A 
ATOM     86  F   UNL A   1      39.778  25.580  26.072  1.00  0.00    -0.203 F 
ATOM     87  F   UNL A   1      41.927  21.314  28.709  1.00  0.00    -0.200 F 
ATOM     88  C   UNL A   1      40.312  22.187  27.223  1.00  0.00     0.200 A 
ATOM     89  F   UNL A   1      38.732  23.105  25.728  1.00  0.00    -0.200 F 
ATOM     90  F   UNL A   1      39.814  20.959  27.018  1.00  0.00    -0.200 F 
ENDBRANCH  56  80
BRANCH  68  91
ATOM     91  C   UNL A   1      47.532  27.583  25.937  1.00  0.00     0.064 A 
ATOM     92  C   UNL A   1      47.726  27.646  24.549  1.00  0.00     0.173 A 
ATOM     93  C   UNL A   1      48.564  27.038  26.718  1.00  0.00     0.173 A 
ATOM     94  F   UNL A   1      46.766  28.147  23.756  1.00  0.00    -0.203 F 
ATOM     95  C   UNL A   1      48.896  27.165  23.967  1.00  0.00     0.198 A 
ATOM     96  C   UNL A   1      49.745  26.589  26.136  1.00  0.00     0.198 A 
ATOM     97  F   UNL A   1      48.435  26.962  28.051  1.00  0.00    -0.203 F 
ATOM     98  F   UNL A   1      49.040  27.197  22.634  1.00  0.00    -0.200 F 
ATOM     99  C   UNL A   1      49.908  26.647  24.760  1.00  0.00     0.200 A 
ATOM    100  F   UNL A   1      50.729  26.104  26.907  1.00  0.00    -0.200 F 
ATOM    101  F   UNL A   1      51.039  26.199  24.198  1.00  0.00    -0.200 F 
ENDBRANCH  68  91
ENDBRANCH  42  43
ENDBRANCH  35  37
ENDBRANCH  34  35
ENDBRANCH  33  34
ENDBRANCH  32  33
ENDBRANCH  31  32
ENDBRANCH  30  31
ENDBRANCH   1  30
TORSDOF 21
ENDMDL
