MODEL 1
REMARK VINA RESULT:     -11.6      0.000      0.000
REMARK SMILES COc1ccc([C@H](C(=O)OCCOCCOC(=O)c2ccc(-c3c4nc(c(-c5c(F)c(F)c(F)c(F)c5F)c5ccc([nH]5)c(-c5c(F)c(F)c(F)c(F)c5F)c5nc(c(-c6c(F)c(F)c(F)c(F)c6F)c6ccc3[nH]6)C=C5)C=C4)cc2)c2ccc(O)nn2)cc1
REMARK SMILES IDX 13 1 12 2 11 3 10 4 8 5 9 6 7 7 6 8 3 9 4 10 90 11 5 12
REMARK SMILES IDX 89 13 2 14 1 15 82 16 83 17 88 18 84 19 87 20 85 21 86 22
REMARK SMILES IDX 14 24 15 25 16 26 17 27 18 28 19 29 20 30 81 31 21 32 80 33
REMARK SMILES IDX 22 34 23 35 24 36 74 37 25 38 79 39 73 40 75 41 26 42 78 43
REMARK SMILES IDX 72 44 71 45 27 47 59 48 39 49 58 50 40 51 43 52 57 53 76 54
REMARK SMILES IDX 41 55 42 56 56 58 77 59 44 60 28 61 29 62 37 63 30 64 31 65
REMARK SMILES IDX 35 66 38 67 32 68 33 69 36 70 34 71 60 72 61 73 69 74 62 75
REMARK SMILES IDX 63 76 67 77 70 78 64 79 65 80 68 81 66 82 45 83 46 84 54 85
REMARK SMILES IDX 47 86 48 87 52 88 55 89 49 90 50 91 53 92 51 93
REMARK H PARENT 86 23 75 46 43 57
REMARK Flexibility Score: inf
ROOT
ATOM      1  O   UNL A   1      32.568  29.598  24.511  1.00  0.00    -0.374 OA
ENDROOT
BRANCH   1   2
ATOM      2  C   UNL A   1      32.351  28.760  23.371  1.00  0.00     0.202 C 
BRANCH   2   3
ATOM      3  C   UNL A   1      33.507  27.823  23.010  1.00  0.00     0.261 C 
BRANCH   3   4
ATOM      4  O   UNL A   1      33.104  26.470  23.281  1.00  0.00    -0.462 OA
BRANCH   4   5
ATOM      5  C   UNL A   1      33.622  25.904  24.410  1.00  0.00     0.319 C 
ATOM      6  O   UNL A   1      34.033  26.535  25.375  1.00  0.00    -0.251 OA
BRANCH   5   7
ATOM      7  C   UNL A   1      33.600  24.381  24.281  1.00  0.00     0.180 C 
BRANCH   7   8
ATOM      8  C   UNL A   1      34.953  23.712  24.508  1.00  0.00    -0.027 A 
ATOM      9  C   UNL A   1      37.403  22.396  24.991  1.00  0.00     0.118 A 
ATOM     10  C   UNL A   1      36.808  23.164  25.989  1.00  0.00     0.047 A 
ATOM     11  C   UNL A   1      36.752  22.237  23.771  1.00  0.00     0.047 A 
ATOM     12  C   UNL A   1      35.594  23.813  25.755  1.00  0.00     0.009 A 
ATOM     13  C   UNL A   1      35.538  22.888  23.532  1.00  0.00     0.009 A 
BRANCH   9  14
ATOM     14  O   UNL A   1      38.590  21.809  25.327  1.00  0.00    -0.497 OA
ATOM     15  C   UNL A   1      39.206  22.330  26.501  1.00  0.00     0.278 C 
ENDBRANCH   9  14
ENDBRANCH   7   8
BRANCH   7  16
ATOM     16  C   UNL A   1      32.445  23.852  25.115  1.00  0.00     0.082 A 
ATOM     17  C   UNL A   1      31.888  22.592  24.913  1.00  0.00     0.032 A 
ATOM     18  N   UNL A   1      32.007  24.658  26.118  1.00  0.00    -0.151 NA
ATOM     19  C   UNL A   1      30.868  22.168  25.754  1.00  0.00     0.072 A 
ATOM     20  N   UNL A   1      31.012  24.238  26.949  1.00  0.00    -0.112 NA
ATOM     21  C   UNL A   1      30.473  23.022  26.753  1.00  0.00     0.230 A 
BRANCH  21  22
ATOM     22  O   UNL A   1      29.496  22.663  27.625  1.00  0.00    -0.492 OA
ATOM     23  H   UNL A   1      29.676  22.632  28.544  1.00  0.00     0.295 HD
ENDBRANCH  21  22
ENDBRANCH   7  16
ENDBRANCH   5   7
ENDBRANCH   4   5
ENDBRANCH   3   4
ENDBRANCH   2   3
ENDBRANCH   1   2
BRANCH   1  24
ATOM     24  C   UNL A   1      31.418  30.069  25.213  1.00  0.00     0.202 C 
BRANCH  24  25
ATOM     25  C   UNL A   1      31.666  31.090  26.331  1.00  0.00     0.261 C 
BRANCH  25  26
ATOM     26  O   UNL A   1      32.821  30.777  27.129  1.00  0.00    -0.460 OA
BRANCH  26  27
ATOM     27  C   UNL A   1      33.544  31.859  27.504  1.00  0.00     0.338 C 
ATOM     28  O   UNL A   1      33.150  33.011  27.632  1.00  0.00    -0.246 OA
BRANCH  27  29
ATOM     29  C   UNL A   1      34.902  31.458  27.905  1.00  0.00     0.060 A 
ATOM     30  C   UNL A   1      35.108  30.105  28.195  1.00  0.00     0.016 A 
ATOM     31  C   UNL A   1      35.930  32.387  28.086  1.00  0.00     0.016 A 
ATOM     32  C   UNL A   1      36.329  29.681  28.712  1.00  0.00     0.010 A 
ATOM     33  C   UNL A   1      37.156  31.960  28.613  1.00  0.00     0.010 A 
ATOM     34  C   UNL A   1      37.348  30.611  28.959  1.00  0.00    -0.014 A 
BRANCH  34  35
ATOM     35  C   UNL A   1      38.561  30.160  29.688  1.00  0.00     0.031 A 
ATOM     36  C   UNL A   1      38.786  30.617  31.102  1.00  0.00     0.074 A 
ATOM     37  C   UNL A   1      39.409  29.288  29.119  1.00  0.00     0.049 A 
ATOM     38  N   UNL A   1      39.722  30.266  31.948  1.00  0.00    -0.248 NA
ATOM     39  C   UNL A   1      37.830  31.599  31.635  1.00  0.00     0.031 C 
ATOM     40  C   UNL A   1      39.288  28.758  27.761  1.00  0.00     0.029 A 
ATOM     41  N   UNL A   1      40.535  28.683  29.619  1.00  0.00    -0.354 N 
ATOM     42  C   UNL A   1      39.460  30.972  33.115  1.00  0.00     0.074 A 
ATOM     43  C   UNL A   1      38.305  31.804  32.856  1.00  0.00     0.031 C 
ATOM     44  C   UNL A   1      40.299  27.901  27.538  1.00  0.00     0.029 A 
ATOM     45  C   UNL A   1      41.142  27.831  28.730  1.00  0.00     0.049 A 
ATOM     46  H   UNL A   1      40.875  28.845  30.528  1.00  0.00     0.167 HD
ATOM     47  C   UNL A   1      40.115  30.920  34.300  1.00  0.00     0.037 A 
ATOM     48  C   UNL A   1      42.252  27.080  28.865  1.00  0.00     0.037 A 
ATOM     49  C   UNL A   1      41.268  30.097  34.559  1.00  0.00     0.049 A 
ATOM     50  C   UNL A   1      42.989  27.076  30.179  1.00  0.00     0.074 A 
ATOM     51  C   UNL A   1      41.984  29.956  35.735  1.00  0.00     0.029 A 
ATOM     52  N   UNL A   1      41.880  29.279  33.621  1.00  0.00    -0.354 N 
ATOM     53  N   UNL A   1      42.705  27.709  31.290  1.00  0.00    -0.248 NA
ATOM     54  C   UNL A   1      44.195  26.240  30.257  1.00  0.00     0.031 C 
ATOM     55  C   UNL A   1      43.057  29.090  35.496  1.00  0.00     0.029 A 
ATOM     56  C   UNL A   1      42.981  28.652  34.184  1.00  0.00     0.049 A 
ATOM     57  H   UNL A   1      41.576  29.160  32.692  1.00  0.00     0.167 HD
ATOM     58  C   UNL A   1      43.682  27.335  32.203  1.00  0.00     0.074 A 
ATOM     59  C   UNL A   1      44.554  26.402  31.522  1.00  0.00     0.031 C 
ATOM     60  C   UNL A   1      43.845  27.732  33.490  1.00  0.00     0.037 A 
BRANCH  47  61
ATOM     61  C   UNL A   1      39.607  31.794  35.409  1.00  0.00     0.064 A 
ATOM     62  C   UNL A   1      40.073  33.106  35.581  1.00  0.00     0.173 A 
ATOM     63  C   UNL A   1      38.619  31.327  36.288  1.00  0.00     0.173 A 
ATOM     64  F   UNL A   1      41.027  33.596  34.774  1.00  0.00    -0.203 F 
ATOM     65  C   UNL A   1      39.584  33.911  36.607  1.00  0.00     0.198 A 
ATOM     66  C   UNL A   1      38.114  32.143  37.297  1.00  0.00     0.198 A 
ATOM     67  F   UNL A   1      38.138  30.081  36.164  1.00  0.00    -0.203 F 
ATOM     68  F   UNL A   1      40.071  35.147  36.778  1.00  0.00    -0.200 F 
ATOM     69  C   UNL A   1      38.600  33.432  37.459  1.00  0.00     0.200 A 
ATOM     70  F   UNL A   1      37.156  31.681  38.113  1.00  0.00    -0.200 F 
ATOM     71  F   UNL A   1      38.126  34.209  38.443  1.00  0.00    -0.200 F 
ENDBRANCH  47  61
BRANCH  48  72
ATOM     72  C   UNL A   1      42.732  26.257  27.725  1.00  0.00     0.064 A 
ATOM     73  C   UNL A   1      42.276  24.946  27.535  1.00  0.00     0.173 A 
ATOM     74  C   UNL A   1      43.670  26.764  26.813  1.00  0.00     0.173 A 
ATOM     75  F   UNL A   1      41.400  24.410  28.396  1.00  0.00    -0.203 F 
ATOM     76  C   UNL A   1      42.754  24.165  26.484  1.00  0.00     0.198 A 
ATOM     77  C   UNL A   1      44.125  25.991  25.748  1.00  0.00     0.198 A 
ATOM     78  F   UNL A   1      44.137  28.012  26.952  1.00  0.00    -0.203 F 
ATOM     79  F   UNL A   1      42.336  22.899  26.351  1.00  0.00    -0.200 F 
ATOM     80  C   UNL A   1      43.674  24.689  25.589  1.00  0.00     0.200 A 
ATOM     81  F   UNL A   1      45.005  26.505  24.877  1.00  0.00    -0.200 F 
ATOM     82  F   UNL A   1      44.129  23.939  24.577  1.00  0.00    -0.200 F 
ENDBRANCH  48  72
BRANCH  60  83
ATOM     83  C   UNL A   1      45.003  27.144  34.245  1.00  0.00     0.064 A 
ATOM     84  C   UNL A   1      44.882  25.935  34.947  1.00  0.00     0.173 A 
ATOM     85  C   UNL A   1      46.249  27.788  34.256  1.00  0.00     0.173 A 
ATOM     86  F   UNL A   1      43.707  25.288  34.981  1.00  0.00    -0.203 F 
ATOM     87  C   UNL A   1      45.957  25.411  35.661  1.00  0.00     0.198 A 
ATOM     88  C   UNL A   1      47.330  27.246  34.947  1.00  0.00     0.198 A 
ATOM     89  F   UNL A   1      46.420  28.942  33.595  1.00  0.00    -0.203 F 
ATOM     90  F   UNL A   1      45.802  24.286  36.371  1.00  0.00    -0.200 F 
ATOM     91  C   UNL A   1      47.181  26.064  35.656  1.00  0.00     0.200 A 
ATOM     92  F   UNL A   1      48.515  27.872  34.931  1.00  0.00    -0.200 F 
ATOM     93  F   UNL A   1      48.213  25.560  36.346  1.00  0.00    -0.200 F 
ENDBRANCH  60  83
ENDBRANCH  34  35
ENDBRANCH  27  29
ENDBRANCH  26  27
ENDBRANCH  25  26
ENDBRANCH  24  25
ENDBRANCH   1  24
TORSDOF 18
ENDMDL
MODEL 2
REMARK VINA RESULT:     -11.6      1.930      3.405
REMARK SMILES COc1ccc([C@H](C(=O)OCCOCCOC(=O)c2ccc(-c3c4nc(c(-c5c(F)c(F)c(F)c(F)c5F)c5ccc([nH]5)c(-c5c(F)c(F)c(F)c(F)c5F)c5nc(c(-c6c(F)c(F)c(F)c(F)c6F)c6ccc3[nH]6)C=C5)C=C4)cc2)c2ccc(O)nn2)cc1
REMARK SMILES IDX 13 1 12 2 11 3 10 4 8 5 9 6 7 7 6 8 3 9 4 10 90 11 5 12
REMARK SMILES IDX 89 13 2 14 1 15 82 16 83 17 88 18 84 19 87 20 85 21 86 22
REMARK SMILES IDX 14 24 15 25 16 26 17 27 18 28 19 29 20 30 81 31 21 32 80 33
REMARK SMILES IDX 22 34 23 35 24 36 74 37 25 38 79 39 73 40 75 41 26 42 78 43
REMARK SMILES IDX 72 44 71 45 27 47 59 48 39 49 58 50 40 51 43 52 57 53 76 54
REMARK SMILES IDX 41 55 42 56 56 58 77 59 44 60 28 61 29 62 37 63 30 64 31 65
REMARK SMILES IDX 35 66 38 67 32 68 33 69 36 70 34 71 60 72 61 73 69 74 62 75
REMARK SMILES IDX 63 76 67 77 70 78 64 79 65 80 68 81 66 82 45 83 46 84 54 85
REMARK SMILES IDX 47 86 48 87 52 88 55 89 49 90 50 91 53 92 51 93
REMARK H PARENT 86 23 75 46 43 57
REMARK Flexibility Score: inf
ROOT
ATOM      1  O   UNL A   1      32.470  30.664  26.379  1.00  0.00    -0.374 OA
ENDROOT
BRANCH   1   2
ATOM      2  C   UNL A   1      33.600  30.361  27.202  1.00  0.00     0.202 C 
BRANCH   2   3
ATOM      3  C   UNL A   1      34.036  28.894  27.212  1.00  0.00     0.261 C 
BRANCH   3   4
ATOM      4  O   UNL A   1      32.863  28.064  27.161  1.00  0.00    -0.462 OA
BRANCH   4   5
ATOM      5  C   UNL A   1      32.830  27.130  26.166  1.00  0.00     0.319 C 
ATOM      6  O   UNL A   1      33.821  26.686  25.600  1.00  0.00    -0.251 OA
BRANCH   5   7
ATOM      7  C   UNL A   1      31.384  26.730  25.881  1.00  0.00     0.180 C 
BRANCH   7   8
ATOM      8  C   UNL A   1      30.734  27.497  24.732  1.00  0.00    -0.027 A 
ATOM      9  C   UNL A   1      29.602  28.859  22.535  1.00  0.00     0.118 A 
ATOM     10  C   UNL A   1      30.870  29.201  22.997  1.00  0.00     0.047 A 
ATOM     11  C   UNL A   1      28.919  27.803  23.131  1.00  0.00     0.047 A 
ATOM     12  C   UNL A   1      31.435  28.526  24.081  1.00  0.00     0.009 A 
ATOM     13  C   UNL A   1      29.480  27.127  24.218  1.00  0.00     0.009 A 
BRANCH   9  14
ATOM     14  O   UNL A   1      29.144  29.587  21.472  1.00  0.00    -0.497 OA
ATOM     15  C   UNL A   1      28.915  30.966  21.744  1.00  0.00     0.278 C 
ENDBRANCH   9  14
ENDBRANCH   7   8
BRANCH   7  16
ATOM     16  C   UNL A   1      31.320  25.214  25.792  1.00  0.00     0.082 A 
ATOM     17  C   UNL A   1      31.414  24.527  24.584  1.00  0.00     0.032 A 
ATOM     18  N   UNL A   1      31.217  24.544  26.971  1.00  0.00    -0.151 NA
ATOM     19  C   UNL A   1      31.397  23.139  24.600  1.00  0.00     0.072 A 
ATOM     20  N   UNL A   1      31.209  23.183  26.987  1.00  0.00    -0.112 NA
ATOM     21  C   UNL A   1      31.299  22.519  25.821  1.00  0.00     0.230 A 
BRANCH  21  22
ATOM     22  O   UNL A   1      31.298  21.164  25.911  1.00  0.00    -0.492 OA
ATOM     23  H   UNL A   1      30.524  20.681  25.693  1.00  0.00     0.295 HD
ENDBRANCH  21  22
ENDBRANCH   7  16
ENDBRANCH   5   7
ENDBRANCH   4   5
ENDBRANCH   3   4
ENDBRANCH   2   3
ENDBRANCH   1   2
BRANCH   1  24
ATOM     24  C   UNL A   1      31.581  31.687  26.826  1.00  0.00     0.202 C 
BRANCH  24  25
ATOM     25  C   UNL A   1      32.157  33.106  26.917  1.00  0.00     0.261 C 
BRANCH  25  26
ATOM     26  O   UNL A   1      32.296  33.568  28.272  1.00  0.00    -0.460 OA
BRANCH  26  27
ATOM     27  C   UNL A   1      33.366  34.374  28.474  1.00  0.00     0.338 C 
ATOM     28  O   UNL A   1      33.380  35.597  28.523  1.00  0.00    -0.246 OA
BRANCH  27  29
ATOM     29  C   UNL A   1      34.561  33.574  28.793  1.00  0.00     0.060 A 
ATOM     30  C   UNL A   1      34.411  32.554  29.738  1.00  0.00     0.016 A 
ATOM     31  C   UNL A   1      35.818  33.868  28.257  1.00  0.00     0.016 A 
ATOM     32  C   UNL A   1      35.526  31.852  30.187  1.00  0.00     0.010 A 
ATOM     33  C   UNL A   1      36.940  33.165  28.715  1.00  0.00     0.010 A 
ATOM     34  C   UNL A   1      36.802  32.177  29.707  1.00  0.00    -0.014 A 
BRANCH  34  35
ATOM     35  C   UNL A   1      37.985  31.547  30.346  1.00  0.00     0.031 A 
ATOM     36  C   UNL A   1      38.331  31.894  31.767  1.00  0.00     0.074 A 
ATOM     37  C   UNL A   1      38.694  30.614  29.689  1.00  0.00     0.049 A 
ATOM     38  N   UNL A   1      39.256  31.387  32.543  1.00  0.00    -0.248 NA
ATOM     39  C   UNL A   1      37.526  32.950  32.399  1.00  0.00     0.031 C 
ATOM     40  C   UNL A   1      38.446  30.180  28.315  1.00  0.00     0.029 A 
ATOM     41  N   UNL A   1      39.761  29.853  30.096  1.00  0.00    -0.354 N 
ATOM     42  C   UNL A   1      39.137  32.053  33.756  1.00  0.00     0.074 A 
ATOM     43  C   UNL A   1      38.079  33.028  33.601  1.00  0.00     0.031 C 
ATOM     44  C   UNL A   1      39.334  29.223  27.994  1.00  0.00     0.029 A 
ATOM     45  C   UNL A   1      40.218  28.987  29.134  1.00  0.00     0.049 A 
ATOM     46  H   UNL A   1      40.161  29.923  30.993  1.00  0.00     0.167 HD
ATOM     47  C   UNL A   1      39.836  31.857  34.900  1.00  0.00     0.037 A 
ATOM     48  C   UNL A   1      41.235  28.104  29.172  1.00  0.00     0.037 A 
ATOM     49  C   UNL A   1      40.892  30.891  35.054  1.00  0.00     0.049 A 
ATOM     50  C   UNL A   1      42.027  27.940  30.442  1.00  0.00     0.074 A 
ATOM     51  C   UNL A   1      41.641  30.601  36.182  1.00  0.00     0.029 A 
ATOM     52  N   UNL A   1      41.356  30.060  34.045  1.00  0.00    -0.354 N 
ATOM     53  N   UNL A   1      41.874  28.538  31.598  1.00  0.00    -0.248 NA
ATOM     54  C   UNL A   1      43.126  26.965  30.413  1.00  0.00     0.031 C 
ATOM     55  C   UNL A   1      42.589  29.629  35.842  1.00  0.00     0.029 A 
ATOM     56  C   UNL A   1      42.399  29.277  34.516  1.00  0.00     0.049 A 
ATOM     57  H   UNL A   1      40.997  30.031  33.129  1.00  0.00     0.167 HD
ATOM     58  C   UNL A   1      42.842  28.001  32.437  1.00  0.00     0.074 A 
ATOM     59  C   UNL A   1      43.561  27.011  31.664  1.00  0.00     0.031 C 
ATOM     60  C   UNL A   1      43.112  28.302  33.731  1.00  0.00     0.037 A 
BRANCH  47  61
ATOM     61  C   UNL A   1      39.490  32.721  36.077  1.00  0.00     0.064 A 
ATOM     62  C   UNL A   1      40.120  33.956  36.291  1.00  0.00     0.173 A 
ATOM     63  C   UNL A   1      38.494  32.327  36.982  1.00  0.00     0.173 A 
ATOM     64  F   UNL A   1      41.089  34.374  35.460  1.00  0.00    -0.203 F 
ATOM     65  C   UNL A   1      39.781  34.755  37.381  1.00  0.00     0.198 A 
ATOM     66  C   UNL A   1      38.140  33.138  38.057  1.00  0.00     0.198 A 
ATOM     67  F   UNL A   1      37.860  31.156  36.821  1.00  0.00    -0.203 F 
ATOM     68  F   UNL A   1      40.423  35.912  37.588  1.00  0.00    -0.200 F 
ATOM     69  C   UNL A   1      38.787  34.348  38.258  1.00  0.00     0.200 A 
ATOM     70  F   UNL A   1      37.172  32.748  38.898  1.00  0.00    -0.200 F 
ATOM     71  F   UNL A   1      38.457  35.119  39.303  1.00  0.00    -0.200 F 
ENDBRANCH  47  61
BRANCH  48  72
ATOM     72  C   UNL A   1      41.557  27.296  27.968  1.00  0.00     0.064 A 
ATOM     73  C   UNL A   1      41.003  26.024  27.779  1.00  0.00     0.173 A 
ATOM     74  C   UNL A   1      42.441  27.777  26.991  1.00  0.00     0.173 A 
ATOM     75  F   UNL A   1      40.172  25.511  28.699  1.00  0.00    -0.203 F 
ATOM     76  C   UNL A   1      41.334  25.254  26.665  1.00  0.00     0.198 A 
ATOM     77  C   UNL A   1      42.750  27.017  25.865  1.00  0.00     0.198 A 
ATOM     78  F   UNL A   1      42.999  28.988  27.126  1.00  0.00    -0.203 F 
ATOM     79  F   UNL A   1      40.824  24.022  26.531  1.00  0.00    -0.200 F 
ATOM     80  C   UNL A   1      42.202  25.753  25.707  1.00  0.00     0.200 A 
ATOM     81  F   UNL A   1      43.580  27.508  24.935  1.00  0.00    -0.200 F 
ATOM     82  F   UNL A   1      42.517  25.014  24.634  1.00  0.00    -0.200 F 
ENDBRANCH  48  72
BRANCH  60  83
ATOM     83  C   UNL A   1      44.225  27.541  34.392  1.00  0.00     0.064 A 
ATOM     84  C   UNL A   1      43.997  26.306  35.019  1.00  0.00     0.173 A 
ATOM     85  C   UNL A   1      45.535  28.043  34.388  1.00  0.00     0.173 A 
ATOM     86  F   UNL A   1      42.760  25.790  35.064  1.00  0.00    -0.203 F 
ATOM     87  C   UNL A   1      45.033  25.620  35.647  1.00  0.00     0.198 A 
ATOM     88  C   UNL A   1      46.574  27.340  34.992  1.00  0.00     0.198 A 
ATOM     89  F   UNL A   1      45.808  29.216  33.796  1.00  0.00    -0.203 F 
ATOM     90  F   UNL A   1      44.781  24.471  36.289  1.00  0.00    -0.200 F 
ATOM     91  C   UNL A   1      46.322  26.134  35.629  1.00  0.00     0.200 A 
ATOM     92  F   UNL A   1      47.820  27.833  34.963  1.00  0.00    -0.200 F 
ATOM     93  F   UNL A   1      47.317  25.474  36.236  1.00  0.00    -0.200 F 
ENDBRANCH  60  83
ENDBRANCH  34  35
ENDBRANCH  27  29
ENDBRANCH  26  27
ENDBRANCH  25  26
ENDBRANCH  24  25
ENDBRANCH   1  24
TORSDOF 18
ENDMDL
MODEL 3
REMARK VINA RESULT:     -11.5      4.076      6.987
REMARK SMILES COc1ccc([C@H](C(=O)OCCOCCOC(=O)c2ccc(-c3c4nc(c(-c5c(F)c(F)c(F)c(F)c5F)c5ccc([nH]5)c(-c5c(F)c(F)c(F)c(F)c5F)c5nc(c(-c6c(F)c(F)c(F)c(F)c6F)c6ccc3[nH]6)C=C5)C=C4)cc2)c2ccc(O)nn2)cc1
REMARK SMILES IDX 13 1 12 2 11 3 10 4 8 5 9 6 7 7 6 8 3 9 4 10 90 11 5 12
REMARK SMILES IDX 89 13 2 14 1 15 82 16 83 17 88 18 84 19 87 20 85 21 86 22
REMARK SMILES IDX 14 24 15 25 16 26 17 27 18 28 19 29 20 30 81 31 21 32 80 33
REMARK SMILES IDX 22 34 23 35 24 36 74 37 25 38 79 39 73 40 75 41 26 42 78 43
REMARK SMILES IDX 72 44 71 45 27 47 59 48 39 49 58 50 40 51 43 52 57 53 76 54
REMARK SMILES IDX 41 55 42 56 56 58 77 59 44 60 28 61 29 62 37 63 30 64 31 65
REMARK SMILES IDX 35 66 38 67 32 68 33 69 36 70 34 71 60 72 61 73 69 74 62 75
REMARK SMILES IDX 63 76 67 77 70 78 64 79 65 80 68 81 66 82 45 83 46 84 54 85
REMARK SMILES IDX 47 86 48 87 52 88 55 89 49 90 50 91 53 92 51 93
REMARK H PARENT 86 23 75 46 43 57
REMARK Flexibility Score: inf
ROOT
ATOM      1  O   UNL A   1      33.880  34.984  29.900  1.00  0.00    -0.374 OA
ENDROOT
BRANCH   1   2
ATOM      2  C   UNL A   1      33.002  35.695  30.778  1.00  0.00     0.202 C 
BRANCH   2   3
ATOM      3  C   UNL A   1      33.155  35.376  32.268  1.00  0.00     0.261 C 
BRANCH   3   4
ATOM      4  O   UNL A   1      34.005  34.225  32.407  1.00  0.00    -0.462 OA
BRANCH   4   5
ATOM      5  C   UNL A   1      35.248  34.455  32.923  1.00  0.00     0.319 C 
ATOM      6  O   UNL A   1      35.534  35.403  33.643  1.00  0.00    -0.251 OA
BRANCH   5   7
ATOM      7  C   UNL A   1      36.207  33.356  32.470  1.00  0.00     0.180 C 
BRANCH   7   8
ATOM      8  C   UNL A   1      37.216  33.798  31.413  1.00  0.00    -0.027 A 
ATOM      9  C   UNL A   1      39.154  34.536  29.498  1.00  0.00     0.118 A 
ATOM     10  C   UNL A   1      39.307  34.905  30.832  1.00  0.00     0.047 A 
ATOM     11  C   UNL A   1      38.065  33.753  29.126  1.00  0.00     0.047 A 
ATOM     12  C   UNL A   1      38.352  34.538  31.783  1.00  0.00     0.009 A 
ATOM     13  C   UNL A   1      37.106  33.386  30.075  1.00  0.00     0.009 A 
BRANCH   9  14
ATOM     14  O   UNL A   1      40.145  34.952  28.654  1.00  0.00    -0.497 OA
ATOM     15  C   UNL A   1      41.452  34.953  29.218  1.00  0.00     0.278 C 
ENDBRANCH   9  14
ENDBRANCH   7   8
BRANCH   7  16
ATOM     16  C   UNL A   1      36.786  32.692  33.708  1.00  0.00     0.082 A 
ATOM     17  C   UNL A   1      37.626  31.584  33.644  1.00  0.00     0.032 A 
ATOM     18  N   UNL A   1      36.481  33.270  34.901  1.00  0.00    -0.151 NA
ATOM     19  C   UNL A   1      38.151  31.071  34.824  1.00  0.00     0.072 A 
ATOM     20  N   UNL A   1      37.002  32.773  36.057  1.00  0.00    -0.112 NA
ATOM     21  C   UNL A   1      37.813  31.703  35.995  1.00  0.00     0.230 A 
BRANCH  21  22
ATOM     22  O   UNL A   1      38.307  31.267  37.183  1.00  0.00    -0.492 OA
ATOM     23  H   UNL A   1      39.208  31.413  37.397  1.00  0.00     0.295 HD
ENDBRANCH  21  22
ENDBRANCH   7  16
ENDBRANCH   5   7
ENDBRANCH   4   5
ENDBRANCH   3   4
ENDBRANCH   2   3
ENDBRANCH   1   2
BRANCH   1  24
ATOM     24  C   UNL A   1      33.307  34.370  28.746  1.00  0.00     0.202 C 
BRANCH  24  25
ATOM     25  C   UNL A   1      34.164  33.319  28.029  1.00  0.00     0.261 C 
BRANCH  25  26
ATOM     26  O   UNL A   1      34.342  32.120  28.802  1.00  0.00    -0.460 OA
BRANCH  26  27
ATOM     27  C   UNL A   1      34.415  30.989  28.060  1.00  0.00     0.338 C 
ATOM     28  O   UNL A   1      33.614  30.595  27.221  1.00  0.00    -0.246 OA
BRANCH  27  29
ATOM     29  C   UNL A   1      35.706  30.314  28.273  1.00  0.00     0.060 A 
ATOM     30  C   UNL A   1      35.947  29.787  29.545  1.00  0.00     0.016 A 
ATOM     31  C   UNL A   1      36.697  30.276  27.288  1.00  0.00     0.016 A 
ATOM     32  C   UNL A   1      37.197  29.259  29.856  1.00  0.00     0.010 A 
ATOM     33  C   UNL A   1      37.957  29.750  27.604  1.00  0.00     0.010 A 
ATOM     34  C   UNL A   1      38.222  29.271  28.899  1.00  0.00    -0.014 A 
BRANCH  34  35
ATOM     35  C   UNL A   1      39.591  28.882  29.319  1.00  0.00     0.031 A 
ATOM     36  C   UNL A   1      40.323  29.723  30.327  1.00  0.00     0.074 A 
ATOM     37  C   UNL A   1      40.143  27.744  28.865  1.00  0.00     0.049 A 
ATOM     38  N   UNL A   1      41.481  29.511  30.902  1.00  0.00    -0.248 NA
ATOM     39  C   UNL A   1      39.664  30.970  30.744  1.00  0.00     0.031 C 
ATOM     40  C   UNL A   1      39.526  26.835  27.900  1.00  0.00     0.029 A 
ATOM     41  N   UNL A   1      41.344  27.152  29.167  1.00  0.00    -0.354 N 
ATOM     42  C   UNL A   1      41.681  30.587  31.756  1.00  0.00     0.074 A 
ATOM     43  C   UNL A   1      40.548  31.473  31.593  1.00  0.00     0.031 C 
ATOM     44  C   UNL A   1      40.351  25.795  27.693  1.00  0.00     0.029 A 
ATOM     45  C   UNL A   1      41.557  25.971  28.500  1.00  0.00     0.049 A 
ATOM     46  H   UNL A   1      41.990  27.537  29.800  1.00  0.00     0.167 HD
ATOM     47  C   UNL A   1      42.710  30.809  32.610  1.00  0.00     0.037 A 
ATOM     48  C   UNL A   1      42.607  25.129  28.539  1.00  0.00     0.037 A 
ATOM     49  C   UNL A   1      43.840  29.932  32.769  1.00  0.00     0.049 A 
ATOM     50  C   UNL A   1      43.760  25.423  29.462  1.00  0.00     0.074 A 
ATOM     51  C   UNL A   1      44.919  30.058  33.628  1.00  0.00     0.029 A 
ATOM     52  N   UNL A   1      44.042  28.766  32.046  1.00  0.00    -0.354 N 
ATOM     53  N   UNL A   1      43.917  26.417  30.302  1.00  0.00    -0.248 NA
ATOM     54  C   UNL A   1      44.876  24.467  29.451  1.00  0.00     0.031 C 
ATOM     55  C   UNL A   1      45.796  28.994  33.390  1.00  0.00     0.029 A 
ATOM     56  C   UNL A   1      45.241  28.178  32.419  1.00  0.00     0.049 A 
ATOM     57  H   UNL A   1      43.425  28.408  31.368  1.00  0.00     0.167 HD
ATOM     58  C   UNL A   1      45.136  26.198  30.930  1.00  0.00     0.074 A 
ATOM     59  C   UNL A   1      45.666  24.963  30.392  1.00  0.00     0.031 C 
ATOM     60  C   UNL A   1      45.761  26.953  31.867  1.00  0.00     0.037 A 
BRANCH  47  61
ATOM     61  C   UNL A   1      42.667  32.065  33.430  1.00  0.00     0.064 A 
ATOM     62  C   UNL A   1      42.048  32.098  34.689  1.00  0.00     0.173 A 
ATOM     63  C   UNL A   1      43.282  33.238  32.969  1.00  0.00     0.173 A 
ATOM     64  F   UNL A   1      41.435  31.005  35.169  1.00  0.00    -0.203 F 
ATOM     65  C   UNL A   1      42.026  33.267  35.446  1.00  0.00     0.198 A 
ATOM     66  C   UNL A   1      43.280  34.398  33.739  1.00  0.00     0.198 A 
ATOM     67  F   UNL A   1      43.890  33.258  31.774  1.00  0.00    -0.203 F 
ATOM     68  F   UNL A   1      41.395  33.288  36.627  1.00  0.00    -0.200 F 
ATOM     69  C   UNL A   1      42.648  34.414  34.974  1.00  0.00     0.200 A 
ATOM     70  F   UNL A   1      43.890  35.502  33.286  1.00  0.00    -0.200 F 
ATOM     71  F   UNL A   1      42.632  35.536  35.705  1.00  0.00    -0.200 F 
ENDBRANCH  47  61
BRANCH  48  72
ATOM     72  C   UNL A   1      42.615  23.916  27.681  1.00  0.00     0.064 A 
ATOM     73  C   UNL A   1      42.239  22.666  28.190  1.00  0.00     0.173 A 
ATOM     74  C   UNL A   1      43.015  23.983  26.338  1.00  0.00     0.173 A 
ATOM     75  F   UNL A   1      41.874  22.548  29.474  1.00  0.00    -0.203 F 
ATOM     76  C   UNL A   1      42.280  21.524  27.392  1.00  0.00     0.198 A 
ATOM     77  C   UNL A   1      43.029  22.845  25.535  1.00  0.00     0.198 A 
ATOM     78  F   UNL A   1      43.385  25.156  25.805  1.00  0.00    -0.203 F 
ATOM     79  F   UNL A   1      41.958  20.332  27.915  1.00  0.00    -0.200 F 
ATOM     80  C   UNL A   1      42.669  21.615  26.065  1.00  0.00     0.200 A 
ATOM     81  F   UNL A   1      43.394  22.940  24.249  1.00  0.00    -0.200 F 
ATOM     82  F   UNL A   1      42.704  20.517  25.297  1.00  0.00    -0.200 F 
ENDBRANCH  48  72
BRANCH  60  83
ATOM     83  C   UNL A   1      47.083  26.453  32.377  1.00  0.00     0.064 A 
ATOM     84  C   UNL A   1      47.163  25.579  33.471  1.00  0.00     0.173 A 
ATOM     85  C   UNL A   1      48.280  26.841  31.757  1.00  0.00     0.173 A 
ATOM     86  F   UNL A   1      46.048  25.190  34.108  1.00  0.00    -0.203 F 
ATOM     87  C   UNL A   1      48.396  25.140  33.948  1.00  0.00     0.198 A 
ATOM     88  C   UNL A   1      49.509  26.377  32.218  1.00  0.00     0.198 A 
ATOM     89  F   UNL A   1      48.258  27.670  30.702  1.00  0.00    -0.203 F 
ATOM     90  F   UNL A   1      48.451  24.351  35.030  1.00  0.00    -0.200 F 
ATOM     91  C   UNL A   1      49.567  25.535  33.318  1.00  0.00     0.200 A 
ATOM     92  F   UNL A   1      50.639  26.750  31.601  1.00  0.00    -0.200 F 
ATOM     93  F   UNL A   1      50.752  25.113  33.780  1.00  0.00    -0.200 F 
ENDBRANCH  60  83
ENDBRANCH  34  35
ENDBRANCH  27  29
ENDBRANCH  26  27
ENDBRANCH  25  26
ENDBRANCH  24  25
ENDBRANCH   1  24
TORSDOF 18
ENDMDL
