MODEL 1
REMARK VINA RESULT:     -11.5      0.000      0.000
REMARK SMILES CC(C)(C)C[N@H+]1[C@@H](C(=O)OCCOCCOC(=O)c2ccc(-c3c4nc(c(-c5c(F)c(F)c(F)c(F)c5F)c5ccc([nH]5)c(-c5c(F)c(F)c(F)c(F)c5F)c5nc(c(-c6c(F)c(F)c(F)c(F)c6F)c6ccc3[nH]6)C=C5)C=C4)cc2)CC[C@H]2CCCC[C@@H]21
REMARK SMILES IDX 13 1 12 2 11 3 10 4 8 5 9 6 7 7 6 8 89 9 82 11 84 12 88 13
REMARK SMILES IDX 83 14 85 15 87 16 86 17 5 18 2 19 1 20 3 21 4 22 14 23 15 24
REMARK SMILES IDX 16 25 17 26 18 27 19 28 20 29 81 30 21 31 80 32 22 33 23 34
REMARK SMILES IDX 24 35 74 36 25 37 79 38 73 39 75 40 26 41 78 42 72 43 71 44
REMARK SMILES IDX 27 46 59 47 39 48 58 49 40 50 43 51 57 52 76 53 41 54 42 55
REMARK SMILES IDX 56 57 77 58 44 59 28 60 29 61 37 62 30 63 31 64 35 65 38 66
REMARK SMILES IDX 32 67 33 68 36 69 34 70 60 71 61 72 69 73 62 74 63 75 67 76
REMARK SMILES IDX 70 77 64 78 65 79 68 80 66 81 45 82 46 83 54 84 47 85 48 86
REMARK SMILES IDX 52 87 55 88 49 89 50 90 53 91 51 92
REMARK H PARENT 6 10 75 45 43 56
REMARK Flexibility Score: inf
ROOT
ATOM      1  O   UNL A   1      31.845  28.260  25.768  1.00  0.00    -0.374 OA
ENDROOT
BRANCH   1   2
ATOM      2  C   UNL A   1      31.227  27.309  24.899  1.00  0.00     0.202 C 
BRANCH   2   3
ATOM      3  C   UNL A   1      30.794  25.993  25.577  1.00  0.00     0.261 C 
BRANCH   3   4
ATOM      4  O   UNL A   1      31.049  24.820  24.765  1.00  0.00    -0.459 OA
BRANCH   4   5
ATOM      5  C   UNL A   1      31.198  23.656  25.428  1.00  0.00     0.364 C 
ATOM      6  O   UNL A   1      30.809  23.498  26.586  1.00  0.00    -0.245 OA
BRANCH   5   7
ATOM      7  C   UNL A   1      31.819  22.480  24.664  1.00  0.00     0.295 C 
ATOM      8  N   UNL A   1      33.187  21.918  24.957  1.00  0.00    -0.320 N 
ATOM      9  C   UNL A   1      33.263  20.559  24.294  1.00  0.00     0.187 C 
ATOM     10  H   UNL A   1      33.253  21.925  25.975  1.00  0.00     0.349 HD
ATOM     11  C   UNL A   1      31.544  22.652  23.155  1.00  0.00     0.078 C 
ATOM     12  C   UNL A   1      32.151  20.232  23.261  1.00  0.00     0.048 C 
ATOM     13  C   UNL A   1      33.330  19.433  25.333  1.00  0.00     0.065 C 
ATOM     14  C   UNL A   1      31.954  21.427  22.336  1.00  0.00     0.016 C 
ATOM     15  C   UNL A   1      32.513  18.951  22.506  1.00  0.00     0.010 C 
ATOM     16  C   UNL A   1      33.634  18.100  24.636  1.00  0.00     0.006 C 
ATOM     17  C   UNL A   1      32.672  17.787  23.487  1.00  0.00     0.001 C 
BRANCH   8  18
ATOM     18  C   UNL A   1      34.376  22.693  24.492  1.00  0.00     0.269 C 
BRANCH  18  19
ATOM     19  C   UNL A   1      35.103  23.666  25.470  1.00  0.00     0.011 C 
ATOM     20  C   UNL A   1      34.732  23.304  26.897  1.00  0.00     0.017 C 
ATOM     21  C   UNL A   1      34.568  25.109  25.266  1.00  0.00     0.017 C 
ATOM     22  C   UNL A   1      36.623  23.703  25.272  1.00  0.00     0.017 C 
ENDBRANCH  18  19
ENDBRANCH   8  18
ENDBRANCH   5   7
ENDBRANCH   4   5
ENDBRANCH   3   4
ENDBRANCH   2   3
ENDBRANCH   1   2
BRANCH   1  23
ATOM     23  C   UNL A   1      32.203  29.513  25.189  1.00  0.00     0.202 C 
BRANCH  23  24
ATOM     24  C   UNL A   1      31.763  30.737  26.000  1.00  0.00     0.261 C 
BRANCH  24  25
ATOM     25  O   UNL A   1      32.469  30.820  27.255  1.00  0.00    -0.460 OA
BRANCH  25  26
ATOM     26  C   UNL A   1      33.256  31.907  27.425  1.00  0.00     0.338 C 
ATOM     27  O   UNL A   1      32.926  33.077  27.318  1.00  0.00    -0.246 OA
BRANCH  26  28
ATOM     28  C   UNL A   1      34.592  31.495  27.920  1.00  0.00     0.060 A 
ATOM     29  C   UNL A   1      34.789  30.139  28.199  1.00  0.00     0.016 A 
ATOM     30  C   UNL A   1      35.646  32.400  28.097  1.00  0.00     0.016 A 
ATOM     31  C   UNL A   1      36.023  29.690  28.677  1.00  0.00     0.010 A 
ATOM     32  C   UNL A   1      36.897  31.940  28.531  1.00  0.00     0.010 A 
ATOM     33  C   UNL A   1      37.085  30.587  28.867  1.00  0.00    -0.014 A 
BRANCH  33  34
ATOM     34  C   UNL A   1      38.316  30.130  29.569  1.00  0.00     0.031 A 
ATOM     35  C   UNL A   1      38.561  30.586  30.985  1.00  0.00     0.074 A 
ATOM     36  C   UNL A   1      39.182  29.272  28.995  1.00  0.00     0.049 A 
ATOM     37  N   UNL A   1      39.528  30.264  31.809  1.00  0.00    -0.248 NA
ATOM     38  C   UNL A   1      37.593  31.541  31.545  1.00  0.00     0.031 C 
ATOM     39  C   UNL A   1      39.082  28.746  27.635  1.00  0.00     0.029 A 
ATOM     40  N   UNL A   1      40.319  28.682  29.498  1.00  0.00    -0.354 N 
ATOM     41  C   UNL A   1      39.283  30.977  32.975  1.00  0.00     0.074 A 
ATOM     42  C   UNL A   1      38.112  31.792  32.735  1.00  0.00     0.031 C 
ATOM     43  C   UNL A   1      40.102  27.896  27.420  1.00  0.00     0.029 A 
ATOM     44  C   UNL A   1      40.939  27.830  28.618  1.00  0.00     0.049 A 
ATOM     45  H   UNL A   1      40.657  28.856  30.407  1.00  0.00     0.167 HD
ATOM     46  C   UNL A   1      39.949  30.941  34.154  1.00  0.00     0.037 A 
ATOM     47  C   UNL A   1      42.050  27.079  28.762  1.00  0.00     0.037 A 
ATOM     48  C   UNL A   1      41.096  30.118  34.421  1.00  0.00     0.049 A 
ATOM     49  C   UNL A   1      42.795  27.080  30.074  1.00  0.00     0.074 A 
ATOM     50  C   UNL A   1      41.806  29.988  35.602  1.00  0.00     0.029 A 
ATOM     51  N   UNL A   1      41.702  29.286  33.494  1.00  0.00    -0.354 N 
ATOM     52  N   UNL A   1      42.515  27.711  31.188  1.00  0.00    -0.248 NA
ATOM     53  C   UNL A   1      44.010  26.253  30.150  1.00  0.00     0.031 C 
ATOM     54  C   UNL A   1      42.870  29.107  35.377  1.00  0.00     0.029 A 
ATOM     55  C   UNL A   1      42.793  28.655  34.070  1.00  0.00     0.049 A 
ATOM     56  H   UNL A   1      41.402  29.161  32.564  1.00  0.00     0.167 HD
ATOM     57  C   UNL A   1      43.495  27.335  32.100  1.00  0.00     0.074 A 
ATOM     58  C   UNL A   1      44.372  26.410  31.415  1.00  0.00     0.031 C 
ATOM     59  C   UNL A   1      43.652  27.722  33.389  1.00  0.00     0.037 A 
BRANCH  46  60
ATOM     60  C   UNL A   1      39.444  31.828  35.252  1.00  0.00     0.064 A 
ATOM     61  C   UNL A   1      38.565  31.349  36.236  1.00  0.00     0.173 A 
ATOM     62  C   UNL A   1      39.861  33.164  35.336  1.00  0.00     0.173 A 
ATOM     63  F   UNL A   1      38.125  30.083  36.189  1.00  0.00    -0.203 F 
ATOM     64  C   UNL A   1      38.097  32.187  37.245  1.00  0.00     0.198 A 
ATOM     65  C   UNL A   1      39.415  33.990  36.363  1.00  0.00     0.198 A 
ATOM     66  F   UNL A   1      40.704  33.668  34.423  1.00  0.00    -0.203 F 
ATOM     67  F   UNL A   1      37.216  31.722  38.143  1.00  0.00    -0.200 F 
ATOM     68  C   UNL A   1      38.527  33.503  37.312  1.00  0.00     0.200 A 
ATOM     69  F   UNL A   1      39.839  35.260  36.433  1.00  0.00    -0.200 F 
ATOM     70  F   UNL A   1      38.078  34.307  38.285  1.00  0.00    -0.200 F 
ENDBRANCH  46  60
BRANCH  47  71
ATOM     71  C   UNL A   1      42.535  26.237  27.636  1.00  0.00     0.064 A 
ATOM     72  C   UNL A   1      42.064  24.928  27.458  1.00  0.00     0.173 A 
ATOM     73  C   UNL A   1      43.513  26.705  26.748  1.00  0.00     0.173 A 
ATOM     74  F   UNL A   1      41.152  24.424  28.301  1.00  0.00    -0.203 F 
ATOM     75  C   UNL A   1      42.572  24.111  26.448  1.00  0.00     0.198 A 
ATOM     76  C   UNL A   1      44.000  25.897  25.723  1.00  0.00     0.198 A 
ATOM     77  F   UNL A   1      44.001  27.947  26.881  1.00  0.00    -0.203 F 
ATOM     78  F   UNL A   1      42.145  22.846  26.334  1.00  0.00    -0.200 F 
ATOM     79  C   UNL A   1      43.537  24.598  25.579  1.00  0.00     0.200 A 
ATOM     80  F   UNL A   1      44.930  26.372  24.882  1.00  0.00    -0.200 F 
ATOM     81  F   UNL A   1      44.030  23.810  24.613  1.00  0.00    -0.200 F 
ENDBRANCH  47  71
BRANCH  59  82
ATOM     82  C   UNL A   1      44.788  27.123  34.167  1.00  0.00     0.064 A 
ATOM     83  C   UNL A   1      46.035  27.757  34.257  1.00  0.00     0.173 A 
ATOM     84  C   UNL A   1      44.607  25.927  34.881  1.00  0.00     0.173 A 
ATOM     85  F   UNL A   1      46.263  28.896  33.584  1.00  0.00    -0.203 F 
ATOM     86  C   UNL A   1      47.064  27.209  35.017  1.00  0.00     0.198 A 
ATOM     87  C   UNL A   1      45.630  25.397  35.662  1.00  0.00     0.198 A 
ATOM     88  F   UNL A   1      43.431  25.285  34.836  1.00  0.00    -0.203 F 
ATOM     89  F   UNL A   1      48.260  27.814  35.059  1.00  0.00    -0.200 F 
ATOM     90  C   UNL A   1      46.860  26.035  35.725  1.00  0.00     0.200 A 
ATOM     91  F   UNL A   1      45.425  24.269  36.356  1.00  0.00    -0.200 F 
ATOM     92  F   UNL A   1      47.848  25.514  36.465  1.00  0.00    -0.200 F 
ENDBRANCH  59  82
ENDBRANCH  33  34
ENDBRANCH  26  28
ENDBRANCH  25  26
ENDBRANCH  24  25
ENDBRANCH  23  24
ENDBRANCH   1  23
TORSDOF 16
ENDMDL
MODEL 2
REMARK VINA RESULT:     -11.5      1.000      2.227
REMARK SMILES CC(C)(C)C[N@H+]1[C@@H](C(=O)OCCOCCOC(=O)c2ccc(-c3c4nc(c(-c5c(F)c(F)c(F)c(F)c5F)c5ccc([nH]5)c(-c5c(F)c(F)c(F)c(F)c5F)c5nc(c(-c6c(F)c(F)c(F)c(F)c6F)c6ccc3[nH]6)C=C5)C=C4)cc2)CC[C@H]2CCCC[C@@H]21
REMARK SMILES IDX 13 1 12 2 11 3 10 4 8 5 9 6 7 7 6 8 89 9 82 11 84 12 88 13
REMARK SMILES IDX 83 14 85 15 87 16 86 17 5 18 2 19 1 20 3 21 4 22 14 23 15 24
REMARK SMILES IDX 16 25 17 26 18 27 19 28 20 29 81 30 21 31 80 32 22 33 23 34
REMARK SMILES IDX 24 35 74 36 25 37 79 38 73 39 75 40 26 41 78 42 72 43 71 44
REMARK SMILES IDX 27 46 59 47 39 48 58 49 40 50 43 51 57 52 76 53 41 54 42 55
REMARK SMILES IDX 56 57 77 58 44 59 28 60 29 61 37 62 30 63 31 64 35 65 38 66
REMARK SMILES IDX 32 67 33 68 36 69 34 70 60 71 61 72 69 73 62 74 63 75 67 76
REMARK SMILES IDX 70 77 64 78 65 79 68 80 66 81 45 82 46 83 54 84 47 85 48 86
REMARK SMILES IDX 52 87 55 88 49 89 50 90 53 91 51 92
REMARK H PARENT 6 10 75 45 43 56
REMARK Flexibility Score: inf
ROOT
ATOM      1  O   UNL A   1      32.448  29.577  24.542  1.00  0.00    -0.374 OA
ENDROOT
BRANCH   1   2
ATOM      2  C   UNL A   1      32.240  28.874  23.316  1.00  0.00     0.202 C 
BRANCH   2   3
ATOM      3  C   UNL A   1      33.454  28.064  22.816  1.00  0.00     0.261 C 
BRANCH   3   4
ATOM      4  O   UNL A   1      33.702  26.866  23.592  1.00  0.00    -0.459 OA
BRANCH   4   5
ATOM      5  C   UNL A   1      33.744  25.707  22.904  1.00  0.00     0.364 C 
ATOM      6  O   UNL A   1      33.769  25.667  21.673  1.00  0.00    -0.245 OA
BRANCH   5   7
ATOM      7  C   UNL A   1      33.832  24.406  23.712  1.00  0.00     0.295 C 
ATOM      8  N   UNL A   1      32.650  23.754  24.383  1.00  0.00    -0.320 N 
ATOM      9  C   UNL A   1      33.052  22.333  24.715  1.00  0.00     0.187 C 
ATOM     10  H   UNL A   1      31.887  23.861  23.715  1.00  0.00     0.349 HD
ATOM     11  C   UNL A   1      35.090  24.446  24.605  1.00  0.00     0.078 C 
ATOM     12  C   UNL A   1      34.567  22.005  24.620  1.00  0.00     0.048 C 
ATOM     13  C   UNL A   1      32.265  21.319  23.876  1.00  0.00     0.065 C 
ATOM     14  C   UNL A   1      35.366  23.111  25.298  1.00  0.00     0.016 C 
ATOM     15  C   UNL A   1      34.831  20.625  25.226  1.00  0.00     0.010 C 
ATOM     16  C   UNL A   1      32.530  19.899  24.394  1.00  0.00     0.006 C 
ATOM     17  C   UNL A   1      34.020  19.559  24.487  1.00  0.00     0.001 C 
BRANCH   8  18
ATOM     18  C   UNL A   1      32.138  24.365  25.647  1.00  0.00     0.269 C 
BRANCH  18  19
ATOM     19  C   UNL A   1      30.829  25.212  25.628  1.00  0.00     0.011 C 
ATOM     20  C   UNL A   1      30.348  25.352  24.195  1.00  0.00     0.017 C 
ATOM     21  C   UNL A   1      31.138  26.661  26.094  1.00  0.00     0.017 C 
ATOM     22  C   UNL A   1      29.732  24.656  26.543  1.00  0.00     0.017 C 
ENDBRANCH  18  19
ENDBRANCH   8  18
ENDBRANCH   5   7
ENDBRANCH   4   5
ENDBRANCH   3   4
ENDBRANCH   2   3
ENDBRANCH   1   2
BRANCH   1  23
ATOM     23  C   UNL A   1      31.293  30.146  25.153  1.00  0.00     0.202 C 
BRANCH  23  24
ATOM     24  C   UNL A   1      31.590  31.049  26.356  1.00  0.00     0.261 C 
BRANCH  24  25
ATOM     25  O   UNL A   1      32.911  30.807  26.883  1.00  0.00    -0.460 OA
BRANCH  25  26
ATOM     26  C   UNL A   1      33.539  31.873  27.430  1.00  0.00     0.338 C 
ATOM     27  O   UNL A   1      33.074  32.987  27.611  1.00  0.00    -0.246 OA
BRANCH  26  28
ATOM     28  C   UNL A   1      34.873  31.472  27.938  1.00  0.00     0.060 A 
ATOM     29  C   UNL A   1      35.085  30.115  28.199  1.00  0.00     0.016 A 
ATOM     30  C   UNL A   1      35.912  32.389  28.144  1.00  0.00     0.016 A 
ATOM     31  C   UNL A   1      36.318  29.675  28.688  1.00  0.00     0.010 A 
ATOM     32  C   UNL A   1      37.164  31.938  28.588  1.00  0.00     0.010 A 
ATOM     33  C   UNL A   1      37.365  30.583  28.906  1.00  0.00    -0.014 A 
BRANCH  33  34
ATOM     34  C   UNL A   1      38.593  30.133  29.619  1.00  0.00     0.031 A 
ATOM     35  C   UNL A   1      38.826  30.594  31.035  1.00  0.00     0.074 A 
ATOM     36  C   UNL A   1      39.465  29.275  29.055  1.00  0.00     0.049 A 
ATOM     37  N   UNL A   1      39.788  30.279  31.867  1.00  0.00    -0.248 NA
ATOM     38  C   UNL A   1      37.851  31.548  31.584  1.00  0.00     0.031 C 
ATOM     39  C   UNL A   1      39.377  28.744  27.696  1.00  0.00     0.029 A 
ATOM     40  N   UNL A   1      40.600  28.690  29.568  1.00  0.00    -0.354 N 
ATOM     41  C   UNL A   1      39.532  30.995  33.029  1.00  0.00     0.074 A 
ATOM     42  C   UNL A   1      38.361  31.806  32.778  1.00  0.00     0.031 C 
ATOM     43  C   UNL A   1      40.401  27.896  27.491  1.00  0.00     0.029 A 
ATOM     44  C   UNL A   1      41.229  27.836  28.695  1.00  0.00     0.049 A 
ATOM     45  H   UNL A   1      40.931  28.868  30.478  1.00  0.00     0.167 HD
ATOM     46  C   UNL A   1      40.189  30.965  34.212  1.00  0.00     0.037 A 
ATOM     47  C   UNL A   1      42.340  27.089  28.850  1.00  0.00     0.037 A 
ATOM     48  C   UNL A   1      41.337  30.146  34.491  1.00  0.00     0.049 A 
ATOM     49  C   UNL A   1      43.076  27.097  30.168  1.00  0.00     0.074 A 
ATOM     50  C   UNL A   1      42.039  30.022  35.678  1.00  0.00     0.029 A 
ATOM     51  N   UNL A   1      41.952  29.312  33.572  1.00  0.00    -0.354 N 
ATOM     52  N   UNL A   1      42.786  27.732  31.277  1.00  0.00    -0.248 NA
ATOM     53  C   UNL A   1      44.293  26.274  30.256  1.00  0.00     0.031 C 
ATOM     54  C   UNL A   1      43.107  29.144  35.464  1.00  0.00     0.029 A 
ATOM     55  C   UNL A   1      43.041  28.687  34.158  1.00  0.00     0.049 A 
ATOM     56  H   UNL A   1      41.659  29.183  32.640  1.00  0.00     0.167 HD
ATOM     57  C   UNL A   1      43.760  27.361  32.198  1.00  0.00     0.074 A 
ATOM     58  C   UNL A   1      44.645  26.437  31.523  1.00  0.00     0.031 C 
ATOM     59  C   UNL A   1      43.907  27.753  33.487  1.00  0.00     0.037 A 
BRANCH  46  60
ATOM     60  C   UNL A   1      39.674  31.854  35.304  1.00  0.00     0.064 A 
ATOM     61  C   UNL A   1      38.712  31.406  36.223  1.00  0.00     0.173 A 
ATOM     62  C   UNL A   1      40.163  33.161  35.448  1.00  0.00     0.173 A 
ATOM     63  F   UNL A   1      38.202  30.170  36.117  1.00  0.00    -0.203 F 
ATOM     64  C   UNL A   1      38.236  32.246  37.226  1.00  0.00     0.198 A 
ATOM     65  C   UNL A   1      39.706  33.988  36.469  1.00  0.00     0.198 A 
ATOM     66  F   UNL A   1      41.086  33.634  34.597  1.00  0.00    -0.203 F 
ATOM     67  F   UNL A   1      37.279  31.815  38.060  1.00  0.00    -0.200 F 
ATOM     68  C   UNL A   1      38.738  33.532  37.353  1.00  0.00     0.200 A 
ATOM     69  F   UNL A   1      40.199  35.228  36.598  1.00  0.00    -0.200 F 
ATOM     70  F   UNL A   1      38.281  34.339  38.320  1.00  0.00    -0.200 F 
ENDBRANCH  46  60
BRANCH  47  71
ATOM     71  C   UNL A   1      42.836  26.244  27.731  1.00  0.00     0.064 A 
ATOM     72  C   UNL A   1      43.779  26.737  26.817  1.00  0.00     0.173 A 
ATOM     73  C   UNL A   1      42.342  24.949  27.525  1.00  0.00     0.173 A 
ATOM     74  F   UNL A   1      44.257  27.982  26.954  1.00  0.00    -0.203 F 
ATOM     75  C   UNL A   1      44.189  25.974  25.724  1.00  0.00     0.198 A 
ATOM     76  C   UNL A   1      42.773  24.178  26.447  1.00  0.00     0.198 A 
ATOM     77  F   UNL A   1      41.433  24.436  28.366  1.00  0.00    -0.203 F 
ATOM     78  F   UNL A   1      45.049  26.489  24.835  1.00  0.00    -0.200 F 
ATOM     79  C   UNL A   1      43.689  24.694  25.543  1.00  0.00     0.200 A 
ATOM     80  F   UNL A   1      42.290  22.939  26.277  1.00  0.00    -0.200 F 
ATOM     81  F   UNL A   1      44.079  23.963  24.489  1.00  0.00    -0.200 F 
ENDBRANCH  47  71
BRANCH  59  82
ATOM     82  C   UNL A   1      45.039  27.161  34.275  1.00  0.00     0.064 A 
ATOM     83  C   UNL A   1      46.287  27.793  34.362  1.00  0.00     0.173 A 
ATOM     84  C   UNL A   1      44.853  25.974  35.003  1.00  0.00     0.173 A 
ATOM     85  F   UNL A   1      46.520  28.924  33.677  1.00  0.00    -0.203 F 
ATOM     86  C   UNL A   1      47.313  27.251  35.132  1.00  0.00     0.198 A 
ATOM     87  C   UNL A   1      45.872  25.449  35.793  1.00  0.00     0.198 A 
ATOM     88  F   UNL A   1      43.675  25.334  34.961  1.00  0.00    -0.203 F 
ATOM     89  F   UNL A   1      48.510  27.853  35.171  1.00  0.00    -0.200 F 
ATOM     90  C   UNL A   1      47.103  26.085  35.853  1.00  0.00     0.200 A 
ATOM     91  F   UNL A   1      45.661  24.330  36.499  1.00  0.00    -0.200 F 
ATOM     92  F   UNL A   1      48.087  25.571  36.602  1.00  0.00    -0.200 F 
ENDBRANCH  59  82
ENDBRANCH  33  34
ENDBRANCH  26  28
ENDBRANCH  25  26
ENDBRANCH  24  25
ENDBRANCH  23  24
ENDBRANCH   1  23
TORSDOF 16
ENDMDL
MODEL 3
REMARK VINA RESULT:     -11.4      1.067      2.128
REMARK SMILES CC(C)(C)C[N@H+]1[C@@H](C(=O)OCCOCCOC(=O)c2ccc(-c3c4nc(c(-c5c(F)c(F)c(F)c(F)c5F)c5ccc([nH]5)c(-c5c(F)c(F)c(F)c(F)c5F)c5nc(c(-c6c(F)c(F)c(F)c(F)c6F)c6ccc3[nH]6)C=C5)C=C4)cc2)CC[C@H]2CCCC[C@@H]21
REMARK SMILES IDX 13 1 12 2 11 3 10 4 8 5 9 6 7 7 6 8 89 9 82 11 84 12 88 13
REMARK SMILES IDX 83 14 85 15 87 16 86 17 5 18 2 19 1 20 3 21 4 22 14 23 15 24
REMARK SMILES IDX 16 25 17 26 18 27 19 28 20 29 81 30 21 31 80 32 22 33 23 34
REMARK SMILES IDX 24 35 74 36 25 37 79 38 73 39 75 40 26 41 78 42 72 43 71 44
REMARK SMILES IDX 27 46 59 47 39 48 58 49 40 50 43 51 57 52 76 53 41 54 42 55
REMARK SMILES IDX 56 57 77 58 44 59 28 60 29 61 37 62 30 63 31 64 35 65 38 66
REMARK SMILES IDX 32 67 33 68 36 69 34 70 60 71 61 72 69 73 62 74 63 75 67 76
REMARK SMILES IDX 70 77 64 78 65 79 68 80 66 81 45 82 46 83 54 84 47 85 48 86
REMARK SMILES IDX 52 87 55 88 49 89 50 90 53 91 51 92
REMARK H PARENT 6 10 75 45 43 56
REMARK Flexibility Score: inf
ROOT
ATOM      1  O   UNL A   1      33.020  29.394  25.763  1.00  0.00    -0.374 OA
ENDROOT
BRANCH   1   2
ATOM      2  C   UNL A   1      32.922  27.969  25.803  1.00  0.00     0.202 C 
BRANCH   2   3
ATOM      3  C   UNL A   1      31.558  27.424  26.273  1.00  0.00     0.261 C 
BRANCH   3   4
ATOM      4  O   UNL A   1      31.643  26.109  26.875  1.00  0.00    -0.459 OA
BRANCH   4   5
ATOM      5  C   UNL A   1      31.067  25.100  26.191  1.00  0.00     0.364 C 
ATOM      6  O   UNL A   1      29.846  25.005  26.055  1.00  0.00    -0.245 OA
BRANCH   5   7
ATOM      7  C   UNL A   1      31.993  24.084  25.511  1.00  0.00     0.295 C 
ATOM      8  N   UNL A   1      32.883  24.414  24.340  1.00  0.00    -0.320 N 
ATOM      9  C   UNL A   1      33.904  23.301  24.227  1.00  0.00     0.187 C 
ATOM     10  H   UNL A   1      33.251  25.341  24.552  1.00  0.00     0.349 HD
ATOM     11  C   UNL A   1      31.244  22.744  25.347  1.00  0.00     0.078 C 
ATOM     12  C   UNL A   1      33.613  22.013  25.045  1.00  0.00     0.048 C 
ATOM     13  C   UNL A   1      35.314  23.801  24.562  1.00  0.00     0.065 C 
ATOM     14  C   UNL A   1      32.153  21.616  24.859  1.00  0.00     0.016 C 
ATOM     15  C   UNL A   1      34.587  20.910  24.626  1.00  0.00     0.010 C 
ATOM     16  C   UNL A   1      36.344  22.715  24.220  1.00  0.00     0.006 C 
ATOM     17  C   UNL A   1      36.029  21.361  24.861  1.00  0.00     0.001 C 
BRANCH   8  18
ATOM     18  C   UNL A   1      32.247  24.554  22.996  1.00  0.00     0.269 C 
BRANCH  18  19
ATOM     19  C   UNL A   1      32.397  25.886  22.198  1.00  0.00     0.011 C 
ATOM     20  C   UNL A   1      31.137  26.714  22.372  1.00  0.00     0.017 C 
ATOM     21  C   UNL A   1      32.471  25.578  20.678  1.00  0.00     0.017 C 
ATOM     22  C   UNL A   1      33.654  26.680  22.572  1.00  0.00     0.017 C 
ENDBRANCH  18  19
ENDBRANCH   8  18
ENDBRANCH   5   7
ENDBRANCH   4   5
ENDBRANCH   3   4
ENDBRANCH   2   3
ENDBRANCH   1   2
BRANCH   1  23
ATOM     23  C   UNL A   1      31.806  30.110  25.546  1.00  0.00     0.202 C 
BRANCH  23  24
ATOM     24  C   UNL A   1      31.697  31.425  26.326  1.00  0.00     0.261 C 
BRANCH  24  25
ATOM     25  O   UNL A   1      32.536  31.414  27.499  1.00  0.00    -0.460 OA
BRANCH  25  26
ATOM     26  C   UNL A   1      33.397  32.451  27.626  1.00  0.00     0.338 C 
ATOM     27  O   UNL A   1      33.145  33.636  27.480  1.00  0.00    -0.246 OA
BRANCH  26  28
ATOM     28  C   UNL A   1      34.705  31.967  28.128  1.00  0.00     0.060 A 
ATOM     29  C   UNL A   1      34.826  30.603  28.411  1.00  0.00     0.016 A 
ATOM     30  C   UNL A   1      35.807  32.813  28.308  1.00  0.00     0.016 A 
ATOM     31  C   UNL A   1      36.031  30.088  28.895  1.00  0.00     0.010 A 
ATOM     32  C   UNL A   1      37.029  32.285  28.748  1.00  0.00     0.010 A 
ATOM     33  C   UNL A   1      37.140  30.925  29.088  1.00  0.00    -0.014 A 
BRANCH  33  34
ATOM     34  C   UNL A   1      38.342  30.403  29.797  1.00  0.00     0.031 A 
ATOM     35  C   UNL A   1      38.585  30.819  31.225  1.00  0.00     0.074 A 
ATOM     36  C   UNL A   1      39.180  29.521  29.216  1.00  0.00     0.049 A 
ATOM     37  N   UNL A   1      39.526  30.440  32.055  1.00  0.00    -0.248 NA
ATOM     38  C   UNL A   1      37.649  31.801  31.792  1.00  0.00     0.031 C 
ATOM     39  C   UNL A   1      39.077  29.029  27.844  1.00  0.00     0.029 A 
ATOM     40  N   UNL A   1      40.284  28.875  29.721  1.00  0.00    -0.354 N 
ATOM     41  C   UNL A   1      39.294  31.138  33.232  1.00  0.00     0.074 A 
ATOM     42  C   UNL A   1      38.161  32.006  32.995  1.00  0.00     0.031 C 
ATOM     43  C   UNL A   1      40.064  28.142  27.624  1.00  0.00     0.029 A 
ATOM     44  C   UNL A   1      40.880  28.016  28.831  1.00  0.00     0.049 A 
ATOM     45  H   UNL A   1      40.616  29.015  30.638  1.00  0.00     0.167 HD
ATOM     46  C   UNL A   1      39.941  31.049  34.419  1.00  0.00     0.037 A 
ATOM     47  C   UNL A   1      41.957  27.216  28.974  1.00  0.00     0.037 A 
ATOM     48  C   UNL A   1      41.049  30.174  34.684  1.00  0.00     0.049 A 
ATOM     49  C   UNL A   1      42.683  27.159  30.296  1.00  0.00     0.074 A 
ATOM     50  C   UNL A   1      41.737  29.990  35.871  1.00  0.00     0.029 A 
ATOM     51  N   UNL A   1      41.633  29.337  33.748  1.00  0.00    -0.354 N 
ATOM     52  N   UNL A   1      42.413  27.778  31.419  1.00  0.00    -0.248 NA
ATOM     53  C   UNL A   1      43.861  26.281  30.370  1.00  0.00     0.031 C 
ATOM     54  C   UNL A   1      42.766  29.071  35.641  1.00  0.00     0.029 A 
ATOM     55  C   UNL A   1      42.689  28.650  34.325  1.00  0.00     0.049 A 
ATOM     56  H   UNL A   1      41.342  29.244  32.811  1.00  0.00     0.167 HD
ATOM     57  C   UNL A   1      43.363  27.342  32.336  1.00  0.00     0.074 A 
ATOM     58  C   UNL A   1      44.211  26.396  31.643  1.00  0.00     0.031 C 
ATOM     59  C   UNL A   1      43.518  27.695  33.635  1.00  0.00     0.037 A 
BRANCH  46  60
ATOM     60  C   UNL A   1      39.457  31.934  35.530  1.00  0.00     0.064 A 
ATOM     61  C   UNL A   1      38.495  31.494  36.451  1.00  0.00     0.173 A 
ATOM     62  C   UNL A   1      39.978  33.226  35.688  1.00  0.00     0.173 A 
ATOM     63  F   UNL A   1      37.955  30.272  36.332  1.00  0.00    -0.203 F 
ATOM     64  C   UNL A   1      38.048  32.329  37.472  1.00  0.00     0.198 A 
ATOM     65  C   UNL A   1      39.552  34.047  36.727  1.00  0.00     0.198 A 
ATOM     66  F   UNL A   1      40.904  33.691  34.835  1.00  0.00    -0.203 F 
ATOM     67  F   UNL A   1      37.090  31.907  38.309  1.00  0.00    -0.200 F 
ATOM     68  C   UNL A   1      38.581  33.601  37.613  1.00  0.00     0.200 A 
ATOM     69  F   UNL A   1      40.075  35.273  36.869  1.00  0.00    -0.200 F 
ATOM     70  F   UNL A   1      38.153  34.403  38.598  1.00  0.00    -0.200 F 
ENDBRANCH  46  60
BRANCH  47  71
ATOM     71  C   UNL A   1      42.423  26.379  27.837  1.00  0.00     0.064 A 
ATOM     72  C   UNL A   1      43.419  26.837  26.962  1.00  0.00     0.173 A 
ATOM     73  C   UNL A   1      41.849  25.127  27.574  1.00  0.00     0.173 A 
ATOM     74  F   UNL A   1      43.975  28.042  27.154  1.00  0.00    -0.203 F 
ATOM     75  C   UNL A   1      43.804  26.086  25.853  1.00  0.00     0.198 A 
ATOM     76  C   UNL A   1      42.254  24.366  26.480  1.00  0.00     0.198 A 
ATOM     77  F   UNL A   1      40.887  24.648  28.376  1.00  0.00    -0.203 F 
ATOM     78  F   UNL A   1      44.719  26.572  25.002  1.00  0.00    -0.200 F 
ATOM     79  C   UNL A   1      43.224  24.849  25.615  1.00  0.00     0.200 A 
ATOM     80  F   UNL A   1      41.694  23.169  26.255  1.00  0.00    -0.200 F 
ATOM     81  F   UNL A   1      43.590  24.130  24.545  1.00  0.00    -0.200 F 
ENDBRANCH  47  71
BRANCH  59  82
ATOM     82  C   UNL A   1      44.617  27.034  34.415  1.00  0.00     0.064 A 
ATOM     83  C   UNL A   1      45.889  27.611  34.532  1.00  0.00     0.173 A 
ATOM     84  C   UNL A   1      44.376  25.835  35.105  1.00  0.00     0.173 A 
ATOM     85  F   UNL A   1      46.175  28.751  33.883  1.00  0.00    -0.203 F 
ATOM     86  C   UNL A   1      46.884  27.005  35.294  1.00  0.00     0.198 A 
ATOM     87  C   UNL A   1      45.365  25.246  35.888  1.00  0.00     0.198 A 
ATOM     88  F   UNL A   1      43.174  25.245  35.034  1.00  0.00    -0.203 F 
ATOM     89  F   UNL A   1      48.105  27.557  35.361  1.00  0.00    -0.200 F 
ATOM     90  C   UNL A   1      46.620  25.828  35.978  1.00  0.00     0.200 A 
ATOM     91  F   UNL A   1      45.102  24.115  36.558  1.00  0.00    -0.200 F 
ATOM     92  F   UNL A   1      47.575  25.252  36.719  1.00  0.00    -0.200 F 
ENDBRANCH  59  82
ENDBRANCH  33  34
ENDBRANCH  26  28
ENDBRANCH  25  26
ENDBRANCH  24  25
ENDBRANCH  23  24
ENDBRANCH   1  23
TORSDOF 16
ENDMDL
