MODEL 1
REMARK VINA RESULT:     -11.8      0.000      0.000
REMARK SMILES Cc1cccc2[nH]cc(C[C@H](NC(=O)OC(C)(C)C)C(=O)OCCOCCOC(=O)c3ccc(-c4c5nc(c(-c6c(F)c(F)c(F)c(F)c6F)c6ccc([nH]6)c(-c6c(F)c(F)c(F)c(F)c6F)c6nc(c(-c7c(F)c(F)c(F)c(F)c7F)c7ccc4[nH]7)C=C6)C=C5)cc3)c12
REMARK SMILES IDX 24 1 23 2 22 3 20 4 21 5 11 6 10 7 9 8 1 9 2 10 3 11 94 12
REMARK SMILES IDX 4 13 6 14 5 15 7 16 8 17 12 19 13 20 14 22 15 23 16 24 17 25
REMARK SMILES IDX 18 26 19 27 25 28 26 29 27 30 28 31 29 32 30 33 31 34 32 35
REMARK SMILES IDX 93 36 33 37 92 38 34 39 35 40 36 41 86 42 37 43 91 44 85 45
REMARK SMILES IDX 87 46 38 47 90 48 84 49 83 50 39 52 71 53 51 54 70 55 52 56
REMARK SMILES IDX 55 57 69 58 88 59 53 60 54 61 68 63 89 64 56 65 40 66 41 67
REMARK SMILES IDX 49 68 42 69 43 70 47 71 50 72 44 73 45 74 48 75 46 76 72 77
REMARK SMILES IDX 73 78 81 79 74 80 75 81 79 82 82 83 76 84 77 85 80 86 78 87
REMARK SMILES IDX 57 88 58 89 66 90 59 91 60 92 64 93 67 94 61 95 62 96 65 97
REMARK SMILES IDX 63 98
REMARK H PARENT 7 18 12 21 87 51 55 62
REMARK Flexibility Score: inf
ROOT
ATOM      1  C   UNL A   1      39.662  21.813  26.308  1.00  0.00     0.202 C 
ENDROOT
BRANCH   1   2
ATOM      2  C   UNL A   1      38.249  21.620  25.743  1.00  0.00     0.261 C 
BRANCH   2   3
ATOM      3  O   UNL A   1      37.536  22.829  25.415  1.00  0.00    -0.462 OA
BRANCH   3   4
ATOM      4  C   UNL A   1      36.800  22.752  24.272  1.00  0.00     0.329 C 
ATOM      5  O   UNL A   1      37.211  22.213  23.249  1.00  0.00    -0.250 OA
BRANCH   4   6
ATOM      6  C   UNL A   1      35.444  23.476  24.343  1.00  0.00     0.200 C 
BRANCH   6   7
ATOM      7  C   UNL A   1      35.005  23.344  25.823  1.00  0.00     0.075 C 
BRANCH   7   8
ATOM      8  C   UNL A   1      33.530  23.210  26.073  1.00  0.00    -0.020 A 
ATOM      9  C   UNL A   1      33.796  26.493  25.579  1.00  0.00     0.045 C 
ATOM     10  C   UNL A   1      32.569  25.682  25.906  1.00  0.00    -0.041 A 
ATOM     11  C   UNL A   1      31.358  26.392  26.068  1.00  0.00     0.004 A 
ATOM     12  C   UNL A   1      32.545  24.270  26.092  1.00  0.00     0.006 A 
ATOM     13  C   UNL A   1      30.158  25.749  26.351  1.00  0.00     0.002 A 
ATOM     14  C   UNL A   1      31.311  23.661  26.358  1.00  0.00     0.046 A 
ATOM     15  C   UNL A   1      30.112  24.367  26.489  1.00  0.00     0.027 A 
ATOM     16  N   UNL A   1      31.521  22.309  26.441  1.00  0.00    -0.361 N 
ATOM     17  C   UNL A   1      32.842  22.026  26.260  1.00  0.00     0.087 A 
ATOM     18  H   UNL A   1      30.819  21.639  26.609  1.00  0.00     0.166 HD
ENDBRANCH   7   8
ENDBRANCH   6   7
BRANCH   6  19
ATOM     19  N   UNL A   1      34.363  22.934  23.494  1.00  0.00    -0.308 N 
ATOM     20  C   UNL A   1      33.527  23.537  22.601  1.00  0.00     0.408 C 
ATOM     21  H   UNL A   1      34.222  21.964  23.590  1.00  0.00     0.168 HD
ATOM     22  O   UNL A   1      32.549  22.914  22.207  1.00  0.00    -0.225 OA
BRANCH  20  23
ATOM     23  O   UNL A   1      33.887  24.779  22.179  1.00  0.00    -0.444 OA
BRANCH  23  24
ATOM     24  C   UNL A   1      32.851  25.701  21.688  1.00  0.00     0.106 C 
ATOM     25  C   UNL A   1      32.590  25.565  20.175  1.00  0.00     0.056 C 
ATOM     26  C   UNL A   1      31.542  25.541  22.472  1.00  0.00     0.056 C 
ATOM     27  C   UNL A   1      33.363  27.134  21.945  1.00  0.00     0.056 C 
ENDBRANCH  23  24
ENDBRANCH  20  23
ENDBRANCH   6  19
ENDBRANCH   4   6
ENDBRANCH   3   4
ENDBRANCH   2   3
ENDBRANCH   1   2
BRANCH   1  28
ATOM     28  O   UNL A   1      40.557  20.714  26.394  1.00  0.00    -0.374 OA
BRANCH  28  29
ATOM     29  C   UNL A   1      41.955  20.925  26.463  1.00  0.00     0.202 C 
BRANCH  29  30
ATOM     30  C   UNL A   1      42.918  19.875  25.938  1.00  0.00     0.261 C 
BRANCH  30  31
ATOM     31  O   UNL A   1      43.575  20.171  24.716  1.00  0.00    -0.460 OA
BRANCH  31  32
ATOM     32  C   UNL A   1      44.866  20.508  24.904  1.00  0.00     0.338 C 
ATOM     33  O   UNL A   1      45.794  19.746  25.118  1.00  0.00    -0.246 OA
BRANCH  32  34
ATOM     34  C   UNL A   1      45.003  21.963  25.005  1.00  0.00     0.060 A 
ATOM     35  C   UNL A   1      45.639  22.402  26.164  1.00  0.00     0.016 A 
ATOM     36  C   UNL A   1      44.214  22.817  24.218  1.00  0.00     0.016 A 
ATOM     37  C   UNL A   1      45.265  23.617  26.677  1.00  0.00     0.010 A 
ATOM     38  C   UNL A   1      43.845  24.044  24.733  1.00  0.00     0.010 A 
ATOM     39  C   UNL A   1      44.304  24.381  26.000  1.00  0.00    -0.014 A 
BRANCH  39  40
ATOM     40  C   UNL A   1      43.887  25.590  26.672  1.00  0.00     0.031 A 
ATOM     41  C   UNL A   1      44.839  26.694  26.464  1.00  0.00     0.074 A 
ATOM     42  C   UNL A   1      42.811  25.672  27.470  1.00  0.00     0.049 A 
ATOM     43  N   UNL A   1      45.712  27.130  27.308  1.00  0.00    -0.248 NA
ATOM     44  C   UNL A   1      44.972  27.235  25.107  1.00  0.00     0.031 C 
ATOM     45  C   UNL A   1      41.674  24.755  27.564  1.00  0.00     0.029 A 
ATOM     46  N   UNL A   1      42.488  26.667  28.343  1.00  0.00    -0.354 N 
ATOM     47  C   UNL A   1      46.394  28.138  26.644  1.00  0.00     0.074 A 
ATOM     48  C   UNL A   1      46.020  28.046  25.256  1.00  0.00     0.031 C 
ATOM     49  C   UNL A   1      40.687  25.349  28.277  1.00  0.00     0.029 A 
ATOM     50  C   UNL A   1      41.185  26.607  28.811  1.00  0.00     0.049 A 
ATOM     51  H   UNL A   1      43.123  27.367  28.616  1.00  0.00     0.167 HD
ATOM     52  C   UNL A   1      46.994  29.134  27.346  1.00  0.00     0.037 A 
ATOM     53  C   UNL A   1      40.563  27.576  29.523  1.00  0.00     0.037 A 
ATOM     54  C   UNL A   1      47.145  28.780  28.733  1.00  0.00     0.049 A 
ATOM     55  C   UNL A   1      41.613  28.368  30.212  1.00  0.00     0.074 A 
ATOM     56  C   UNL A   1      47.990  27.989  29.478  1.00  0.00     0.029 A 
ATOM     57  N   UNL A   1      46.034  29.023  29.497  1.00  0.00    -0.354 N 
ATOM     58  N   UNL A   1      42.370  27.895  31.163  1.00  0.00    -0.248 NA
ATOM     59  C   UNL A   1      42.063  29.629  29.630  1.00  0.00     0.031 C 
ATOM     60  C   UNL A   1      47.262  27.616  30.647  1.00  0.00     0.029 A 
ATOM     61  C   UNL A   1      45.999  28.203  30.592  1.00  0.00     0.049 A 
ATOM     62  H   UNL A   1      45.350  29.699  29.285  1.00  0.00     0.167 HD
ATOM     63  C   UNL A   1      43.575  28.553  31.004  1.00  0.00     0.074 A 
ATOM     64  C   UNL A   1      43.272  29.719  30.189  1.00  0.00     0.031 C 
ATOM     65  C   UNL A   1      44.754  27.924  31.274  1.00  0.00     0.037 A 
BRANCH  52  66
ATOM     66  C   UNL A   1      46.986  30.577  26.905  1.00  0.00     0.064 A 
ATOM     67  C   UNL A   1      48.174  31.328  26.997  1.00  0.00     0.173 A 
ATOM     68  C   UNL A   1      45.805  31.323  26.702  1.00  0.00     0.173 A 
ATOM     69  F   UNL A   1      49.348  30.724  27.232  1.00  0.00    -0.203 F 
ATOM     70  C   UNL A   1      48.166  32.725  26.936  1.00  0.00     0.198 A 
ATOM     71  C   UNL A   1      45.809  32.711  26.585  1.00  0.00     0.198 A 
ATOM     72  F   UNL A   1      44.590  30.762  26.729  1.00  0.00    -0.203 F 
ATOM     73  F   UNL A   1      49.301  33.407  27.143  1.00  0.00    -0.200 F 
ATOM     74  C   UNL A   1      46.984  33.414  26.729  1.00  0.00     0.200 A 
ATOM     75  F   UNL A   1      44.648  33.359  26.414  1.00  0.00    -0.200 F 
ATOM     76  F   UNL A   1      46.966  34.754  26.721  1.00  0.00    -0.200 F 
ENDBRANCH  52  66
BRANCH  53  77
ATOM     77  C   UNL A   1      39.184  28.089  29.338  1.00  0.00     0.064 A 
ATOM     78  C   UNL A   1      38.336  28.257  30.446  1.00  0.00     0.173 A 
ATOM     79  C   UNL A   1      38.785  28.718  28.143  1.00  0.00     0.173 A 
ATOM     80  F   UNL A   1      38.656  27.713  31.630  1.00  0.00    -0.203 F 
ATOM     81  C   UNL A   1      37.196  29.064  30.381  1.00  0.00     0.198 A 
ATOM     82  C   UNL A   1      37.643  29.516  28.077  1.00  0.00     0.198 A 
ATOM     83  F   UNL A   1      39.548  28.660  27.042  1.00  0.00    -0.203 F 
ATOM     84  F   UNL A   1      36.463  29.275  31.483  1.00  0.00    -0.200 F 
ATOM     85  C   UNL A   1      36.862  29.708  29.202  1.00  0.00     0.200 A 
ATOM     86  F   UNL A   1      37.346  30.157  26.938  1.00  0.00    -0.200 F 
ATOM     87  F   UNL A   1      35.817  30.545  29.160  1.00  0.00    -0.200 F 
ENDBRANCH  53  77
BRANCH  65  88
ATOM     88  C   UNL A   1      44.707  26.757  32.209  1.00  0.00     0.064 A 
ATOM     89  C   UNL A   1      44.724  26.861  33.609  1.00  0.00     0.173 A 
ATOM     90  C   UNL A   1      44.564  25.479  31.653  1.00  0.00     0.173 A 
ATOM     91  F   UNL A   1      44.783  28.056  34.211  1.00  0.00    -0.203 F 
ATOM     92  C   UNL A   1      44.640  25.725  34.412  1.00  0.00     0.198 A 
ATOM     93  C   UNL A   1      44.442  24.351  32.457  1.00  0.00     0.198 A 
ATOM     94  F   UNL A   1      44.503  25.328  30.320  1.00  0.00    -0.203 F 
ATOM     95  F   UNL A   1      44.679  25.841  35.749  1.00  0.00    -0.200 F 
ATOM     96  C   UNL A   1      44.490  24.472  33.836  1.00  0.00     0.200 A 
ATOM     97  F   UNL A   1      44.255  23.149  31.895  1.00  0.00    -0.200 F 
ATOM     98  F   UNL A   1      44.372  23.384  34.609  1.00  0.00    -0.200 F 
ENDBRANCH  65  88
ENDBRANCH  39  40
ENDBRANCH  32  34
ENDBRANCH  31  32
ENDBRANCH  30  31
ENDBRANCH  29  30
ENDBRANCH  28  29
ENDBRANCH   1  28
TORSDOF 19
ENDMDL
MODEL 2
REMARK VINA RESULT:     -11.6      1.163      2.446
REMARK SMILES Cc1cccc2[nH]cc(C[C@H](NC(=O)OC(C)(C)C)C(=O)OCCOCCOC(=O)c3ccc(-c4c5nc(c(-c6c(F)c(F)c(F)c(F)c6F)c6ccc([nH]6)c(-c6c(F)c(F)c(F)c(F)c6F)c6nc(c(-c7c(F)c(F)c(F)c(F)c7F)c7ccc4[nH]7)C=C6)C=C5)cc3)c12
REMARK SMILES IDX 24 1 23 2 22 3 20 4 21 5 11 6 10 7 9 8 1 9 2 10 3 11 94 12
REMARK SMILES IDX 4 13 6 14 5 15 7 16 8 17 12 19 13 20 14 22 15 23 16 24 17 25
REMARK SMILES IDX 18 26 19 27 25 28 26 29 27 30 28 31 29 32 30 33 31 34 32 35
REMARK SMILES IDX 93 36 33 37 92 38 34 39 35 40 36 41 86 42 37 43 91 44 85 45
REMARK SMILES IDX 87 46 38 47 90 48 84 49 83 50 39 52 71 53 51 54 70 55 52 56
REMARK SMILES IDX 55 57 69 58 88 59 53 60 54 61 68 63 89 64 56 65 40 66 41 67
REMARK SMILES IDX 49 68 42 69 43 70 47 71 50 72 44 73 45 74 48 75 46 76 72 77
REMARK SMILES IDX 73 78 81 79 74 80 75 81 79 82 82 83 76 84 77 85 80 86 78 87
REMARK SMILES IDX 57 88 58 89 66 90 59 91 60 92 64 93 67 94 61 95 62 96 65 97
REMARK SMILES IDX 63 98
REMARK H PARENT 7 18 12 21 87 51 55 62
REMARK Flexibility Score: inf
ROOT
ATOM      1  C   UNL A   1      39.780  21.257  26.301  1.00  0.00     0.202 C 
ENDROOT
BRANCH   1   2
ATOM      2  C   UNL A   1      38.624  21.604  25.355  1.00  0.00     0.261 C 
BRANCH   2   3
ATOM      3  O   UNL A   1      37.473  22.215  25.973  1.00  0.00    -0.462 OA
BRANCH   3   4
ATOM      4  C   UNL A   1      36.281  21.684  25.582  1.00  0.00     0.329 C 
ATOM      5  O   UNL A   1      36.186  20.594  25.024  1.00  0.00    -0.250 OA
BRANCH   4   6
ATOM      6  C   UNL A   1      35.071  22.603  25.819  1.00  0.00     0.200 C 
BRANCH   6   7
ATOM      7  C   UNL A   1      35.642  24.039  25.711  1.00  0.00     0.075 C 
BRANCH   7   8
ATOM      8  C   UNL A   1      34.682  25.109  25.273  1.00  0.00    -0.020 A 
ATOM      9  C   UNL A   1      34.500  23.000  22.701  1.00  0.00     0.045 C 
ATOM     10  C   UNL A   1      33.793  24.316  22.898  1.00  0.00    -0.041 A 
ATOM     11  C   UNL A   1      32.961  24.758  21.845  1.00  0.00     0.004 A 
ATOM     12  C   UNL A   1      33.923  25.155  24.042  1.00  0.00     0.006 A 
ATOM     13  C   UNL A   1      32.243  25.946  21.920  1.00  0.00     0.002 A 
ATOM     14  C   UNL A   1      33.167  26.333  24.084  1.00  0.00     0.046 A 
ATOM     15  C   UNL A   1      32.324  26.751  23.050  1.00  0.00     0.027 A 
ATOM     16  N   UNL A   1      33.407  26.942  25.289  1.00  0.00    -0.361 N 
ATOM     17  C   UNL A   1      34.302  26.212  26.014  1.00  0.00     0.087 A 
ATOM     18  H   UNL A   1      32.994  27.784  25.588  1.00  0.00     0.166 HD
ENDBRANCH   7   8
ENDBRANCH   6   7
BRANCH   6  19
ATOM     19  N   UNL A   1      34.393  22.476  27.126  1.00  0.00    -0.308 N 
ATOM     20  C   UNL A   1      33.071  22.412  27.456  1.00  0.00     0.408 C 
ATOM     21  H   UNL A   1      35.005  22.430  27.896  1.00  0.00     0.168 HD
ATOM     22  O   UNL A   1      32.756  22.558  28.631  1.00  0.00    -0.225 OA
BRANCH  20  23
ATOM     23  O   UNL A   1      32.208  22.134  26.442  1.00  0.00    -0.444 OA
BRANCH  23  24
ATOM     24  C   UNL A   1      31.132  23.088  26.130  1.00  0.00     0.106 C 
ATOM     25  C   UNL A   1      31.372  24.486  26.733  1.00  0.00     0.056 C 
ATOM     26  C   UNL A   1      30.895  23.191  24.619  1.00  0.00     0.056 C 
ATOM     27  C   UNL A   1      29.837  22.528  26.756  1.00  0.00     0.056 C 
ENDBRANCH  23  24
ENDBRANCH  20  23
ENDBRANCH   6  19
ENDBRANCH   4   6
ENDBRANCH   3   4
ENDBRANCH   2   3
ENDBRANCH   1   2
BRANCH   1  28
ATOM     28  O   UNL A   1      40.446  20.008  26.192  1.00  0.00    -0.374 OA
BRANCH  28  29
ATOM     29  C   UNL A   1      41.632  19.756  26.922  1.00  0.00     0.202 C 
BRANCH  29  30
ATOM     30  C   UNL A   1      42.894  19.306  26.207  1.00  0.00     0.261 C 
BRANCH  30  31
ATOM     31  O   UNL A   1      43.276  20.050  25.063  1.00  0.00    -0.460 OA
BRANCH  31  32
ATOM     32  C   UNL A   1      44.572  20.418  25.106  1.00  0.00     0.338 C 
ATOM     33  O   UNL A   1      45.533  19.682  25.252  1.00  0.00    -0.246 OA
BRANCH  32  34
ATOM     34  C   UNL A   1      44.686  21.879  25.143  1.00  0.00     0.060 A 
ATOM     35  C   UNL A   1      45.402  22.372  26.230  1.00  0.00     0.016 A 
ATOM     36  C   UNL A   1      43.820  22.687  24.390  1.00  0.00     0.016 A 
ATOM     37  C   UNL A   1      45.045  23.600  26.725  1.00  0.00     0.010 A 
ATOM     38  C   UNL A   1      43.467  23.926  24.886  1.00  0.00     0.010 A 
ATOM     39  C   UNL A   1      44.017  24.320  26.100  1.00  0.00    -0.014 A 
BRANCH  39  40
ATOM     40  C   UNL A   1      43.629  25.546  26.757  1.00  0.00     0.031 A 
ATOM     41  C   UNL A   1      44.599  26.629  26.523  1.00  0.00     0.074 A 
ATOM     42  C   UNL A   1      42.564  25.659  27.566  1.00  0.00     0.049 A 
ATOM     43  N   UNL A   1      45.488  27.062  27.350  1.00  0.00    -0.248 NA
ATOM     44  C   UNL A   1      44.726  27.148  25.156  1.00  0.00     0.031 C 
ATOM     45  C   UNL A   1      41.411  24.764  27.686  1.00  0.00     0.029 A 
ATOM     46  N   UNL A   1      42.268  26.674  28.427  1.00  0.00    -0.354 N 
ATOM     47  C   UNL A   1      46.181  28.048  26.663  1.00  0.00     0.074 A 
ATOM     48  C   UNL A   1      45.790  27.942  25.281  1.00  0.00     0.031 C 
ATOM     49  C   UNL A   1      40.444  25.387  28.401  1.00  0.00     0.029 A 
ATOM     50  C   UNL A   1      40.970  26.644  28.910  1.00  0.00     0.049 A 
ATOM     51  H   UNL A   1      42.919  27.366  28.682  1.00  0.00     0.167 HD
ATOM     52  C   UNL A   1      46.806  29.044  27.343  1.00  0.00     0.037 A 
ATOM     53  C   UNL A   1      40.374  27.634  29.614  1.00  0.00     0.037 A 
ATOM     54  C   UNL A   1      46.966  28.708  28.734  1.00  0.00     0.049 A 
ATOM     55  C   UNL A   1      41.445  28.418  30.280  1.00  0.00     0.074 A 
ATOM     56  C   UNL A   1      47.806  27.913  29.481  1.00  0.00     0.029 A 
ATOM     57  N   UNL A   1      45.869  28.982  29.506  1.00  0.00    -0.354 N 
ATOM     58  N   UNL A   1      42.204  27.945  31.229  1.00  0.00    -0.248 NA
ATOM     59  C   UNL A   1      41.911  29.662  29.673  1.00  0.00     0.031 C 
ATOM     60  C   UNL A   1      47.084  27.572  30.664  1.00  0.00     0.029 A 
ATOM     61  C   UNL A   1      45.831  28.180  30.614  1.00  0.00     0.049 A 
ATOM     62  H   UNL A   1      45.195  29.667  29.291  1.00  0.00     0.167 HD
ATOM     63  C   UNL A   1      43.418  28.580  31.046  1.00  0.00     0.074 A 
ATOM     64  C   UNL A   1      43.128  29.738  30.217  1.00  0.00     0.031 C 
ATOM     65  C   UNL A   1      44.589  27.934  31.314  1.00  0.00     0.037 A 
BRANCH  52  66
ATOM     66  C   UNL A   1      46.819  30.479  26.880  1.00  0.00     0.064 A 
ATOM     67  C   UNL A   1      48.023  31.207  26.936  1.00  0.00     0.173 A 
ATOM     68  C   UNL A   1      45.649  31.247  26.689  1.00  0.00     0.173 A 
ATOM     69  F   UNL A   1      49.189  30.582  27.156  1.00  0.00    -0.203 F 
ATOM     70  C   UNL A   1      48.043  32.603  26.854  1.00  0.00     0.198 A 
ATOM     71  C   UNL A   1      45.680  32.633  26.551  1.00  0.00     0.198 A 
ATOM     72  F   UNL A   1      44.424  30.712  26.750  1.00  0.00    -0.203 F 
ATOM     73  F   UNL A   1      49.196  33.263  27.027  1.00  0.00    -0.200 F 
ATOM     74  C   UNL A   1      46.872  33.313  26.660  1.00  0.00     0.200 A 
ATOM     75  F   UNL A   1      44.529  33.303  26.394  1.00  0.00    -0.200 F 
ATOM     76  F   UNL A   1      46.882  34.653  26.632  1.00  0.00    -0.200 F 
ENDBRANCH  52  66
BRANCH  53  77
ATOM     77  C   UNL A   1      39.002  28.169  29.437  1.00  0.00     0.064 A 
ATOM     78  C   UNL A   1      38.173  28.381  30.552  1.00  0.00     0.173 A 
ATOM     79  C   UNL A   1      38.597  28.776  28.232  1.00  0.00     0.173 A 
ATOM     80  F   UNL A   1      38.501  27.859  31.744  1.00  0.00    -0.203 F 
ATOM     81  C   UNL A   1      37.048  29.208  30.483  1.00  0.00     0.198 A 
ATOM     82  C   UNL A   1      37.469  29.594  28.163  1.00  0.00     0.198 A 
ATOM     83  F   UNL A   1      39.342  28.677  27.122  1.00  0.00    -0.203 F 
ATOM     84  F   UNL A   1      36.336  29.459  31.591  1.00  0.00    -0.200 F 
ATOM     85  C   UNL A   1      36.709  29.829  29.294  1.00  0.00     0.200 A 
ATOM     86  F   UNL A   1      37.167  30.213  27.013  1.00  0.00    -0.200 F 
ATOM     87  F   UNL A   1      35.679  30.685  29.246  1.00  0.00    -0.200 F 
ENDBRANCH  53  77
BRANCH  65  88
ATOM     88  C   UNL A   1      44.532  26.782  32.267  1.00  0.00     0.064 A 
ATOM     89  C   UNL A   1      44.410  25.438  31.881  1.00  0.00     0.173 A 
ATOM     90  C   UNL A   1      44.684  27.056  33.633  1.00  0.00     0.173 A 
ATOM     91  F   UNL A   1      44.338  25.096  30.587  1.00  0.00    -0.203 F 
ATOM     92  C   UNL A   1      44.402  24.418  32.831  1.00  0.00     0.198 A 
ATOM     93  C   UNL A   1      44.713  26.033  34.575  1.00  0.00     0.198 A 
ATOM     94  F   UNL A   1      44.842  28.322  34.052  1.00  0.00    -0.203 F 
ATOM     95  F   UNL A   1      44.263  23.140  32.445  1.00  0.00    -0.200 F 
ATOM     96  C   UNL A   1      44.562  24.716  34.176  1.00  0.00     0.200 A 
ATOM     97  F   UNL A   1      44.910  26.325  35.868  1.00  0.00    -0.200 F 
ATOM     98  F   UNL A   1      44.591  23.732  35.085  1.00  0.00    -0.200 F 
ENDBRANCH  65  88
ENDBRANCH  39  40
ENDBRANCH  32  34
ENDBRANCH  31  32
ENDBRANCH  30  31
ENDBRANCH  29  30
ENDBRANCH  28  29
ENDBRANCH   1  28
TORSDOF 19
ENDMDL
MODEL 3
REMARK VINA RESULT:     -11.6      1.416      2.623
REMARK SMILES Cc1cccc2[nH]cc(C[C@H](NC(=O)OC(C)(C)C)C(=O)OCCOCCOC(=O)c3ccc(-c4c5nc(c(-c6c(F)c(F)c(F)c(F)c6F)c6ccc([nH]6)c(-c6c(F)c(F)c(F)c(F)c6F)c6nc(c(-c7c(F)c(F)c(F)c(F)c7F)c7ccc4[nH]7)C=C6)C=C5)cc3)c12
REMARK SMILES IDX 24 1 23 2 22 3 20 4 21 5 11 6 10 7 9 8 1 9 2 10 3 11 94 12
REMARK SMILES IDX 4 13 6 14 5 15 7 16 8 17 12 19 13 20 14 22 15 23 16 24 17 25
REMARK SMILES IDX 18 26 19 27 25 28 26 29 27 30 28 31 29 32 30 33 31 34 32 35
REMARK SMILES IDX 93 36 33 37 92 38 34 39 35 40 36 41 86 42 37 43 91 44 85 45
REMARK SMILES IDX 87 46 38 47 90 48 84 49 83 50 39 52 71 53 51 54 70 55 52 56
REMARK SMILES IDX 55 57 69 58 88 59 53 60 54 61 68 63 89 64 56 65 40 66 41 67
REMARK SMILES IDX 49 68 42 69 43 70 47 71 50 72 44 73 45 74 48 75 46 76 72 77
REMARK SMILES IDX 73 78 81 79 74 80 75 81 79 82 82 83 76 84 77 85 80 86 78 87
REMARK SMILES IDX 57 88 58 89 66 90 59 91 60 92 64 93 67 94 61 95 62 96 65 97
REMARK SMILES IDX 63 98
REMARK H PARENT 7 18 12 21 87 51 55 62
REMARK Flexibility Score: inf
ROOT
ATOM      1  C   UNL A   1      39.800  21.588  26.525  1.00  0.00     0.202 C 
ENDROOT
BRANCH   1   2
ATOM      2  C   UNL A   1      38.669  22.319  25.791  1.00  0.00     0.261 C 
BRANCH   2   3
ATOM      3  O   UNL A   1      37.604  21.484  25.293  1.00  0.00    -0.462 OA
BRANCH   3   4
ATOM      4  C   UNL A   1      36.355  21.978  25.518  1.00  0.00     0.329 C 
ATOM      5  O   UNL A   1      36.008  22.451  26.596  1.00  0.00    -0.250 OA
BRANCH   4   6
ATOM      6  C   UNL A   1      35.388  21.814  24.333  1.00  0.00     0.200 C 
BRANCH   6   7
ATOM      7  C   UNL A   1      35.337  23.215  23.671  1.00  0.00     0.075 C 
BRANCH   7   8
ATOM      8  C   UNL A   1      33.995  23.669  23.171  1.00  0.00    -0.020 A 
ATOM      9  C   UNL A   1      34.329  25.557  25.893  1.00  0.00     0.045 C 
ATOM     10  C   UNL A   1      33.180  25.495  24.920  1.00  0.00    -0.041 A 
ATOM     11  C   UNL A   1      32.062  26.313  25.198  1.00  0.00     0.004 A 
ATOM     12  C   UNL A   1      33.125  24.659  23.768  1.00  0.00     0.006 A 
ATOM     13  C   UNL A   1      30.952  26.355  24.362  1.00  0.00     0.002 A 
ATOM     14  C   UNL A   1      31.996  24.746  22.944  1.00  0.00     0.046 A 
ATOM     15  C   UNL A   1      30.905  25.579  23.210  1.00  0.00     0.027 A 
ATOM     16  N   UNL A   1      32.188  23.903  21.880  1.00  0.00    -0.361 N 
ATOM     17  C   UNL A   1      33.386  23.262  21.998  1.00  0.00     0.087 A 
ATOM     18  H   UNL A   1      31.552  23.777  21.138  1.00  0.00     0.166 HD
ENDBRANCH   7   8
ENDBRANCH   6   7
BRANCH   6  19
ATOM     19  N   UNL A   1      34.005  21.413  24.662  1.00  0.00    -0.308 N 
ATOM     20  C   UNL A   1      33.402  20.189  24.692  1.00  0.00     0.408 C 
ATOM     21  H   UNL A   1      33.413  22.161  24.904  1.00  0.00     0.168 HD
ATOM     22  O   UNL A   1      32.179  20.144  24.755  1.00  0.00    -0.225 OA
BRANCH  20  23
ATOM     23  O   UNL A   1      34.227  19.109  24.701  1.00  0.00    -0.444 OA
BRANCH  23  24
ATOM     24  C   UNL A   1      33.669  17.774  24.435  1.00  0.00     0.106 C 
ATOM     25  C   UNL A   1      32.913  17.692  23.094  1.00  0.00     0.056 C 
ATOM     26  C   UNL A   1      34.750  16.689  24.506  1.00  0.00     0.056 C 
ATOM     27  C   UNL A   1      32.653  17.477  25.559  1.00  0.00     0.056 C 
ENDBRANCH  23  24
ENDBRANCH  20  23
ENDBRANCH   6  19
ENDBRANCH   4   6
ENDBRANCH   3   4
ENDBRANCH   2   3
ENDBRANCH   1   2
BRANCH   1  28
ATOM     28  O   UNL A   1      41.045  21.362  25.880  1.00  0.00    -0.374 OA
BRANCH  28  29
ATOM     29  C   UNL A   1      42.097  20.699  26.555  1.00  0.00     0.202 C 
BRANCH  29  30
ATOM     30  C   UNL A   1      42.951  19.674  25.829  1.00  0.00     0.261 C 
BRANCH  30  31
ATOM     31  O   UNL A   1      43.630  20.122  24.667  1.00  0.00    -0.460 OA
BRANCH  31  32
ATOM     32  C   UNL A   1      44.905  20.471  24.928  1.00  0.00     0.338 C 
ATOM     33  O   UNL A   1      45.822  19.719  25.213  1.00  0.00    -0.246 OA
BRANCH  32  34
ATOM     34  C   UNL A   1      45.027  21.929  25.013  1.00  0.00     0.060 A 
ATOM     35  C   UNL A   1      45.679  22.386  26.155  1.00  0.00     0.016 A 
ATOM     36  C   UNL A   1      44.214  22.765  24.232  1.00  0.00     0.016 A 
ATOM     37  C   UNL A   1      45.301  23.602  26.662  1.00  0.00     0.010 A 
ATOM     38  C   UNL A   1      43.840  23.993  24.741  1.00  0.00     0.010 A 
ATOM     39  C   UNL A   1      44.318  24.348  25.996  1.00  0.00    -0.014 A 
BRANCH  39  40
ATOM     40  C   UNL A   1      43.899  25.560  26.663  1.00  0.00     0.031 A 
ATOM     41  C   UNL A   1      44.854  26.662  26.457  1.00  0.00     0.074 A 
ATOM     42  C   UNL A   1      42.820  25.644  27.457  1.00  0.00     0.049 A 
ATOM     43  N   UNL A   1      45.723  27.099  27.304  1.00  0.00    -0.248 NA
ATOM     44  C   UNL A   1      44.993  27.200  25.100  1.00  0.00     0.031 C 
ATOM     45  C   UNL A   1      41.681  24.728  27.547  1.00  0.00     0.029 A 
ATOM     46  N   UNL A   1      42.494  26.642  28.326  1.00  0.00    -0.354 N 
ATOM     47  C   UNL A   1      46.410  28.104  26.640  1.00  0.00     0.074 A 
ATOM     48  C   UNL A   1      46.042  28.010  25.251  1.00  0.00     0.031 C 
ATOM     49  C   UNL A   1      40.693  25.325  28.255  1.00  0.00     0.029 A 
ATOM     50  C   UNL A   1      41.190  26.584  28.788  1.00  0.00     0.049 A 
ATOM     51  H   UNL A   1      43.130  27.342  28.600  1.00  0.00     0.167 HD
ATOM     52  C   UNL A   1      47.007  29.102  27.342  1.00  0.00     0.037 A 
ATOM     53  C   UNL A   1      40.566  27.555  29.495  1.00  0.00     0.037 A 
ATOM     54  C   UNL A   1      47.152  28.751  28.731  1.00  0.00     0.049 A 
ATOM     55  C   UNL A   1      41.614  28.348  30.187  1.00  0.00     0.074 A 
ATOM     56  C   UNL A   1      47.994  27.960  29.481  1.00  0.00     0.029 A 
ATOM     57  N   UNL A   1      46.038  28.996  29.490  1.00  0.00    -0.354 N 
ATOM     58  N   UNL A   1      42.366  27.876  31.142  1.00  0.00    -0.248 NA
ATOM     59  C   UNL A   1      42.067  29.608  29.604  1.00  0.00     0.031 C 
ATOM     60  C   UNL A   1      47.260  27.591  30.649  1.00  0.00     0.029 A 
ATOM     61  C   UNL A   1      45.997  28.179  30.586  1.00  0.00     0.049 A 
ATOM     62  H   UNL A   1      45.356  29.672  29.273  1.00  0.00     0.167 HD
ATOM     63  C   UNL A   1      43.572  28.533  30.987  1.00  0.00     0.074 A 
ATOM     64  C   UNL A   1      43.274  29.697  30.168  1.00  0.00     0.031 C 
ATOM     65  C   UNL A   1      44.749  27.904  31.264  1.00  0.00     0.037 A 
BRANCH  52  66
ATOM     66  C   UNL A   1      47.003  30.543  26.898  1.00  0.00     0.064 A 
ATOM     67  C   UNL A   1      48.191  31.294  26.993  1.00  0.00     0.173 A 
ATOM     68  C   UNL A   1      45.823  31.290  26.688  1.00  0.00     0.173 A 
ATOM     69  F   UNL A   1      49.363  30.689  27.235  1.00  0.00    -0.203 F 
ATOM     70  C   UNL A   1      48.185  32.690  26.930  1.00  0.00     0.198 A 
ATOM     71  C   UNL A   1      45.830  32.678  26.568  1.00  0.00     0.198 A 
ATOM     72  F   UNL A   1      44.608  30.730  26.711  1.00  0.00    -0.203 F 
ATOM     73  F   UNL A   1      49.320  33.371  27.140  1.00  0.00    -0.200 F 
ATOM     74  C   UNL A   1      47.005  33.380  26.716  1.00  0.00     0.200 A 
ATOM     75  F   UNL A   1      44.670  33.327  26.391  1.00  0.00    -0.200 F 
ATOM     76  F   UNL A   1      46.988  34.720  26.704  1.00  0.00    -0.200 F 
ENDBRANCH  52  66
BRANCH  53  77
ATOM     77  C   UNL A   1      39.188  28.069  29.304  1.00  0.00     0.064 A 
ATOM     78  C   UNL A   1      38.336  28.243  30.407  1.00  0.00     0.173 A 
ATOM     79  C   UNL A   1      38.794  28.695  28.104  1.00  0.00     0.173 A 
ATOM     80  F   UNL A   1      38.651  27.702  31.594  1.00  0.00    -0.203 F 
ATOM     81  C   UNL A   1      37.197  29.051  30.335  1.00  0.00     0.198 A 
ATOM     82  C   UNL A   1      37.654  29.494  28.031  1.00  0.00     0.198 A 
ATOM     83  F   UNL A   1      39.562  28.632  27.007  1.00  0.00    -0.203 F 
ATOM     84  F   UNL A   1      36.460  29.266  31.434  1.00  0.00    -0.200 F 
ATOM     85  C   UNL A   1      36.868  29.691  29.152  1.00  0.00     0.200 A 
ATOM     86  F   UNL A   1      37.362  30.132  26.889  1.00  0.00    -0.200 F 
ATOM     87  F   UNL A   1      35.825  30.530  29.103  1.00  0.00    -0.200 F 
ENDBRANCH  53  77
BRANCH  65  88
ATOM     88  C   UNL A   1      44.697  26.738  32.201  1.00  0.00     0.064 A 
ATOM     89  C   UNL A   1      44.484  25.409  31.804  1.00  0.00     0.173 A 
ATOM     90  C   UNL A   1      44.950  26.979  33.559  1.00  0.00     0.173 A 
ATOM     91  F   UNL A   1      44.311  25.095  30.513  1.00  0.00    -0.203 F 
ATOM     92  C   UNL A   1      44.487  24.374  32.737  1.00  0.00     0.198 A 
ATOM     93  C   UNL A   1      44.991  25.939  34.481  1.00  0.00     0.198 A 
ATOM     94  F   UNL A   1      45.199  28.228  33.985  1.00  0.00    -0.203 F 
ATOM     95  F   UNL A   1      44.260  23.111  32.342  1.00  0.00    -0.200 F 
ATOM     96  C   UNL A   1      44.748  24.638  34.073  1.00  0.00     0.200 A 
ATOM     97  F   UNL A   1      45.285  26.198  35.763  1.00  0.00    -0.200 F 
ATOM     98  F   UNL A   1      44.787  23.638  34.963  1.00  0.00    -0.200 F 
ENDBRANCH  65  88
ENDBRANCH  39  40
ENDBRANCH  32  34
ENDBRANCH  31  32
ENDBRANCH  30  31
ENDBRANCH  29  30
ENDBRANCH  28  29
ENDBRANCH   1  28
TORSDOF 19
ENDMDL
