MODEL 1
REMARK VINA RESULT:     -11.8      0.000      0.000
REMARK SMILES COC(=O)c1ccc(Cl)c(-c2ccc(F)cc2C(=O)OCCOCCOC(=O)c2ccc(-c3c4nc(c(-c5c(F)c(F)c(F)c(F)c5F)c5ccc([nH]5)c(-c5c(F)c(F)c(F)c(F)c5F)c5nc(c(-c6c(F)c(F)c(F)c(F)c6F)c6ccc3[nH]6)C=C5)C=C4)cc2)c1
REMARK SMILES IDX 22 1 21 2 20 3 18 4 19 5 17 6 11 7 12 8 13 9 16 10 14 11
REMARK SMILES IDX 15 12 10 13 5 14 6 15 92 16 7 17 8 18 9 19 3 20 4 21 2 22
REMARK SMILES IDX 1 23 23 24 24 25 25 26 26 27 27 28 28 29 29 30 30 31 91 32
REMARK SMILES IDX 31 33 90 34 32 35 33 36 34 37 84 38 35 39 89 40 83 41 85 42
REMARK SMILES IDX 36 43 88 44 82 45 81 46 37 48 69 49 49 50 68 51 50 52 53 53
REMARK SMILES IDX 67 54 86 55 51 56 52 57 66 59 87 60 54 61 38 62 39 63 47 64
REMARK SMILES IDX 40 65 41 66 45 67 48 68 42 69 43 70 46 71 44 72 70 73 71 74
REMARK SMILES IDX 79 75 72 76 73 77 77 78 80 79 74 80 75 81 78 82 76 83 55 84
REMARK SMILES IDX 56 85 64 86 57 87 58 88 62 89 65 90 59 91 60 92 63 93 61 94
REMARK H PARENT 85 47 53 58
REMARK Flexibility Score: inf
ROOT
ATOM      1  C   UNL A   1      35.804  23.967  24.901  1.00  0.00     0.202 C 
ENDROOT
BRANCH   1   2
ATOM      2  C   UNL A   1      34.490  24.454  24.292  1.00  0.00     0.261 C 
BRANCH   2   3
ATOM      3  O   UNL A   1      33.936  25.518  25.082  1.00  0.00    -0.460 OA
BRANCH   3   4
ATOM      4  C   UNL A   1      33.651  26.656  24.407  1.00  0.00     0.338 C 
ATOM      5  O   UNL A   1      33.558  26.774  23.196  1.00  0.00    -0.246 OA
BRANCH   4   6
ATOM      6  C   UNL A   1      33.306  27.765  25.336  1.00  0.00     0.070 A 
ATOM      7  C   UNL A   1      32.006  28.292  25.534  1.00  0.00    -0.002 A 
ATOM      8  C   UNL A   1      31.855  29.273  26.540  1.00  0.00     0.013 A 
ATOM      9  C   UNL A   1      32.950  29.769  27.254  1.00  0.00     0.040 A 
ATOM     10  C   UNL A   1      34.403  28.274  26.055  1.00  0.00     0.055 A 
ATOM     11  C   UNL A   1      34.216  29.278  26.989  1.00  0.00     0.124 A 
ATOM     12  F   UNL A   1      35.272  29.773  27.646  1.00  0.00    -0.207 F 
BRANCH   7  13
ATOM     13  C   UNL A   1      30.819  27.880  24.746  1.00  0.00     0.002 A 
ATOM     14  C   UNL A   1      29.068  28.480  23.142  1.00  0.00     0.060 A 
ATOM     15  C   UNL A   1      28.434  27.252  23.339  1.00  0.00     0.017 A 
ATOM     16  C   UNL A   1      30.276  28.764  23.794  1.00  0.00     0.026 A 
ATOM     17  C   UNL A   1      28.989  26.331  24.224  1.00  0.00     0.022 A 
ATOM     18  C   UNL A   1      30.148  26.651  24.946  1.00  0.00     0.048 A 
ATOM     19  Cl  UNL A   1      30.657  25.489  26.127  1.00  0.00    -0.084 Cl
BRANCH  14  20
ATOM     20  C   UNL A   1      28.466  29.548  22.315  1.00  0.00     0.337 C 
ATOM     21  O   UNL A   1      28.954  29.952  21.268  1.00  0.00    -0.246 OA
BRANCH  20  22
ATOM     22  O   UNL A   1      27.407  30.083  22.967  1.00  0.00    -0.465 OA
ATOM     23  C   UNL A   1      27.653  31.393  23.482  1.00  0.00     0.282 C 
ENDBRANCH  20  22
ENDBRANCH  14  20
ENDBRANCH   7  13
ENDBRANCH   4   6
ENDBRANCH   3   4
ENDBRANCH   2   3
ENDBRANCH   1   2
BRANCH   1  24
ATOM     24  O   UNL A   1      35.734  22.807  25.729  1.00  0.00    -0.374 OA
BRANCH  24  25
ATOM     25  C   UNL A   1      35.832  21.529  25.100  1.00  0.00     0.202 C 
BRANCH  25  26
ATOM     26  C   UNL A   1      37.101  20.708  25.367  1.00  0.00     0.261 C 
BRANCH  26  27
ATOM     27  O   UNL A   1      38.318  21.446  25.164  1.00  0.00    -0.460 OA
BRANCH  27  28
ATOM     28  C   UNL A   1      39.266  21.229  26.106  1.00  0.00     0.338 C 
ATOM     29  O   UNL A   1      39.805  20.172  26.393  1.00  0.00    -0.246 OA
BRANCH  28  30
ATOM     30  C   UNL A   1      39.709  22.508  26.687  1.00  0.00     0.060 A 
ATOM     31  C   UNL A   1      39.144  23.683  26.177  1.00  0.00     0.016 A 
ATOM     32  C   UNL A   1      40.739  22.564  27.629  1.00  0.00     0.016 A 
ATOM     33  C   UNL A   1      39.635  24.923  26.579  1.00  0.00     0.010 A 
ATOM     34  C   UNL A   1      41.232  23.811  28.028  1.00  0.00     0.010 A 
ATOM     35  C   UNL A   1      40.705  24.996  27.481  1.00  0.00    -0.014 A 
BRANCH  35  36
ATOM     36  C   UNL A   1      41.326  26.312  27.769  1.00  0.00     0.031 A 
ATOM     37  C   UNL A   1      42.724  26.596  27.300  1.00  0.00     0.074 A 
ATOM     38  C   UNL A   1      40.633  27.262  28.419  1.00  0.00     0.049 A 
ATOM     39  N   UNL A   1      43.440  27.682  27.445  1.00  0.00    -0.248 NA
ATOM     40  C   UNL A   1      43.409  25.514  26.577  1.00  0.00     0.031 C 
ATOM     41  C   UNL A   1      39.266  27.112  28.905  1.00  0.00     0.029 A 
ATOM     42  N   UNL A   1      40.983  28.539  28.784  1.00  0.00    -0.354 N 
ATOM     43  C   UNL A   1      44.660  27.414  26.840  1.00  0.00     0.074 A 
ATOM     44  C   UNL A   1      44.600  26.053  26.351  1.00  0.00     0.031 C 
ATOM     45  C   UNL A   1      38.894  28.250  29.513  1.00  0.00     0.029 A 
ATOM     46  C   UNL A   1      40.000  29.202  29.473  1.00  0.00     0.049 A 
ATOM     47  H   UNL A   1      41.858  28.940  28.571  1.00  0.00     0.167 HD
ATOM     48  C   UNL A   1      45.727  28.235  26.698  1.00  0.00     0.037 A 
ATOM     49  C   UNL A   1      39.988  30.433  30.020  1.00  0.00     0.037 A 
ATOM     50  C   UNL A   1      45.776  29.595  27.169  1.00  0.00     0.049 A 
ATOM     51  C   UNL A   1      41.195  31.316  29.876  1.00  0.00     0.074 A 
ATOM     52  C   UNL A   1      46.794  30.521  27.020  1.00  0.00     0.029 A 
ATOM     53  N   UNL A   1      44.771  30.221  27.892  1.00  0.00    -0.354 N 
ATOM     54  N   UNL A   1      42.328  31.068  29.267  1.00  0.00    -0.248 NA
ATOM     55  C   UNL A   1      41.124  32.648  30.492  1.00  0.00     0.031 C 
ATOM     56  C   UNL A   1      46.432  31.684  27.705  1.00  0.00     0.029 A 
ATOM     57  C   UNL A   1      45.162  31.508  28.229  1.00  0.00     0.049 A 
ATOM     58  H   UNL A   1      43.907  29.813  28.131  1.00  0.00     0.167 HD
ATOM     59  C   UNL A   1      43.102  32.210  29.418  1.00  0.00     0.074 A 
ATOM     60  C   UNL A   1      42.300  33.163  30.156  1.00  0.00     0.031 C 
ATOM     61  C   UNL A   1      44.365  32.443  28.984  1.00  0.00     0.037 A 
BRANCH  48  62
ATOM     62  C   UNL A   1      46.948  27.684  26.021  1.00  0.00     0.064 A 
ATOM     63  C   UNL A   1      48.004  27.164  26.785  1.00  0.00     0.173 A 
ATOM     64  C   UNL A   1      47.105  27.727  24.628  1.00  0.00     0.173 A 
ATOM     65  F   UNL A   1      47.905  27.105  28.122  1.00  0.00    -0.203 F 
ATOM     66  C   UNL A   1      49.176  26.719  26.181  1.00  0.00     0.198 A 
ATOM     67  C   UNL A   1      48.268  27.254  24.024  1.00  0.00     0.198 A 
ATOM     68  F   UNL A   1      46.120  28.203  23.851  1.00  0.00    -0.203 F 
ATOM     69  F   UNL A   1      50.183  26.257  26.934  1.00  0.00    -0.200 F 
ATOM     70  C   UNL A   1      49.305  26.761  24.801  1.00  0.00     0.200 A 
ATOM     71  F   UNL A   1      48.382  27.271  22.689  1.00  0.00    -0.200 F 
ATOM     72  F   UNL A   1      50.430  26.322  24.219  1.00  0.00    -0.200 F 
ENDBRANCH  48  62
BRANCH  49  73
ATOM     73  C   UNL A   1      38.774  30.892  30.746  1.00  0.00     0.064 A 
ATOM     74  C   UNL A   1      38.669  30.758  32.138  1.00  0.00     0.173 A 
ATOM     75  C   UNL A   1      37.675  31.419  30.056  1.00  0.00     0.173 A 
ATOM     76  F   UNL A   1      39.692  30.251  32.843  1.00  0.00    -0.203 F 
ATOM     77  C   UNL A   1      37.498  31.103  32.809  1.00  0.00     0.198 A 
ATOM     78  C   UNL A   1      36.514  31.791  30.730  1.00  0.00     0.198 A 
ATOM     79  F   UNL A   1      37.735  31.584  28.726  1.00  0.00    -0.203 F 
ATOM     80  F   UNL A   1      37.408  30.919  34.132  1.00  0.00    -0.200 F 
ATOM     81  C   UNL A   1      36.422  31.621  32.104  1.00  0.00     0.200 A 
ATOM     82  F   UNL A   1      35.483  32.308  30.049  1.00  0.00    -0.200 F 
ATOM     83  F   UNL A   1      35.294  31.954  32.749  1.00  0.00    -0.200 F 
ENDBRANCH  49  73
BRANCH  61  84
ATOM     84  C   UNL A   1      44.973  33.779  29.304  1.00  0.00     0.064 A 
ATOM     85  C   UNL A   1      45.643  33.989  30.519  1.00  0.00     0.173 A 
ATOM     86  C   UNL A   1      44.833  34.872  28.434  1.00  0.00     0.173 A 
ATOM     87  F   UNL A   1      45.796  32.980  31.389  1.00  0.00    -0.203 F 
ATOM     88  C   UNL A   1      46.138  35.245  30.857  1.00  0.00     0.198 A 
ATOM     89  C   UNL A   1      45.357  36.119  28.763  1.00  0.00     0.198 A 
ATOM     90  F   UNL A   1      44.213  34.720  27.255  1.00  0.00    -0.203 F 
ATOM     91  F   UNL A   1      46.744  35.429  32.039  1.00  0.00    -0.200 F 
ATOM     92  C   UNL A   1      46.000  36.307  29.977  1.00  0.00     0.200 A 
ATOM     93  F   UNL A   1      45.246  37.139  27.899  1.00  0.00    -0.200 F 
ATOM     94  F   UNL A   1      46.490  37.513  30.297  1.00  0.00    -0.200 F 
ENDBRANCH  61  84
ENDBRANCH  35  36
ENDBRANCH  28  30
ENDBRANCH  27  28
ENDBRANCH  26  27
ENDBRANCH  25  26
ENDBRANCH  24  25
ENDBRANCH   1  24
TORSDOF 17
ENDMDL
MODEL 2
REMARK VINA RESULT:     -11.7      4.292      9.957
REMARK SMILES COC(=O)c1ccc(Cl)c(-c2ccc(F)cc2C(=O)OCCOCCOC(=O)c2ccc(-c3c4nc(c(-c5c(F)c(F)c(F)c(F)c5F)c5ccc([nH]5)c(-c5c(F)c(F)c(F)c(F)c5F)c5nc(c(-c6c(F)c(F)c(F)c(F)c6F)c6ccc3[nH]6)C=C5)C=C4)cc2)c1
REMARK SMILES IDX 22 1 21 2 20 3 18 4 19 5 17 6 11 7 12 8 13 9 16 10 14 11
REMARK SMILES IDX 15 12 10 13 5 14 6 15 92 16 7 17 8 18 9 19 3 20 4 21 2 22
REMARK SMILES IDX 1 23 23 24 24 25 25 26 26 27 27 28 28 29 29 30 30 31 91 32
REMARK SMILES IDX 31 33 90 34 32 35 33 36 34 37 84 38 35 39 89 40 83 41 85 42
REMARK SMILES IDX 36 43 88 44 82 45 81 46 37 48 69 49 49 50 68 51 50 52 53 53
REMARK SMILES IDX 67 54 86 55 51 56 52 57 66 59 87 60 54 61 38 62 39 63 47 64
REMARK SMILES IDX 40 65 41 66 45 67 48 68 42 69 43 70 46 71 44 72 70 73 71 74
REMARK SMILES IDX 79 75 72 76 73 77 77 78 80 79 74 80 75 81 78 82 76 83 55 84
REMARK SMILES IDX 56 85 64 86 57 87 58 88 62 89 65 90 59 91 60 92 63 93 61 94
REMARK H PARENT 85 47 53 58
REMARK Flexibility Score: inf
ROOT
ATOM      1  C   UNL A   1      32.588  27.017  26.315  1.00  0.00     0.202 C 
ENDROOT
BRANCH   1   2
ATOM      2  C   UNL A   1      32.149  25.575  26.060  1.00  0.00     0.261 C 
BRANCH   2   3
ATOM      3  O   UNL A   1      33.216  24.825  25.459  1.00  0.00    -0.460 OA
BRANCH   3   4
ATOM      4  C   UNL A   1      33.681  23.787  26.189  1.00  0.00     0.338 C 
ATOM      5  O   UNL A   1      33.085  23.207  27.083  1.00  0.00    -0.246 OA
BRANCH   4   6
ATOM      6  C   UNL A   1      34.993  23.308  25.677  1.00  0.00     0.070 A 
ATOM      7  C   UNL A   1      35.174  22.250  24.753  1.00  0.00    -0.002 A 
ATOM      8  C   UNL A   1      36.491  22.010  24.298  1.00  0.00     0.013 A 
ATOM      9  C   UNL A   1      37.584  22.723  24.799  1.00  0.00     0.040 A 
ATOM     10  C   UNL A   1      36.099  24.017  26.181  1.00  0.00     0.055 A 
ATOM     11  C   UNL A   1      37.378  23.706  25.752  1.00  0.00     0.124 A 
ATOM     12  F   UNL A   1      38.424  24.369  26.259  1.00  0.00    -0.207 F 
BRANCH   7  13
ATOM     13  C   UNL A   1      34.072  21.393  24.253  1.00  0.00     0.002 A 
ATOM     14  C   UNL A   1      32.978  19.201  24.233  1.00  0.00     0.060 A 
ATOM     15  C   UNL A   1      32.116  19.615  23.216  1.00  0.00     0.017 A 
ATOM     16  C   UNL A   1      33.904  20.099  24.782  1.00  0.00     0.026 A 
ATOM     17  C   UNL A   1      32.215  20.913  22.722  1.00  0.00     0.022 A 
ATOM     18  C   UNL A   1      33.202  21.783  23.208  1.00  0.00     0.048 A 
ATOM     19  Cl  UNL A   1      33.326  23.318  22.412  1.00  0.00    -0.084 Cl
BRANCH  14  20
ATOM     20  C   UNL A   1      33.009  17.802  24.713  1.00  0.00     0.337 C 
ATOM     21  O   UNL A   1      32.153  17.315  25.437  1.00  0.00    -0.246 OA
BRANCH  20  22
ATOM     22  O   UNL A   1      34.179  17.225  24.349  1.00  0.00    -0.465 OA
ATOM     23  C   UNL A   1      34.512  16.070  25.122  1.00  0.00     0.282 C 
ENDBRANCH  20  22
ENDBRANCH  14  20
ENDBRANCH   7  13
ENDBRANCH   4   6
ENDBRANCH   3   4
ENDBRANCH   2   3
ENDBRANCH   1   2
BRANCH   1  24
ATOM     24  O   UNL A   1      31.576  28.019  26.225  1.00  0.00    -0.374 OA
BRANCH  24  25
ATOM     25  C   UNL A   1      31.748  29.060  25.265  1.00  0.00     0.202 C 
BRANCH  25  26
ATOM     26  C   UNL A   1      31.806  30.501  25.792  1.00  0.00     0.261 C 
BRANCH  26  27
ATOM     27  O   UNL A   1      32.360  30.609  27.114  1.00  0.00    -0.460 OA
BRANCH  27  28
ATOM     28  C   UNL A   1      33.152  31.691  27.301  1.00  0.00     0.338 C 
ATOM     29  O   UNL A   1      32.830  32.868  27.251  1.00  0.00    -0.246 OA
BRANCH  28  30
ATOM     30  C   UNL A   1      34.494  31.273  27.740  1.00  0.00     0.060 A 
ATOM     31  C   UNL A   1      34.696  29.912  28.000  1.00  0.00     0.016 A 
ATOM     32  C   UNL A   1      35.501  32.204  28.001  1.00  0.00     0.016 A 
ATOM     33  C   UNL A   1      35.895  29.481  28.563  1.00  0.00     0.010 A 
ATOM     34  C   UNL A   1      36.703  31.769  28.570  1.00  0.00     0.010 A 
ATOM     35  C   UNL A   1      36.894  30.411  28.883  1.00  0.00    -0.014 A 
BRANCH  35  36
ATOM     36  C   UNL A   1      38.092  29.962  29.634  1.00  0.00     0.031 A 
ATOM     37  C   UNL A   1      38.324  30.455  31.033  1.00  0.00     0.074 A 
ATOM     38  C   UNL A   1      38.954  29.091  29.080  1.00  0.00     0.049 A 
ATOM     39  N   UNL A   1      39.303  30.176  31.856  1.00  0.00    -0.248 NA
ATOM     40  C   UNL A   1      37.326  31.387  31.577  1.00  0.00     0.031 C 
ATOM     41  C   UNL A   1      38.825  28.528  27.741  1.00  0.00     0.029 A 
ATOM     42  N   UNL A   1      40.106  28.531  29.573  1.00  0.00    -0.354 N 
ATOM     43  C   UNL A   1      39.046  30.903  33.009  1.00  0.00     0.074 A 
ATOM     44  C   UNL A   1      37.834  31.658  32.772  1.00  0.00     0.031 C 
ATOM     45  C   UNL A   1      39.862  27.707  27.513  1.00  0.00     0.029 A 
ATOM     46  C   UNL A   1      40.736  27.699  28.683  1.00  0.00     0.049 A 
ATOM     47  H   UNL A   1      40.448  28.710  30.480  1.00  0.00     0.167 HD
ATOM     48  C   UNL A   1      39.753  30.928  34.164  1.00  0.00     0.037 A 
ATOM     49  C   UNL A   1      41.890  27.012  28.788  1.00  0.00     0.037 A 
ATOM     50  C   UNL A   1      40.948  30.161  34.403  1.00  0.00     0.049 A 
ATOM     51  C   UNL A   1      42.674  27.078  30.068  1.00  0.00     0.074 A 
ATOM     52  C   UNL A   1      41.699  30.078  35.562  1.00  0.00     0.029 A 
ATOM     53  N   UNL A   1      41.574  29.354  33.464  1.00  0.00    -0.354 N 
ATOM     54  N   UNL A   1      42.401  27.736  31.168  1.00  0.00    -0.248 NA
ATOM     55  C   UNL A   1      43.924  26.307  30.125  1.00  0.00     0.031 C 
ATOM     56  C   UNL A   1      42.812  29.273  35.307  1.00  0.00     0.029 A 
ATOM     57  C   UNL A   1      42.723  28.801  34.007  1.00  0.00     0.049 A 
ATOM     58  H   UNL A   1      41.250  29.195  32.548  1.00  0.00     0.167 HD
ATOM     59  C   UNL A   1      43.435  27.456  32.049  1.00  0.00     0.074 A 
ATOM     60  C   UNL A   1      44.331  26.547  31.365  1.00  0.00     0.031 C 
ATOM     61  C   UNL A   1      43.623  27.915  33.311  1.00  0.00     0.037 A 
BRANCH  48  62
ATOM     62  C   UNL A   1      39.269  31.830  35.261  1.00  0.00     0.064 A 
ATOM     63  C   UNL A   1      39.662  33.177  35.292  1.00  0.00     0.173 A 
ATOM     64  C   UNL A   1      38.472  31.355  36.313  1.00  0.00     0.173 A 
ATOM     65  F   UNL A   1      40.427  33.680  34.311  1.00  0.00    -0.203 F 
ATOM     66  C   UNL A   1      39.287  34.011  36.342  1.00  0.00     0.198 A 
ATOM     67  C   UNL A   1      38.075  32.199  37.348  1.00  0.00     0.198 A 
ATOM     68  F   UNL A   1      38.059  30.078  36.325  1.00  0.00    -0.203 F 
ATOM     69  F   UNL A   1      39.702  35.285  36.364  1.00  0.00    -0.200 F 
ATOM     70  C   UNL A   1      38.491  33.522  37.366  1.00  0.00     0.200 A 
ATOM     71  F   UNL A   1      37.284  31.733  38.325  1.00  0.00    -0.200 F 
ATOM     72  F   UNL A   1      38.121  34.329  38.371  1.00  0.00    -0.200 F 
ENDBRANCH  48  62
BRANCH  49  73
ATOM     73  C   UNL A   1      42.356  26.196  27.635  1.00  0.00     0.064 A 
ATOM     74  C   UNL A   1      41.861  24.901  27.418  1.00  0.00     0.173 A 
ATOM     75  C   UNL A   1      43.344  26.672  26.764  1.00  0.00     0.173 A 
ATOM     76  F   UNL A   1      40.919  24.398  28.230  1.00  0.00    -0.203 F 
ATOM     77  C   UNL A   1      42.361  24.101  26.394  1.00  0.00     0.198 A 
ATOM     78  C   UNL A   1      43.825  25.882  25.722  1.00  0.00     0.198 A 
ATOM     79  F   UNL A   1      43.834  27.910  26.920  1.00  0.00    -0.203 F 
ATOM     80  F   UNL A   1      41.905  22.852  26.240  1.00  0.00    -0.200 F 
ATOM     81  C   UNL A   1      43.342  24.593  25.545  1.00  0.00     0.200 A 
ATOM     82  F   UNL A   1      44.758  26.366  24.893  1.00  0.00    -0.200 F 
ATOM     83  F   UNL A   1      43.824  23.824  24.559  1.00  0.00    -0.200 F 
ENDBRANCH  49  73
BRANCH  61  84
ATOM     84  C   UNL A   1      44.853  27.454  34.040  1.00  0.00     0.064 A 
ATOM     85  C   UNL A   1      44.825  26.292  34.827  1.00  0.00     0.173 A 
ATOM     86  C   UNL A   1      46.041  28.200  34.014  1.00  0.00     0.173 A 
ATOM     87  F   UNL A   1      43.712  25.548  34.894  1.00  0.00    -0.203 F 
ATOM     88  C   UNL A   1      45.936  25.902  35.570  1.00  0.00     0.198 A 
ATOM     89  C   UNL A   1      47.159  27.791  34.734  1.00  0.00     0.198 A 
ATOM     90  F   UNL A   1      46.123  29.312  33.266  1.00  0.00    -0.203 F 
ATOM     91  F   UNL A   1      45.874  24.808  36.341  1.00  0.00    -0.200 F 
ATOM     92  C   UNL A   1      47.104  26.649  35.518  1.00  0.00     0.200 A 
ATOM     93  F   UNL A   1      48.296  28.498  34.662  1.00  0.00    -0.200 F 
ATOM     94  F   UNL A   1      48.177  26.265  36.222  1.00  0.00    -0.200 F 
ENDBRANCH  61  84
ENDBRANCH  35  36
ENDBRANCH  28  30
ENDBRANCH  27  28
ENDBRANCH  26  27
ENDBRANCH  25  26
ENDBRANCH  24  25
ENDBRANCH   1  24
TORSDOF 17
ENDMDL
MODEL 3
REMARK VINA RESULT:     -11.7      2.488      4.546
REMARK SMILES COC(=O)c1ccc(Cl)c(-c2ccc(F)cc2C(=O)OCCOCCOC(=O)c2ccc(-c3c4nc(c(-c5c(F)c(F)c(F)c(F)c5F)c5ccc([nH]5)c(-c5c(F)c(F)c(F)c(F)c5F)c5nc(c(-c6c(F)c(F)c(F)c(F)c6F)c6ccc3[nH]6)C=C5)C=C4)cc2)c1
REMARK SMILES IDX 22 1 21 2 20 3 18 4 19 5 17 6 11 7 12 8 13 9 16 10 14 11
REMARK SMILES IDX 15 12 10 13 5 14 6 15 92 16 7 17 8 18 9 19 3 20 4 21 2 22
REMARK SMILES IDX 1 23 23 24 24 25 25 26 26 27 27 28 28 29 29 30 30 31 91 32
REMARK SMILES IDX 31 33 90 34 32 35 33 36 34 37 84 38 35 39 89 40 83 41 85 42
REMARK SMILES IDX 36 43 88 44 82 45 81 46 37 48 69 49 49 50 68 51 50 52 53 53
REMARK SMILES IDX 67 54 86 55 51 56 52 57 66 59 87 60 54 61 38 62 39 63 47 64
REMARK SMILES IDX 40 65 41 66 45 67 48 68 42 69 43 70 46 71 44 72 70 73 71 74
REMARK SMILES IDX 79 75 72 76 73 77 77 78 80 79 74 80 75 81 78 82 76 83 55 84
REMARK SMILES IDX 56 85 64 86 57 87 58 88 62 89 65 90 59 91 60 92 63 93 61 94
REMARK H PARENT 85 47 53 58
REMARK Flexibility Score: inf
ROOT
ATOM      1  C   UNL A   1      36.644  22.097  25.271  1.00  0.00     0.202 C 
ENDROOT
BRANCH   1   2
ATOM      2  C   UNL A   1      36.529  23.597  25.001  1.00  0.00     0.261 C 
BRANCH   2   3
ATOM      3  O   UNL A   1      35.166  23.954  24.726  1.00  0.00    -0.460 OA
BRANCH   3   4
ATOM      4  C   UNL A   1      34.747  23.720  23.461  1.00  0.00     0.338 C 
ATOM      5  O   UNL A   1      35.429  23.303  22.539  1.00  0.00    -0.246 OA
BRANCH   4   6
ATOM      6  C   UNL A   1      33.275  23.894  23.336  1.00  0.00     0.070 A 
ATOM      7  C   UNL A   1      32.301  22.964  23.775  1.00  0.00    -0.002 A 
ATOM      8  C   UNL A   1      30.946  23.352  23.671  1.00  0.00     0.013 A 
ATOM      9  C   UNL A   1      30.571  24.564  23.082  1.00  0.00     0.040 A 
ATOM     10  C   UNL A   1      32.889  25.109  22.740  1.00  0.00     0.055 A 
ATOM     11  C   UNL A   1      31.548  25.420  22.604  1.00  0.00     0.124 A 
ATOM     12  F   UNL A   1      31.192  26.566  22.010  1.00  0.00    -0.207 F 
BRANCH   7  13
ATOM     13  C   UNL A   1      32.626  21.624  24.321  1.00  0.00     0.002 A 
ATOM     14  C   UNL A   1      32.808  19.209  23.953  1.00  0.00     0.060 A 
ATOM     15  C   UNL A   1      33.043  18.996  25.312  1.00  0.00     0.017 A 
ATOM     16  C   UNL A   1      32.659  20.512  23.458  1.00  0.00     0.026 A 
ATOM     17  C   UNL A   1      33.084  20.086  26.178  1.00  0.00     0.022 A 
ATOM     18  C   UNL A   1      32.845  21.382  25.698  1.00  0.00     0.048 A 
ATOM     19  Cl  UNL A   1      32.771  22.637  26.890  1.00  0.00    -0.084 Cl
BRANCH  14  20
ATOM     20  C   UNL A   1      32.628  18.088  23.004  1.00  0.00     0.337 C 
ATOM     21  O   UNL A   1      32.151  18.217  21.886  1.00  0.00    -0.246 OA
BRANCH  20  22
ATOM     22  O   UNL A   1      32.930  16.921  23.621  1.00  0.00    -0.465 OA
ATOM     23  C   UNL A   1      34.242  16.439  23.322  1.00  0.00     0.282 C 
ENDBRANCH  20  22
ENDBRANCH  14  20
ENDBRANCH   7  13
ENDBRANCH   4   6
ENDBRANCH   3   4
ENDBRANCH   2   3
ENDBRANCH   1   2
BRANCH   1  24
ATOM     24  O   UNL A   1      37.889  21.482  24.944  1.00  0.00    -0.374 OA
BRANCH  24  25
ATOM     25  C   UNL A   1      37.982  20.062  25.046  1.00  0.00     0.202 C 
BRANCH  25  26
ATOM     26  C   UNL A   1      39.295  19.478  25.585  1.00  0.00     0.261 C 
BRANCH  26  27
ATOM     27  O   UNL A   1      40.304  20.470  25.840  1.00  0.00    -0.460 OA
BRANCH  27  28
ATOM     28  C   UNL A   1      40.728  20.517  27.126  1.00  0.00     0.338 C 
ATOM     29  O   UNL A   1      41.005  19.578  27.855  1.00  0.00    -0.246 OA
BRANCH  28  30
ATOM     30  C   UNL A   1      40.973  21.911  27.532  1.00  0.00     0.060 A 
ATOM     31  C   UNL A   1      40.387  22.923  26.763  1.00  0.00     0.016 A 
ATOM     32  C   UNL A   1      41.849  22.226  28.572  1.00  0.00     0.016 A 
ATOM     33  C   UNL A   1      40.706  24.257  27.006  1.00  0.00     0.010 A 
ATOM     34  C   UNL A   1      42.172  23.566  28.812  1.00  0.00     0.010 A 
ATOM     35  C   UNL A   1      41.627  24.586  28.010  1.00  0.00    -0.014 A 
BRANCH  35  36
ATOM     36  C   UNL A   1      42.086  25.990  28.145  1.00  0.00     0.031 A 
ATOM     37  C   UNL A   1      43.401  26.407  27.551  1.00  0.00     0.074 A 
ATOM     38  C   UNL A   1      41.316  26.899  28.768  1.00  0.00     0.049 A 
ATOM     39  N   UNL A   1      43.973  27.583  27.555  1.00  0.00    -0.248 NA
ATOM     40  C   UNL A   1      44.175  25.361  26.866  1.00  0.00     0.031 C 
ATOM     41  C   UNL A   1      40.015  26.620  29.366  1.00  0.00     0.029 A 
ATOM     42  N   UNL A   1      41.516  28.237  29.004  1.00  0.00    -0.354 N 
ATOM     43  C   UNL A   1      45.177  27.420  26.884  1.00  0.00     0.074 A 
ATOM     44  C   UNL A   1      45.267  26.025  26.510  1.00  0.00     0.031 C 
ATOM     45  C   UNL A   1      39.535  27.750  29.908  1.00  0.00     0.029 A 
ATOM     46  C   UNL A   1      40.500  28.828  29.710  1.00  0.00     0.049 A 
ATOM     47  H   UNL A   1      42.315  28.725  28.695  1.00  0.00     0.167 HD
ATOM     48  C   UNL A   1      46.114  28.354  26.598  1.00  0.00     0.037 A 
ATOM     49  C   UNL A   1      40.360  30.091  30.158  1.00  0.00     0.037 A 
ATOM     50  C   UNL A   1      46.013  29.745  26.955  1.00  0.00     0.049 A 
ATOM     51  C   UNL A   1      41.427  31.103  29.854  1.00  0.00     0.074 A 
ATOM     52  C   UNL A   1      46.887  30.776  26.657  1.00  0.00     0.029 A 
ATOM     53  N   UNL A   1      44.982  30.300  27.699  1.00  0.00    -0.354 N 
ATOM     54  N   UNL A   1      42.542  30.949  29.183  1.00  0.00    -0.248 NA
ATOM     55  C   UNL A   1      41.220  32.465  30.366  1.00  0.00     0.031 C 
ATOM     56  C   UNL A   1      46.419  31.940  27.272  1.00  0.00     0.029 A 
ATOM     57  C   UNL A   1      45.220  31.651  27.903  1.00  0.00     0.049 A 
ATOM     58  H   UNL A   1      44.197  29.809  28.034  1.00  0.00     0.167 HD
ATOM     59  C   UNL A   1      43.165  32.188  29.184  1.00  0.00     0.074 A 
ATOM     60  C   UNL A   1      42.293  33.093  29.903  1.00  0.00     0.031 C 
ATOM     61  C   UNL A   1      44.356  32.540  28.640  1.00  0.00     0.037 A 
BRANCH  48  62
ATOM     62  C   UNL A   1      47.352  27.905  25.877  1.00  0.00     0.064 A 
ATOM     63  C   UNL A   1      47.344  27.766  24.480  1.00  0.00     0.173 A 
ATOM     64  C   UNL A   1      48.522  27.552  26.564  1.00  0.00     0.173 A 
ATOM     65  F   UNL A   1      46.247  28.087  23.776  1.00  0.00    -0.203 F 
ATOM     66  C   UNL A   1      48.456  27.278  23.801  1.00  0.00     0.198 A 
ATOM     67  C   UNL A   1      49.643  27.090  25.878  1.00  0.00     0.198 A 
ATOM     68  F   UNL A   1      48.587  27.678  27.899  1.00  0.00    -0.203 F 
ATOM     69  F   UNL A   1      48.411  27.124  22.470  1.00  0.00    -0.200 F 
ATOM     70  C   UNL A   1      49.605  26.945  24.500  1.00  0.00     0.200 A 
ATOM     71  F   UNL A   1      50.763  26.792  26.552  1.00  0.00    -0.200 F 
ATOM     72  F   UNL A   1      50.680  26.485  23.842  1.00  0.00    -0.200 F 
ENDBRANCH  48  62
BRANCH  49  73
ATOM     73  C   UNL A   1      39.145  30.454  30.934  1.00  0.00     0.064 A 
ATOM     74  C   UNL A   1      38.025  31.016  30.304  1.00  0.00     0.173 A 
ATOM     75  C   UNL A   1      39.103  30.301  32.326  1.00  0.00     0.173 A 
ATOM     76  F   UNL A   1      38.020  31.191  28.974  1.00  0.00    -0.203 F 
ATOM     77  C   UNL A   1      36.922  31.441  31.040  1.00  0.00     0.198 A 
ATOM     78  C   UNL A   1      37.988  30.700  33.059  1.00  0.00     0.198 A 
ATOM     79  F   UNL A   1      40.142  29.751  32.970  1.00  0.00    -0.203 F 
ATOM     80  F   UNL A   1      35.886  32.019  30.418  1.00  0.00    -0.200 F 
ATOM     81  C   UNL A   1      36.903  31.281  32.418  1.00  0.00     0.200 A 
ATOM     82  F   UNL A   1      37.965  30.528  34.387  1.00  0.00    -0.200 F 
ATOM     83  F   UNL A   1      35.842  31.690  33.127  1.00  0.00    -0.200 F 
ENDBRANCH  49  73
BRANCH  61  84
ATOM     84  C   UNL A   1      44.800  33.966  28.806  1.00  0.00     0.064 A 
ATOM     85  C   UNL A   1      44.461  34.937  27.851  1.00  0.00     0.173 A 
ATOM     86  C   UNL A   1      45.618  34.356  29.877  1.00  0.00     0.173 A 
ATOM     87  F   UNL A   1      43.688  34.614  26.804  1.00  0.00    -0.203 F 
ATOM     88  C   UNL A   1      44.936  36.242  27.955  1.00  0.00     0.198 A 
ATOM     89  C   UNL A   1      46.066  35.669  29.994  1.00  0.00     0.198 A 
ATOM     90  F   UNL A   1      45.960  33.468  30.823  1.00  0.00    -0.203 F 
ATOM     91  F   UNL A   1      44.626  37.143  27.013  1.00  0.00    -0.200 F 
ATOM     92  C   UNL A   1      45.733  36.608  29.029  1.00  0.00     0.200 A 
ATOM     93  F   UNL A   1      46.814  36.028  31.047  1.00  0.00    -0.200 F 
ATOM     94  F   UNL A   1      46.177  37.867  29.136  1.00  0.00    -0.200 F 
ENDBRANCH  61  84
ENDBRANCH  35  36
ENDBRANCH  28  30
ENDBRANCH  27  28
ENDBRANCH  26  27
ENDBRANCH  25  26
ENDBRANCH  24  25
ENDBRANCH   1  24
TORSDOF 17
ENDMDL
