MODEL 1
REMARK VINA RESULT:     -13.1      0.000      0.000
REMARK SMILES CC(C)c1cc(N2CCC(C(=O)OCCOCCOC(=O)c3ccc(-c4c5nc(c(-c6c(F)c(F)c(F)c(F)c6F)c6ccc([nH]6)c(-c6c(F)c(F)c(F)c(F)c6F)c6nc(c(-c7c(F)c(F)c(F)c(F)c7F)c7ccc4[nH]7)C=C6)C=C5)cc3)CC2)nc(-c2ccc(F)cc2)n1
REMARK SMILES IDX 16 1 15 2 14 3 13 4 11 5 12 6 10 7 7 8 8 9 86 10 9 11 85 12
REMARK SMILES IDX 6 13 4 14 5 15 96 16 88 17 87 18 2 19 1 20 3 21 89 22 90 23
REMARK SMILES IDX 95 24 91 25 94 26 92 27 93 28 17 29 18 30 19 31 20 32 21 33
REMARK SMILES IDX 22 34 23 35 84 36 24 37 83 38 25 39 26 40 27 41 77 42 28 43
REMARK SMILES IDX 82 44 76 45 78 46 29 47 81 48 75 49 74 50 30 52 62 53 42 54
REMARK SMILES IDX 61 55 43 56 46 57 60 58 79 59 44 60 45 61 59 63 80 64 47 65
REMARK SMILES IDX 31 66 32 67 40 68 33 69 34 70 38 71 41 72 35 73 36 74 39 75
REMARK SMILES IDX 37 76 63 77 64 78 72 79 65 80 66 81 70 82 73 83 67 84 68 85
REMARK SMILES IDX 71 86 69 87 48 88 49 89 57 90 50 91 51 92 55 93 58 94 52 95
REMARK SMILES IDX 53 96 56 97 54 98
REMARK H PARENT 78 51 46 62
REMARK Flexibility Score: inf
ROOT
ATOM      1  O   UNL A   1      30.277  29.694  24.164  1.00  0.00    -0.374 OA
ENDROOT
BRANCH   1   2
ATOM      2  C   UNL A   1      30.467  29.310  22.800  1.00  0.00     0.202 C 
BRANCH   2   3
ATOM      3  C   UNL A   1      30.589  27.806  22.543  1.00  0.00     0.261 C 
BRANCH   3   4
ATOM      4  O   UNL A   1      29.588  27.084  23.283  1.00  0.00    -0.463 OA
BRANCH   4   5
ATOM      5  C   UNL A   1      30.039  26.191  24.200  1.00  0.00     0.309 C 
ATOM      6  O   UNL A   1      29.546  26.007  25.306  1.00  0.00    -0.252 OA
BRANCH   5   7
ATOM      7  C   UNL A   1      31.262  25.432  23.723  1.00  0.00     0.103 C 
ATOM      8  N   UNL A   1      33.234  23.413  23.936  1.00  0.00    -0.356 N 
ATOM      9  C   UNL A   1      33.679  24.787  24.082  1.00  0.00     0.119 C 
ATOM     10  C   UNL A   1      32.089  23.137  23.092  1.00  0.00     0.119 C 
ATOM     11  C   UNL A   1      32.520  25.636  24.584  1.00  0.00     0.037 C 
ATOM     12  C   UNL A   1      30.905  23.948  23.608  1.00  0.00     0.037 C 
BRANCH   8  13
ATOM     13  C   UNL A   1      34.148  22.437  24.254  1.00  0.00     0.132 A 
ATOM     14  C   UNL A   1      36.330  21.694  24.796  1.00  0.00     0.049 A 
ATOM     15  C   UNL A   1      35.487  22.728  24.431  1.00  0.00     0.071 A 
ATOM     16  N   UNL A   1      35.868  20.434  24.941  1.00  0.00    -0.233 NA
ATOM     17  C   UNL A   1      34.555  20.237  24.721  1.00  0.00     0.161 A 
ATOM     18  N   UNL A   1      33.674  21.194  24.405  1.00  0.00    -0.211 NA
BRANCH  14  19
ATOM     19  C   UNL A   1      37.817  21.883  25.043  1.00  0.00     0.032 C 
ATOM     20  C   UNL A   1      38.181  22.906  26.126  1.00  0.00     0.014 C 
ATOM     21  C   UNL A   1      38.467  20.536  25.376  1.00  0.00     0.014 C 
ENDBRANCH  14  19
BRANCH  17  22
ATOM     22  C   UNL A   1      34.048  18.864  24.791  1.00  0.00     0.019 A 
ATOM     23  C   UNL A   1      34.777  17.788  24.255  1.00  0.00     0.015 A 
ATOM     24  C   UNL A   1      32.808  18.590  25.403  1.00  0.00     0.015 A 
ATOM     25  C   UNL A   1      34.288  16.481  24.334  1.00  0.00     0.040 A 
ATOM     26  C   UNL A   1      32.309  17.287  25.466  1.00  0.00     0.040 A 
ATOM     27  C   UNL A   1      33.056  16.244  24.933  1.00  0.00     0.123 A 
ATOM     28  F   UNL A   1      32.584  14.993  25.000  1.00  0.00    -0.207 F 
ENDBRANCH  17  22
ENDBRANCH   8  13
ENDBRANCH   5   7
ENDBRANCH   4   5
ENDBRANCH   3   4
ENDBRANCH   2   3
ENDBRANCH   1   2
BRANCH   1  29
ATOM     29  C   UNL A   1      31.431  29.703  25.003  1.00  0.00     0.202 C 
BRANCH  29  30
ATOM     30  C   UNL A   1      31.478  30.804  26.070  1.00  0.00     0.261 C 
BRANCH  30  31
ATOM     31  O   UNL A   1      32.530  30.596  27.030  1.00  0.00    -0.460 OA
BRANCH  31  32
ATOM     32  C   UNL A   1      33.245  31.707  27.325  1.00  0.00     0.338 C 
ATOM     33  O   UNL A   1      32.830  32.857  27.399  1.00  0.00    -0.246 OA
BRANCH  32  34
ATOM     34  C   UNL A   1      34.620  31.358  27.721  1.00  0.00     0.060 A 
ATOM     35  C   UNL A   1      34.899  30.000  27.914  1.00  0.00     0.016 A 
ATOM     36  C   UNL A   1      35.588  32.326  28.001  1.00  0.00     0.016 A 
ATOM     37  C   UNL A   1      36.127  29.607  28.440  1.00  0.00     0.010 A 
ATOM     38  C   UNL A   1      36.822  31.929  28.537  1.00  0.00     0.010 A 
ATOM     39  C   UNL A   1      37.082  30.570  28.793  1.00  0.00    -0.014 A 
BRANCH  39  40
ATOM     40  C   UNL A   1      38.288  30.135  29.542  1.00  0.00     0.031 A 
ATOM     41  C   UNL A   1      38.503  30.628  30.947  1.00  0.00     0.074 A 
ATOM     42  C   UNL A   1      39.135  29.238  29.008  1.00  0.00     0.049 A 
ATOM     43  N   UNL A   1      39.440  30.309  31.806  1.00  0.00    -0.248 NA
ATOM     44  C   UNL A   1      37.529  31.606  31.458  1.00  0.00     0.031 C 
ATOM     45  C   UNL A   1      39.021  28.661  27.670  1.00  0.00     0.029 A 
ATOM     46  N   UNL A   1      40.256  28.645  29.536  1.00  0.00    -0.354 N 
ATOM     47  C   UNL A   1      39.161  31.034  32.958  1.00  0.00     0.074 A 
ATOM     48  C   UNL A   1      37.991  31.839  32.679  1.00  0.00     0.031 C 
ATOM     49  C   UNL A   1      40.030  27.794  27.481  1.00  0.00     0.029 A 
ATOM     50  C   UNL A   1      40.870  27.767  28.677  1.00  0.00     0.049 A 
ATOM     51  H   UNL A   1      40.589  28.832  30.443  1.00  0.00     0.167 HD
ATOM     52  C   UNL A   1      39.811  31.016  34.146  1.00  0.00     0.037 A 
ATOM     53  C   UNL A   1      41.985  27.029  28.838  1.00  0.00     0.037 A 
ATOM     54  C   UNL A   1      40.978  30.223  34.428  1.00  0.00     0.049 A 
ATOM     55  C   UNL A   1      42.723  27.078  30.151  1.00  0.00     0.074 A 
ATOM     56  C   UNL A   1      41.702  30.137  35.605  1.00  0.00     0.029 A 
ATOM     57  N   UNL A   1      41.595  29.378  33.517  1.00  0.00    -0.354 N 
ATOM     58  N   UNL A   1      42.431  27.740  31.244  1.00  0.00    -0.248 NA
ATOM     59  C   UNL A   1      43.946  26.266  30.254  1.00  0.00     0.031 C 
ATOM     60  C   UNL A   1      42.781  29.272  35.395  1.00  0.00     0.029 A 
ATOM     61  C   UNL A   1      42.703  28.783  34.100  1.00  0.00     0.049 A 
ATOM     62  H   UNL A   1      41.292  29.224  32.594  1.00  0.00     0.167 HD
ATOM     63  C   UNL A   1      43.415  27.409  32.166  1.00  0.00     0.074 A 
ATOM     64  C   UNL A   1      44.300  26.468  31.514  1.00  0.00     0.031 C 
ATOM     65  C   UNL A   1      43.574  27.847  33.439  1.00  0.00     0.037 A 
BRANCH  52  66
ATOM     66  C   UNL A   1      39.276  31.891  35.241  1.00  0.00     0.064 A 
ATOM     67  C   UNL A   1      38.478  31.370  36.270  1.00  0.00     0.173 A 
ATOM     68  C   UNL A   1      39.615  33.252  35.297  1.00  0.00     0.173 A 
ATOM     69  F   UNL A   1      38.117  30.078  36.255  1.00  0.00    -0.203 F 
ATOM     70  C   UNL A   1      38.025  32.182  37.306  1.00  0.00     0.198 A 
ATOM     71  C   UNL A   1      39.181  34.055  36.347  1.00  0.00     0.198 A 
ATOM     72  F   UNL A   1      40.381  33.797  34.339  1.00  0.00    -0.203 F 
ATOM     73  F   UNL A   1      37.239  31.670  38.263  1.00  0.00    -0.200 F 
ATOM     74  C   UNL A   1      38.384  33.521  37.349  1.00  0.00     0.200 A 
ATOM     75  F   UNL A   1      39.537  35.347  36.392  1.00  0.00    -0.200 F 
ATOM     76  F   UNL A   1      37.959  34.299  38.354  1.00  0.00    -0.200 F 
ENDBRANCH  52  66
BRANCH  53  77
ATOM     77  C   UNL A   1      42.485  26.179  27.727  1.00  0.00     0.064 A 
ATOM     78  C   UNL A   1      43.475  26.640  26.847  1.00  0.00     0.173 A 
ATOM     79  C   UNL A   1      41.952  24.902  27.497  1.00  0.00     0.173 A 
ATOM     80  F   UNL A   1      43.996  27.866  27.010  1.00  0.00    -0.203 F 
ATOM     81  C   UNL A   1      43.892  25.868  25.765  1.00  0.00     0.198 A 
ATOM     82  C   UNL A   1      42.390  24.120  26.430  1.00  0.00     0.198 A 
ATOM     83  F   UNL A   1      41.000  24.415  28.307  1.00  0.00    -0.203 F 
ATOM     84  F   UNL A   1      44.798  26.357  24.907  1.00  0.00    -0.200 F 
ATOM     85  C   UNL A   1      43.352  24.608  25.559  1.00  0.00     0.200 A 
ATOM     86  F   UNL A   1      41.872  22.899  26.241  1.00  0.00    -0.200 F 
ATOM     87  F   UNL A   1      43.750  23.868  24.516  1.00  0.00    -0.200 F 
ENDBRANCH  53  77
BRANCH  65  88
ATOM     88  C   UNL A   1      44.736  27.294  34.213  1.00  0.00     0.064 A 
ATOM     89  C   UNL A   1      45.972  27.955  34.253  1.00  0.00     0.173 A 
ATOM     90  C   UNL A   1      44.606  26.098  34.935  1.00  0.00     0.173 A 
ATOM     91  F   UNL A   1      46.152  29.095  33.568  1.00  0.00    -0.203 F 
ATOM     92  C   UNL A   1      47.047  27.421  34.960  1.00  0.00     0.198 A 
ATOM     93  C   UNL A   1      45.675  25.581  35.664  1.00  0.00     0.198 A 
ATOM     94  F   UNL A   1      43.443  25.431  34.936  1.00  0.00    -0.203 F 
ATOM     95  F   UNL A   1      48.235  28.040  34.938  1.00  0.00    -0.200 F 
ATOM     96  C   UNL A   1      46.896  26.237  35.667  1.00  0.00     0.200 A 
ATOM     97  F   UNL A   1      45.524  24.444  36.357  1.00  0.00    -0.200 F 
ATOM     98  F   UNL A   1      47.932  25.724  36.345  1.00  0.00    -0.200 F 
ENDBRANCH  65  88
ENDBRANCH  39  40
ENDBRANCH  32  34
ENDBRANCH  31  32
ENDBRANCH  30  31
ENDBRANCH  29  30
ENDBRANCH   1  29
TORSDOF 17
ENDMDL
MODEL 2
REMARK VINA RESULT:     -12.8      1.463      3.069
REMARK SMILES CC(C)c1cc(N2CCC(C(=O)OCCOCCOC(=O)c3ccc(-c4c5nc(c(-c6c(F)c(F)c(F)c(F)c6F)c6ccc([nH]6)c(-c6c(F)c(F)c(F)c(F)c6F)c6nc(c(-c7c(F)c(F)c(F)c(F)c7F)c7ccc4[nH]7)C=C6)C=C5)cc3)CC2)nc(-c2ccc(F)cc2)n1
REMARK SMILES IDX 16 1 15 2 14 3 13 4 11 5 12 6 10 7 7 8 8 9 86 10 9 11 85 12
REMARK SMILES IDX 6 13 4 14 5 15 96 16 88 17 87 18 2 19 1 20 3 21 89 22 90 23
REMARK SMILES IDX 95 24 91 25 94 26 92 27 93 28 17 29 18 30 19 31 20 32 21 33
REMARK SMILES IDX 22 34 23 35 84 36 24 37 83 38 25 39 26 40 27 41 77 42 28 43
REMARK SMILES IDX 82 44 76 45 78 46 29 47 81 48 75 49 74 50 30 52 62 53 42 54
REMARK SMILES IDX 61 55 43 56 46 57 60 58 79 59 44 60 45 61 59 63 80 64 47 65
REMARK SMILES IDX 31 66 32 67 40 68 33 69 34 70 38 71 41 72 35 73 36 74 39 75
REMARK SMILES IDX 37 76 63 77 64 78 72 79 65 80 66 81 70 82 73 83 67 84 68 85
REMARK SMILES IDX 71 86 69 87 48 88 49 89 57 90 50 91 51 92 55 93 58 94 52 95
REMARK SMILES IDX 53 96 56 97 54 98
REMARK H PARENT 78 51 46 62
REMARK Flexibility Score: inf
ROOT
ATOM      1  O   UNL A   1      31.920  30.003  26.889  1.00  0.00    -0.374 OA
ENDROOT
BRANCH   1   2
ATOM      2  C   UNL A   1      32.047  28.916  25.970  1.00  0.00     0.202 C 
BRANCH   2   3
ATOM      3  C   UNL A   1      31.520  29.174  24.556  1.00  0.00     0.261 C 
BRANCH   3   4
ATOM      4  O   UNL A   1      30.610  28.131  24.158  1.00  0.00    -0.463 OA
BRANCH   4   5
ATOM      5  C   UNL A   1      30.556  27.847  22.832  1.00  0.00     0.309 C 
ATOM      6  O   UNL A   1      30.245  28.641  21.954  1.00  0.00    -0.252 OA
BRANCH   5   7
ATOM      7  C   UNL A   1      30.907  26.403  22.530  1.00  0.00     0.103 C 
ATOM      8  N   UNL A   1      32.039  23.885  23.157  1.00  0.00    -0.356 N 
ATOM      9  C   UNL A   1      32.683  24.655  22.108  1.00  0.00     0.119 C 
ATOM     10  C   UNL A   1      30.613  24.042  23.362  1.00  0.00     0.119 C 
ATOM     11  C   UNL A   1      32.408  26.134  22.335  1.00  0.00     0.037 C 
ATOM     12  C   UNL A   1      30.325  25.515  23.633  1.00  0.00     0.037 C 
BRANCH   8  13
ATOM     13  C   UNL A   1      32.715  22.774  23.602  1.00  0.00     0.132 A 
ATOM     14  C   UNL A   1      32.902  20.450  24.011  1.00  0.00     0.049 A 
ATOM     15  C   UNL A   1      32.135  21.520  23.590  1.00  0.00     0.071 A 
ATOM     16  N   UNL A   1      34.165  20.627  24.454  1.00  0.00    -0.233 NA
ATOM     17  C   UNL A   1      34.639  21.886  24.458  1.00  0.00     0.161 A 
ATOM     18  N   UNL A   1      33.970  22.964  24.029  1.00  0.00    -0.211 NA
BRANCH  14  19
ATOM     19  C   UNL A   1      32.394  19.019  24.026  1.00  0.00     0.032 C 
ATOM     20  C   UNL A   1      32.420  18.296  22.674  1.00  0.00     0.014 C 
ATOM     21  C   UNL A   1      33.173  18.197  25.058  1.00  0.00     0.014 C 
ENDBRANCH  14  19
BRANCH  17  22
ATOM     22  C   UNL A   1      35.976  22.112  25.012  1.00  0.00     0.019 A 
ATOM     23  C   UNL A   1      36.339  23.355  25.561  1.00  0.00     0.015 A 
ATOM     24  C   UNL A   1      36.937  21.080  25.007  1.00  0.00     0.015 A 
ATOM     25  C   UNL A   1      37.615  23.558  26.094  1.00  0.00     0.040 A 
ATOM     26  C   UNL A   1      38.218  21.287  25.522  1.00  0.00     0.040 A 
ATOM     27  C   UNL A   1      38.544  22.524  26.064  1.00  0.00     0.123 A 
ATOM     28  F   UNL A   1      39.769  22.723  26.565  1.00  0.00    -0.207 F 
ENDBRANCH  17  22
ENDBRANCH   8  13
ENDBRANCH   5   7
ENDBRANCH   4   5
ENDBRANCH   3   4
ENDBRANCH   2   3
ENDBRANCH   1   2
BRANCH   1  29
ATOM     29  C   UNL A   1      31.294  31.191  26.407  1.00  0.00     0.202 C 
BRANCH  29  30
ATOM     30  C   UNL A   1      31.779  32.507  27.027  1.00  0.00     0.261 C 
BRANCH  30  31
ATOM     31  O   UNL A   1      33.201  32.688  26.895  1.00  0.00    -0.460 OA
BRANCH  31  32
ATOM     32  C   UNL A   1      33.782  33.327  27.938  1.00  0.00     0.338 C 
ATOM     33  O   UNL A   1      33.295  34.214  28.628  1.00  0.00    -0.246 OA
BRANCH  32  34
ATOM     34  C   UNL A   1      35.075  32.708  28.278  1.00  0.00     0.060 A 
ATOM     35  C   UNL A   1      35.055  31.358  28.645  1.00  0.00     0.016 A 
ATOM     36  C   UNL A   1      36.263  33.442  28.341  1.00  0.00     0.016 A 
ATOM     37  C   UNL A   1      36.210  30.750  29.130  1.00  0.00     0.010 A 
ATOM     38  C   UNL A   1      37.423  32.829  28.836  1.00  0.00     0.010 A 
ATOM     39  C   UNL A   1      37.392  31.490  29.267  1.00  0.00    -0.014 A 
BRANCH  39  40
ATOM     40  C   UNL A   1      38.539  30.874  29.980  1.00  0.00     0.031 A 
ATOM     41  C   UNL A   1      38.764  31.192  31.433  1.00  0.00     0.074 A 
ATOM     42  C   UNL A   1      39.320  29.970  29.363  1.00  0.00     0.049 A 
ATOM     43  N   UNL A   1      39.650  30.703  32.264  1.00  0.00    -0.248 NA
ATOM     44  C   UNL A   1      37.864  32.190  32.035  1.00  0.00     0.031 C 
ATOM     45  C   UNL A   1      39.187  29.553  27.968  1.00  0.00     0.029 A 
ATOM     46  N   UNL A   1      40.374  29.229  29.837  1.00  0.00    -0.354 N 
ATOM     47  C   UNL A   1      39.407  31.320  33.485  1.00  0.00     0.074 A 
ATOM     48  C   UNL A   1      38.316  32.248  33.280  1.00  0.00     0.031 C 
ATOM     49  C   UNL A   1      40.124  28.627  27.698  1.00  0.00     0.029 A 
ATOM     50  C   UNL A   1      40.931  28.399  28.896  1.00  0.00     0.049 A 
ATOM     51  H   UNL A   1      40.701  29.287  30.763  1.00  0.00     0.167 HD
ATOM     52  C   UNL A   1      40.027  31.118  34.673  1.00  0.00     0.037 A 
ATOM     53  C   UNL A   1      41.976  27.555  28.990  1.00  0.00     0.037 A 
ATOM     54  C   UNL A   1      41.116  30.201  34.881  1.00  0.00     0.049 A 
ATOM     55  C   UNL A   1      42.686  27.398  30.310  1.00  0.00     0.074 A 
ATOM     56  C   UNL A   1      41.803  29.927  36.051  1.00  0.00     0.029 A 
ATOM     57  N   UNL A   1      41.680  29.410  33.892  1.00  0.00    -0.354 N 
ATOM     58  N   UNL A   1      42.425  27.960  31.464  1.00  0.00    -0.248 NA
ATOM     59  C   UNL A   1      43.832  26.476  30.339  1.00  0.00     0.031 C 
ATOM     60  C   UNL A   1      42.810  28.999  35.763  1.00  0.00     0.029 A 
ATOM     61  C   UNL A   1      42.720  28.661  34.421  1.00  0.00     0.049 A 
ATOM     62  H   UNL A   1      41.386  29.383  32.954  1.00  0.00     0.167 HD
ATOM     63  C   UNL A   1      43.357  27.447  32.358  1.00  0.00     0.074 A 
ATOM     64  C   UNL A   1      44.174  26.509  31.619  1.00  0.00     0.031 C 
ATOM     65  C   UNL A   1      43.524  27.730  33.673  1.00  0.00     0.037 A 
BRANCH  52  66
ATOM     66  C   UNL A   1      39.543  31.913  35.850  1.00  0.00     0.064 A 
ATOM     67  C   UNL A   1      40.064  33.183  36.139  1.00  0.00     0.173 A 
ATOM     68  C   UNL A   1      38.507  31.427  36.661  1.00  0.00     0.173 A 
ATOM     69  F   UNL A   1      41.064  33.686  35.399  1.00  0.00    -0.203 F 
ATOM     70  C   UNL A   1      39.575  33.931  37.207  1.00  0.00     0.198 A 
ATOM     71  C   UNL A   1      38.005  32.187  37.713  1.00  0.00     0.198 A 
ATOM     72  F   UNL A   1      37.971  30.220  36.423  1.00  0.00    -0.203 F 
ATOM     73  F   UNL A   1      40.107  35.130  37.483  1.00  0.00    -0.200 F 
ATOM     74  C   UNL A   1      38.541  33.437  37.987  1.00  0.00     0.200 A 
ATOM     75  F   UNL A   1      36.997  31.713  38.460  1.00  0.00    -0.200 F 
ATOM     76  F   UNL A   1      38.062  34.163  39.007  1.00  0.00    -0.200 F 
ENDBRANCH  52  66
BRANCH  53  77
ATOM     77  C   UNL A   1      42.428  26.789  27.799  1.00  0.00     0.064 A 
ATOM     78  C   UNL A   1      42.039  25.456  27.601  1.00  0.00     0.173 A 
ATOM     79  C   UNL A   1      43.294  27.362  26.856  1.00  0.00     0.173 A 
ATOM     80  F   UNL A   1      41.233  24.855  28.489  1.00  0.00    -0.203 F 
ATOM     81  C   UNL A   1      42.520  24.720  26.521  1.00  0.00     0.198 A 
ATOM     82  C   UNL A   1      43.752  26.633  25.762  1.00  0.00     0.198 A 
ATOM     83  F   UNL A   1      43.699  28.633  27.002  1.00  0.00    -0.203 F 
ATOM     84  F   UNL A   1      42.177  23.431  26.386  1.00  0.00    -0.200 F 
ATOM     85  C   UNL A   1      43.373  25.309  25.600  1.00  0.00     0.200 A 
ATOM     86  F   UNL A   1      44.568  27.210  24.870  1.00  0.00    -0.200 F 
ATOM     87  F   UNL A   1      43.839  24.599  24.564  1.00  0.00    -0.200 F 
ENDBRANCH  53  77
BRANCH  65  88
ATOM     88  C   UNL A   1      44.616  26.998  34.398  1.00  0.00     0.064 A 
ATOM     89  C   UNL A   1      45.896  27.553  34.548  1.00  0.00     0.173 A 
ATOM     90  C   UNL A   1      44.377  25.736  34.961  1.00  0.00     0.173 A 
ATOM     91  F   UNL A   1      46.180  28.752  34.015  1.00  0.00    -0.203 F 
ATOM     92  C   UNL A   1      46.906  26.855  35.206  1.00  0.00     0.198 A 
ATOM     93  C   UNL A   1      45.381  25.053  35.642  1.00  0.00     0.198 A 
ATOM     94  F   UNL A   1      43.168  25.165  34.852  1.00  0.00    -0.203 F 
ATOM     95  F   UNL A   1      48.136  27.380  35.289  1.00  0.00    -0.200 F 
ATOM     96  C   UNL A   1      46.646  25.608  35.756  1.00  0.00     0.200 A 
ATOM     97  F   UNL A   1      45.125  23.854  36.183  1.00  0.00    -0.200 F 
ATOM     98  F   UNL A   1      47.620  24.938  36.386  1.00  0.00    -0.200 F 
ENDBRANCH  65  88
ENDBRANCH  39  40
ENDBRANCH  32  34
ENDBRANCH  31  32
ENDBRANCH  30  31
ENDBRANCH  29  30
ENDBRANCH   1  29
TORSDOF 17
ENDMDL
MODEL 3
REMARK VINA RESULT:     -12.5      4.137      6.959
REMARK SMILES CC(C)c1cc(N2CCC(C(=O)OCCOCCOC(=O)c3ccc(-c4c5nc(c(-c6c(F)c(F)c(F)c(F)c6F)c6ccc([nH]6)c(-c6c(F)c(F)c(F)c(F)c6F)c6nc(c(-c7c(F)c(F)c(F)c(F)c7F)c7ccc4[nH]7)C=C6)C=C5)cc3)CC2)nc(-c2ccc(F)cc2)n1
REMARK SMILES IDX 16 1 15 2 14 3 13 4 11 5 12 6 10 7 7 8 8 9 86 10 9 11 85 12
REMARK SMILES IDX 6 13 4 14 5 15 96 16 88 17 87 18 2 19 1 20 3 21 89 22 90 23
REMARK SMILES IDX 95 24 91 25 94 26 92 27 93 28 17 29 18 30 19 31 20 32 21 33
REMARK SMILES IDX 22 34 23 35 84 36 24 37 83 38 25 39 26 40 27 41 77 42 28 43
REMARK SMILES IDX 82 44 76 45 78 46 29 47 81 48 75 49 74 50 30 52 62 53 42 54
REMARK SMILES IDX 61 55 43 56 46 57 60 58 79 59 44 60 45 61 59 63 80 64 47 65
REMARK SMILES IDX 31 66 32 67 40 68 33 69 34 70 38 71 41 72 35 73 36 74 39 75
REMARK SMILES IDX 37 76 63 77 64 78 72 79 65 80 66 81 70 82 73 83 67 84 68 85
REMARK SMILES IDX 71 86 69 87 48 88 49 89 57 90 50 91 51 92 55 93 58 94 52 95
REMARK SMILES IDX 53 96 56 97 54 98
REMARK H PARENT 78 51 46 62
REMARK Flexibility Score: inf
ROOT
ATOM      1  O   UNL A   1      34.410  35.538  28.310  1.00  0.00    -0.374 OA
ENDROOT
BRANCH   1   2
ATOM      2  C   UNL A   1      34.517  34.332  29.071  1.00  0.00     0.202 C 
BRANCH   2   3
ATOM      3  C   UNL A   1      35.816  33.543  28.890  1.00  0.00     0.261 C 
BRANCH   3   4
ATOM      4  O   UNL A   1      35.736  32.698  27.727  1.00  0.00    -0.463 OA
BRANCH   4   5
ATOM      5  C   UNL A   1      35.895  31.366  27.934  1.00  0.00     0.309 C 
ATOM      6  O   UNL A   1      36.953  30.819  28.217  1.00  0.00    -0.252 OA
BRANCH   5   7
ATOM      7  C   UNL A   1      34.605  30.589  27.755  1.00  0.00     0.103 C 
ATOM      8  N   UNL A   1      32.592  29.342  26.204  1.00  0.00    -0.356 N 
ATOM      9  C   UNL A   1      32.212  30.532  26.943  1.00  0.00     0.119 C 
ATOM     10  C   UNL A   1      33.640  28.494  26.738  1.00  0.00     0.119 C 
ATOM     11  C   UNL A   1      33.444  31.400  27.157  1.00  0.00     0.037 C 
ATOM     12  C   UNL A   1      34.896  29.340  26.918  1.00  0.00     0.037 C 
BRANCH   8  13
ATOM     13  C   UNL A   1      31.678  28.871  25.291  1.00  0.00     0.132 A 
ATOM     14  C   UNL A   1      30.512  27.132  24.187  1.00  0.00     0.049 A 
ATOM     15  C   UNL A   1      31.484  27.519  25.091  1.00  0.00     0.071 A 
ATOM     16  N   UNL A   1      29.797  28.047  23.496  1.00  0.00    -0.233 NA
ATOM     17  C   UNL A   1      30.073  29.342  23.734  1.00  0.00     0.161 A 
ATOM     18  N   UNL A   1      30.971  29.790  24.621  1.00  0.00    -0.211 NA
BRANCH  14  19
ATOM     19  C   UNL A   1      30.182  25.680  23.892  1.00  0.00     0.032 C 
ATOM     20  C   UNL A   1      31.027  25.021  22.794  1.00  0.00     0.014 C 
ATOM     21  C   UNL A   1      30.279  24.849  25.176  1.00  0.00     0.014 C 
ENDBRANCH  14  19
BRANCH  17  22
ATOM     22  C   UNL A   1      29.369  30.349  22.936  1.00  0.00     0.019 A 
ATOM     23  C   UNL A   1      28.933  30.070  21.628  1.00  0.00     0.015 A 
ATOM     24  C   UNL A   1      29.111  31.629  23.465  1.00  0.00     0.015 A 
ATOM     25  C   UNL A   1      28.257  31.036  20.878  1.00  0.00     0.040 A 
ATOM     26  C   UNL A   1      28.450  32.601  22.710  1.00  0.00     0.040 A 
ATOM     27  C   UNL A   1      28.027  32.293  21.424  1.00  0.00     0.123 A 
ATOM     28  F   UNL A   1      27.387  33.220  20.700  1.00  0.00    -0.207 F 
ENDBRANCH  17  22
ENDBRANCH   8  13
ENDBRANCH   5   7
ENDBRANCH   4   5
ENDBRANCH   3   4
ENDBRANCH   2   3
ENDBRANCH   1   2
BRANCH   1  29
ATOM     29  C   UNL A   1      33.649  36.600  28.881  1.00  0.00     0.202 C 
BRANCH  29  30
ATOM     30  C   UNL A   1      32.656  36.201  29.980  1.00  0.00     0.261 C 
BRANCH  30  31
ATOM     31  O   UNL A   1      33.157  36.474  31.301  1.00  0.00    -0.460 OA
BRANCH  31  32
ATOM     32  C   UNL A   1      32.814  35.552  32.231  1.00  0.00     0.338 C 
ATOM     33  O   UNL A   1      31.687  35.152  32.498  1.00  0.00    -0.246 OA
BRANCH  32  34
ATOM     34  C   UNL A   1      34.012  34.926  32.818  1.00  0.00     0.060 A 
ATOM     35  C   UNL A   1      35.236  35.567  32.595  1.00  0.00     0.016 A 
ATOM     36  C   UNL A   1      33.967  33.696  33.480  1.00  0.00     0.016 A 
ATOM     37  C   UNL A   1      36.425  34.954  32.982  1.00  0.00     0.010 A 
ATOM     38  C   UNL A   1      35.166  33.078  33.863  1.00  0.00     0.010 A 
ATOM     39  C   UNL A   1      36.403  33.688  33.582  1.00  0.00    -0.014 A 
BRANCH  39  40
ATOM     40  C   UNL A   1      37.688  32.975  33.788  1.00  0.00     0.031 A 
ATOM     41  C   UNL A   1      38.477  33.220  35.045  1.00  0.00     0.074 A 
ATOM     42  C   UNL A   1      38.104  32.050  32.904  1.00  0.00     0.049 A 
ATOM     43  N   UNL A   1      39.577  32.644  35.462  1.00  0.00    -0.248 NA
ATOM     44  C   UNL A   1      37.953  34.245  35.962  1.00  0.00     0.031 C 
ATOM     45  C   UNL A   1      37.415  31.699  31.664  1.00  0.00     0.029 A 
ATOM     46  N   UNL A   1      39.203  31.228  32.923  1.00  0.00    -0.354 N 
ATOM     47  C   UNL A   1      39.868  33.225  36.690  1.00  0.00     0.074 A 
ATOM     48  C   UNL A   1      38.852  34.226  36.936  1.00  0.00     0.031 C 
ATOM     49  C   UNL A   1      38.106  30.730  31.040  1.00  0.00     0.029 A 
ATOM     50  C   UNL A   1      39.294  30.404  31.829  1.00  0.00     0.049 A 
ATOM     51  H   UNL A   1      39.865  31.229  33.652  1.00  0.00     0.167 HD
ATOM     52  C   UNL A   1      40.881  32.938  37.542  1.00  0.00     0.037 A 
ATOM     53  C   UNL A   1      40.231  29.495  31.500  1.00  0.00     0.037 A 
ATOM     54  C   UNL A   1      41.897  31.949  37.301  1.00  0.00     0.049 A 
ATOM     55  C   UNL A   1      41.381  29.241  32.440  1.00  0.00     0.074 A 
ATOM     56  C   UNL A   1      42.961  31.586  38.110  1.00  0.00     0.029 A 
ATOM     57  N   UNL A   1      41.979  31.165  36.160  1.00  0.00    -0.354 N 
ATOM     58  N   UNL A   1      41.626  29.772  33.613  1.00  0.00    -0.248 NA
ATOM     59  C   UNL A   1      42.381  28.252  32.011  1.00  0.00     0.031 C 
ATOM     60  C   UNL A   1      43.709  30.612  37.442  1.00  0.00     0.029 A 
ATOM     61  C   UNL A   1      43.086  30.334  36.235  1.00  0.00     0.049 A 
ATOM     62  H   UNL A   1      41.345  31.194  35.408  1.00  0.00     0.167 HD
ATOM     63  C   UNL A   1      42.790  29.168  34.069  1.00  0.00     0.074 A 
ATOM     64  C   UNL A   1      43.190  28.212  33.059  1.00  0.00     0.031 C 
ATOM     65  C   UNL A   1      43.471  29.387  35.222  1.00  0.00     0.037 A 
BRANCH  52  66
ATOM     66  C   UNL A   1      40.946  33.713  38.825  1.00  0.00     0.064 A 
ATOM     67  C   UNL A   1      40.183  33.343  39.943  1.00  0.00     0.173 A 
ATOM     68  C   UNL A   1      41.825  34.798  38.960  1.00  0.00     0.173 A 
ATOM     69  F   UNL A   1      39.319  32.319  39.861  1.00  0.00    -0.203 F 
ATOM     70  C   UNL A   1      40.286  34.041  41.143  1.00  0.00     0.198 A 
ATOM     71  C   UNL A   1      41.943  35.479  40.168  1.00  0.00     0.198 A 
ATOM     72  F   UNL A   1      42.581  35.188  37.922  1.00  0.00    -0.203 F 
ATOM     73  F   UNL A   1      39.526  33.689  42.189  1.00  0.00    -0.200 F 
ATOM     74  C   UNL A   1      41.172  35.102  41.257  1.00  0.00     0.200 A 
ATOM     75  F   UNL A   1      42.808  36.497  40.280  1.00  0.00    -0.200 F 
ATOM     76  F   UNL A   1      41.280  35.765  42.417  1.00  0.00    -0.200 F 
ENDBRANCH  52  66
BRANCH  53  77
ATOM     77  C   UNL A   1      40.133  28.751  30.217  1.00  0.00     0.064 A 
ATOM     78  C   UNL A   1      39.497  27.504  30.145  1.00  0.00     0.173 A 
ATOM     79  C   UNL A   1      40.712  29.256  29.043  1.00  0.00     0.173 A 
ATOM     80  F   UNL A   1      38.951  26.967  31.248  1.00  0.00    -0.203 F 
ATOM     81  C   UNL A   1      39.468  26.778  28.957  1.00  0.00     0.198 A 
ATOM     82  C   UNL A   1      40.659  28.542  27.848  1.00  0.00     0.198 A 
ATOM     83  F   UNL A   1      41.336  30.443  29.058  1.00  0.00    -0.203 F 
ATOM     84  F   UNL A   1      38.904  25.563  28.931  1.00  0.00    -0.200 F 
ATOM     85  C   UNL A   1      40.045  27.298  27.809  1.00  0.00     0.200 A 
ATOM     86  F   UNL A   1      41.209  29.052  26.739  1.00  0.00    -0.200 F 
ATOM     87  F   UNL A   1      40.021  26.598  26.667  1.00  0.00    -0.200 F 
ENDBRANCH  53  77
BRANCH  65  88
ATOM     88  C   UNL A   1      44.702  28.561  35.457  1.00  0.00     0.064 A 
ATOM     89  C   UNL A   1      45.969  28.997  35.041  1.00  0.00     0.173 A 
ATOM     90  C   UNL A   1      44.618  27.328  36.120  1.00  0.00     0.173 A 
ATOM     91  F   UNL A   1      46.101  30.164  34.390  1.00  0.00    -0.203 F 
ATOM     92  C   UNL A   1      47.101  28.213  35.248  1.00  0.00     0.198 A 
ATOM     93  C   UNL A   1      45.755  26.558  36.351  1.00  0.00     0.198 A 
ATOM     94  F   UNL A   1      43.431  26.868  36.545  1.00  0.00    -0.203 F 
ATOM     95  F   UNL A   1      48.292  28.624  34.792  1.00  0.00    -0.200 F 
ATOM     96  C   UNL A   1      46.993  26.997  35.906  1.00  0.00     0.200 A 
ATOM     97  F   UNL A   1      45.652  25.389  36.997  1.00  0.00    -0.200 F 
ATOM     98  F   UNL A   1      48.083  26.242  36.103  1.00  0.00    -0.200 F 
ENDBRANCH  65  88
ENDBRANCH  39  40
ENDBRANCH  32  34
ENDBRANCH  31  32
ENDBRANCH  30  31
ENDBRANCH  29  30
ENDBRANCH   1  29
TORSDOF 17
ENDMDL
