MODEL 1
REMARK VINA RESULT:     -11.9      0.000      0.000
REMARK SMILES COc1ccc(NC(=O)[C@@H]2[C@@H](C(=O)OCCOCCOC(=O)c3ccc(-c4c5nc(c(-c6c(F)c(F)c(F)c(F)c6F)c6ccc([nH]6)c(-c6c(F)c(F)c(F)c(F)c6F)c6nc(c(-c7c(F)c(F)c(F)c(F)c7F)c7ccc4[nH]7)C=C6)C=C5)cc3)[C@H]3C=C[C@@H]2C3)cc1O
REMARK SMILES IDX 16 1 15 2 14 3 12 4 13 5 11 6 10 7 89 8 86 9 88 10 90 11
REMARK SMILES IDX 87 12 8 13 7 14 9 16 6 17 3 18 4 19 92 20 5 21 91 22 2 23
REMARK SMILES IDX 1 24 93 25 17 27 18 28 19 29 20 30 21 31 22 32 23 33 24 34
REMARK SMILES IDX 85 35 25 36 84 37 26 38 27 39 28 40 78 41 29 42 83 43 77 44
REMARK SMILES IDX 79 45 30 46 82 47 76 48 75 49 31 51 63 52 43 53 62 54 44 55
REMARK SMILES IDX 47 56 61 57 80 58 45 59 46 60 60 62 81 63 48 64 32 65 33 66
REMARK SMILES IDX 41 67 34 68 35 69 39 70 42 71 36 72 37 73 40 74 38 75 64 76
REMARK SMILES IDX 65 77 73 78 66 79 67 80 71 81 74 82 68 83 69 84 72 85 70 86
REMARK SMILES IDX 49 87 50 88 58 89 51 90 52 91 56 92 59 93 53 94 54 95 57 96
REMARK SMILES IDX 55 97
REMARK H PARENT 7 15 93 26 79 50 47 61
REMARK Flexibility Score: inf
ROOT
ATOM      1  C   UNL A   1      32.509  29.856  27.063  1.00  0.00     0.202 C 
ENDROOT
BRANCH   1   2
ATOM      2  C   UNL A   1      31.761  28.583  27.482  1.00  0.00     0.261 C 
BRANCH   2   3
ATOM      3  O   UNL A   1      32.546  27.435  27.114  1.00  0.00    -0.463 OA
BRANCH   3   4
ATOM      4  C   UNL A   1      32.007  26.601  26.193  1.00  0.00     0.310 C 
ATOM      5  O   UNL A   1      30.855  26.189  26.234  1.00  0.00    -0.252 OA
BRANCH   4   6
ATOM      6  C   UNL A   1      32.977  26.271  25.065  1.00  0.00     0.119 C 
ATOM      7  C   UNL A   1      32.468  25.401  23.856  1.00  0.00     0.100 C 
ATOM      8  C   UNL A   1      33.425  24.157  23.951  1.00  0.00     0.025 C 
ATOM      9  C   UNL A   1      34.118  25.401  25.668  1.00  0.00     0.027 C 
ATOM     10  C   UNL A   1      33.116  23.382  25.207  1.00  0.00    -0.027 C 
ATOM     11  C   UNL A   1      34.739  24.814  24.405  1.00  0.00     0.017 C 
ATOM     12  C   UNL A   1      33.538  24.122  26.240  1.00  0.00    -0.027 C 
BRANCH   7  13
ATOM     13  C   UNL A   1      32.645  26.010  22.457  1.00  0.00     0.228 C 
ATOM     14  N   UNL A   1      31.950  27.059  21.954  1.00  0.00    -0.326 N 
ATOM     15  H   UNL A   1      32.246  27.297  21.047  1.00  0.00     0.169 HD
ATOM     16  O   UNL A   1      33.479  25.534  21.674  1.00  0.00    -0.274 OA
BRANCH  14  17
ATOM     17  C   UNL A   1      30.918  27.888  22.401  1.00  0.00     0.045 A 
ATOM     18  C   UNL A   1      28.629  29.391  23.064  1.00  0.00     0.160 A 
ATOM     19  C   UNL A   1      29.807  30.031  22.690  1.00  0.00     0.052 A 
ATOM     20  C   UNL A   1      28.637  28.000  23.178  1.00  0.00     0.159 A 
ATOM     21  C   UNL A   1      30.955  29.275  22.398  1.00  0.00     0.030 A 
ATOM     22  C   UNL A   1      29.766  27.252  22.872  1.00  0.00     0.076 A 
BRANCH  18  23
ATOM     23  O   UNL A   1      27.422  29.988  23.300  1.00  0.00    -0.493 OA
ATOM     24  C   UNL A   1      27.451  31.388  23.547  1.00  0.00     0.278 C 
ENDBRANCH  18  23
BRANCH  20  25
ATOM     25  O   UNL A   1      27.513  27.334  23.583  1.00  0.00    -0.504 OA
ATOM     26  H   UNL A   1      27.314  26.491  23.226  1.00  0.00     0.293 HD
ENDBRANCH  20  25
ENDBRANCH  14  17
ENDBRANCH   7  13
ENDBRANCH   4   6
ENDBRANCH   3   4
ENDBRANCH   2   3
ENDBRANCH   1   2
BRANCH   1  27
ATOM     27  O   UNL A   1      31.803  30.712  26.161  1.00  0.00    -0.374 OA
BRANCH  27  28
ATOM     28  C   UNL A   1      31.257  31.912  26.701  1.00  0.00     0.202 C 
BRANCH  28  29
ATOM     29  C   UNL A   1      32.216  33.102  26.824  1.00  0.00     0.261 C 
BRANCH  29  30
ATOM     30  O   UNL A   1      32.478  33.513  28.179  1.00  0.00    -0.460 OA
BRANCH  30  31
ATOM     31  C   UNL A   1      33.617  34.229  28.323  1.00  0.00     0.338 C 
ATOM     32  O   UNL A   1      33.728  35.449  28.352  1.00  0.00    -0.246 OA
BRANCH  31  33
ATOM     33  C   UNL A   1      34.789  33.359  28.519  1.00  0.00     0.060 A 
ATOM     34  C   UNL A   1      34.577  32.123  29.141  1.00  0.00     0.016 A 
ATOM     35  C   UNL A   1      36.087  33.821  28.291  1.00  0.00     0.016 A 
ATOM     36  C   UNL A   1      35.662  31.375  29.597  1.00  0.00     0.010 A 
ATOM     37  C   UNL A   1      37.177  33.070  28.753  1.00  0.00     0.010 A 
ATOM     38  C   UNL A   1      36.968  31.866  29.448  1.00  0.00    -0.014 A 
BRANCH  38  39
ATOM     39  C   UNL A   1      38.088  31.177  30.141  1.00  0.00     0.031 A 
ATOM     40  C   UNL A   1      38.375  31.488  31.586  1.00  0.00     0.074 A 
ATOM     41  C   UNL A   1      38.815  30.239  29.508  1.00  0.00     0.049 A 
ATOM     42  N   UNL A   1      39.304  31.004  32.372  1.00  0.00    -0.248 NA
ATOM     43  C   UNL A   1      37.496  32.476  32.232  1.00  0.00     0.031 C 
ATOM     44  C   UNL A   1      38.624  29.828  28.120  1.00  0.00     0.029 A 
ATOM     45  N   UNL A   1      39.861  29.465  29.948  1.00  0.00    -0.354 N 
ATOM     46  C   UNL A   1      39.123  31.624  33.601  1.00  0.00     0.074 A 
ATOM     47  C   UNL A   1      38.011  32.540  33.452  1.00  0.00     0.031 C 
ATOM     48  C   UNL A   1      39.524  28.878  27.818  1.00  0.00     0.029 A 
ATOM     49  C   UNL A   1      40.376  28.638  28.982  1.00  0.00     0.049 A 
ATOM     50  H   UNL A   1      40.207  29.501  30.869  1.00  0.00     0.167 HD
ATOM     51  C   UNL A   1      39.811  31.437  34.753  1.00  0.00     0.037 A 
ATOM     52  C   UNL A   1      41.430  27.799  29.024  1.00  0.00     0.037 A 
ATOM     53  C   UNL A   1      40.919  30.531  34.907  1.00  0.00     0.049 A 
ATOM     54  C   UNL A   1      42.215  27.654  30.302  1.00  0.00     0.074 A 
ATOM     55  C   UNL A   1      41.682  30.284  36.037  1.00  0.00     0.029 A 
ATOM     56  N   UNL A   1      41.425  29.723  33.901  1.00  0.00    -0.354 N 
ATOM     57  N   UNL A   1      42.025  28.235  31.461  1.00  0.00    -0.248 NA
ATOM     58  C   UNL A   1      43.363  26.734  30.276  1.00  0.00     0.031 C 
ATOM     59  C   UNL A   1      42.670  29.351  35.704  1.00  0.00     0.029 A 
ATOM     60  C   UNL A   1      42.496  28.987  34.379  1.00  0.00     0.049 A 
ATOM     61  H   UNL A   1      41.074  29.679  32.982  1.00  0.00     0.167 HD
ATOM     62  C   UNL A   1      43.012  27.738  32.304  1.00  0.00     0.074 A 
ATOM     63  C   UNL A   1      43.789  26.794  31.530  1.00  0.00     0.031 C 
ATOM     64  C   UNL A   1      43.253  28.040  33.602  1.00  0.00     0.037 A 
BRANCH  51  65
ATOM     65  C   UNL A   1      39.391  32.238  35.948  1.00  0.00     0.064 A 
ATOM     66  C   UNL A   1      39.917  33.516  36.189  1.00  0.00     0.173 A 
ATOM     67  C   UNL A   1      38.411  31.752  36.825  1.00  0.00     0.173 A 
ATOM     68  F   UNL A   1      40.864  34.020  35.384  1.00  0.00    -0.203 F 
ATOM     69  C   UNL A   1      39.484  34.273  37.275  1.00  0.00     0.198 A 
ATOM     70  C   UNL A   1      37.965  32.520  37.896  1.00  0.00     0.198 A 
ATOM     71  F   UNL A   1      37.874  30.537  36.632  1.00  0.00    -0.203 F 
ATOM     72  F   UNL A   1      40.019  35.481  37.503  1.00  0.00    -0.200 F 
ATOM     73  C   UNL A   1      38.505  33.779  38.122  1.00  0.00     0.200 A 
ATOM     74  F   UNL A   1      37.010  32.047  38.708  1.00  0.00    -0.200 F 
ATOM     75  F   UNL A   1      38.080  34.513  39.159  1.00  0.00    -0.200 F 
ENDBRANCH  51  65
BRANCH  52  76
ATOM     76  C   UNL A   1      41.827  27.043  27.809  1.00  0.00     0.064 A 
ATOM     77  C   UNL A   1      41.312  25.766  27.547  1.00  0.00     0.173 A 
ATOM     78  C   UNL A   1      42.756  27.571  26.900  1.00  0.00     0.173 A 
ATOM     79  F   UNL A   1      40.441  25.209  28.400  1.00  0.00    -0.203 F 
ATOM     80  C   UNL A   1      41.726  25.038  26.434  1.00  0.00     0.198 A 
ATOM     81  C   UNL A   1      43.148  26.855  25.773  1.00  0.00     0.198 A 
ATOM     82  F   UNL A   1      43.279  28.789  27.107  1.00  0.00    -0.203 F 
ATOM     83  F   UNL A   1      41.255  23.800  26.233  1.00  0.00    -0.200 F 
ATOM     84  C   UNL A   1      42.640  25.585  25.545  1.00  0.00     0.200 A 
ATOM     85  F   UNL A   1      44.021  27.392  24.910  1.00  0.00    -0.200 F 
ATOM     86  F   UNL A   1      43.038  24.884  24.475  1.00  0.00    -0.200 F 
ENDBRANCH  52  76
BRANCH  64  87
ATOM     87  C   UNL A   1      44.382  27.320  34.280  1.00  0.00     0.064 A 
ATOM     88  C   UNL A   1      45.666  27.879  34.358  1.00  0.00     0.173 A 
ATOM     89  C   UNL A   1      44.166  26.077  34.892  1.00  0.00     0.173 A 
ATOM     90  F   UNL A   1      45.925  29.058  33.775  1.00  0.00    -0.203 F 
ATOM     91  C   UNL A   1      46.699  27.206  35.007  1.00  0.00     0.198 A 
ATOM     92  C   UNL A   1      45.195  25.419  35.560  1.00  0.00     0.198 A 
ATOM     93  F   UNL A   1      42.954  25.504  34.850  1.00  0.00    -0.203 F 
ATOM     94  F   UNL A   1      47.928  27.739  35.033  1.00  0.00    -0.200 F 
ATOM     95  C   UNL A   1      46.462  25.981  35.612  1.00  0.00     0.200 A 
ATOM     96  F   UNL A   1      44.962  24.241  36.153  1.00  0.00    -0.200 F 
ATOM     97  F   UNL A   1      47.456  25.338  36.238  1.00  0.00    -0.200 F 
ENDBRANCH  64  87
ENDBRANCH  38  39
ENDBRANCH  31  33
ENDBRANCH  30  31
ENDBRANCH  29  30
ENDBRANCH  28  29
ENDBRANCH  27  28
ENDBRANCH   1  27
TORSDOF 18
ENDMDL
MODEL 2
REMARK VINA RESULT:     -11.7      1.322      2.343
REMARK SMILES COc1ccc(NC(=O)[C@@H]2[C@@H](C(=O)OCCOCCOC(=O)c3ccc(-c4c5nc(c(-c6c(F)c(F)c(F)c(F)c6F)c6ccc([nH]6)c(-c6c(F)c(F)c(F)c(F)c6F)c6nc(c(-c7c(F)c(F)c(F)c(F)c7F)c7ccc4[nH]7)C=C6)C=C5)cc3)[C@H]3C=C[C@@H]2C3)cc1O
REMARK SMILES IDX 16 1 15 2 14 3 12 4 13 5 11 6 10 7 89 8 86 9 88 10 90 11
REMARK SMILES IDX 87 12 8 13 7 14 9 16 6 17 3 18 4 19 92 20 5 21 91 22 2 23
REMARK SMILES IDX 1 24 93 25 17 27 18 28 19 29 20 30 21 31 22 32 23 33 24 34
REMARK SMILES IDX 85 35 25 36 84 37 26 38 27 39 28 40 78 41 29 42 83 43 77 44
REMARK SMILES IDX 79 45 30 46 82 47 76 48 75 49 31 51 63 52 43 53 62 54 44 55
REMARK SMILES IDX 47 56 61 57 80 58 45 59 46 60 60 62 81 63 48 64 32 65 33 66
REMARK SMILES IDX 41 67 34 68 35 69 39 70 42 71 36 72 37 73 40 74 38 75 64 76
REMARK SMILES IDX 65 77 73 78 66 79 67 80 71 81 74 82 68 83 69 84 72 85 70 86
REMARK SMILES IDX 49 87 50 88 58 89 51 90 52 91 56 92 59 93 53 94 54 95 57 96
REMARK SMILES IDX 55 97
REMARK H PARENT 7 15 93 26 79 50 47 61
REMARK Flexibility Score: inf
ROOT
ATOM      1  C   UNL A   1      31.777  27.974  26.959  1.00  0.00     0.202 C 
ENDROOT
BRANCH   1   2
ATOM      2  C   UNL A   1      31.172  26.638  26.511  1.00  0.00     0.261 C 
BRANCH   2   3
ATOM      3  O   UNL A   1      31.811  25.568  27.228  1.00  0.00    -0.463 OA
BRANCH   3   4
ATOM      4  C   UNL A   1      31.534  24.308  26.816  1.00  0.00     0.310 C 
ATOM      5  O   UNL A   1      30.606  23.635  27.250  1.00  0.00    -0.252 OA
BRANCH   4   6
ATOM      6  C   UNL A   1      32.469  23.835  25.710  1.00  0.00     0.119 C 
ATOM      7  C   UNL A   1      32.211  22.431  25.046  1.00  0.00     0.100 C 
ATOM      8  C   UNL A   1      33.549  21.681  25.387  1.00  0.00     0.025 C 
ATOM      9  C   UNL A   1      33.885  23.672  26.334  1.00  0.00     0.027 C 
ATOM     10  C   UNL A   1      33.630  21.450  26.875  1.00  0.00    -0.027 C 
ATOM     11  C   UNL A   1      34.577  22.819  25.275  1.00  0.00     0.017 C 
ATOM     12  C   UNL A   1      33.841  22.644  27.447  1.00  0.00    -0.027 C 
BRANCH   7  13
ATOM     13  C   UNL A   1      32.054  22.420  23.518  1.00  0.00     0.228 C 
ATOM     14  N   UNL A   1      31.644  23.461  22.754  1.00  0.00    -0.326 N 
ATOM     15  H   UNL A   1      31.642  23.238  21.796  1.00  0.00     0.169 HD
ATOM     16  O   UNL A   1      32.307  21.390  22.876  1.00  0.00    -0.274 OA
BRANCH  14  17
ATOM     17  C   UNL A   1      31.221  24.773  22.985  1.00  0.00     0.045 A 
ATOM     18  C   UNL A   1      30.109  27.350  23.217  1.00  0.00     0.160 A 
ATOM     19  C   UNL A   1      31.452  27.190  22.887  1.00  0.00     0.052 A 
ATOM     20  C   UNL A   1      29.357  26.211  23.506  1.00  0.00     0.159 A 
ATOM     21  C   UNL A   1      32.008  25.902  22.811  1.00  0.00     0.030 A 
ATOM     22  C   UNL A   1      29.901  24.937  23.413  1.00  0.00     0.076 A 
BRANCH  18  23
ATOM     23  O   UNL A   1      29.418  28.530  23.252  1.00  0.00    -0.493 OA
ATOM     24  C   UNL A   1      29.733  29.473  22.237  1.00  0.00     0.278 C 
ENDBRANCH  18  23
BRANCH  20  25
ATOM     25  O   UNL A   1      28.045  26.325  23.876  1.00  0.00    -0.504 OA
ATOM     26  H   UNL A   1      27.378  26.393  23.221  1.00  0.00     0.293 HD
ENDBRANCH  20  25
ENDBRANCH  14  17
ENDBRANCH   7  13
ENDBRANCH   4   6
ENDBRANCH   3   4
ENDBRANCH   2   3
ENDBRANCH   1   2
BRANCH   1  27
ATOM     27  O   UNL A   1      32.685  28.577  26.034  1.00  0.00    -0.374 OA
BRANCH  27  28
ATOM     28  C   UNL A   1      32.215  29.713  25.313  1.00  0.00     0.202 C 
BRANCH  28  29
ATOM     29  C   UNL A   1      31.820  30.935  26.150  1.00  0.00     0.261 C 
BRANCH  29  30
ATOM     30  O   UNL A   1      32.473  31.009  27.432  1.00  0.00    -0.460 OA
BRANCH  30  31
ATOM     31  C   UNL A   1      33.362  32.025  27.534  1.00  0.00     0.338 C 
ATOM     32  O   UNL A   1      33.126  33.225  27.471  1.00  0.00    -0.246 OA
BRANCH  31  33
ATOM     33  C   UNL A   1      34.723  31.536  27.811  1.00  0.00     0.060 A 
ATOM     34  C   UNL A   1      34.875  30.171  28.080  1.00  0.00     0.016 A 
ATOM     35  C   UNL A   1      35.789  32.418  28.006  1.00  0.00     0.016 A 
ATOM     36  C   UNL A   1      36.074  29.692  28.608  1.00  0.00     0.010 A 
ATOM     37  C   UNL A   1      36.993  31.935  28.539  1.00  0.00     0.010 A 
ATOM     38  C   UNL A   1      37.125  30.579  28.886  1.00  0.00    -0.014 A 
BRANCH  38  39
ATOM     39  C   UNL A   1      38.299  30.097  29.659  1.00  0.00     0.031 A 
ATOM     40  C   UNL A   1      38.517  30.586  31.067  1.00  0.00     0.074 A 
ATOM     41  C   UNL A   1      39.141  29.189  29.135  1.00  0.00     0.049 A 
ATOM     42  N   UNL A   1      39.476  30.295  31.908  1.00  0.00    -0.248 NA
ATOM     43  C   UNL A   1      37.518  31.528  31.596  1.00  0.00     0.031 C 
ATOM     44  C   UNL A   1      39.029  28.618  27.796  1.00  0.00     0.029 A 
ATOM     45  N   UNL A   1      40.257  28.588  29.665  1.00  0.00    -0.354 N 
ATOM     46  C   UNL A   1      39.198  31.012  33.064  1.00  0.00     0.074 A 
ATOM     47  C   UNL A   1      37.995  31.775  32.808  1.00  0.00     0.031 C 
ATOM     48  C   UNL A   1      40.037  27.751  27.605  1.00  0.00     0.029 A 
ATOM     49  C   UNL A   1      40.883  27.729  28.797  1.00  0.00     0.049 A 
ATOM     50  H   UNL A   1      40.576  28.758  30.581  1.00  0.00     0.167 HD
ATOM     51  C   UNL A   1      39.877  31.024  34.237  1.00  0.00     0.037 A 
ATOM     52  C   UNL A   1      42.023  27.026  28.939  1.00  0.00     0.037 A 
ATOM     53  C   UNL A   1      41.076  30.271  34.497  1.00  0.00     0.049 A 
ATOM     54  C   UNL A   1      42.791  27.103  30.233  1.00  0.00     0.074 A 
ATOM     55  C   UNL A   1      41.836  30.230  35.655  1.00  0.00     0.029 A 
ATOM     56  N   UNL A   1      41.692  29.427  33.587  1.00  0.00    -0.354 N 
ATOM     57  N   UNL A   1      42.511  27.774  31.323  1.00  0.00    -0.248 NA
ATOM     58  C   UNL A   1      44.035  26.322  30.316  1.00  0.00     0.031 C 
ATOM     59  C   UNL A   1      42.930  29.386  35.433  1.00  0.00     0.029 A 
ATOM     60  C   UNL A   1      42.828  28.870  34.151  1.00  0.00     0.049 A 
ATOM     61  H   UNL A   1      41.369  29.249  32.674  1.00  0.00     0.167 HD
ATOM     62  C   UNL A   1      43.527  27.482  32.223  1.00  0.00     0.074 A 
ATOM     63  C   UNL A   1      44.422  26.558  31.561  1.00  0.00     0.031 C 
ATOM     64  C   UNL A   1      43.703  27.941  33.486  1.00  0.00     0.037 A 
BRANCH  51  65
ATOM     65  C   UNL A   1      39.343  31.891  35.337  1.00  0.00     0.064 A 
ATOM     66  C   UNL A   1      38.525  31.365  36.347  1.00  0.00     0.173 A 
ATOM     67  C   UNL A   1      39.701  33.244  35.416  1.00  0.00     0.173 A 
ATOM     68  F   UNL A   1      38.147  30.078  36.309  1.00  0.00    -0.203 F 
ATOM     69  C   UNL A   1      38.075  32.168  37.392  1.00  0.00     0.198 A 
ATOM     70  C   UNL A   1      39.267  34.038  36.474  1.00  0.00     0.198 A 
ATOM     71  F   UNL A   1      40.487  33.792  34.476  1.00  0.00    -0.203 F 
ATOM     72  F   UNL A   1      37.271  31.652  38.333  1.00  0.00    -0.200 F 
ATOM     73  C   UNL A   1      38.451  33.500  37.459  1.00  0.00     0.200 A 
ATOM     74  F   UNL A   1      39.641  35.323  36.544  1.00  0.00    -0.200 F 
ATOM     75  F   UNL A   1      38.027  34.269  38.471  1.00  0.00    -0.200 F 
ENDBRANCH  51  65
BRANCH  52  76
ATOM     76  C   UNL A   1      42.531  26.198  27.813  1.00  0.00     0.064 A 
ATOM     77  C   UNL A   1      43.468  26.705  26.903  1.00  0.00     0.173 A 
ATOM     78  C   UNL A   1      42.063  24.892  27.610  1.00  0.00     0.173 A 
ATOM     79  F   UNL A   1      43.925  27.959  27.043  1.00  0.00    -0.203 F 
ATOM     80  C   UNL A   1      43.903  25.946  25.820  1.00  0.00     0.198 A 
ATOM     81  C   UNL A   1      42.520  24.123  26.543  1.00  0.00     0.198 A 
ATOM     82  F   UNL A   1      41.165  24.361  28.452  1.00  0.00    -0.203 F 
ATOM     83  F   UNL A   1      44.762  26.471  24.937  1.00  0.00    -0.200 F 
ATOM     84  C   UNL A   1      43.431  24.653  25.643  1.00  0.00     0.200 A 
ATOM     85  F   UNL A   1      42.072  22.870  26.383  1.00  0.00    -0.200 F 
ATOM     86  F   UNL A   1      43.850  23.922  24.601  1.00  0.00    -0.200 F 
ENDBRANCH  52  76
BRANCH  64  87
ATOM     87  C   UNL A   1      44.890  27.428  34.247  1.00  0.00     0.064 A 
ATOM     88  C   UNL A   1      46.117  28.108  34.239  1.00  0.00     0.173 A 
ATOM     89  C   UNL A   1      44.786  26.266  35.025  1.00  0.00     0.173 A 
ATOM     90  F   UNL A   1      46.269  29.215  33.498  1.00  0.00    -0.203 F 
ATOM     91  C   UNL A   1      47.204  27.629  34.966  1.00  0.00     0.198 A 
ATOM     92  C   UNL A   1      45.868  25.804  35.770  1.00  0.00     0.198 A 
ATOM     93  F   UNL A   1      43.633  25.584  35.071  1.00  0.00    -0.203 F 
ATOM     94  F   UNL A   1      48.379  28.271  34.911  1.00  0.00    -0.200 F 
ATOM     95  C   UNL A   1      47.078  26.482  35.735  1.00  0.00     0.200 A 
ATOM     96  F   UNL A   1      45.741  24.701  36.520  1.00  0.00    -0.200 F 
ATOM     97  F   UNL A   1      48.124  26.025  36.436  1.00  0.00    -0.200 F 
ENDBRANCH  64  87
ENDBRANCH  38  39
ENDBRANCH  31  33
ENDBRANCH  30  31
ENDBRANCH  29  30
ENDBRANCH  28  29
ENDBRANCH  27  28
ENDBRANCH   1  27
TORSDOF 18
ENDMDL
MODEL 3
REMARK VINA RESULT:     -11.7      1.684      8.033
REMARK SMILES COc1ccc(NC(=O)[C@@H]2[C@@H](C(=O)OCCOCCOC(=O)c3ccc(-c4c5nc(c(-c6c(F)c(F)c(F)c(F)c6F)c6ccc([nH]6)c(-c6c(F)c(F)c(F)c(F)c6F)c6nc(c(-c7c(F)c(F)c(F)c(F)c7F)c7ccc4[nH]7)C=C6)C=C5)cc3)[C@H]3C=C[C@@H]2C3)cc1O
REMARK SMILES IDX 16 1 15 2 14 3 12 4 13 5 11 6 10 7 89 8 86 9 88 10 90 11
REMARK SMILES IDX 87 12 8 13 7 14 9 16 6 17 3 18 4 19 92 20 5 21 91 22 2 23
REMARK SMILES IDX 1 24 93 25 17 27 18 28 19 29 20 30 21 31 22 32 23 33 24 34
REMARK SMILES IDX 85 35 25 36 84 37 26 38 27 39 28 40 78 41 29 42 83 43 77 44
REMARK SMILES IDX 79 45 30 46 82 47 76 48 75 49 31 51 63 52 43 53 62 54 44 55
REMARK SMILES IDX 47 56 61 57 80 58 45 59 46 60 60 62 81 63 48 64 32 65 33 66
REMARK SMILES IDX 41 67 34 68 35 69 39 70 42 71 36 72 37 73 40 74 38 75 64 76
REMARK SMILES IDX 65 77 73 78 66 79 67 80 71 81 74 82 68 83 69 84 72 85 70 86
REMARK SMILES IDX 49 87 50 88 58 89 51 90 52 91 56 92 59 93 53 94 54 95 57 96
REMARK SMILES IDX 55 97
REMARK H PARENT 7 15 93 26 79 50 47 61
REMARK Flexibility Score: inf
ROOT
ATOM      1  C   UNL A   1      33.156  29.631  26.250  1.00  0.00     0.202 C 
ENDROOT
BRANCH   1   2
ATOM      2  C   UNL A   1      32.962  29.499  24.734  1.00  0.00     0.261 C 
BRANCH   2   3
ATOM      3  O   UNL A   1      32.640  28.133  24.418  1.00  0.00    -0.463 OA
BRANCH   3   4
ATOM      4  C   UNL A   1      31.325  27.821  24.334  1.00  0.00     0.310 C 
ATOM      5  O   UNL A   1      30.446  28.631  24.064  1.00  0.00    -0.252 OA
BRANCH   4   6
ATOM      6  C   UNL A   1      31.060  26.338  24.558  1.00  0.00     0.119 C 
ATOM      7  C   UNL A   1      32.283  25.375  24.793  1.00  0.00     0.100 C 
ATOM      8  C   UNL A   1      32.134  24.390  23.578  1.00  0.00     0.025 C 
ATOM      9  C   UNL A   1      30.416  25.776  23.258  1.00  0.00     0.027 C 
ATOM     10  C   UNL A   1      32.403  25.132  22.294  1.00  0.00    -0.027 C 
ATOM     11  C   UNL A   1      30.605  24.276  23.460  1.00  0.00     0.017 C 
ATOM     12  C   UNL A   1      31.369  25.960  22.093  1.00  0.00    -0.027 C 
BRANCH   7  13
ATOM     13  C   UNL A   1      32.249  24.532  26.075  1.00  0.00     0.228 C 
ATOM     14  N   UNL A   1      33.224  23.690  26.499  1.00  0.00    -0.326 N 
ATOM     15  H   UNL A   1      33.002  23.272  27.361  1.00  0.00     0.169 HD
ATOM     16  O   UNL A   1      31.264  24.581  26.825  1.00  0.00    -0.274 OA
BRANCH  14  17
ATOM     17  C   UNL A   1      34.466  23.267  26.017  1.00  0.00     0.045 A 
ATOM     18  C   UNL A   1      36.983  22.205  25.335  1.00  0.00     0.160 A 
ATOM     19  C   UNL A   1      36.805  23.581  25.439  1.00  0.00     0.052 A 
ATOM     20  C   UNL A   1      35.872  21.377  25.498  1.00  0.00     0.159 A 
ATOM     21  C   UNL A   1      35.537  24.104  25.741  1.00  0.00     0.030 A 
ATOM     22  C   UNL A   1      34.622  21.893  25.816  1.00  0.00     0.076 A 
BRANCH  18  23
ATOM     23  O   UNL A   1      38.168  21.554  25.124  1.00  0.00    -0.493 OA
ATOM     24  C   UNL A   1      39.170  21.736  26.116  1.00  0.00     0.278 C 
ENDBRANCH  18  23
BRANCH  20  25
ATOM     25  O   UNL A   1      35.993  20.022  25.363  1.00  0.00    -0.504 OA
ATOM     26  H   UNL A   1      35.402  19.552  24.808  1.00  0.00     0.293 HD
ENDBRANCH  20  25
ENDBRANCH  14  17
ENDBRANCH   7  13
ENDBRANCH   4   6
ENDBRANCH   3   4
ENDBRANCH   2   3
ENDBRANCH   1   2
BRANCH   1  27
ATOM     27  O   UNL A   1      32.072  30.238  26.957  1.00  0.00    -0.374 OA
BRANCH  27  28
ATOM     28  C   UNL A   1      31.370  31.284  26.290  1.00  0.00     0.202 C 
BRANCH  28  29
ATOM     29  C   UNL A   1      31.506  32.687  26.895  1.00  0.00     0.261 C 
BRANCH  29  30
ATOM     30  O   UNL A   1      32.821  33.259  26.768  1.00  0.00    -0.460 OA
BRANCH  30  31
ATOM     31  C   UNL A   1      33.346  33.688  27.940  1.00  0.00     0.338 C 
ATOM     32  O   UNL A   1      32.868  34.515  28.708  1.00  0.00    -0.246 OA
BRANCH  31  33
ATOM     33  C   UNL A   1      34.595  32.982  28.272  1.00  0.00     0.060 A 
ATOM     34  C   UNL A   1      34.487  31.669  28.745  1.00  0.00     0.016 A 
ATOM     35  C   UNL A   1      35.820  33.650  28.317  1.00  0.00     0.016 A 
ATOM     36  C   UNL A   1      35.590  31.042  29.325  1.00  0.00     0.010 A 
ATOM     37  C   UNL A   1      36.927  33.020  28.903  1.00  0.00     0.010 A 
ATOM     38  C   UNL A   1      36.805  31.731  29.452  1.00  0.00    -0.014 A 
BRANCH  38  39
ATOM     39  C   UNL A   1      37.893  31.143  30.276  1.00  0.00     0.031 A 
ATOM     40  C   UNL A   1      38.843  30.152  29.658  1.00  0.00     0.074 A 
ATOM     41  C   UNL A   1      38.072  31.526  31.552  1.00  0.00     0.049 A 
ATOM     42  N   UNL A   1      39.854  29.520  30.200  1.00  0.00    -0.248 NA
ATOM     43  C   UNL A   1      38.627  29.831  28.238  1.00  0.00     0.031 C 
ATOM     44  C   UNL A   1      37.239  32.493  32.260  1.00  0.00     0.029 A 
ATOM     45  N   UNL A   1      39.010  31.146  32.481  1.00  0.00    -0.354 N 
ATOM     46  C   UNL A   1      40.394  28.731  29.193  1.00  0.00     0.074 A 
ATOM     47  C   UNL A   1      39.584  28.942  28.012  1.00  0.00     0.031 C 
ATOM     48  C   UNL A   1      37.700  32.631  33.514  1.00  0.00     0.029 A 
ATOM     49  C   UNL A   1      38.840  31.738  33.707  1.00  0.00     0.049 A 
ATOM     50  H   UNL A   1      39.736  30.510  32.284  1.00  0.00     0.167 HD
ATOM     51  C   UNL A   1      41.474  27.915  29.244  1.00  0.00     0.037 A 
ATOM     52  C   UNL A   1      39.514  31.560  34.860  1.00  0.00     0.037 A 
ATOM     53  C   UNL A   1      42.282  27.698  30.417  1.00  0.00     0.049 A 
ATOM     54  C   UNL A   1      40.675  30.601  34.905  1.00  0.00     0.074 A 
ATOM     55  C   UNL A   1      43.390  26.880  30.561  1.00  0.00     0.029 A 
ATOM     56  N   UNL A   1      42.068  28.300  31.646  1.00  0.00    -0.354 N 
ATOM     57  N   UNL A   1      41.184  29.872  33.943  1.00  0.00    -0.248 NA
ATOM     58  C   UNL A   1      41.357  30.443  36.199  1.00  0.00     0.031 C 
ATOM     59  C   UNL A   1      43.827  26.963  31.888  1.00  0.00     0.029 A 
ATOM     60  C   UNL A   1      43.015  27.863  32.558  1.00  0.00     0.049 A 
ATOM     61  H   UNL A   1      41.348  28.943  31.842  1.00  0.00     0.167 HD
ATOM     62  C   UNL A   1      42.253  29.187  34.508  1.00  0.00     0.074 A 
ATOM     63  C   UNL A   1      42.333  29.600  35.892  1.00  0.00     0.031 C 
ATOM     64  C   UNL A   1      43.091  28.293  33.930  1.00  0.00     0.037 A 
BRANCH  51  65
ATOM     65  C   UNL A   1      41.847  27.181  27.992  1.00  0.00     0.064 A 
ATOM     66  C   UNL A   1      42.713  27.749  27.046  1.00  0.00     0.173 A 
ATOM     67  C   UNL A   1      41.386  25.877  27.765  1.00  0.00     0.173 A 
ATOM     68  F   UNL A   1      43.172  28.998  27.214  1.00  0.00    -0.203 F 
ATOM     69  C   UNL A   1      43.093  27.039  25.909  1.00  0.00     0.198 A 
ATOM     70  C   UNL A   1      41.785  25.163  26.639  1.00  0.00     0.198 A 
ATOM     71  F   UNL A   1      40.560  25.289  28.644  1.00  0.00    -0.203 F 
ATOM     72  F   UNL A   1      43.899  27.611  25.004  1.00  0.00    -0.200 F 
ATOM     73  C   UNL A   1      42.635  25.746  25.710  1.00  0.00     0.200 A 
ATOM     74  F   UNL A   1      41.352  23.908  26.453  1.00  0.00    -0.200 F 
ATOM     75  F   UNL A   1      43.011  25.060  24.622  1.00  0.00    -0.200 F 
ENDBRANCH  51  65
BRANCH  52  76
ATOM     76  C   UNL A   1      39.094  32.288  36.086  1.00  0.00     0.064 A 
ATOM     77  C   UNL A   1      39.559  33.582  36.357  1.00  0.00     0.173 A 
ATOM     78  C   UNL A   1      38.242  31.690  37.025  1.00  0.00     0.173 A 
ATOM     79  F   UNL A   1      40.396  34.185  35.499  1.00  0.00    -0.203 F 
ATOM     80  C   UNL A   1      39.205  34.242  37.531  1.00  0.00     0.198 A 
ATOM     81  C   UNL A   1      37.866  32.362  38.186  1.00  0.00     0.198 A 
ATOM     82  F   UNL A   1      37.771  30.453  36.813  1.00  0.00    -0.203 F 
ATOM     83  F   UNL A   1      39.702  35.459  37.789  1.00  0.00    -0.200 F 
ATOM     84  C   UNL A   1      38.355  33.633  38.443  1.00  0.00     0.200 A 
ATOM     85  F   UNL A   1      37.035  31.775  39.058  1.00  0.00    -0.200 F 
ATOM     86  F   UNL A   1      38.015  34.269  39.572  1.00  0.00    -0.200 F 
ENDBRANCH  52  76
BRANCH  64  87
ATOM     87  C   UNL A   1      44.188  27.725  34.781  1.00  0.00     0.064 A 
ATOM     88  C   UNL A   1      45.436  28.356  34.887  1.00  0.00     0.173 A 
ATOM     89  C   UNL A   1      43.974  26.558  35.530  1.00  0.00     0.173 A 
ATOM     90  F   UNL A   1      45.693  29.465  34.179  1.00  0.00    -0.203 F 
ATOM     91  C   UNL A   1      46.439  27.826  35.696  1.00  0.00     0.198 A 
ATOM     92  C   UNL A   1      44.970  26.045  36.356  1.00  0.00     0.198 A 
ATOM     93  F   UNL A   1      42.796  25.921  35.468  1.00  0.00    -0.203 F 
ATOM     94  F   UNL A   1      47.637  28.422  35.750  1.00  0.00    -0.200 F 
ATOM     95  C   UNL A   1      46.203  26.675  36.434  1.00  0.00     0.200 A 
ATOM     96  F   UNL A   1      44.738  24.939  37.076  1.00  0.00    -0.200 F 
ATOM     97  F   UNL A   1      47.168  26.169  37.214  1.00  0.00    -0.200 F 
ENDBRANCH  64  87
ENDBRANCH  38  39
ENDBRANCH  31  33
ENDBRANCH  30  31
ENDBRANCH  29  30
ENDBRANCH  28  29
ENDBRANCH  27  28
ENDBRANCH   1  27
TORSDOF 18
ENDMDL
